data_PCOD9043487
_publ_section_title
;
Structure prediction by ZEFSAII (Michael W. Deem and Ramdas Pophale) SiO2 
 PCOD9043487
Probable space group: P -1
;
_chemical_formula_sum "Si O2"
_cell_formula_units_Z 12
_cell_length_a 8.465953
_cell_length_b 11.840598
_cell_length_c 14.103053
_cell_angle_alpha 149.483870
_cell_angle_beta 44.308885
_cell_angle_gamma 123.464885
_cell_volume 492.940888
_symmetry_space_group_name_H-M "P -1"
_symmetry_group_IT_number 2
_symmetry_cell_setting 'triclinic'
loop_
_space_group_symop_operation_xyz
x,y,z
-x,-y,-z
loop_
_atom_site_type_symbol
_atom_site_label
_atom_site_fract_x
_atom_site_fract_y
_atom_site_fract_z
Si Si1 0.205134 0.267664 0.306971
Si Si2 0.050988 0.556315 0.911860
Si Si3 0.472937 0.309665 0.797063
Si Si4 0.713238 0.282746 0.472684
Si Si5 0.672602 0.938597 0.577722
Si Si6 0.366855 0.874662 0.081550
O O1 0.219117 0.529881 0.492642
O O2 0.958515 0.202363 0.356315
O O3 0.321194 0.126774 0.242580
O O4 0.361192 0.201053 0.099128
O O5 0.163153 0.302515 0.646276
O O6 0.240130 0.718215 0.955834
O O7 0.000000 0.500000 0.000000
O O8 0.802926 0.683603 0.073347
O O9 0.545746 0.354269 0.689138
O O10 0.644392 0.080100 0.593262
O O11 0.500000 0.500000 0.000000
O O12 0.582528 0.121063 0.352508
O O13 0.717618 0.110225 0.764114
#
# Coordination Sequence:
#
# PCOD9043487 Si02
#       6
#     2   2   2   2   2   2
#     4  10  23  45  71  92 149 182 232 293 328 424
#     4  12  25  46  71 106 145 178 234 293 347 422
#     4  12  27  46  73 108 143 181 232 294 357 414
#     4  11  23  46  67 104 138 187 234 281 353 412
#     4  12  26  45  75 106 139 186 231 292 358 408
#     4  11  25  47  69 107 136 187 236 284 353 409
#
# _framework density 24.343689000000001
#
# number of rings (size 3 to 8) (size 9 to 14) (size 15 to 20)
#    0.000    0.667    3.333    3.500    4.667    2.667 
#    0.000    0.000    0.000    0.000    0.000    0.000 
#    0.000    0.000    0.000    0.000    0.000    0.000 
#
# Total GULP energy -66911.782910 kJ/mol
# GULP energy per Si atom -5575.981909 kJ/mol
# Density = 2.428828 g / cm^3
# Si number density = 24.343689 Si / 1000 Ang^3
#
#
#
# Elastic Constant Matrix: (Units=GPa)
#
#
# Indices 1 2 3 4 5 6 
#
# 1 63.7320 31.4354 31.7773 0.7367 -0.6520 25.9458
# 2 31.4354 84.4334 26.0270 2.2503 -10.0924 11.6338
# 3 31.7773 26.0270 72.9319 0.7468 -8.3135 16.7358
# 4 0.7367 2.2503 0.7468 31.2261 0.7804 -15.3842
# 5 -0.6520 -10.0924 -8.3135 0.7804 34.6504 3.4915
# 6 25.9458 11.6338 16.7358 -15.3842 3.4915 49.5085
#
#
#
# Elastic Compliance Matrix: (Units=1/GPa)
#
#
# Indices 1 2 3 4 5 6 
#
# 1 0.027337 -0.006387 -0.006953 -0.005999 -0.001647 -0.012223
# 2 -0.006387 0.015420 -0.002240 -0.001064 0.003870 -0.000123
# 3 -0.006953 -0.002240 0.018696 -0.001679 0.004038 -0.002956
# 4 -0.005999 -0.001064 -0.001679 0.040666 -0.003438 0.016840
# 5 -0.001647 0.003870 0.004038 -0.003438 0.031476 -0.004699
# 6 -0.012223 -0.000123 -0.002956 0.016840 -0.004699 0.033197
#
#
# Mechanical properties :
#
#
# Convention : Reuss Voigt Hill
#
# Bulk Modulus (GPa) = 33.01131 44.39740 38.70436
# Shear Modulus (GPa) = 24.03289 31.86750 27.95020
#
# Velocity S-wave (km/s) = 3.14543 3.62203 3.39211
# Velocity P-wave (km/s) = 5.17510 5.98076 5.59245
#
# Compressibility (1/GPa) = 0.03029265
#
# Stress axis : x y z
#
# Youngs Moduli (GPa) = 36.58102 64.85115 53.48702
#
# Poissons Ratio (x) = 0.41422 0.37190
# Poissons Ratio (y) = 0.23365 0.11979
# Poissons Ratio (z) = 0.25435 0.14525
#
# Static dielectric constant tensor:
#      x y z
#    x 1.945850 0.009480 -0.052040 
#    y 0.009480 1.930460 0.041240 
#    z -0.052040 0.041240 2.134230 
# 
# From -- ./inp_files/291643.got.cif
#   From: 2010.05.17/outbox.cif.g08.bks.cpg/sg2_146_cif.got.tgz:291643.got - 2010.06.03 11:33:40.
