data_PCOD9043429
_publ_section_title
;
Structure prediction by ZEFSAII (Michael W. Deem and Ramdas Pophale) SiO2 
 PCOD9043429
Probable space group: P -1
;
_chemical_formula_sum "Si O2"
_cell_formula_units_Z 16
_cell_length_a 31.852388
_cell_length_b 13.473762
_cell_length_c 10.255327
_cell_angle_alpha 38.888192
_cell_angle_beta 149.537334
_cell_angle_gamma 161.198279
_cell_volume 699.860205
_symmetry_space_group_name_H-M "P -1"
_symmetry_group_IT_number 2
_symmetry_cell_setting 'triclinic'
loop_
_space_group_symop_operation_xyz
x,y,z
-x,-y,-z
loop_
_atom_site_type_symbol
_atom_site_label
_atom_site_fract_x
_atom_site_fract_y
_atom_site_fract_z
Si Si1 0.917325 0.169465 0.990987
Si Si2 0.967896 0.707026 0.545191
Si Si3 0.051574 0.753266 0.441723
Si Si4 0.178563 0.536079 0.086488
Si Si5 0.310351 0.525907 0.905920
Si Si6 0.705296 0.550908 0.355276
Si Si7 0.624735 0.848126 0.137946
Si Si8 0.610197 0.836955 0.420793
O O1 0.995792 0.307380 0.202799
O O2 0.059609 0.392274 0.034870
O O3 0.808143 0.826465 0.040583
O O4 0.784633 0.090502 0.695708
O O5 0.998133 0.663215 0.539276
O O6 0.790688 0.497116 0.282839
O O7 0.110108 0.076659 0.539181
O O8 0.000000 0.500000 0.500000
O O9 0.250829 0.090582 0.621419
O O10 0.947587 0.703737 0.126729
O O11 0.286437 0.566430 0.391099
O O12 0.299058 0.875867 0.016175
O O13 0.332562 0.586964 0.747191
O O14 0.485823 0.773505 0.187023
O O15 0.569978 0.467014 0.093361
O O16 0.638682 0.892542 0.285369
O O17 0.500000 0.500000 0.500000
#
# Coordination Sequence:
#
# PCOD9043429 Si02
#       8
#     2   2   2   2   2   2   2   2
#     4  10  17  33  60  92 116 153 203 236 294 356
#     4  11  20  37  62  89 119 155 200 251 288 344
#     4  10  24  41  57  82 123 163 194 245 303 351
#     4  11  19  36  60  85 123 161 192 234 296 364
#     4   9  17  33  57  91 123 146 197 251 295 340
#     4  10  19  35  60  92 119 152 197 246 292 352
#     4  10  21  36  57  85 123 162 189 238 304 348
#     4   9  18  32  58  87 120 159 193 242 288 350
#
# _framework density 22.861709999999999
#
# number of rings (size 3 to 8) (size 9 to 14) (size 15 to 20)
#    0.000    2.000    3.750    1.875    0.000    1.000 
#    0.000    3.750    0.000   12.000    0.000    0.000 
#    0.000    0.000    0.000    0.000    0.000    0.000 
#
# Total GULP energy -89380.234775 kJ/mol
# GULP energy per Si atom -5586.264673 kJ/mol
# Density = 2.280968 g / cm^3
# Si number density = 22.861710 Si / 1000 Ang^3
#
#
#
# Elastic Constant Matrix: (Units=GPa)
#
#
# Indices 1 2 3 4 5 6 
#
# 1 83.5650 9.8699 35.3622 16.5094 -0.8147 27.5451
# 2 9.8699 68.9653 26.3920 0.6695 -9.1420 23.5516
# 3 35.3622 26.3920 151.7127 18.9644 18.3387 19.7523
# 4 16.5094 0.6695 18.9644 42.2536 16.4069 0.3803
# 5 -0.8147 -9.1420 18.3387 16.4069 31.7354 -0.0615
# 6 27.5451 23.5516 19.7523 0.3803 -0.0615 30.2352
#
#
#
# Elastic Compliance Matrix: (Units=1/GPa)
#
#
# Indices 1 2 3 4 5 6 
#
# 1 0.023044 0.008038 -0.003390 -0.011581 0.010805 -0.024873
# 2 0.008038 0.024788 -0.003787 -0.006633 0.012918 -0.024048
# 3 -0.003390 -0.003787 0.008766 -0.000161 -0.006160 0.000301
# 4 -0.011581 -0.006633 -0.000161 0.036335 -0.020870 0.015324
# 5 0.010805 0.012918 -0.006160 -0.020870 0.049828 -0.015518
# 6 -0.024873 -0.024048 0.000301 0.015324 -0.015518 0.074045
#
#
# Mechanical properties :
#
#
# Convention : Reuss Voigt Hill
#
# Bulk Modulus (GPa) = 17.14666 49.72124 33.43395
# Shear Modulus (GPa) = 21.31982 36.35277 28.83629
#
# Velocity S-wave (km/s) = 3.05709 3.99195 3.55538
# Velocity P-wave (km/s) = 4.46962 6.56075 5.61342
#
# Compressibility (1/GPa) = 0.05832041
#
# Stress axis : x y z
#
# Youngs Moduli (GPa) = 43.39550 40.34192 114.07998
#
# Poissons Ratio (x) = -0.32427 0.38668
# Poissons Ratio (y) = -0.34882 0.43204
# Poissons Ratio (z) = 0.14709 0.15278
#
# Static dielectric constant tensor:
#      x y z
#    x 1.828660 -0.033300 0.046440 
#    y -0.033300 1.886640 0.009510 
#    z 0.046440 0.009510 1.898960 
# 
# From -- ./inp_files/302674.got.cif
#   From: 2010.05.17/outbox.cif.g08.bks.cpg/sg2_152_cif.got.tgz:302674.got - 2010.06.03 11:33:40.
