data_PCOD9043443
_publ_section_title
;
Structure prediction by ZEFSAII (Michael W. Deem and Ramdas Pophale) SiO2 
 PCOD9043443
Probable space group: P -1
;
_chemical_formula_sum "Si O2"
_cell_formula_units_Z 12
_cell_length_a 8.110557
_cell_length_b 16.004579
_cell_length_c 5.531694
_cell_angle_alpha 60.366745
_cell_angle_beta 53.797088
_cell_angle_gamma 64.276044
_cell_volume 493.203147
_symmetry_space_group_name_H-M "P -1"
_symmetry_group_IT_number 2
_symmetry_cell_setting 'triclinic'
loop_
_space_group_symop_operation_xyz
x,y,z
-x,-y,-z
loop_
_atom_site_type_symbol
_atom_site_label
_atom_site_fract_x
_atom_site_fract_y
_atom_site_fract_z
Si Si1 0.895966 0.771319 0.151070
Si Si2 0.350536 0.374135 0.237651
Si Si3 0.868033 0.109811 0.495535
Si Si4 0.510860 0.939123 0.332619
Si Si5 0.716984 0.258748 0.788917
Si Si6 0.340186 0.559662 0.746148
O O1 0.790731 0.677945 0.394207
O O2 0.724649 0.860561 0.274796
O O3 0.106013 0.747475 0.156150
O O4 0.967168 0.819540 0.780526
O O5 0.530444 0.403320 0.204401
O O6 0.482391 0.299546 0.033553
O O7 0.230789 0.475275 0.072234
O O8 0.682903 0.115496 0.452761
O O9 0.748479 0.153554 0.778713
O O10 0.000000 0.000000 0.500000
O O11 0.500000 0.000000 0.500000
O O12 0.500000 0.000000 0.000000
O O13 0.763807 0.342713 0.443012
O O14 0.500000 0.500000 0.500000
#
# Coordination Sequence:
#
# PCOD9043443 Si02
#       6
#     2   2   2   2   2   2
#     4  12  26  41  71 102 141 186 241 300 366 432
#     4  10  23  45  71 103 139 187 237 294 368 431
#     4  12  27  47  68 102 143 188 245 301 360 433
#     4  12  28  48  74 102 144 197 251 306 372 434
#     4  11  24  43  72 102 142 185 236 299 361 440
#     4   9  20  44  72  99 141 182 233 297 359 440
#
# _framework density 24.330743999999999
#
# number of rings (size 3 to 8) (size 9 to 14) (size 15 to 20)
#    0.000    1.000    1.667    4.000    4.667    4.667 
#    0.000   11.667    0.000    0.000    0.000    0.000 
#    0.000    0.000    0.000    0.000    0.000    0.000 
#
# Total GULP energy -67028.746229 kJ/mol
# GULP energy per Si atom -5585.728852 kJ/mol
# Density = 2.427537 g / cm^3
# Si number density = 24.330744 Si / 1000 Ang^3
#
#
#
# Elastic Constant Matrix: (Units=GPa)
#
#
# Indices 1 2 3 4 5 6 
#
# 1 39.0981 9.6273 9.2732 1.9637 -5.3192 -5.4368
# 2 9.6273 130.4034 46.1304 7.2224 -1.6035 -0.1429
# 3 9.2732 46.1304 126.1300 -33.1674 -12.9184 8.6193
# 4 1.9637 7.2224 -33.1674 50.7940 1.8581 11.8001
# 5 -5.3192 -1.6035 -12.9184 1.8581 37.6557 -3.0200
# 6 -5.4368 -0.1429 8.6193 11.8001 -3.0200 41.1658
#
#
#
# Elastic Compliance Matrix: (Units=1/GPa)
#
#
# Indices 1 2 3 4 5 6 
#
# 1 0.027986 -0.000711 -0.002994 -0.004427 0.003583 0.005852
# 2 -0.000711 0.009855 -0.005227 -0.005328 -0.001012 0.002488
# 3 -0.002994 -0.005227 0.013736 0.011175 0.003012 -0.006272
# 4 -0.004427 -0.005328 0.011175 0.030606 0.000535 -0.011677
# 5 0.003583 -0.001012 0.003012 0.000535 0.028167 0.001752
# 6 0.005852 0.002488 -0.006272 -0.011677 0.001752 0.029863
#
#
# Mechanical properties :
#
#
# Convention : Reuss Voigt Hill
#
# Bulk Modulus (GPa) = 29.66289 47.29927 38.48108
# Shear Modulus (GPa) = 29.53077 41.29648 35.41363
#
# Velocity S-wave (km/s) = 3.48763 4.12430 3.81925
# Velocity P-wave (km/s) = 5.33255 6.49323 5.94130
#
# Compressibility (1/GPa) = 0.03371215
#
# Stress axis : x y z
#
# Youngs Moduli (GPa) = 35.73255 101.46770 72.80219
#
# Poissons Ratio (x) = 0.07216 0.21800
# Poissons Ratio (y) = 0.02541 0.38052
# Poissons Ratio (z) = 0.10700 0.53035
#
# Static dielectric constant tensor:
#      x y z
#    x 1.877300 -0.010160 0.023850 
#    y -0.010160 1.953370 -0.063870 
#    z 0.023850 -0.063870 2.126940 
# 
# From -- ./inp_files/35320.got.cif
#   From: 2010.05.17/outbox.cif.g08.bks.cpg/sg2_18_cif.got.tgz:35320.got - 2010.06.03 11:33:40.
