data_PCOD9043179
_publ_section_title
;
Structure prediction by ZEFSAII (Michael W. Deem and Ramdas Pophale) SiO2 
 PCOD9043179
Probable space group: P -1
;
_chemical_formula_sum "Si O2"
_cell_formula_units_Z 16
_cell_length_a 6.606356
_cell_length_b 16.138054
_cell_length_c 14.406563
_cell_angle_alpha 143.495177
_cell_angle_beta 69.297312
_cell_angle_gamma 126.156173
_cell_volume 714.063971
_symmetry_space_group_name_H-M "P -1"
_symmetry_group_IT_number 2
_symmetry_cell_setting 'triclinic'
loop_
_space_group_symop_operation_xyz
x,y,z
-x,-y,-z
loop_
_atom_site_type_symbol
_atom_site_label
_atom_site_fract_x
_atom_site_fract_y
_atom_site_fract_z
Si Si1 0.010903 0.225145 0.868772
Si Si2 0.095543 0.783361 0.334605
Si Si3 0.700517 0.721905 0.847816
Si Si4 0.876879 0.456956 0.191143
Si Si5 0.672091 0.920582 0.310188
Si Si6 0.841142 0.456581 0.581493
Si Si7 0.580786 0.071468 0.282118
Si Si8 0.256556 0.993983 0.995389
O O1 0.024373 0.244646 0.772752
O O2 0.230792 0.196507 0.838318
O O3 0.727266 0.063841 0.796173
O O4 0.025972 0.382610 0.052001
O O5 0.382341 0.820109 0.306347
O O6 0.947132 0.626751 0.284932
O O7 0.139437 0.947247 0.523822
O O8 0.430315 0.672575 0.891685
O O9 0.699435 0.555721 0.689306
O O10 0.986866 0.856326 0.962330
O O11 0.707500 0.827082 0.851349
O O12 0.962726 0.482839 0.308043
O O13 0.670850 0.026263 0.319861
O O14 0.647875 0.257996 0.442414
O O15 0.000000 0.500000 0.500000
O O16 0.734916 0.057404 0.158684
O O17 0.500000 0.000000 0.000000
#
# Coordination Sequence:
#
# PCOD9043179 Si02
#       8
#     2   2   2   2   2   2   2   2
#     4  11  25  42  75 102 136 183 238 284 355 418
#     4  10  23  45  69 104 143 174 238 286 352 423
#     4  11  26  43  71  99 138 184 234 285 352 401
#     4  12  26  46  69 107 143 180 234 299 344 415
#     4  10  23  45  71 103 138 186 226 291 351 420
#     4  12  27  46  65 101 144 188 235 286 346 415
#     4  11  24  44  67 102 138 181 238 278 350 422
#     4  11  24  48  70 101 139 186 234 290 340 421
#
# _framework density 22.406956000000001
#
# number of rings (size 3 to 8) (size 9 to 14) (size 15 to 20)
#    0.000    1.000    3.750    1.500    3.500    3.000 
#    0.000    0.000    0.000    0.000    0.000    0.000 
#    0.000    0.000    0.000    0.000    0.000    0.000 
#
# Total GULP energy -89491.582047 kJ/mol
# GULP energy per Si atom -5593.223878 kJ/mol
# Density = 2.235596 g / cm^3
# Si number density = 22.406956 Si / 1000 Ang^3
#
#
#
# Elastic Constant Matrix: (Units=GPa)
#
#
# Indices 1 2 3 4 5 6 
#
# 1 84.5659 30.0291 23.9872 6.7550 -19.9069 -9.1261
# 2 30.0291 85.3745 20.1800 3.3999 5.4091 -11.1897
# 3 23.9872 20.1800 47.5316 2.8072 -7.7289 -13.1331
# 4 6.7550 3.3999 2.8072 41.6835 -9.4742 -4.0705
# 5 -19.9069 5.4091 -7.7289 -9.4742 42.2670 -3.1555
# 6 -9.1261 -11.1897 -13.1331 -4.0705 -3.1555 21.7740
#
#
#
# Elastic Compliance Matrix: (Units=1/GPa)
#
#
# Indices 1 2 3 4 5 6 
#
# 1 0.017116 -0.005121 -0.004257 0.000105 0.008199 0.003182
# 2 -0.005121 0.015123 -0.003981 -0.001083 -0.005148 0.002276
# 3 -0.004257 -0.003981 0.029907 0.001750 0.005510 0.015334
# 4 0.000105 -0.001083 0.001750 0.026126 0.006844 0.006419
# 5 0.008199 -0.005148 0.005510 0.006844 0.031464 0.009954
# 6 0.003182 0.002276 0.015334 0.006419 0.009954 0.060321
#
#
# Mechanical properties :
#
#
# Convention : Reuss Voigt Hill
#
# Bulk Modulus (GPa) = 28.22615 40.65165 34.43890
# Shear Modulus (GPa) = 22.87458 30.69661 26.78560
#
# Velocity S-wave (km/s) = 3.19857 3.70531 3.46123
# Velocity P-wave (km/s) = 5.12499 6.04050 5.60148
#
# Compressibility (1/GPa) = 0.03542815
#
# Stress axis : x y z
#
# Youngs Moduli (GPa) = 58.42423 66.12593 33.43747
#
# Poissons Ratio (x) = 0.33860 0.14236
# Poissons Ratio (y) = 0.29917 0.13310
# Poissons Ratio (z) = 0.24874 0.26322
#
# Static dielectric constant tensor:
#      x y z
#    x 1.818640 -0.012730 0.028830 
#    y -0.012730 1.820890 -0.004780 
#    z 0.028830 -0.004780 1.835660 
# 
# From -- ./inp_files/484458.got.cif
#   From: 2010.05.17/outbox.cif.g08.bks.cpg/sg2_243_cif.got.tgz:484458.got - 2010.06.03 11:33:40.
