data_PCOD9043848
_publ_section_title
;
Structure prediction by ZEFSAII (Michael W. Deem and Ramdas Pophale) SiO2 
 PCOD9043848
Probable space group: P -1
;
_chemical_formula_sum "Si O2"
_cell_formula_units_Z 14
_cell_length_a 12.174752
_cell_length_b 13.885884
_cell_length_c 5.196305
_cell_angle_alpha 71.788318
_cell_angle_beta 94.455726
_cell_angle_gamma 44.124381
_cell_volume 516.847049
_symmetry_space_group_name_H-M "P -1"
_symmetry_group_IT_number 2
_symmetry_cell_setting 'triclinic'
loop_
_space_group_symop_operation_xyz
x,y,z
-x,-y,-z
loop_
_atom_site_type_symbol
_atom_site_label
_atom_site_fract_x
_atom_site_fract_y
_atom_site_fract_z
Si Si1 0.935770 0.214443 0.724636
Si Si2 0.800064 0.869572 0.792402
Si Si3 0.204435 0.860068 0.916055
Si Si4 0.636381 0.817983 0.085997
Si Si5 0.291398 0.439902 0.595561
Si Si6 0.414244 0.776072 0.542751
Si Si7 0.045959 0.381026 0.315940
O O1 0.761090 0.407246 0.463697
O O2 0.876891 0.188827 0.981762
O O3 0.040567 0.058330 0.693975
O O4 0.089689 0.174967 0.903743
O O5 0.939038 0.741821 0.704373
O O6 0.653004 0.060156 0.560193
O O7 0.717504 0.817979 0.860380
O O8 0.335631 0.769894 0.772741
O O9 0.311583 0.812476 0.235804
O O10 0.583291 0.739155 0.105322
O O11 0.773810 0.722980 0.423836
O O12 0.500000 0.000000 0.000000
O O13 0.379301 0.381409 0.374870
O O14 0.107554 0.519288 0.582574
O O15 0.000000 0.500000 0.000000
#
# Coordination Sequence:
#
# PCOD9043848 Si02
#       7
#     2   2   2   2   2   2   2
#     4  10  23  45  77  99 141 188 247 309 369 437
#     4  11  23  44  69 100 141 192 239 297 368 452
#     4  10  25  49  71 106 141 191 250 310 373 442
#     4  12  25  46  67 104 151 190 243 298 372 448
#     4  12  24  43  69 105 144 191 242 303 374 435
#     4  11  26  44  72 104 146 191 243 304 374 447
#     4  12  25  42  72 104 145 194 250 304 358 440
#
# _framework density 27.087318
#
# number of rings (size 3 to 8) (size 9 to 14) (size 15 to 20)
#    0.000    0.857    4.286    2.143    2.000   10.286 
#    0.000    0.000    0.000    0.000    0.000    0.000 
#    0.000    0.000    0.000    0.000    0.000    0.000 
#
# Total GULP energy -78200.454750 kJ/mol
# GULP energy per Si atom -5585.746768 kJ/mol
# Density = 2.702567 g / cm^3
# Si number density = 27.087318 Si / 1000 Ang^3
#
#
#
# Elastic Constant Matrix: (Units=GPa)
#
#
# Indices 1 2 3 4 5 6 
#
# 1 85.5282 26.0354 28.1255 1.3460 -32.1179 -18.9003
# 2 26.0354 185.4508 44.8389 -14.1787 -14.8764 -24.6463
# 3 28.1255 44.8389 120.9742 -4.5965 -11.3189 -10.1963
# 4 1.3460 -14.1787 -4.5965 45.1963 -0.4628 -19.6845
# 5 -32.1179 -14.8764 -11.3189 -0.4628 40.1439 0.4277
# 6 -18.9003 -24.6463 -10.1963 -19.6845 0.4277 52.3400
#
#
#
# Elastic Compliance Matrix: (Units=1/GPa)
#
#
# Indices 1 2 3 4 5 6 
#
# 1 0.019798 0.000285 -0.002534 0.002751 0.015180 0.007700
# 2 0.000285 0.006874 -0.001883 0.003906 0.002242 0.004424
# 3 -0.002534 -0.001883 0.009599 0.000587 -0.000015 0.000289
# 4 0.002751 0.003906 0.000587 0.029466 0.004004 0.013996
# 5 0.015180 0.002242 -0.000015 0.004004 0.037846 0.007731
# 6 0.007700 0.004424 0.000289 0.013996 0.007731 0.029226
#
#
# Mechanical properties :
#
#
# Convention : Reuss Voigt Hill
#
# Bulk Modulus (GPa) = 35.70835 65.55030 50.62932
# Shear Modulus (GPa) = 33.24298 47.06627 40.15463
#
# Velocity S-wave (km/s) = 3.50702 4.17295 3.85439
# Velocity P-wave (km/s) = 5.44152 6.88986 6.20807
#
# Compressibility (1/GPa) = 0.02800465
#
# Stress axis : x y z
#
# Youngs Moduli (GPa) = 50.51133 145.47681 104.18224
#
# Poissons Ratio (x) = -0.04143 0.26405
# Poissons Ratio (y) = -0.01438 0.19617
# Poissons Ratio (z) = 0.12802 0.27393
#
# Static dielectric constant tensor:
#      x y z
#    x 2.317480 -0.224580 -0.036390 
#    y -0.224580 2.577260 -0.070160 
#    z -0.036390 -0.070160 2.238720 
# 
# From -- ./inp_files/97717.got.cif
#   From: 2010.05.17/outbox.cif.g08.bks.cpg/sg2_49_cif.got.tgz:97717.got - 2010.06.03 11:33:40.
