data_PCOD9043068
_publ_section_title
;
Structure prediction by ZEFSAII (Michael W. Deem and Ramdas Pophale) SiO2 
 PCOD9043068
Probable space group: P -1
;
_chemical_formula_sum "Si O2"
_cell_formula_units_Z 15
_cell_length_a 9.188504
_cell_length_b 12.587250
_cell_length_c 4.958621
_cell_angle_alpha 97.562326
_cell_angle_beta 100.289531
_cell_angle_gamma 105.450094
_cell_volume 534.092554
_symmetry_space_group_name_H-M "P -1"
_symmetry_group_IT_number 2
_symmetry_cell_setting 'triclinic'
loop_
_space_group_symop_operation_xyz
x,y,z
-x,-y,-z
loop_
_atom_site_type_symbol
_atom_site_label
_atom_site_fract_x
_atom_site_fract_y
_atom_site_fract_z
Si Si1 0.295594 0.162665 0.190818
Si Si2 0.506473 0.404160 0.761576
Si Si3 0.500000 0.000000 0.500000
Si Si4 0.397548 0.795201 0.973383
Si Si5 0.809334 0.680669 0.198222
Si Si6 0.918799 0.314191 0.450375
Si Si7 0.816309 0.976004 0.393823
Si Si8 0.815676 0.503969 0.732031
O O1 0.245021 0.131564 0.464688
O O2 0.480085 0.179944 0.229894
O O3 0.247606 0.258963 0.047960
O O4 0.216577 0.055023 0.940787
O O5 0.569004 0.309740 0.895946
O O6 0.325826 0.346772 0.633730
O O7 0.631233 0.459415 0.593973
O O8 0.500000 0.500000 0.000000
O O9 0.550152 0.095419 0.787470
O O10 0.310770 0.963335 0.533113
O O11 0.221735 0.755837 0.799991
O O12 0.979807 0.749580 0.374703
O O13 0.820301 0.560926 0.045201
O O14 0.858692 0.390178 0.663867
O O15 0.054673 0.401382 0.352269
O O16 0.000000 0.000000 0.500000
#
# Coordination Sequence:
#
# PCOD9043068 Si02
#       8
#     2   2   1   2   2   2   2   2
#     4  10  25  50  76 113 157 201 270 325 413 497
#     4   9  21  43  70 100 158 210 252 323 404 481
#     4  10  26  54  86 110 164 208 278 344 412 488
#     4  10  24  47  76 115 153 216 271 338 413 489
#     4  10  23  45  68 105 153 205 257 322 396 486
#     4  11  25  40  69 110 151 204 267 325 404 479
#     4  11  25  52  83 116 153 203 270 350 412 492
#     4  10  24  41  65 106 160 199 261 322 402 485
#
# _framework density 28.085018999999999
#
# number of rings (size 3 to 8) (size 9 to 14) (size 15 to 20)
#    0.000    1.867    0.000    0.800   11.200    6.933 
#    7.200    0.000    0.000    0.000    0.000    0.000 
#    0.000    0.000    0.000    0.000    0.000    0.000 
#
# Total GULP energy -83737.171698 kJ/mol
# GULP energy per Si atom -5582.478113 kJ/mol
# Density = 2.802110 g / cm^3
# Si number density = 28.085019 Si / 1000 Ang^3
#
#
#
# Elastic Constant Matrix: (Units=GPa)
#
#
# Indices 1 2 3 4 5 6 
#
# 1 268.3472 59.3054 72.8834 7.7946 28.1972 13.1623
# 2 59.3054 94.0630 45.6726 10.2805 -5.8228 -1.2372
# 3 72.8834 45.6726 94.5740 5.8318 34.9324 -5.2448
# 4 7.7946 10.2805 5.8318 32.4301 7.0431 -6.7692
# 5 28.1972 -5.8228 34.9324 7.0431 54.5350 -3.5198
# 6 13.1623 -1.2372 -5.2448 -6.7692 -3.5198 40.8838
#
#
#
# Elastic Compliance Matrix: (Units=1/GPa)
#
#
# Indices 1 2 3 4 5 6 
#
# 1 0.005140 -0.002073 -0.002571 -0.000287 -0.001338 -0.002210
# 2 -0.002073 0.018621 -0.011070 -0.005824 0.010889 -0.000216
# 3 -0.002571 -0.011070 0.023425 0.003797 -0.015166 0.002821
# 4 -0.000287 -0.005824 0.003797 0.034755 -0.007036 0.005552
# 5 -0.001338 0.010889 -0.015166 -0.007036 0.030834 0.000304
# 6 -0.002210 -0.000216 0.002821 0.005552 0.000304 0.026472
#
#
# Mechanical properties :
#
#
# Convention : Reuss Voigt Hill
#
# Bulk Modulus (GPa) = 63.45785 90.30080 76.87933
# Shear Modulus (GPa) = 28.42072 44.17795 36.29933
#
# Velocity S-wave (km/s) = 3.18457 3.97042 3.59901
# Velocity P-wave (km/s) = 6.01381 7.29667 6.68608
#
# Compressibility (1/GPa) = 0.01575849
#
# Stress axis : x y z
#
# Youngs Moduli (GPa) = 194.54322 53.70251 42.68935
#
# Poissons Ratio (x) = 0.11133 0.10975
# Poissons Ratio (y) = 0.40331 0.47257
# Poissons Ratio (z) = 0.50014 0.59449
#
# Static dielectric constant tensor:
#      x y z
#    x 2.259690 -0.218010 0.122110 
#    y -0.218010 3.077260 -0.437140 
#    z 0.122110 -0.437140 2.551990 
# 
# From -- ./inp_files/36347.got.cif
#   From: 2010.05.17/outbox.cif.g08.bks.cpg/sg2_19_cif.got.tgz:36347.got - 2010.06.03 11:33:40.
