data_PCOD9043954
_publ_section_title
;
Structure prediction by ZEFSAII (Michael W. Deem and Ramdas Pophale) SiO2 
 PCOD9043954
Probable space group: P -1
;
_chemical_formula_sum "Si O2"
_cell_formula_units_Z 16
_cell_length_a 9.176891
_cell_length_b 15.776049
_cell_length_c 9.288670
_cell_angle_alpha 49.616680
_cell_angle_beta 66.814116
_cell_angle_gamma 99.147962
_cell_volume 759.323735
_symmetry_space_group_name_H-M "P -1"
_symmetry_group_IT_number 2
_symmetry_cell_setting 'triclinic'
loop_
_space_group_symop_operation_xyz
x,y,z
-x,-y,-z
loop_
_atom_site_type_symbol
_atom_site_label
_atom_site_fract_x
_atom_site_fract_y
_atom_site_fract_z
Si Si1 0.969671 0.345473 0.341993
Si Si2 0.654892 0.646465 0.852619
Si Si3 0.577859 0.142800 0.889970
Si Si4 0.220752 0.142967 0.931589
Si Si5 0.062082 0.630607 0.999586
Si Si6 0.670132 0.098681 0.213559
Si Si7 0.798603 0.899198 0.346361
Si Si8 0.315966 0.392749 0.787862
O O1 0.794131 0.256713 0.619091
O O2 0.882462 0.319999 0.241964
O O3 0.129748 0.314707 0.309570
O O4 0.081697 0.507688 0.151490
O O5 0.660754 0.773021 0.646565
O O6 0.500000 0.500000 0.000000
O O7 0.624844 0.628221 0.055420
O O8 0.421148 0.171870 0.877992
O O9 0.589985 0.124835 0.073836
O O10 0.500000 0.000000 0.000000
O O11 0.230311 0.161651 0.735264
O O12 0.198277 0.248530 0.908070
O O13 0.028240 0.987643 0.203362
O O14 0.180451 0.756709 0.923584
O O15 0.831158 0.565677 0.174938
O O16 0.500000 0.000000 0.500000
O O17 0.756288 0.013485 0.230573
O O18 0.500000 0.500000 0.500000
#
# Coordination Sequence:
#
# PCOD9043954 Si02
#       8
#     2   2   2   2   2   2   2   2
#     4  10  24  44  70  97 135 177 227 272 338 401
#     4  11  26  42  69  99 135 181 225 280 333 399
#     4  12  24  43  68 101 133 178 223 273 335 396
#     4  11  24  43  70  98 135 178 221 276 331 404
#     4  10  23  46  67  97 135 177 219 281 333 395
#     4  12  27  43  69 101 138 175 223 279 335 400
#     4  11  25  46  68  98 138 179 221 276 338 400
#     4  11  23  42  67 101 134 175 225 273 335 396
#
# _framework density 21.071380000000001
#
# number of rings (size 3 to 8) (size 9 to 14) (size 15 to 20)
#    0.000    1.000    2.500    3.000    5.250    4.000 
#    0.000    0.000    0.000    0.000    0.000    0.000 
#    0.000    0.000    0.000    0.000    0.000    0.000 
#
# Total GULP energy -89512.317178 kJ/mol
# GULP energy per Si atom -5594.519824 kJ/mol
# Density = 2.102342 g / cm^3
# Si number density = 21.071380 Si / 1000 Ang^3
#
#
#
# Elastic Constant Matrix: (Units=GPa)
#
#
# Indices 1 2 3 4 5 6 
#
# 1 51.7906 16.7957 29.2124 3.3975 -0.3397 10.1713
# 2 16.7957 121.5554 27.7812 3.8707 16.9618 25.2621
# 3 29.2124 27.7812 119.7369 19.0142 3.8880 28.5965
# 4 3.3975 3.8707 19.0142 35.0420 -9.0424 -0.6757
# 5 -0.3397 16.9618 3.8880 -9.0424 21.0660 -1.4480
# 6 10.1713 25.2621 28.5965 -0.6757 -1.4480 39.3611
#
#
#
# Elastic Compliance Matrix: (Units=1/GPa)
#
#
# Indices 1 2 3 4 5 6 
#
# 1 0.023169 -0.002602 -0.005508 0.002165 0.004406 -0.000116
# 2 -0.002602 0.012010 0.001063 -0.005080 -0.012663 -0.008361
# 3 -0.005508 0.001063 0.013410 -0.009100 -0.007976 -0.009451
# 4 0.002165 -0.005080 -0.009100 0.040177 0.023798 0.010878
# 5 0.004406 -0.012663 -0.007976 0.023798 0.070509 0.015786
# 6 -0.000116 -0.008361 -0.009451 0.010878 0.015786 0.038436
#
#
# Mechanical properties :
#
#
# Convention : Reuss Voigt Hill
#
# Bulk Modulus (GPa) = 28.98995 48.96239 38.97617
# Shear Modulus (GPa) = 22.39111 33.71338 28.05225
#
# Velocity S-wave (km/s) = 3.26334 4.00429 3.65265
# Velocity P-wave (km/s) = 5.29028 6.68326 6.02715
#
# Compressibility (1/GPa) = 0.03449471
#
# Stress axis : x y z
#
# Youngs Moduli (GPa) = 43.16152 83.26631 74.57088
#
# Poissons Ratio (x) = 0.21667 0.41072
# Poissons Ratio (y) = 0.11231 -0.07928
# Poissons Ratio (z) = 0.23773 -0.08852
#
# Static dielectric constant tensor:
#      x y z
#    x 1.774220 -0.019300 -0.020390 
#    y -0.019300 1.723700 -0.004880 
#    z -0.020390 -0.004880 1.729730 
# 
# From -- ./inp_files/205546.got.cif
#   From: 2010.05.17/outbox.cif.g08.bks.cpg/sg2_103_cif.got.tgz:205546.got - 2010.06.03 11:33:40.
