data_PCOD9043169
_publ_section_title
;
Structure prediction by ZEFSAII (Michael W. Deem and Ramdas Pophale) SiO2 
 PCOD9043169
Probable space group: P -1
;
_chemical_formula_sum "Si O2"
_cell_formula_units_Z 16
_cell_length_a 14.123698
_cell_length_b 24.737680
_cell_length_c 5.632029
_cell_angle_alpha 97.536476
_cell_angle_beta 99.667736
_cell_angle_gamma 20.853074
_cell_volume 688.655829
_symmetry_space_group_name_H-M "P -1"
_symmetry_group_IT_number 2
_symmetry_cell_setting 'triclinic'
loop_
_space_group_symop_operation_xyz
x,y,z
-x,-y,-z
loop_
_atom_site_type_symbol
_atom_site_label
_atom_site_fract_x
_atom_site_fract_y
_atom_site_fract_z
Si Si1 0.581711 0.323521 0.869203
Si Si2 0.881335 0.916016 0.183195
Si Si3 0.559366 0.029327 0.742572
Si Si4 0.215364 0.404545 0.237249
Si Si5 0.294764 0.487277 0.352946
Si Si6 0.919702 0.790366 0.399977
Si Si7 0.686056 0.154309 0.945463
Si Si8 0.491925 0.170292 0.521759
O O1 0.473901 0.400509 0.614546
O O2 0.566988 0.266274 0.803512
O O3 0.890258 0.178096 0.932182
O O4 0.435679 0.414512 0.109249
O O5 0.007252 0.796283 0.292994
O O6 0.751985 0.026019 0.378501
O O7 0.627981 0.027680 0.998290
O O8 0.364205 0.082933 0.735722
O O9 0.436562 0.137116 0.559745
O O10 0.838985 0.856800 0.661552
O O11 0.160338 0.497820 0.324659
O O12 0.257860 0.332308 0.402480
O O13 0.518726 0.247412 0.169539
O O14 0.000000 0.500000 0.000000
O O15 0.104342 0.640447 0.373068
O O16 0.599972 0.144629 0.781053
O O17 0.000000 0.000000 0.000000
#
# Coordination Sequence:
#
# PCOD9043169 Si02
#       8
#     2   2   2   2   2   2   2   2
#     4  11  26  46  70 104 147 186 238 289 361 426
#     4  11  25  43  72  99 135 182 243 297 352 421
#     4  10  23  45  69 103 132 179 240 303 352 416
#     4  11  26  44  66 104 147 190 235 291 364 437
#     4  11  27  47  70 105 146 192 228 297 356 438
#     4  10  25  45  70  97 139 182 240 293 358 418
#     4  11  24  43  69 102 143 190 237 296 355 432
#     4  11  23  41  71 104 136 186 238 297 356 428
#
# _framework density 23.233667000000001
#
# number of rings (size 3 to 8) (size 9 to 14) (size 15 to 20)
#    0.000    1.250    1.250    2.625   12.250    4.500 
#    0.000    0.000    0.000    0.000    0.000    0.000 
#    0.000    0.000    0.000    0.000    0.000    0.000 
#
# Total GULP energy -89307.623497 kJ/mol
# GULP energy per Si atom -5581.726469 kJ/mol
# Density = 2.318079 g / cm^3
# Si number density = 23.233667 Si / 1000 Ang^3
#
#
#
# Elastic Constant Matrix: (Units=GPa)
#
#
# Indices 1 2 3 4 5 6 
#
# 1 105.6428 36.9880 2.0202 4.0998 -12.3050 24.8560
# 2 36.9880 104.8246 27.7961 7.1802 -10.4076 40.4680
# 3 2.0202 27.7961 70.4315 0.1572 -0.0060 10.5236
# 4 4.0998 7.1802 0.1572 36.2072 0.6840 3.1195
# 5 -12.3050 -10.4076 -0.0060 0.6840 22.0333 3.6936
# 6 24.8560 40.4680 10.5236 3.1195 3.6936 45.5361
#
#
#
# Elastic Compliance Matrix: (Units=1/GPa)
#
#
# Indices 1 2 3 4 5 6 
#
# 1 0.012290 -0.001490 0.001163 -0.000704 0.007220 -0.006191
# 2 -0.001490 0.018404 -0.004961 -0.002358 0.010461 -0.015083
# 3 0.001163 -0.004961 0.016100 0.000803 -0.001738 0.000139
# 4 -0.000704 -0.002358 0.000803 0.028161 -0.002476 0.000566
# 5 0.007220 0.010461 -0.001738 -0.002476 0.057339 -0.017318
# 6 -0.006191 -0.015083 0.000139 0.000566 -0.017318 0.040078
#
#
# Mechanical properties :
#
#
# Convention : Reuss Voigt Hill
#
# Bulk Modulus (GPa) = 27.61071 46.05639 36.83355
# Shear Modulus (GPa) = 25.63846 35.02829 30.33338
#
# Velocity S-wave (km/s) = 3.32551 3.88706 3.61720
# Velocity P-wave (km/s) = 5.16285 6.32549 5.77351
#
# Compressibility (1/GPa) = 0.03621783
#
# Stress axis : x y z
#
# Youngs Moduli (GPa) = 81.36620 54.33648 62.11235
#
# Poissons Ratio (x) = 0.08096 -0.07222
# Poissons Ratio (y) = 0.12124 0.30812
# Poissons Ratio (z) = -0.09460 0.26954
#
# Static dielectric constant tensor:
#      x y z
#    x 1.841640 0.000810 -0.055230 
#    y 0.000810 1.927600 -0.015810 
#    z -0.055230 -0.015810 1.942460 
# 
# From -- ./inp_files/70815.got.cif
#   From: 2010.05.17/outbox.cif.g08.bks.cpg/sg2_36_cif.got.tgz:70815.got - 2010.06.03 11:33:40.
