data_PCOD9043264
_publ_section_title
;
Structure prediction by ZEFSAII (Michael W. Deem and Ramdas Pophale) SiO2 
 PCOD9043264
Probable space group: P -1
;
_chemical_formula_sum "Si O2"
_cell_formula_units_Z 12
_cell_length_a 5.464537
_cell_length_b 11.833814
_cell_length_c 10.953269
_cell_angle_alpha 49.623148
_cell_angle_beta 112.163102
_cell_angle_gamma 99.383008
_cell_volume 496.387395
_symmetry_space_group_name_H-M "P -1"
_symmetry_group_IT_number 2
_symmetry_cell_setting 'triclinic'
loop_
_space_group_symop_operation_xyz
x,y,z
-x,-y,-z
loop_
_atom_site_type_symbol
_atom_site_label
_atom_site_fract_x
_atom_site_fract_y
_atom_site_fract_z
Si Si1 0.746823 0.626815 0.371912
Si Si2 0.816561 0.471277 0.102366
Si Si3 0.175721 0.053031 0.305725
Si Si4 0.759673 0.426953 0.722480
Si Si5 0.294589 0.849581 0.703091
Si Si6 0.068632 0.863973 0.199113
O O1 0.677478 0.583189 0.527145
O O2 0.522458 0.594116 0.254791
O O3 0.000000 0.500000 0.500000
O O4 0.815857 0.792180 0.254946
O O5 0.836418 0.295553 0.263760
O O6 0.967992 0.559459 0.168990
O O7 0.500000 0.500000 0.000000
O O8 0.000000 0.500000 0.000000
O O9 0.382184 0.168898 0.224133
O O10 0.863477 0.113667 0.224646
O O11 0.242647 0.981666 0.501286
O O12 0.213252 0.925776 0.298912
O O13 0.795320 0.276195 0.753759
O O14 0.000000 0.000000 0.000000
#
# Coordination Sequence:
#
# PCOD9043264 Si02
#       6
#     2   2   2   2   2   2
#     4   9  21  45  69  97 133 178 234 289 342 418
#     4  12  28  44  71 100 142 188 231 289 346 420
#     4  10  23  45  70 100 132 183 229 287 346 412
#     4  10  24  45  69 102 134 185 235 289 350 414
#     4  10  23  46  70  95 137 180 239 278 337 421
#     4  11  25  39  69 101 142 177 223 294 357 419
#
# _framework density 24.174669000000002
#
# number of rings (size 3 to 8) (size 9 to 14) (size 15 to 20)
#    0.000    1.667    0.000    2.000   11.667    0.667 
#   21.000    0.000    0.000    0.000    0.000    0.000 
#    0.000    0.000    0.000    0.000    0.000    0.000 
#
# Total GULP energy -66803.785171 kJ/mol
# GULP energy per Si atom -5566.982098 kJ/mol
# Density = 2.411965 g / cm^3
# Si number density = 24.174669 Si / 1000 Ang^3
#
#
#
# Elastic Constant Matrix: (Units=GPa)
#
#
# Indices 1 2 3 4 5 6 
#
# 1 168.5657 56.5571 40.9649 14.4155 1.2892 29.2939
# 2 56.5571 114.5384 24.4153 7.5950 6.8542 18.8956
# 3 40.9649 24.4153 84.4544 -16.6159 -1.1498 14.8060
# 4 14.4155 7.5950 -16.6159 29.8230 10.0076 -4.2021
# 5 1.2892 6.8542 -1.1498 10.0076 35.2477 -5.1142
# 6 29.2939 18.8956 14.8060 -4.2021 -5.1142 46.4536
#
#
#
# Elastic Compliance Matrix: (Units=1/GPa)
#
#
# Indices 1 2 3 4 5 6 
#
# 1 0.009140 -0.002546 -0.004446 -0.007298 0.001536 -0.003802
# 2 -0.002546 0.011143 -0.002030 -0.002508 -0.001820 -0.002707
# 3 -0.004446 -0.002030 0.017296 0.013080 -0.002737 -0.001002
# 4 -0.007298 -0.002508 0.013080 0.049753 -0.012277 0.004602
# 5 0.001536 -0.001820 -0.002737 -0.012277 0.032517 0.003114
# 6 -0.003802 -0.002707 -0.001002 0.004602 0.003114 0.026104
#
#
# Mechanical properties :
#
#
# Convention : Reuss Voigt Hill
#
# Bulk Modulus (GPa) = 51.19118 67.93700 59.56409
# Shear Modulus (GPa) = 29.32428 38.67961 34.00194
#
# Velocity S-wave (km/s) = 3.48662 4.00435 3.75442
# Velocity P-wave (km/s) = 6.11802 7.03870 6.59445
#
# Compressibility (1/GPa) = 0.01953461
#
# Stress axis : x y z
#
# Youngs Moduli (GPa) = 109.40605 89.74582 57.81833
#
# Poissons Ratio (x) = 0.22853 0.25704
# Poissons Ratio (y) = 0.27859 0.11736
# Poissons Ratio (z) = 0.48638 0.18217
#
# Static dielectric constant tensor:
#      x y z
#    x 2.354040 -0.078130 -0.064910 
#    y -0.078130 1.918700 0.098140 
#    z -0.064910 0.098140 2.035870 
# 
# From -- ./inp_files/361084.got.cif
#   From: 2010.05.17/outbox.cif.g08.bks.cpg/sg2_181_cif.got.tgz:361084.got - 2010.06.03 11:33:40.
