data_PCOD9043854
_publ_section_title
;
Structure prediction by ZEFSAII (Michael W. Deem and Ramdas Pophale) SiO2 
 PCOD9043854
Probable space group: P -1
;
_chemical_formula_sum "Si O2"
_cell_formula_units_Z 14
_cell_length_a 8.218230
_cell_length_b 13.343859
_cell_length_c 7.638761
_cell_angle_alpha 126.446412
_cell_angle_beta 123.293744
_cell_angle_gamma 72.235371
_cell_volume 562.972441
_symmetry_space_group_name_H-M "P -1"
_symmetry_group_IT_number 2
_symmetry_cell_setting 'triclinic'
loop_
_space_group_symop_operation_xyz
x,y,z
-x,-y,-z
loop_
_atom_site_type_symbol
_atom_site_label
_atom_site_fract_x
_atom_site_fract_y
_atom_site_fract_z
Si Si1 0.711731 0.972410 0.022723
Si Si2 0.120455 0.767677 0.745900
Si Si3 0.261832 0.380658 0.711115
Si Si4 0.526072 0.199416 0.537226
Si Si5 0.942341 0.175307 0.829483
Si Si6 0.305362 0.525986 0.520078
Si Si7 0.199980 0.591805 0.178806
O O1 0.649731 0.881264 0.731137
O O2 0.869430 0.905832 0.168248
O O3 0.500000 0.000000 0.000000
O O4 0.812207 0.101649 0.158849
O O5 0.286178 0.665861 0.725154
O O6 0.931451 0.705646 0.478654
O O7 0.065169 0.789915 0.935847
O O8 0.439323 0.285578 0.727501
O O9 0.260816 0.440201 0.574176
O O10 0.266967 0.492886 0.970291
O O11 0.719835 0.122075 0.610303
O O12 0.619031 0.306861 0.577257
O O13 0.949618 0.304998 0.864738
O O14 0.500000 0.500000 0.500000
O O15 0.155096 0.523575 0.263732
#
# Coordination Sequence:
#
# PCOD9043854 Si02
#       7
#     2   2   2   2   2   2   2
#     4  12  27  51  76 108 151 202 265 326 382 457
#     4  12  27  47  74 110 151 210 252 314 400 449
#     4  12  24  48  76 112 166 199 249 325 383 469
#     4  10  23  45  78 109 150 200 253 313 378 458
#     4  10  24  48  77 108 151 198 261 314 385 460
#     4  12  24  43  76 111 157 203 251 318 384 455
#     4  10  24  46  76 117 151 198 260 302 393 456
#
# _framework density 24.868003000000002
#
# number of rings (size 3 to 8) (size 9 to 14) (size 15 to 20)
#    0.857    0.000    4.286    2.143    2.000    1.714 
#    0.000    0.000    0.000    0.000    0.000    0.000 
#    0.000    0.000    0.000    0.000    0.000    0.000 
#
# Total GULP energy -78152.087916 kJ/mol
# GULP energy per Si atom -5582.291994 kJ/mol
# Density = 2.481140 g / cm^3
# Si number density = 24.868003 Si / 1000 Ang^3
#
#
#
# Elastic Constant Matrix: (Units=GPa)
#
#
# Indices 1 2 3 4 5 6 
#
# 1 97.0858 52.7389 52.3419 -3.2007 -11.7005 -15.9109
# 2 52.7389 154.4184 68.2002 -4.5284 4.9538 -28.7526
# 3 52.3419 68.2002 116.5764 17.5337 24.6203 8.5405
# 4 -3.2007 -4.5284 17.5337 36.4191 4.0933 2.8995
# 5 -11.7005 4.9538 24.6203 4.0933 46.0892 -0.3752
# 6 -15.9109 -28.7526 8.5405 2.8995 -0.3752 53.3061
#
#
#
# Elastic Compliance Matrix: (Units=1/GPa)
#
#
# Indices 1 2 3 4 5 6 
#
# 1 0.020215 0.000221 -0.013190 0.006205 0.011668 0.008011
# 2 0.000221 0.011836 -0.008993 0.004850 0.003219 0.007650
# 3 -0.013190 -0.008993 0.025658 -0.011946 -0.015128 -0.012355
# 4 0.006205 0.004850 -0.011946 0.033487 0.004499 0.004592
# 5 0.011668 0.003219 -0.015128 0.004499 0.032057 0.007624
# 6 0.008011 0.007650 -0.012355 0.004592 0.007624 0.027060
#
#
# Mechanical properties :
#
#
# Convention : Reuss Voigt Hill
#
# Bulk Modulus (GPa) = 72.54575 79.40476 75.97525
# Shear Modulus (GPa) = 25.14694 40.14951 32.64823
#
# Velocity S-wave (km/s) = 3.18341 4.02245 3.62727
# Velocity P-wave (km/s) = 6.53818 7.31938 6.93978
#
# Compressibility (1/GPa) = 0.01378441
#
# Stress axis : x y z
#
# Youngs Moduli (GPa) = 49.46837 84.49010 38.97403
#
# Poissons Ratio (x) = -0.01863 0.51406
# Poissons Ratio (y) = -0.01091 0.35049
# Poissons Ratio (z) = 0.65247 0.75982
#
# Static dielectric constant tensor:
#      x y z
#    x 2.035200 -0.090390 0.033720 
#    y -0.090390 2.062360 -0.108650 
#    z 0.033720 -0.108650 2.244570 
# 
# From -- ./inp_files/401489.got.cif
#   From: 2010.05.17/outbox.cif.g08.bks.cpg/sg2_201_cif.got.tgz:401489.got - 2010.06.03 11:33:40.
