data_PCOD9043988
_publ_section_title
;
Structure prediction by ZEFSAII (Michael W. Deem and Ramdas Pophale) SiO2 
 PCOD9043988
Probable space group: P -1
;
_chemical_formula_sum "Si O2"
_cell_formula_units_Z 10
_cell_length_a 15.017274
_cell_length_b 22.239071
_cell_length_c 7.022132
_cell_angle_alpha 139.359853
_cell_angle_beta 143.058849
_cell_angle_gamma 17.921370
_cell_volume 433.684073
_symmetry_space_group_name_H-M "P -1"
_symmetry_group_IT_number 2
_symmetry_cell_setting 'triclinic'
loop_
_space_group_symop_operation_xyz
x,y,z
-x,-y,-z
loop_
_atom_site_type_symbol
_atom_site_label
_atom_site_fract_x
_atom_site_fract_y
_atom_site_fract_z
Si Si1 0.103782 0.023570 0.873351
Si Si2 0.364564 0.612504 0.836536
Si Si3 0.082409 0.634273 0.105235
Si Si4 0.783858 0.840148 0.750687
Si Si5 0.154798 0.397098 0.814022
O O1 0.465074 0.810136 0.033748
O O2 0.000000 0.000000 0.500000
O O3 0.080639 0.132787 0.983961
O O4 0.862525 0.175979 0.998520
O O5 0.159783 0.645174 0.460016
O O6 0.632310 0.494954 0.861602
O O7 0.500000 0.500000 0.000000
O O8 0.057760 0.538737 0.865657
O O9 0.774229 0.837237 0.954557
O O10 0.940360 0.655129 0.525434
O O11 0.500000 0.000000 0.500000
O O12 0.000000 0.500000 0.000000
#
# Coordination Sequence:
#
# PCOD9043988 Si02
#       5
#     2   2   2   2   2
#     4  11  24  44  74 105 145 189 237 302 355 415
#     4  11  23  44  77 106 149 179 244 311 347 429
#     4  11  24  44  79 106 137 199 238 288 381 416
#     4  10  23  46  68 103 147 184 240 294 351 432
#     4  11  25  45  71 106 149 190 238 299 358 432
#
# _framework density 23.058260000000001
#
# number of rings (size 3 to 8) (size 9 to 14) (size 15 to 20)
#    0.000    1.200    2.000    3.000    5.600    0.800 
#    0.000   14.000    0.000    0.000    0.000    0.000 
#    0.000    0.000    0.000    0.000    0.000    0.000 
#
# Total GULP energy -55763.215787 kJ/mol
# GULP energy per Si atom -5576.321579 kJ/mol
# Density = 2.300578 g / cm^3
# Si number density = 23.058260 Si / 1000 Ang^3
#
#
#
# Elastic Constant Matrix: (Units=GPa)
#
#
# Indices 1 2 3 4 5 6 
#
# 1 107.3476 31.4931 35.1328 2.4477 -2.8825 21.0107
# 2 31.4931 85.4943 32.2255 -11.7884 -20.3811 0.8028
# 3 35.1328 32.2255 199.6160 2.3604 12.8293 9.4672
# 4 2.4477 -11.7884 2.3604 30.4128 10.5984 -15.5580
# 5 -2.8825 -20.3811 12.8293 10.5984 47.0871 11.0880
# 6 21.0107 0.8028 9.4672 -15.5580 11.0880 50.3157
#
#
#
# Elastic Compliance Matrix: (Units=1/GPa)
#
#
# Indices 1 2 3 4 5 6 
#
# 1 0.012932 -0.004642 -0.001227 -0.007900 0.002816 -0.008158
# 2 -0.004642 0.016460 -0.002402 0.006639 0.005291 0.003015
# 3 -0.001227 -0.002402 0.005789 -0.000444 -0.002566 -0.000110
# 4 -0.007900 0.006639 -0.000444 0.053026 -0.014826 0.022939
# 5 0.002816 0.005291 -0.002566 -0.014826 0.030586 -0.012102
# 6 -0.008158 0.003015 -0.000110 0.022939 -0.012102 0.033014
#
#
# Mechanical properties :
#
#
# Convention : Reuss Voigt Hill
#
# Bulk Modulus (GPa) = 53.65355 65.57341 59.61348
# Shear Modulus (GPa) = 28.64324 45.13688 36.89006
#
# Velocity S-wave (km/s) = 3.52833 4.42918 4.00417
# Velocity P-wave (km/s) = 6.31807 7.39302 6.87658
#
# Compressibility (1/GPa) = 0.01863810
#
# Stress axis : x y z
#
# Youngs Moduli (GPa) = 77.33003 60.75173 172.74942
#
# Poissons Ratio (x) = 0.28203 0.21199
# Poissons Ratio (y) = 0.35900 0.41491
# Poissons Ratio (z) = 0.09490 0.14591
#
# Static dielectric constant tensor:
#      x y z
#    x 1.840050 -0.046680 -0.012550 
#    y -0.046680 1.959960 -0.071410 
#    z -0.012550 -0.071410 1.893270 
# 
# From -- ./inp_files/18108.got.cif
#   From: 2010.05.17/outbox.cif.g08.bks.cpg/sg2_10_cif.got.tgz:18108.got - 2010.06.03 11:33:40.
