data_PCOD9043103
_publ_section_title
;
Structure prediction by ZEFSAII (Michael W. Deem and Ramdas Pophale) SiO2 
 PCOD9043103
Probable space group: P -1
;
_chemical_formula_sum "Si O2"
_cell_formula_units_Z 14
_cell_length_a 6.459086
_cell_length_b 17.576326
_cell_length_c 8.977222
_cell_angle_alpha 115.549460
_cell_angle_beta 62.995022
_cell_angle_gamma 71.471502
_cell_volume 630.203422
_symmetry_space_group_name_H-M "P -1"
_symmetry_group_IT_number 2
_symmetry_cell_setting 'triclinic'
loop_
_space_group_symop_operation_xyz
x,y,z
-x,-y,-z
loop_
_atom_site_type_symbol
_atom_site_label
_atom_site_fract_x
_atom_site_fract_y
_atom_site_fract_z
Si Si1 0.151251 0.222652 0.181214
Si Si2 0.279435 0.493695 0.852711
Si Si3 0.646457 0.344978 0.875109
Si Si4 0.108315 0.057279 0.925980
Si Si5 0.789212 0.873320 0.613365
Si Si6 0.184535 0.947081 0.246871
Si Si7 0.011353 0.434161 0.301111
O O1 0.234303 0.189230 0.299048
O O2 0.984282 0.346768 0.302903
O O3 0.011239 0.167210 0.126387
O O4 0.467020 0.153600 0.930997
O O5 0.559515 0.392499 0.772872
O O6 0.239517 0.498601 0.691134
O O7 0.263239 0.593482 0.005045
O O8 0.000000 0.500000 0.000000
O O9 0.933246 0.217744 0.657374
O O10 0.342470 0.374724 0.068280
O O11 0.960241 0.088246 0.839998
O O12 0.468637 0.960927 0.713589
O O13 0.000000 0.000000 0.000000
O O14 0.837587 0.954658 0.737073
O O15 0.000000 0.000000 0.500000
O O16 0.000000 0.500000 0.500000
#
# Coordination Sequence:
#
# PCOD9043103 Si02
#       7
#     2   2   2   2   2   2   2
#     4  11  24  41  67 101 132 171 227 269 329 396
#     4   9  22  45  69  93 132 173 230 273 331 393
#     4  10  23  45  68  97 133 175 224 278 332 392
#     4  11  21  45  68  96 132 178 215 266 331 399
#     4  11  23  40  70  99 131 172 222 266 329 402
#     4  11  23  42  66 100 135 166 217 277 328 394
#     4  11  26  46  67  99 137 174 225 279 331 394
#
# _framework density 22.215050000000002
#
# number of rings (size 3 to 8) (size 9 to 14) (size 15 to 20)
#    0.000    1.429    2.857    1.714    6.000    8.571 
#    2.571    0.000    0.000    0.000    0.000    0.000 
#    0.000    0.000    0.000    0.000    0.000    0.000 
#
# Total GULP energy -78171.757969 kJ/mol
# GULP energy per Si atom -5583.696998 kJ/mol
# Density = 2.216449 g / cm^3
# Si number density = 22.215050 Si / 1000 Ang^3
#
#
#
# Elastic Constant Matrix: (Units=GPa)
#
#
# Indices 1 2 3 4 5 6 
#
# 1 116.9540 30.3556 20.3289 7.6471 22.9462 6.9168
# 2 30.3556 112.3194 17.1202 4.2952 21.5486 12.2419
# 3 20.3289 17.1202 65.2076 9.7976 -1.6831 7.4367
# 4 7.6471 4.2952 9.7976 35.3782 3.1315 6.8380
# 5 22.9462 21.5486 -1.6831 3.1315 37.2177 -6.4078
# 6 6.9168 12.2419 7.4367 6.8380 -6.4078 20.3901
#
#
#
# Elastic Compliance Matrix: (Units=1/GPa)
#
#
# Indices 1 2 3 4 5 6 
#
# 1 0.010916 -0.000606 -0.002918 0.000056 -0.007306 -0.004590
# 2 -0.000606 0.012014 -0.002395 0.001910 -0.008476 -0.009438
# 3 -0.002918 -0.002395 0.017752 -0.004089 0.004093 -0.001390
# 4 0.000056 0.001910 -0.004089 0.032090 -0.006155 -0.012371
# 5 -0.007306 -0.008476 0.004093 -0.006155 0.040581 0.020892
# 6 -0.004590 -0.009438 -0.001390 -0.012371 0.020892 0.067488
#
#
# Mechanical properties :
#
#
# Convention : Reuss Voigt Hill
#
# Bulk Modulus (GPa) = 34.66656 47.78781 41.22718
# Shear Modulus (GPa) = 24.71658 33.70895 29.21276
#
# Velocity S-wave (km/s) = 3.33919 3.89960 3.63023
# Velocity P-wave (km/s) = 5.52321 6.46792 6.01414
#
# Compressibility (1/GPa) = 0.02884624
#
# Stress axis : x y z
#
# Youngs Moduli (GPa) = 91.60852 83.23807 56.33021
#
# Poissons Ratio (x) = 0.05041 0.16435
# Poissons Ratio (y) = 0.05547 0.13490
# Poissons Ratio (z) = 0.26728 0.19934
#
# Static dielectric constant tensor:
#      x y z
#    x 1.826740 0.016050 -0.013020 
#    y 0.016050 1.874680 -0.044440 
#    z -0.013020 -0.044440 1.820270 
# 
# From -- ./inp_files/106498.got.cif
#   From: 2010.05.17/outbox.cif.g08.bks.cpg/sg2_54_cif.got.tgz:106498.got - 2010.06.03 11:33:40.
