data_PCOD9043186
_publ_section_title
;
Structure prediction by ZEFSAII (Michael W. Deem and Ramdas Pophale) SiO2 
 PCOD9043186
Probable space group: P -1
;
_chemical_formula_sum "Si O2"
_cell_formula_units_Z 14
_cell_length_a 7.747813
_cell_length_b 17.744557
_cell_length_c 10.905097
_cell_angle_alpha 141.170019
_cell_angle_beta 36.506692
_cell_angle_gamma 133.793889
_cell_volume 550.450709
_symmetry_space_group_name_H-M "P -1"
_symmetry_group_IT_number 2
_symmetry_cell_setting 'triclinic'
loop_
_space_group_symop_operation_xyz
x,y,z
-x,-y,-z
loop_
_atom_site_type_symbol
_atom_site_label
_atom_site_fract_x
_atom_site_fract_y
_atom_site_fract_z
Si Si1 0.152701 0.648506 0.099069
Si Si2 0.480168 0.126788 0.743308
Si Si3 0.706102 0.421897 0.674994
Si Si4 0.164944 0.267314 0.835866
Si Si5 0.652680 0.965534 0.636653
Si Si6 0.838046 0.192038 0.152997
Si Si7 0.342069 0.453006 0.403598
O O1 0.355907 0.504622 0.319059
O O2 0.473264 0.653959 0.861165
O O3 0.000000 0.500000 0.000000
O O4 0.931510 0.707391 0.214107
O O5 0.737535 0.247558 0.726680
O O6 0.500000 0.000000 0.500000
O O7 0.539188 0.077694 0.783184
O O8 0.148368 0.152335 0.956511
O O9 0.413097 0.382259 0.872102
O O10 0.787910 0.300928 0.407724
O O11 0.001543 0.458617 0.630738
O O12 0.337803 0.154242 0.603828
O O13 0.888574 0.243832 0.052945
O O14 0.440338 0.914115 0.803829
O O15 0.000000 0.000000 0.500000
O O16 0.500000 0.500000 0.500000
#
# Coordination Sequence:
#
# PCOD9043186 Si02
#       7
#     2   2   2   2   2   2   2
#     4  12  25  47  75 113 154 197 262 323 381 473
#     4  12  25  49  75 111 154 202 257 317 399 465
#     4  10  23  45  69 104 159 196 262 325 380 479
#     4  11  23  45  73 106 149 205 255 315 398 457
#     4  11  24  46  72 109 147 193 256 321 375 469
#     4  11  24  45  74 108 149 203 254 320 397 461
#     4  11  23  44  70 108 152 208 256 320 397 465
#
# _framework density 25.433702
#
# number of rings (size 3 to 8) (size 9 to 14) (size 15 to 20)
#    0.000    0.857    5.714    1.286    0.000    1.714 
#    0.000    4.286    0.000    0.000    0.000    0.000 
#    0.000    0.000    0.000    0.000    0.000    0.000 
#
# Total GULP energy -77957.623979 kJ/mol
# GULP energy per Si atom -5568.401713 kJ/mol
# Density = 2.537581 g / cm^3
# Si number density = 25.433702 Si / 1000 Ang^3
#
#
#
# Elastic Constant Matrix: (Units=GPa)
#
#
# Indices 1 2 3 4 5 6 
#
# 1 143.7835 51.1497 16.3124 -6.2367 -21.8581 8.0538
# 2 51.1497 153.8796 26.2498 -9.4034 -5.7026 14.1629
# 3 16.3124 26.2498 61.2759 -7.7729 -19.8538 -1.0708
# 4 -6.2367 -9.4034 -7.7729 65.6885 -0.1938 -11.4266
# 5 -21.8581 -5.7026 -19.8538 -0.1938 44.5269 7.3954
# 6 8.0538 14.1629 -1.0708 -11.4266 7.3954 43.3031
#
#
#
# Elastic Compliance Matrix: (Units=1/GPa)
#
#
# Indices 1 2 3 4 5 6 
#
# 1 0.008580 -0.002585 0.000189 0.000236 0.004199 -0.001400
# 2 -0.002585 0.008046 -0.003204 0.000184 -0.001342 -0.001952
# 3 0.000189 -0.003204 0.020798 0.002147 0.008869 0.000579
# 4 0.000236 0.000184 0.002147 0.016250 0.000477 0.004156
# 5 0.004199 -0.001342 0.008869 0.000477 0.029130 -0.004972
# 6 -0.001400 -0.001952 0.000579 0.004156 -0.004972 0.025952
#
#
# Mechanical properties :
#
#
# Convention : Reuss Voigt Hill
#
# Bulk Modulus (GPa) = 38.13402 60.70698 49.42050
# Shear Modulus (GPa) = 38.85061 48.38551 43.61806
#
# Velocity S-wave (km/s) = 3.91260 4.36640 4.14571
# Velocity P-wave (km/s) = 5.95292 7.02433 6.51070
#
# Compressibility (1/GPa) = 0.02622331
#
# Stress axis : x y z
#
# Youngs Moduli (GPa) = 116.54814 124.28964 48.08142
#
# Poissons Ratio (x) = 0.32134 -0.00910
# Poissons Ratio (y) = 0.30133 0.15406
# Poissons Ratio (z) = -0.02206 0.39825
#
# Static dielectric constant tensor:
#      x y z
#    x 2.116650 0.162100 0.149770 
#    y 0.162100 2.335320 0.095770 
#    z 0.149770 0.095770 2.118890 
# 
# From -- ./inp_files/322475.got.cif
#   From: 2010.05.17/outbox.cif.g08.bks.cpg/sg2_162_cif.got.tgz:322475.got - 2010.06.03 11:33:40.
