data_PCOD9043969
_publ_section_title
;
Structure prediction by ZEFSAII (Michael W. Deem and Ramdas Pophale) SiO2 
 PCOD9043969
Probable space group: P -1
;
_chemical_formula_sum "Si O2"
_cell_formula_units_Z 14
_cell_length_a 10.503724
_cell_length_b 6.972361
_cell_length_c 9.570672
_cell_angle_alpha 74.935590
_cell_angle_beta 65.757945
_cell_angle_gamma 59.316998
_cell_volume 548.499501
_symmetry_space_group_name_H-M "P -1"
_symmetry_group_IT_number 2
_symmetry_cell_setting 'triclinic'
loop_
_space_group_symop_operation_xyz
x,y,z
-x,-y,-z
loop_
_atom_site_type_symbol
_atom_site_label
_atom_site_fract_x
_atom_site_fract_y
_atom_site_fract_z
Si Si1 0.993844 0.342342 0.331707
Si Si2 0.438163 0.781792 0.625911
Si Si3 0.869362 0.146824 0.920221
Si Si4 0.674941 0.564895 0.327566
Si Si5 0.231844 0.351469 0.017957
Si Si6 0.101231 0.156730 0.607927
Si Si7 0.527970 0.247815 0.067907
O O1 0.091728 0.176298 0.441678
O O2 0.823203 0.364109 0.373879
O O3 0.942371 0.595009 0.362711
O O4 0.095533 0.306898 0.153729
O O5 0.563306 0.743889 0.455324
O O6 0.421052 0.552032 0.676648
O O7 0.498778 0.789539 0.751194
O O8 0.267795 0.980606 0.628146
O O9 0.958917 0.117179 0.739742
O O10 0.815373 0.395253 0.958181
O O11 0.715260 0.110480 0.986864
O O12 0.000000 0.000000 0.000000
O O13 0.743819 0.657581 0.157099
O O14 0.399762 0.216172 0.041579
O O15 0.500000 0.500000 0.000000
#
# Coordination Sequence:
#
# PCOD9043969 Si02
#       7
#     2   2   2   2   2   2   2
#     4  10  24  40  65  85 127 165 205 250 304 366
#     4  11  23  39  65  95 122 155 209 255 310 354
#     4  10  17  33  62  91 116 148 210 256 291 344
#     4  11  23  40  63  91 128 160 195 263 314 355
#     4  10  21  40  60  87 123 165 204 241 313 362
#     4  10  22  41  60  96 117 162 213 247 296 371
#     4  10  19  35  63  91 118 160 202 254 289 368
#
# _framework density 25.524177000000002
#
# number of rings (size 3 to 8) (size 9 to 14) (size 15 to 20)
#    0.000    1.714    4.286    0.429    8.000    1.143 
#    0.000    2.143    0.000    0.000    0.000    0.000 
#    0.000    0.000    0.000    0.000    0.000    0.000 
#
# Total GULP energy -78459.354500 kJ/mol
# GULP energy per Si atom -5604.239607 kJ/mol
# Density = 2.546608 g / cm^3
# Si number density = 25.524177 Si / 1000 Ang^3
#
#
#
# Elastic Constant Matrix: (Units=GPa)
#
#
# Indices 1 2 3 4 5 6 
#
# 1 92.5520 16.5331 9.7013 -5.0026 -7.1537 -28.8708
# 2 16.5331 123.2693 47.2269 11.6193 7.2705 -28.1532
# 3 9.7013 47.2269 182.5608 4.5553 -2.2767 -29.2518
# 4 -5.0026 11.6193 4.5553 36.9754 -10.5429 -2.6003
# 5 -7.1537 7.2705 -2.2767 -10.5429 41.6712 -9.0145
# 6 -28.8708 -28.1532 -29.2518 -2.6003 -9.0145 45.6089
#
#
#
# Elastic Compliance Matrix: (Units=1/GPa)
#
#
# Indices 1 2 3 4 5 6 
#
# 1 0.015138 -0.000694 0.001172 0.004772 0.006469 0.011456
# 2 -0.000694 0.010313 -0.001912 -0.003376 -0.001987 0.004115
# 3 0.001172 -0.001912 0.006594 0.000821 0.002019 0.004237
# 4 0.004772 -0.003376 0.000821 0.032095 0.010745 0.005417
# 5 0.006469 -0.001987 0.002019 0.010745 0.030626 0.010829
# 6 0.011456 0.004115 0.004237 0.005417 0.010829 0.036884
#
#
# Mechanical properties :
#
#
# Convention : Reuss Voigt Hill
#
# Bulk Modulus (GPa) = 34.27470 60.58942 47.43206
# Shear Modulus (GPa) = 34.66364 46.51250 40.58807
#
# Velocity S-wave (km/s) = 3.68920 4.27346 3.99203
# Velocity P-wave (km/s) = 5.62178 6.93827 6.31443
#
# Compressibility (1/GPa) = 0.02917604
#
# Stress axis : x y z
#
# Youngs Moduli (GPa) = 66.06088 96.96172 151.66375
#
# Poissons Ratio (x) = 0.06733 -0.17782
# Poissons Ratio (y) = 0.04587 0.29002
# Poissons Ratio (z) = -0.07745 0.18542
#
# Static dielectric constant tensor:
#      x y z
#    x 2.015970 0.061520 -0.039410 
#    y 0.061520 2.074540 0.009810 
#    z -0.039410 0.009810 1.952150 
# 
# From -- ./inp_files/181688.got.cif
#   From: 2010.05.17/outbox.cif.g08.bks.cpg/sg2_91_cif.got.tgz:181688.got - 2010.06.03 11:33:40.
