data_PCOD9043205
_publ_section_title
;
Structure prediction by ZEFSAII (Michael W. Deem and Ramdas Pophale) SiO2 
 PCOD9043205
Probable space group: P -1
;
_chemical_formula_sum "Si O2"
_cell_formula_units_Z 15
_cell_length_a 7.746547
_cell_length_b 9.084775
_cell_length_c 8.284776
_cell_angle_alpha 94.250321
_cell_angle_beta 84.184137
_cell_angle_gamma 90.583435
_cell_volume 578.447908
_symmetry_space_group_name_H-M "P -1"
_symmetry_group_IT_number 2
_symmetry_cell_setting 'triclinic'
loop_
_space_group_symop_operation_xyz
x,y,z
-x,-y,-z
loop_
_atom_site_type_symbol
_atom_site_label
_atom_site_fract_x
_atom_site_fract_y
_atom_site_fract_z
Si Si1 0.745962 0.737397 0.609779
Si Si2 0.471500 0.222970 0.683075
Si Si3 0.000000 0.000000 0.500000
Si Si4 0.498070 0.934350 0.815333
Si Si5 0.910200 0.800846 0.185168
Si Si6 0.660055 0.418603 0.906769
Si Si7 0.166640 0.780820 0.876784
Si Si8 0.969104 0.519186 0.735099
O O1 0.606276 0.740939 0.479778
O O2 0.890780 0.860600 0.574001
O O3 0.628688 0.797176 0.773271
O O4 0.848431 0.583125 0.608012
O O5 0.297400 0.214741 0.808084
O O6 0.604410 0.347518 0.736907
O O7 0.554771 0.062096 0.691986
O O8 0.972592 0.926751 0.313070
O O9 0.299557 0.889949 0.785507
O O10 0.500000 0.000000 0.000000
O O11 0.968053 0.647077 0.256685
O O12 0.001413 0.825605 0.004672
O O13 0.826216 0.523496 0.893083
O O14 0.500000 0.500000 0.000000
O O15 0.708046 0.282174 0.001612
O O16 0.113080 0.642627 0.760574
#
# Coordination Sequence:
#
# PCOD9043205 Si02
#       8
#     2   2   1   2   2   2   2   2
#     4  11  27  47  69 108 139 194 236 285 365 418
#     4  11  25  44  70 103 146 190 227 301 352 422
#     4  10  24  44  70  92 148 188 224 290 346 430
#     4  12  25  45  73 108 142 187 241 294 353 426
#     4  10  23  45  69 107 142 186 238 290 363 409
#     4  11  21  42  69 101 142 184 238 292 354 416
#     4  11  23  41  71 108 138 183 237 299 348 414
#     4  11  25  43  73 103 142 187 236 295 347 428
#
# _framework density 25.931463999999998
#
# number of rings (size 3 to 8) (size 9 to 14) (size 15 to 20)
#    0.000    1.067    1.333    5.200    7.467    3.200 
#    0.000    1.333    0.000    0.000    0.000    0.000 
#    0.000    0.000    0.000    0.000    0.000    0.000 
#
# Total GULP energy -83648.219406 kJ/mol
# GULP energy per Si atom -5576.547960 kJ/mol
# Density = 2.587244 g / cm^3
# Si number density = 25.931464 Si / 1000 Ang^3
#
#
#
# Elastic Constant Matrix: (Units=GPa)
#
#
# Indices 1 2 3 4 5 6 
#
# 1 81.9801 45.1975 -10.1448 7.5858 7.8308 5.9570
# 2 45.1975 115.6563 24.1861 -2.9225 30.9915 7.4020
# 3 -10.1448 24.1861 48.2034 4.1984 26.2768 3.8323
# 4 7.5858 -2.9225 4.1984 35.2826 7.3744 8.1374
# 5 7.8308 30.9915 26.2768 7.3744 51.3746 -0.9107
# 6 5.9570 7.4020 3.8323 8.1374 -0.9107 57.0580
#
#
#
# Elastic Compliance Matrix: (Units=1/GPa)
#
#
# Indices 1 2 3 4 5 6 
#
# 1 0.019357 -0.009330 0.010275 -0.005616 -0.001784 -0.000728
# 2 -0.009330 0.015374 -0.007380 0.005500 -0.004892 -0.001387
# 3 0.010275 -0.007380 0.035033 -0.003432 -0.014579 -0.002212
# 4 -0.005616 0.005500 -0.003432 0.032627 -0.005472 -0.004637
# 5 -0.001784 -0.004892 -0.014579 -0.005472 0.030985 0.003075
# 6 -0.000728 -0.001387 -0.002212 -0.004637 0.003075 0.018641
#
#
# Mechanical properties :
#
#
# Convention : Reuss Voigt Hill
#
# Bulk Modulus (GPa) = 17.57682 40.47971 29.02827
# Shear Modulus (GPa) = 27.19575 41.18310 34.18942
#
# Velocity S-wave (km/s) = 3.24196 3.98949 3.63499
# Velocity P-wave (km/s) = 4.56143 6.07170 5.36992
#
# Compressibility (1/GPa) = 0.05689310
#
# Stress axis : x y z
#
# Youngs Moduli (GPa) = 51.66190 65.04310 28.54454
#
# Poissons Ratio (x) = 0.60688 -0.29329
# Poissons Ratio (y) = 0.48203 0.21066
# Poissons Ratio (z) = -0.53082 0.48001
#
# Static dielectric constant tensor:
#      x y z
#    x 1.990790 -0.056750 -0.029030 
#    y -0.056750 2.091470 -0.048910 
#    z -0.029030 -0.048910 2.107190 
# 
# From -- ./inp_files/155450.got.cif
#   From: 2010.05.17/outbox.cif.g08.bks.cpg/sg2_78_cif.got.tgz:155450.got - 2010.06.03 11:33:40.
