data_PCOD9043112
_publ_section_title
;
Structure prediction by ZEFSAII (Michael W. Deem and Ramdas Pophale) SiO2 
 PCOD9043112
Probable space group: P -1
;
_chemical_formula_sum "Si O2"
_cell_formula_units_Z 14
_cell_length_a 19.969088
_cell_length_b 9.729540
_cell_length_c 5.193490
_cell_angle_alpha 75.045466
_cell_angle_beta 70.847975
_cell_angle_gamma 127.716917
_cell_volume 595.198664
_symmetry_space_group_name_H-M "P -1"
_symmetry_group_IT_number 2
_symmetry_cell_setting 'triclinic'
loop_
_space_group_symop_operation_xyz
x,y,z
-x,-y,-z
loop_
_atom_site_type_symbol
_atom_site_label
_atom_site_fract_x
_atom_site_fract_y
_atom_site_fract_z
Si Si1 0.371561 0.768343 0.753474
Si Si2 0.269849 0.152300 0.593228
Si Si3 0.977071 0.132064 0.979870
Si Si4 0.819141 0.208596 0.763029
Si Si5 0.029543 0.384669 0.270617
Si Si6 0.392427 0.628575 0.291059
Si Si7 0.651763 0.013694 0.677486
O O1 0.355815 0.629028 0.614283
O O2 0.500000 0.000000 0.500000
O O3 0.327301 0.846854 0.651893
O O4 0.343056 0.652809 0.116099
O O5 0.351813 0.407528 0.402400
O O6 0.322293 0.108552 0.375068
O O7 0.243956 0.028387 0.948940
O O8 0.151284 0.032733 0.717724
O O9 0.005332 0.245832 0.614367
O O10 0.045119 0.313866 0.032919
O O11 0.000000 0.000000 0.000000
O O12 0.877421 0.368453 0.858842
O O13 0.921299 0.316042 0.406935
O O14 0.735156 0.173302 0.725293
O O15 0.525195 0.838181 0.005365
#
# Coordination Sequence:
#
# PCOD9043112 Si02
#       7
#     2   2   2   2   2   2   2
#     4  10  24  46  67  96 139 187 232 282 340 410
#     4  11  26  43  69 104 141 180 237 286 345 415
#     4  11  24  46  68  99 140 183 227 290 353 416
#     4  10  24  40  72 102 136 178 235 293 344 405
#     4  10  23  45  68  98 137 176 232 290 346 407
#     4  11  26  45  69 101 145 186 224 286 350 411
#     4  11  23  43  71 102 139 185 235 285 339 419
#
# _framework density 23.521559
#
# number of rings (size 3 to 8) (size 9 to 14) (size 15 to 20)
#    0.000    1.429    1.429    2.571   10.000    3.429 
#    0.000    0.000    0.000    0.000    0.000    0.000 
#    0.000    0.000    0.000    0.000    0.000    0.000 
#
# Total GULP energy -78375.245873 kJ/mol
# GULP energy per Si atom -5598.231848 kJ/mol
# Density = 2.346802 g / cm^3
# Si number density = 23.521559 Si / 1000 Ang^3
#
#
#
# Elastic Constant Matrix: (Units=GPa)
#
#
# Indices 1 2 3 4 5 6 
#
# 1 163.6552 78.6076 42.5970 -1.9764 12.0420 -1.9534
# 2 78.6076 138.3017 29.8823 22.7599 13.6889 -8.3016
# 3 42.5970 29.8823 59.6640 -3.1805 6.4911 9.3392
# 4 -1.9764 22.7599 -3.1805 35.2210 0.7915 3.8457
# 5 12.0420 13.6889 6.4911 0.7915 31.4279 9.3403
# 6 -1.9534 -8.3016 9.3392 3.8457 9.3403 45.3095
#
#
#
# Elastic Compliance Matrix: (Units=1/GPa)
#
#
# Indices 1 2 3 4 5 6 
#
# 1 0.009761 -0.005131 -0.004159 0.003483 -0.000795 0.000206
# 2 -0.005131 0.013224 -0.003745 -0.009585 -0.004159 0.004645
# 3 -0.004159 -0.003745 0.022788 0.004897 0.000183 -0.006016
# 4 0.003483 -0.009585 0.004897 0.035842 0.002778 -0.006230
# 5 -0.000795 -0.004159 0.000183 0.002778 0.036374 -0.008568
# 6 0.000206 0.004645 -0.006016 -0.006230 -0.008568 0.026465
#
#
# Mechanical properties :
#
#
# Convention : Reuss Voigt Hill
#
# Bulk Modulus (GPa) = 50.75474 73.75497 62.25486
# Shear Modulus (GPa) = 28.23394 36.42729 32.33062
#
# Velocity S-wave (km/s) = 3.46836 3.93959 3.71146
# Velocity P-wave (km/s) = 6.13711 7.21930 6.70009
#
# Compressibility (1/GPa) = 0.01970259
#
# Stress axis : x y z
#
# Youngs Moduli (GPa) = 102.45302 75.61869 43.88243
#
# Poissons Ratio (x) = 0.38803 0.18249
# Poissons Ratio (y) = 0.52572 0.16435
# Poissons Ratio (z) = 0.42606 0.28321
#
# Static dielectric constant tensor:
#      x y z
#    x 1.901500 -0.012890 -0.032240 
#    y -0.012890 1.882950 0.038940 
#    z -0.032240 0.038940 1.968020 
# 
# From -- ./inp_files/106496.got.cif
#   From: 2010.05.17/outbox.cif.g08.bks.cpg/sg2_54_cif.got.tgz:106496.got - 2010.06.03 11:33:40.
