data_PCOD9043486
_publ_section_title
;
Structure prediction by ZEFSAII (Michael W. Deem and Ramdas Pophale) SiO2 
 PCOD9043486
Probable space group: P -1
;
_chemical_formula_sum "Si O2"
_cell_formula_units_Z 16
_cell_length_a 11.340341
_cell_length_b 14.159118
_cell_length_c 14.559919
_cell_angle_alpha 150.115271
_cell_angle_beta 59.549134
_cell_angle_gamma 140.041433
_cell_volume 650.843115
_symmetry_space_group_name_H-M "P -1"
_symmetry_group_IT_number 2
_symmetry_cell_setting 'triclinic'
loop_
_space_group_symop_operation_xyz
x,y,z
-x,-y,-z
loop_
_atom_site_type_symbol
_atom_site_label
_atom_site_fract_x
_atom_site_fract_y
_atom_site_fract_z
Si Si1 0.312880 0.723878 0.146334
Si Si2 0.928484 0.605654 0.457980
Si Si3 0.464773 0.738461 0.775364
Si Si4 0.143433 0.912881 0.981659
Si Si5 0.294301 0.067639 0.558704
Si Si6 0.263387 0.022268 0.821673
Si Si7 0.214281 0.341483 0.715882
Si Si8 0.697896 0.550807 0.910051
O O1 0.566049 0.967394 0.239155
O O2 0.253240 0.508378 0.066203
O O3 0.255306 0.868829 0.328599
O O4 0.206493 0.530922 0.933802
O O5 0.691728 0.439288 0.400086
O O6 0.910851 0.366923 0.237820
O O7 0.095502 0.864128 0.535063
O O8 0.039281 0.736583 0.623319
O O9 0.325667 0.504081 0.714156
O O10 0.500000 0.000000 0.000000
O O11 0.695282 0.891443 0.831387
O O12 0.924129 0.787343 0.970268
O O13 0.244320 0.061938 0.968424
O O14 0.336758 0.316556 0.707635
O O15 0.509427 0.241395 0.673078
O O16 0.353221 0.280585 0.936275
O O17 0.000000 0.000000 0.500000
#
# Coordination Sequence:
#
# PCOD9043486 Si02
#       8
#     2   2   2   2   2   2   2   2
#     4  12  24  42  71 106 140 182 236 299 356 413
#     4  11  22  41  67  98 137 187 235 290 352 422
#     4  10  23  45  71  92 144 193 224 287 363 417
#     4  11  23  43  65  97 141 187 233 289 356 428
#     4  12  23  42  70 107 140 178 239 300 349 413
#     4  12  23  40  70 101 134 187 237 289 358 416
#     4  12  25  45  72 103 140 186 243 293 343 424
#     4  12  23  41  69 102 143 177 234 300 356 414
#
# _framework density 24.583497999999999
#
# number of rings (size 3 to 8) (size 9 to 14) (size 15 to 20)
#    0.000    0.500    6.250    3.000    0.000    0.500 
#    0.000    0.625    0.000    0.000    0.000    0.000 
#    0.000    0.000    0.000    0.000    0.000    0.000 
#
# Total GULP energy -89452.576594 kJ/mol
# GULP energy per Si atom -5590.786037 kJ/mol
# Density = 2.452755 g / cm^3
# Si number density = 24.583498 Si / 1000 Ang^3
#
#
#
# Elastic Constant Matrix: (Units=GPa)
#
#
# Indices 1 2 3 4 5 6 
#
# 1 73.8960 6.6065 32.4396 9.1977 22.7002 5.0437
# 2 6.6065 43.7541 -6.3442 19.6759 0.8126 -4.8629
# 3 32.4396 -6.3442 109.4179 9.3998 20.7923 19.1786
# 4 9.1977 19.6759 9.3998 41.0445 4.9369 -9.5050
# 5 22.7002 0.8126 20.7923 4.9369 58.6329 14.2011
# 6 5.0437 -4.8629 19.1786 -9.5050 14.2011 28.3268
#
#
#
# Elastic Compliance Matrix: (Units=1/GPa)
#
#
# Indices 1 2 3 4 5 6 
#
# 1 0.017417 -0.002813 -0.004635 -0.000301 -0.005580 0.002251
# 2 -0.002813 0.030701 0.004292 -0.015937 0.001234 -0.003101
# 3 -0.004635 0.004292 0.012913 -0.006085 -0.000112 -0.009167
# 4 -0.000301 -0.015937 -0.006085 0.037846 -0.004684 0.016485
# 5 -0.005580 0.001234 -0.000112 -0.004684 0.022426 -0.011533
# 6 0.002251 -0.003101 -0.009167 0.016485 -0.011533 0.051889
#
#
# Mechanical properties :
#
#
# Convention : Reuss Voigt Hill
#
# Bulk Modulus (GPa) = 18.27512 32.49686 25.38599
# Shear Modulus (GPa) = 25.28540 38.55858 31.92199
#
# Velocity S-wave (km/s) = 3.21058 3.96469 3.60740
# Velocity P-wave (km/s) = 4.60368 5.84859 5.26307
#
# Compressibility (1/GPa) = 0.05471920
#
# Stress axis : x y z
#
# Youngs Moduli (GPa) = 57.41618 32.57213 77.44139
#
# Poissons Ratio (x) = 0.09162 0.35894
# Poissons Ratio (y) = 0.16150 -0.33238
# Poissons Ratio (z) = 0.26612 -0.13980
#
# Static dielectric constant tensor:
#      x y z
#    x 2.037380 0.051760 0.085200 
#    y 0.051760 1.999100 -0.014070 
#    z 0.085200 -0.014070 1.985370 
# 
# From -- ./inp_files/308314.got.cif
#   From: 2010.05.17/outbox.cif.g08.bks.cpg/sg2_155_cif.got.tgz:308314.got - 2010.06.03 11:33:40.
