data_PCOD9043488
_publ_section_title
;
Structure prediction by ZEFSAII (Michael W. Deem and Ramdas Pophale) SiO2 
 PCOD9043488
Probable space group: P -1
;
_chemical_formula_sum "Si O2"
_cell_formula_units_Z 16
_cell_length_a 9.471080
_cell_length_b 9.332324
_cell_length_c 18.573904
_cell_angle_alpha 41.403823
_cell_angle_beta 128.591370
_cell_angle_gamma 134.167184
_cell_volume 760.913657
_symmetry_space_group_name_H-M "P -1"
_symmetry_group_IT_number 2
_symmetry_cell_setting 'triclinic'
loop_
_space_group_symop_operation_xyz
x,y,z
-x,-y,-z
loop_
_atom_site_type_symbol
_atom_site_label
_atom_site_fract_x
_atom_site_fract_y
_atom_site_fract_z
Si Si1 0.308079 0.257027 0.791105
Si Si2 0.148963 0.283818 0.439578
Si Si3 0.964419 0.650939 0.219832
Si Si4 0.345307 0.336651 0.169232
Si Si5 0.584617 0.978985 0.786465
Si Si6 0.553951 0.609588 0.378035
Si Si7 0.046515 0.727288 0.877537
Si Si8 0.259453 0.540163 0.919773
O O1 0.501420 0.412960 0.841976
O O2 0.367346 0.350221 0.693472
O O3 0.132185 0.301442 0.757006
O O4 0.231561 0.969377 0.873037
O O5 0.015717 0.425660 0.329737
O O6 0.338811 0.375338 0.409634
O O7 0.270699 0.378780 0.517567
O O8 0.000000 0.000000 0.500000
O O9 0.176885 0.873247 0.184622
O O10 0.814857 0.604930 0.122668
O O11 0.150556 0.228097 0.199098
O O12 0.442684 0.157046 0.247948
O O13 0.275118 0.392035 0.048572
O O14 0.491899 0.167815 0.694450
O O15 0.470822 0.769447 0.886709
O O16 0.103069 0.648290 0.850096
O O17 0.000000 0.500000 0.000000
#
# Coordination Sequence:
#
# PCOD9043488 Si02
#       8
#     2   2   2   2   2   2   2   2
#     4  12  24  42  64  98 135 168 220 267 314 380
#     4  10  23  45  71  93 123 165 213 270 337 393
#     4  11  25  40  68  94 126 174 215 267 322 382
#     4  11  25  39  62  95 134 174 214 268 315 373
#     4  11  21  41  64  91 130 171 216 261 319 384
#     4  10  24  43  69  96 124 165 216 270 329 390
#     4  10  24  42  61  93 133 176 220 261 312 376
#     4  11  23  41  61  93 130 177 219 254 319 383
#
# _framework density 21.027352
#
# number of rings (size 3 to 8) (size 9 to 14) (size 15 to 20)
#    0.000    1.250    3.750    1.125    3.500    5.000 
#    0.000    0.625    0.000    0.000    0.000    0.000 
#    0.000    0.000    0.000    0.000    0.000    0.000 
#
# Total GULP energy -89337.559028 kJ/mol
# GULP energy per Si atom -5583.597439 kJ/mol
# Density = 2.097949 g / cm^3
# Si number density = 21.027352 Si / 1000 Ang^3
#
#
#
# Elastic Constant Matrix: (Units=GPa)
#
#
# Indices 1 2 3 4 5 6 
#
# 1 134.5823 12.9224 27.1206 3.0241 -27.1392 -7.9028
# 2 12.9224 93.5872 30.1662 -14.7304 -19.9733 6.2090
# 3 27.1206 30.1662 67.1337 6.9810 -12.5897 -1.0342
# 4 3.0241 -14.7304 6.9810 29.3392 4.8943 -5.9645
# 5 -27.1392 -19.9733 -12.5897 4.8943 24.8216 -0.4975
# 6 -7.9028 6.2090 -1.0342 -5.9645 -0.4975 33.2013
#
#
#
# Elastic Compliance Matrix: (Units=1/GPa)
#
#
# Indices 1 2 3 4 5 6 
#
# 1 0.010240 0.001512 -0.002522 -0.001186 0.011408 0.002034
# 2 0.001512 0.016004 -0.006830 0.007644 0.009533 -0.001330
# 3 -0.002522 -0.006830 0.020631 -0.008775 0.003937 -0.000198
# 4 -0.001186 0.007644 -0.008775 0.042574 -0.007880 0.005545
# 5 0.011408 0.009533 0.003937 -0.007880 0.063995 0.000599
# 6 0.002034 -0.001330 -0.000198 0.005545 0.000599 0.031851
#
#
# Mechanical properties :
#
#
# Convention : Reuss Voigt Hill
#
# Bulk Modulus (GPa) = 32.05556 48.41349 40.23453
# Shear Modulus (GPa) = 23.65493 32.47870 28.06682
#
# Velocity S-wave (km/s) = 3.35768 3.93439 3.65742
# Velocity P-wave (km/s) = 5.50544 6.61161 6.08371
#
# Compressibility (1/GPa) = 0.03119583
#
# Stress axis : x y z
#
# Youngs Moduli (GPa) = 97.65537 62.48551 48.47029
#
# Poissons Ratio (x) = -0.09449 0.12225
# Poissons Ratio (y) = -0.14768 0.33103
# Poissons Ratio (z) = 0.24631 0.42675
#
# Static dielectric constant tensor:
#      x y z
#    x 1.834910 -0.001470 0.047070 
#    y -0.001470 1.768690 -0.031700 
#    z 0.047070 -0.031700 1.765040 
# 
# From -- ./inp_files/313121.got.cif
#   From: 2010.05.17/outbox.cif.g08.bks.cpg/sg2_157_cif.got.tgz:313121.got - 2010.06.03 11:33:40.
