data_PCOD9043679
_publ_section_title
;
Structure prediction by ZEFSAII (Michael W. Deem and Ramdas Pophale) SiO2 
 PCOD9043679
Probable space group: P -1
;
_chemical_formula_sum "Si O2"
_cell_formula_units_Z 14
_cell_length_a 20.076780
_cell_length_b 5.993616
_cell_length_c 17.491060
_cell_angle_alpha 107.111754
_cell_angle_beta 162.494713
_cell_angle_gamma 73.048653
_cell_volume 604.629287
_symmetry_space_group_name_H-M "P -1"
_symmetry_group_IT_number 2
_symmetry_cell_setting 'triclinic'
loop_
_space_group_symop_operation_xyz
x,y,z
-x,-y,-z
loop_
_atom_site_type_symbol
_atom_site_label
_atom_site_fract_x
_atom_site_fract_y
_atom_site_fract_z
Si Si1 0.652421 0.150986 0.627097
Si Si2 0.390112 0.254718 0.871067
Si Si3 0.557828 0.006672 0.245352
Si Si4 0.656528 0.522477 0.785430
Si Si5 0.113874 0.193418 0.695623
Si Si6 0.335662 0.222921 0.510573
Si Si7 0.923260 0.374754 0.656409
O O1 0.764075 0.335135 0.823532
O O2 0.496475 0.304772 0.415242
O O3 0.500000 0.000000 0.500000
O O4 0.771264 0.962834 0.682482
O O5 0.329420 0.169005 0.711526
O O6 0.220510 0.339225 0.759938
O O7 0.500000 0.500000 0.000000
O O8 0.500000 0.000000 0.000000
O O9 0.525793 0.905149 0.283671
O O10 0.729596 0.212929 0.457160
O O11 0.319250 0.084380 0.958123
O O12 0.497878 0.383932 0.655471
O O13 0.842567 0.656889 0.047707
O O14 0.956958 0.324746 0.598232
O O15 0.000000 0.000000 0.500000
O O16 0.156613 0.369248 0.378621
#
# Coordination Sequence:
#
# PCOD9043679 Si02
#       7
#     2   2   2   2   2   2   2
#     4   9  20  44  72 102 138 182 229 287 354 426
#     4  10  24  46  73  99 142 191 244 312 371 430
#     4  11  26  44  68  98 145 182 239 303 363 427
#     4  10  23  45  73  99 141 184 232 288 355 437
#     4  11  24  48  71 100 141 191 248 301 365 437
#     4  11  24  42  68 103 143 184 230 299 356 431
#     4  12  25  42  69 103 141 185 239 291 368 427
#
# _framework density 23.154684
#
# number of rings (size 3 to 8) (size 9 to 14) (size 15 to 20)
#    0.000    1.429    1.429    2.571    6.000    4.000 
#    2.571   13.571    0.000    0.000    0.000    0.000 
#    0.000    0.000    0.000    0.000    0.000    0.000 
#
# Total GULP energy -78097.829105 kJ/mol
# GULP energy per Si atom -5578.416365 kJ/mol
# Density = 2.310198 g / cm^3
# Si number density = 23.154684 Si / 1000 Ang^3
#
#
#
# Elastic Constant Matrix: (Units=GPa)
#
#
# Indices 1 2 3 4 5 6 
#
# 1 184.0898 79.3936 41.0743 -1.8287 -20.0348 -11.2382
# 2 79.3936 113.5836 36.6495 9.7521 -6.1346 -16.7411
# 3 41.0743 36.6495 89.7590 8.5889 -12.8783 -3.0590
# 4 -1.8287 9.7521 8.5889 29.9805 -13.1225 -0.3213
# 5 -20.0348 -6.1346 -12.8783 -13.1225 27.0570 11.5052
# 6 -11.2382 -16.7411 -3.0590 -0.3213 11.5052 61.0825
#
#
#
# Elastic Compliance Matrix: (Units=1/GPa)
#
#
# Indices 1 2 3 4 5 6 
#
# 1 0.009517 -0.006700 -0.001032 0.007088 0.009259 -0.001843
# 2 -0.006700 0.015555 -0.003643 -0.008386 -0.009162 0.004530
# 3 -0.001032 -0.003643 0.013874 -0.000498 0.005416 -0.001516
# 4 0.007088 -0.008386 -0.000498 0.049689 0.029929 -0.006395
# 5 0.009259 -0.009162 0.005416 0.029929 0.064128 -0.012458
# 6 -0.001843 0.004530 -0.001516 -0.006395 -0.012458 0.019510
#
#
# Mechanical properties :
#
#
# Convention : Reuss Voigt Hill
#
# Bulk Modulus (GPa) = 61.74250 77.96300 69.85275
# Shear Modulus (GPa) = 24.94711 38.97833 31.96272
#
# Velocity S-wave (km/s) = 3.28595 4.10736 3.71940
# Velocity P-wave (km/s) = 6.41247 7.49917 6.97701
#
# Compressibility (1/GPa) = 0.01619630
#
# Stress axis : x y z
#
# Youngs Moduli (GPa) = 105.07079 64.28599 72.07695
#
# Poissons Ratio (x) = 0.43070 0.07441
# Poissons Ratio (y) = 0.70394 0.26260
# Poissons Ratio (z) = 0.10847 0.23421
#
# Static dielectric constant tensor:
#      x y z
#    x 1.859190 -0.053640 -0.003350 
#    y -0.053640 1.952980 -0.028180 
#    z -0.003350 -0.028180 1.863730 
# 
# From -- ./inp_files/576831.got.cif
#   From: 2010.05.17/outbox.cif.g08.bks.cpg/sg2_289_cif.got.tgz:576831.got - 2010.06.03 11:33:40.
