data_PCOD9043937
_publ_section_title
;
Structure prediction by ZEFSAII (Michael W. Deem and Ramdas Pophale) SiO2 
 PCOD9043937
Probable space group: P -1
;
_chemical_formula_sum "Si O2"
_cell_formula_units_Z 16
_cell_length_a 15.088674
_cell_length_b 9.021865
_cell_length_c 7.735342
_cell_angle_alpha 97.600637
_cell_angle_beta 90.469001
_cell_angle_gamma 38.938638
_cell_volume 648.358085
_symmetry_space_group_name_H-M "P -1"
_symmetry_group_IT_number 2
_symmetry_cell_setting 'triclinic'
loop_
_space_group_symop_operation_xyz
x,y,z
-x,-y,-z
loop_
_atom_site_type_symbol
_atom_site_label
_atom_site_fract_x
_atom_site_fract_y
_atom_site_fract_z
Si Si1 0.630226 0.617026 0.308616
Si Si2 0.939216 0.750366 0.185189
Si Si3 0.261026 0.378450 0.017445
Si Si4 0.373700 0.459751 0.313710
Si Si5 0.644369 0.029549 0.842691
Si Si6 0.644557 0.253662 0.143330
Si Si7 0.094029 0.012288 0.438974
Si Si8 0.967045 0.639999 0.689261
O O1 0.646863 0.598830 0.512542
O O2 0.659797 0.406200 0.217185
O O3 0.468188 0.866098 0.288249
O O4 0.718888 0.606013 0.179884
O O5 0.899543 0.883886 0.384458
O O6 0.095481 0.599325 0.107698
O O7 0.952757 0.554846 0.188747
O O8 0.805006 0.972933 0.103832
O O9 0.341171 0.395800 0.141017
O O10 0.336043 0.123941 0.034546
O O11 0.529845 0.328303 0.282327
O O12 0.250091 0.748781 0.351806
O O13 0.799012 0.841783 0.737648
O O14 0.595729 0.251838 0.957388
O O15 0.013727 0.210257 0.318234
O O16 0.000000 0.000000 0.500000
O O17 0.000000 0.500000 0.500000
#
# Coordination Sequence:
#
# PCOD9043937 Si02
#       8
#     2   2   2   2   2   2   2   2
#     4  12  26  45  75 108 138 194 239 296 365 417
#     4  10  23  46  67 103 142 186 237 293 355 429
#     4  11  26  50  70 103 150 184 240 301 355 427
#     4  12  26  45  75 106 143 188 243 294 355 431
#     4  11  25  47  70 103 146 190 238 298 357 425
#     4  12  26  45  73 106 144 187 244 297 353 432
#     4  11  21  42  69 104 141 184 237 299 350 418
#     4   9  22  40  68  97 137 191 229 285 356 420
#
# _framework density 24.677720000000001
#
# number of rings (size 3 to 8) (size 9 to 14) (size 15 to 20)
#    0.000    1.000    3.750    1.875    5.250    3.000 
#    4.500    0.000    0.000    0.000    0.000    0.000 
#    0.000    0.000    0.000    0.000    0.000    0.000 
#
# Total GULP energy -89572.917233 kJ/mol
# GULP energy per Si atom -5598.307327 kJ/mol
# Density = 2.462155 g / cm^3
# Si number density = 24.677720 Si / 1000 Ang^3
#
#
#
# Elastic Constant Matrix: (Units=GPa)
#
#
# Indices 1 2 3 4 5 6 
#
# 1 98.4063 42.3599 4.1581 4.3902 -24.6764 10.3831
# 2 42.3599 131.4218 14.9256 8.0808 -18.2920 0.5466
# 3 4.1581 14.9256 88.3997 -0.1424 -17.3060 1.6912
# 4 4.3902 8.0808 -0.1424 46.8142 -0.5656 -6.6578
# 5 -24.6764 -18.2920 -17.3060 -0.5656 38.6287 -8.9867
# 6 10.3831 0.5466 1.6912 -6.6578 -8.9867 35.0575
#
#
#
# Elastic Compliance Matrix: (Units=1/GPa)
#
#
# Indices 1 2 3 4 5 6 
#
# 1 0.013702 -0.003514 0.001390 -0.000932 0.007136 -0.002418
# 2 -0.003514 0.009186 -0.001037 -0.001060 0.001913 0.001236
# 3 0.001390 -0.001037 0.012625 0.000252 0.006205 0.000634
# 4 -0.000932 -0.001060 0.000252 0.022294 0.000417 0.004621
# 5 0.007136 0.001913 0.006205 0.000417 0.035718 0.006793
# 6 -0.002418 0.001236 0.000634 0.004621 0.006793 0.031810
#
#
# Mechanical properties :
#
#
# Convention : Reuss Voigt Hill
#
# Bulk Modulus (GPa) = 34.25515 49.01277 41.63396
# Shear Modulus (GPa) = 35.36451 41.21903 38.29177
#
# Velocity S-wave (km/s) = 3.78968 4.09136 3.94340
# Velocity P-wave (km/s) = 5.74978 6.49794 6.13527
#
# Compressibility (1/GPa) = 0.02919269
#
# Stress axis : x y z
#
# Youngs Moduli (GPa) = 72.98312 108.86554 79.20911
#
# Poissons Ratio (x) = 0.38253 -0.11014
# Poissons Ratio (y) = 0.25644 0.08210
# Poissons Ratio (z) = -0.10148 0.11284
#
# Static dielectric constant tensor:
#      x y z
#    x 1.967300 0.020810 -0.008020 
#    y 0.020810 1.986070 -0.067150 
#    z -0.008020 -0.067150 1.987870 
# 
# From -- ./inp_files/298833.got.cif
#   From: 2010.05.17/outbox.cif.g08.bks.cpg/sg2_150_cif.got.tgz:298833.got - 2010.06.03 11:33:40.
