data_PCOD9043526
_publ_section_title
;
Structure prediction by ZEFSAII (Michael W. Deem and Ramdas Pophale) SiO2 
 PCOD9043526
Probable space group: P -1
;
_chemical_formula_sum "Si O2"
_cell_formula_units_Z 16
_cell_length_a 16.853509
_cell_length_b 9.791840
_cell_length_c 9.523526
_cell_angle_alpha 65.499655
_cell_angle_beta 48.264272
_cell_angle_gamma 93.885702
_cell_volume 920.268938
_symmetry_space_group_name_H-M "P -1"
_symmetry_group_IT_number 2
_symmetry_cell_setting 'triclinic'
loop_
_space_group_symop_operation_xyz
x,y,z
-x,-y,-z
loop_
_atom_site_type_symbol
_atom_site_label
_atom_site_fract_x
_atom_site_fract_y
_atom_site_fract_z
Si Si1 0.492686 0.672836 0.416287
Si Si2 0.701313 0.990272 0.589905
Si Si3 0.723427 0.031973 0.086141
Si Si4 0.459580 0.798029 0.101481
Si Si5 0.308410 0.755065 0.737918
Si Si6 0.895229 0.046348 0.123283
Si Si7 0.971564 0.438674 0.899236
Si Si8 0.793130 0.243946 0.639025
O O1 0.500000 0.500000 0.500000
O O2 0.620049 0.847172 0.228756
O O3 0.458946 0.700299 0.285764
O O4 0.394090 0.676839 0.636423
O O5 0.675753 0.112985 0.463812
O O6 0.798625 0.958479 0.403418
O O7 0.763723 0.106637 0.605143
O O8 0.570445 0.824834 0.857669
O O9 0.666335 0.130194 0.201073
O O10 0.812433 0.009329 0.097963
O O11 0.794077 0.154728 0.820338
O O12 0.321937 0.721390 0.237892
O O13 0.500000 0.000000 0.000000
O O14 0.164766 0.605818 0.966925
O O15 0.961876 0.252911 0.980984
O O16 0.000000 0.000000 0.000000
O O17 0.079969 0.582991 0.616765
O O18 0.000000 0.500000 0.000000
#
# Coordination Sequence:
#
# PCOD9043526 Si02
#       8
#     2   2   2   2   2   2   2   2
#     4  12  22  36  58  93 122 146 197 255 295 342
#     4   9  16  35  62  80 106 156 206 226 273 358
#     4  10  22  37  60  85 112 157 199 238 296 355
#     4  10  17  33  61  86 111 152 200 239 276 344
#     4  10  20  36  56  86 117 157 193 243 291 349
#     4  10  23  39  56  84 126 154 182 245 312 344
#     4  10  18  34  62  84 105 154 212 230 269 358
#     4  11  17  34  65  88 106 149 217 236 268 344
#
# _framework density 17.386220999999999
#
# number of rings (size 3 to 8) (size 9 to 14) (size 15 to 20)
#    0.000    2.000    7.500    0.375    0.000    5.000 
#    0.000    3.125    0.000    4.500    0.000    0.000 
#    0.000    0.000    0.000    0.000    0.000    0.000 
#
# Total GULP energy -89197.553908 kJ/mol
# GULP energy per Si atom -5574.847119 kJ/mol
# Density = 1.734665 g / cm^3
# Si number density = 17.386221 Si / 1000 Ang^3
#
#
#
# Elastic Constant Matrix: (Units=GPa)
#
#
# Indices 1 2 3 4 5 6 
#
# 1 51.1336 19.5732 31.2019 9.7247 -6.7742 -13.3542
# 2 19.5732 43.3696 27.7374 10.8312 -9.7399 -16.3910
# 3 31.2019 27.7374 136.3254 7.9530 -13.6855 -8.2476
# 4 9.7247 10.8312 7.9530 29.9020 6.7419 -6.1058
# 5 -6.7742 -9.7399 -13.6855 6.7419 31.8102 7.1398
# 6 -13.3542 -16.3910 -8.2476 -6.1058 7.1398 31.1713
#
#
#
# Elastic Compliance Matrix: (Units=1/GPa)
#
#
# Indices 1 2 3 4 5 6 
#
# 1 0.027029 -0.005542 -0.004215 -0.004826 0.001883 0.006174
# 2 -0.005542 0.037043 -0.004188 -0.009705 0.007647 0.012344
# 3 -0.004215 -0.004188 0.009297 -0.000590 0.002444 -0.002223
# 4 -0.004826 -0.009705 -0.000590 0.042791 -0.014294 0.004329
# 5 0.001883 0.007647 0.002444 -0.014294 0.039701 -0.006419
# 6 0.006174 0.012344 -0.002223 0.004329 -0.006419 0.042947
#
#
# Mechanical properties :
#
#
# Convention : Reuss Voigt Hill
#
# Bulk Modulus (GPa) = 21.98694 43.09486 32.54090
# Shear Modulus (GPa) = 20.67322 28.73109 24.70216
#
# Velocity S-wave (km/s) = 3.45201 4.06953 3.77343
# Velocity P-wave (km/s) = 5.34436 6.84997 6.14346
#
# Compressibility (1/GPa) = 0.04548154
#
# Stress axis : x y z
#
# Youngs Moduli (GPa) = 36.99669 26.99531 107.55597
#
# Poissons Ratio (x) = 0.14960 0.45333
# Poissons Ratio (y) = 0.20502 0.45045
# Poissons Ratio (z) = 0.15593 0.11306
#
# Static dielectric constant tensor:
#      x y z
#    x 1.601010 0.011630 -0.020500 
#    y 0.011630 1.589310 0.030680 
#    z -0.020500 0.030680 1.614430 
# 
# From -- ./inp_files/328696.got.cif
#   From: 2010.05.17/outbox.cif.g08.bks.cpg/sg2_165_cif.got.tgz:328696.got - 2010.06.03 11:33:40.
