data_PCOD9043471
_publ_section_title
;
Structure prediction by ZEFSAII (Michael W. Deem and Ramdas Pophale) SiO2 
 PCOD9043471
Probable space group: P -1
;
_chemical_formula_sum "Si O2"
_cell_formula_units_Z 14
_cell_length_a 7.544358
_cell_length_b 11.003048
_cell_length_c 8.759865
_cell_angle_alpha 122.266368
_cell_angle_beta 102.061518
_cell_angle_gamma 75.764896
_cell_volume 593.309468
_symmetry_space_group_name_H-M "P -1"
_symmetry_group_IT_number 2
_symmetry_cell_setting 'triclinic'
loop_
_space_group_symop_operation_xyz
x,y,z
-x,-y,-z
loop_
_atom_site_type_symbol
_atom_site_label
_atom_site_fract_x
_atom_site_fract_y
_atom_site_fract_z
Si Si1 0.053642 0.053405 0.212566
Si Si2 0.445376 0.142878 0.276368
Si Si3 0.371625 0.621960 0.964410
Si Si4 0.068253 0.656844 0.455049
Si Si5 0.619727 0.839003 0.084932
Si Si6 0.970467 0.242932 0.828779
Si Si7 0.302708 0.442544 0.556547
O O1 0.257601 0.091756 0.264704
O O2 0.927037 0.203480 0.340739
O O3 0.046987 0.923188 0.242621
O O4 0.000000 0.000000 0.000000
O O5 0.449300 0.298611 0.456238
O O6 0.604818 0.007521 0.244461
O O7 0.419518 0.160975 0.102333
O O8 0.372319 0.561431 0.753601
O O9 0.500000 0.500000 0.000000
O O10 0.462197 0.766547 0.086532
O O11 0.167159 0.656608 0.016368
O O12 0.078140 0.709623 0.320087
O O13 0.219366 0.521085 0.440567
O O14 0.870992 0.607438 0.420744
O O15 0.817327 0.749016 0.096255
#
# Coordination Sequence:
#
# PCOD9043471 Si02
#       7
#     2   2   2   2   2   2   2
#     4  11  20  43  73 105 144 189 239 296 355 430
#     4  10  23  45  71 106 142 190 243 292 354 431
#     4  12  28  48  72 110 145 187 240 298 362 430
#     4  10  24  41  73 111 139 193 243 288 368 424
#     4  11  25  45  75 107 140 192 243 289 362 426
#     4  12  25  46  75 105 148 188 237 304 355 426
#     4  10  24  47  72 104 149 187 239 299 356 433
#
# _framework density 23.596454999999999
#
# number of rings (size 3 to 8) (size 9 to 14) (size 15 to 20)
#    0.000    1.143    2.857    2.143    6.000    1.714 
#    5.143    2.143    0.000    0.000    0.000    0.000 
#    0.000    0.000    0.000    0.000    0.000    0.000 
#
# Total GULP energy -78441.580138 kJ/mol
# GULP energy per Si atom -5602.970010 kJ/mol
# Density = 2.354275 g / cm^3
# Si number density = 23.596455 Si / 1000 Ang^3
#
#
#
# Elastic Constant Matrix: (Units=GPa)
#
#
# Indices 1 2 3 4 5 6 
#
# 1 82.7218 27.7859 40.3578 5.8074 -8.7086 -13.7406
# 2 27.7859 141.5880 44.2362 -2.2571 -12.4720 -0.5921
# 3 40.3578 44.2362 66.0625 17.6132 -23.3915 -11.9263
# 4 5.8074 -2.2571 17.6132 42.4993 -4.4249 -10.4746
# 5 -8.7086 -12.4720 -23.3915 -4.4249 23.2083 7.0265
# 6 -13.7406 -0.5921 -11.9263 -10.4746 7.0265 45.3120
#
#
#
# Elastic Compliance Matrix: (Units=1/GPa)
#
#
# Indices 1 2 3 4 5 6 
#
# 1 0.018766 0.000317 -0.014893 0.003730 -0.008274 0.003920
# 2 0.000317 0.009495 -0.008499 0.003528 -0.002422 -0.000826
# 3 -0.014893 -0.008499 0.045138 -0.013955 0.033008 -0.001091
# 4 0.003730 0.003528 -0.013955 0.029618 -0.006758 0.005399
# 5 -0.008274 -0.002422 0.033008 -0.006758 0.072686 -0.006687
# 6 0.003920 -0.000826 -0.001091 0.005399 -0.006687 0.025245
#
#
# Mechanical properties :
#
#
# Convention : Reuss Voigt Hill
#
# Bulk Modulus (GPa) = 36.69825 57.23690 46.96757
# Shear Modulus (GPa) = 19.51735 34.07007 26.79371
#
# Velocity S-wave (km/s) = 2.87911 3.80394 3.37337
# Velocity P-wave (km/s) = 5.16126 6.60322 5.92626
#
# Compressibility (1/GPa) = 0.02724926
#
# Stress axis : x y z
#
# Youngs Moduli (GPa) = 53.28647 105.31536 22.15432
#
# Poissons Ratio (x) = -0.03342 0.32995
# Poissons Ratio (y) = -0.01691 0.18829
# Poissons Ratio (z) = 0.79362 0.89509
#
# Static dielectric constant tensor:
#      x y z
#    x 1.901790 0.016150 0.005550 
#    y 0.016150 1.850390 0.027790 
#    z 0.005550 0.027790 1.868900 
# 
# From -- ./inp_files/183315.got.cif
#   From: 2010.05.17/outbox.cif.g08.bks.cpg/sg2_92_cif.got.tgz:183315.got - 2010.06.03 11:33:40.
