data_PCOD9043607
_publ_section_title
;
Structure prediction by ZEFSAII (Michael W. Deem and Ramdas Pophale) SiO2 
 PCOD9043607
Probable space group: P -1
;
_chemical_formula_sum "Si O2"
_cell_formula_units_Z 13
_cell_length_a 17.386360
_cell_length_b 8.879496
_cell_length_c 6.428691
_cell_angle_alpha 123.581510
_cell_angle_beta 117.421267
_cell_angle_gamma 41.021053
_cell_volume 540.981385
_symmetry_space_group_name_H-M "P -1"
_symmetry_group_IT_number 2
_symmetry_cell_setting 'triclinic'
loop_
_space_group_symop_operation_xyz
x,y,z
-x,-y,-z
loop_
_atom_site_type_symbol
_atom_site_label
_atom_site_fract_x
_atom_site_fract_y
_atom_site_fract_z
Si Si1 0.269848 0.593089 0.902237
Si Si2 0.535019 0.634509 0.754966
Si Si3 0.661703 0.130261 0.981772
Si Si4 0.000000 0.500000 0.500000
Si Si5 0.933823 0.243569 0.471262
Si Si6 0.408710 0.038099 0.569862
Si Si7 0.876223 0.600104 0.009716
O O1 0.319361 0.684121 0.886484
O O2 0.136369 0.767138 0.801790
O O3 0.318776 0.323251 0.723231
O O4 0.326746 0.556548 0.168866
O O5 0.500000 0.500000 0.500000
O O6 0.459677 0.739700 0.953482
O O7 0.483515 0.864113 0.724353
O O8 0.768936 0.888048 0.054733
O O9 0.654943 0.040027 0.681502
O O10 0.005644 0.299926 0.486178
O O11 0.905694 0.538907 0.242453
O O12 0.856025 0.459039 0.717994
O O13 0.000000 0.000000 0.500000
O O14 0.500000 0.000000 0.500000
O O15 0.000000 0.500000 0.000000
#
# Coordination Sequence:
#
# PCOD9043607 Si02
#       7
#     2   2   2   1   2   2   2
#     4  12  24  45  72 104 145 190 245 304 366 441
#     4  12  26  45  70 109 148 192 244 297 370 442
#     4  12  25  46  72 101 150 192 238 310 368 435
#     4  10  24  46  74  98 150 184 244 314 374 422
#     4  11  25  48  73 109 144 193 254 306 375 449
#     4  12  25  44  71 101 145 191 242 298 367 439
#     4  10  23  45  73 100 142 191 242 305 368 430
#
# _framework density 24.0304
#
# number of rings (size 3 to 8) (size 9 to 14) (size 15 to 20)
#    0.000    0.615    4.615    3.692    2.154    0.615 
#    5.538    0.000    0.000    0.000    0.000    0.000 
#    0.000    0.000    0.000    0.000    0.000    0.000 
#
# Total GULP energy -72371.238138 kJ/mol
# GULP energy per Si atom -5567.018318 kJ/mol
# Density = 2.397571 g / cm^3
# Si number density = 24.030400 Si / 1000 Ang^3
#
#
#
# Elastic Constant Matrix: (Units=GPa)
#
#
# Indices 1 2 3 4 5 6 
#
# 1 90.3638 32.8053 6.6797 -4.8205 17.0315 31.1432
# 2 32.8053 168.7439 39.4461 -31.3037 5.6565 29.4368
# 3 6.6797 39.4461 123.1744 -19.6848 34.7189 4.4304
# 4 -4.8205 -31.3037 -19.6848 45.6158 -7.6661 4.1940
# 5 17.0315 5.6565 34.7189 -7.6661 25.2046 -9.0612
# 6 31.1432 29.4368 4.4304 4.1940 -9.0612 46.6140
#
#
#
# Elastic Compliance Matrix: (Units=1/GPa)
#
#
# Indices 1 2 3 4 5 6 
#
# 1 0.031790 -0.001908 0.015405 0.002744 -0.052957 -0.032039
# 2 -0.001908 0.008408 -0.002484 0.005361 0.003134 -0.003672
# 3 0.015405 -0.002484 0.022777 0.003655 -0.047464 -0.020444
# 4 0.002744 0.005361 0.003655 0.027800 -0.002727 -0.008597
# 5 -0.052957 0.003134 -0.047464 -0.002727 0.164523 0.070139
# 6 -0.032039 -0.003672 -0.020444 -0.008597 0.070139 0.061528
#
#
# Mechanical properties :
#
#
# Convention : Reuss Voigt Hill
#
# Bulk Modulus (GPa) = 11.76470 60.01604 35.89037
# Shear Modulus (GPa) = 15.47352 43.71029 29.59190
#
# Velocity S-wave (km/s) = 2.54030 4.26955 3.51299
# Velocity P-wave (km/s) = 3.67567 7.02387 5.60559
#
# Compressibility (1/GPa) = 0.08500004
#
# Stress axis : x y z
#
# Youngs Moduli (GPa) = 31.45658 118.94093 43.90452
#
# Poissons Ratio (x) = 0.22694 -0.67634
# Poissons Ratio (y) = 0.06002 0.10905
# Poissons Ratio (z) = -0.48458 0.29541
#
# Static dielectric constant tensor:
#      x y z
#    x 1.934350 -0.034600 0.006590 
#    y -0.034600 1.899280 0.002200 
#    z 0.006590 0.002200 2.066640 
# 
# From -- ./inp_files/117462.got.cif
#   From: 2010.05.17/outbox.cif.g08.bks.cpg/sg2_59_cif.got.tgz:117462.got - 2010.06.03 11:33:40.
