data_PCOD9043881
_publ_section_title
;
Structure prediction by ZEFSAII (Michael W. Deem and Ramdas Pophale) SiO2 
 PCOD9043881
Probable space group: P -1
;
_chemical_formula_sum "Si O2"
_cell_formula_units_Z 16
_cell_length_a 11.931524
_cell_length_b 15.009416
_cell_length_c 14.251945
_cell_angle_alpha 29.216448
_cell_angle_beta 58.669793
_cell_angle_gamma 38.802410
_cell_volume 665.028780
_symmetry_space_group_name_H-M "P -1"
_symmetry_group_IT_number 2
_symmetry_cell_setting 'triclinic'
loop_
_space_group_symop_operation_xyz
x,y,z
-x,-y,-z
loop_
_atom_site_type_symbol
_atom_site_label
_atom_site_fract_x
_atom_site_fract_y
_atom_site_fract_z
Si Si1 0.584438 0.903632 0.222782
Si Si2 0.369385 0.757521 0.065215
Si Si3 0.330316 0.115470 0.330087
Si Si4 0.792158 0.107662 0.485564
Si Si5 0.951623 0.729925 0.419873
Si Si6 0.926283 0.023461 0.852022
Si Si7 0.364939 0.815439 0.308714
Si Si8 0.254799 0.393273 0.277197
O O1 0.449940 0.028489 0.261740
O O2 0.490605 0.866445 0.221458
O O3 0.828387 0.586638 0.424751
O O4 0.569940 0.133437 0.996702
O O5 0.215133 0.010694 0.821455
O O6 0.584862 0.433410 0.234754
O O7 0.231973 0.778166 0.174489
O O8 0.171765 0.124205 0.369161
O O9 0.507970 0.848935 0.568432
O O10 0.246614 0.380056 0.180164
O O11 0.717968 0.144608 0.589261
O O12 0.000000 0.000000 0.500000
O O13 0.846233 0.682287 0.567592
O O14 0.021784 0.838896 0.342884
O O15 0.829234 0.979079 0.865720
O O16 0.136757 0.694768 0.093603
O O17 0.500000 0.500000 0.500000
#
# Coordination Sequence:
#
# PCOD9043881 Si02
#       8
#     2   2   2   2   2   2   2   2
#     4  11  22  42  70  97 141 175 218 283 336 402
#     4  12  23  42  69 104 131 176 227 279 346 394
#     4  10  23  46  64  95 143 171 214 286 336 384
#     4  11  26  45  69  93 137 180 225 279 334 402
#     4  12  23  42  74 102 136 172 228 282 335 405
#     4  12  24  41  71 104 132 179 226 275 344 393
#     4  11  23  45  63  95 136 172 223 279 324 397
#     4  11  24  44  70 102 137 176 224 281 333 405
#
# _framework density 24.059108999999999
#
# number of rings (size 3 to 8) (size 9 to 14) (size 15 to 20)
#    0.000    0.750    5.000    3.000    1.750    2.500 
#    0.000    4.375    0.000    0.000    0.000    0.000 
#    0.000    0.000    0.000    0.000    0.000    0.000 
#
# Total GULP energy -89484.044555 kJ/mol
# GULP energy per Si atom -5592.752785 kJ/mol
# Density = 2.400435 g / cm^3
# Si number density = 24.059109 Si / 1000 Ang^3
#
#
#
# Elastic Constant Matrix: (Units=GPa)
#
#
# Indices 1 2 3 4 5 6 
#
# 1 120.2409 27.7126 -11.9761 0.4501 -22.8403 3.3395
# 2 27.7126 78.2879 10.9393 -5.9560 -7.8786 -5.4815
# 3 -11.9761 10.9393 35.3831 -9.0360 -7.2365 -4.0829
# 4 0.4501 -5.9560 -9.0360 31.1561 -6.7574 3.4701
# 5 -22.8403 -7.8786 -7.2365 -6.7574 37.1144 0.1978
# 6 3.3395 -5.4815 -4.0829 3.4701 0.1978 38.6643
#
#
#
# Elastic Compliance Matrix: (Units=1/GPa)
#
#
# Indices 1 2 3 4 5 6 
#
# 1 0.011646 -0.004184 0.007626 0.003180 0.008351 -0.001122
# 2 -0.004184 0.015232 -0.005700 0.001057 -0.000270 0.001825
# 3 0.007626 -0.005700 0.038766 0.012784 0.013361 0.001411
# 4 0.003180 0.001057 0.012784 0.038765 0.011744 -0.002314
# 5 0.008351 -0.000270 0.013361 0.011744 0.036772 -0.000591
# 6 -0.001122 0.001825 0.001411 -0.002314 -0.000591 0.026579
#
#
# Mechanical properties :
#
#
# Convention : Reuss Voigt Hill
#
# Bulk Modulus (GPa) = 16.35953 31.91816 24.13885
# Shear Modulus (GPa) = 25.95342 35.20269 30.57805
#
# Velocity S-wave (km/s) = 3.28797 3.82930 3.56891
# Velocity P-wave (km/s) = 4.60748 5.73121 5.19979
#
# Compressibility (1/GPa) = 0.06112646
#
# Stress axis : x y z
#
# Youngs Moduli (GPa) = 85.86604 65.65085 25.79602
#
# Poissons Ratio (x) = 0.27471 -0.19672
# Poissons Ratio (y) = 0.35929 0.14704
# Poissons Ratio (z) = -0.65480 0.37422
#
# Static dielectric constant tensor:
#      x y z
#    x 2.010350 0.005600 0.057990 
#    y 0.005600 1.928780 -0.039640 
#    z 0.057990 -0.039640 1.984390 
# 
# From -- ./inp_files/472307.got.cif
#   From: 2010.05.17/outbox.cif.g08.bks.cpg/sg2_237_cif.got.tgz:472307.got - 2010.06.03 11:33:40.
