data_PCOD9043791
_publ_section_title
;
Structure prediction by ZEFSAII (Michael W. Deem and Ramdas Pophale) SiO2 
 PCOD9043791
Probable space group: P -1
;
_chemical_formula_sum "Si O2"
_cell_formula_units_Z 16
_cell_length_a 8.071668
_cell_length_b 8.120321
_cell_length_c 18.290761
_cell_angle_alpha 87.796498
_cell_angle_beta 62.900897
_cell_angle_gamma 49.210524
_cell_volume 745.918391
_symmetry_space_group_name_H-M "P -1"
_symmetry_group_IT_number 2
_symmetry_cell_setting 'triclinic'
loop_
_space_group_symop_operation_xyz
x,y,z
-x,-y,-z
loop_
_atom_site_type_symbol
_atom_site_label
_atom_site_fract_x
_atom_site_fract_y
_atom_site_fract_z
Si Si1 0.234799 0.261907 0.995966
Si Si2 0.433304 0.706076 0.463482
Si Si3 0.328785 0.465449 0.238739
Si Si4 0.740104 0.455448 0.917737
Si Si5 0.815363 0.914204 0.859798
Si Si6 0.062897 0.991262 0.901514
Si Si7 0.025526 0.325408 0.317359
Si Si8 0.113821 0.899487 0.372344
O O1 0.325214 0.322577 0.043356
O O2 0.127356 0.179479 0.066416
O O3 0.000000 0.500000 0.000000
O O4 0.507346 0.076222 0.900080
O O5 0.500000 0.500000 0.500000
O O6 0.290214 0.771345 0.412708
O O7 0.732557 0.578990 0.392768
O O8 0.197158 0.945902 0.551216
O O9 0.239213 0.539857 0.172118
O O10 0.646882 0.254538 0.172559
O O11 0.221182 0.356181 0.290521
O O12 0.231391 0.688755 0.297638
O O13 0.500000 0.500000 0.000000
O O14 0.014335 0.218617 0.902233
O O15 0.979234 0.724938 0.766529
O O16 0.887278 0.055618 0.862306
O O17 0.000000 0.000000 0.000000
O O18 0.106159 0.098316 0.343945
#
# Coordination Sequence:
#
# PCOD9043791 Si02
#       8
#     2   2   2   2   2   2   2   2
#     4  11  24  37  60  85 121 177 226 272 329 378
#     4   9  21  47  74 102 134 169 210 272 339 413
#     4  12  26  43  65 103 135 175 232 277 324 396
#     4  12  23  42  60  88 131 180 228 276 330 377
#     4  11  23  40  57  89 129 167 221 280 324 384
#     4  12  24  39  61  86 128 179 227 279 325 380
#     4  11  24  42  68 100 136 166 222 280 325 403
#     4  10  23  45  75  98 132 177 211 264 354 403
#
# _framework density 21.450068000000002
#
# number of rings (size 3 to 8) (size 9 to 14) (size 15 to 20)
#    0.000    1.000    3.750    2.250    3.500    3.500 
#    0.000    5.625    0.000    0.000    0.000    0.000 
#    0.000    0.000    0.000    0.000    0.000    0.000 
#
# Total GULP energy -89085.154890 kJ/mol
# GULP energy per Si atom -5567.822181 kJ/mol
# Density = 2.140125 g / cm^3
# Si number density = 21.450068 Si / 1000 Ang^3
#
#
#
# Elastic Constant Matrix: (Units=GPa)
#
#
# Indices 1 2 3 4 5 6 
#
# 1 45.1216 12.6060 25.8597 4.4538 -4.5501 0.8964
# 2 12.6060 115.2288 44.1170 13.8904 -2.4673 -13.5316
# 3 25.8597 44.1170 111.1617 28.2846 -9.7112 -3.1454
# 4 4.4538 13.8904 28.2846 42.4665 -4.2148 1.1083
# 5 -4.5501 -2.4673 -9.7112 -4.2148 26.5579 11.0144
# 6 0.8964 -13.5316 -3.1454 1.1083 11.0144 30.3440
#
#
#
# Elastic Compliance Matrix: (Units=1/GPa)
#
#
# Indices 1 2 3 4 5 6 
#
# 1 0.026126 -0.001167 -0.005886 0.002043 0.003955 -0.003413
# 2 -0.001167 0.011072 -0.003889 -0.001379 -0.003211 0.005785
# 3 -0.005886 -0.003889 0.013944 -0.007076 0.002998 -0.000945
# 4 0.002043 -0.001379 -0.007076 0.028979 0.003834 -0.003859
# 5 0.003955 -0.003211 0.002998 0.003834 0.047453 -0.018603
# 6 -0.003413 0.005785 -0.000945 -0.003859 -0.018603 0.042431
#
#
# Mechanical properties :
#
#
# Convention : Reuss Voigt Hill
#
# Bulk Modulus (GPa) = 34.17705 48.51971 41.34838
# Shear Modulus (GPa) = 24.79660 32.46899 28.63280
#
# Velocity S-wave (km/s) = 3.40371 3.89485 3.65753
# Velocity P-wave (km/s) = 5.60490 6.54946 6.09550
#
# Compressibility (1/GPa) = 0.02925940
#
# Stress axis : x y z
#
# Youngs Moduli (GPa) = 38.27532 90.32111 71.71584
#
# Poissons Ratio (x) = 0.10543 0.42209
# Poissons Ratio (y) = 0.04468 0.27887
# Poissons Ratio (z) = 0.22527 0.35121
#
# Static dielectric constant tensor:
#      x y z
#    x 1.514350 0.150030 -0.064180 
#    y 0.150030 1.798650 -0.038950 
#    z -0.064180 -0.038950 1.914310 
# 
# From -- ./inp_files/505867.got.cif
#   From: 2010.05.17/outbox.cif.g08.bks.cpg/sg2_253_cif.got.tgz:505867.got - 2010.06.03 11:33:40.
