data_PCOD9043508
_publ_section_title
;
Structure prediction by ZEFSAII (Michael W. Deem and Ramdas Pophale) SiO2 
 PCOD9043508
Probable space group: P -1
;
_chemical_formula_sum "Si O2"
_cell_formula_units_Z 16
_cell_length_a 22.212455
_cell_length_b 19.555615
_cell_length_c 8.554479
_cell_angle_alpha 61.596626
_cell_angle_beta 118.451173
_cell_angle_gamma 168.280266
_cell_volume 662.745061
_symmetry_space_group_name_H-M "P -1"
_symmetry_group_IT_number 2
_symmetry_cell_setting 'triclinic'
loop_
_space_group_symop_operation_xyz
x,y,z
-x,-y,-z
loop_
_atom_site_type_symbol
_atom_site_label
_atom_site_fract_x
_atom_site_fract_y
_atom_site_fract_z
Si Si1 0.026722 0.614943 0.841603
Si Si2 0.371710 0.542676 0.458545
Si Si3 0.289644 0.604691 0.123559
Si Si4 0.580986 0.458946 0.823903
Si Si5 0.574499 0.276227 0.155544
Si Si6 0.780686 0.852223 0.039134
Si Si7 0.992859 0.798309 0.349270
Si Si8 0.217950 0.731370 0.377479
O O1 0.814050 0.436602 0.864894
O O2 0.931394 0.494186 0.680032
O O3 0.356282 0.007627 0.848045
O O4 0.000000 0.500000 0.000000
O O5 0.207392 0.435950 0.294670
O O6 0.395463 0.513857 0.365191
O O7 0.168955 0.316851 0.611430
O O8 0.721115 0.930280 0.519953
O O9 0.206418 0.514550 0.936971
O O10 0.517525 0.300389 0.985983
O O11 0.335234 0.239829 0.841354
O O12 0.906788 0.844037 0.869969
O O13 0.726423 0.452481 0.321412
O O14 0.318777 0.928035 0.225855
O O15 0.871740 0.014190 0.843119
O O16 0.500000 0.500000 0.000000
O O17 0.000000 0.500000 0.500000
O O18 0.500000 0.000000 0.500000
#
# Coordination Sequence:
#
# PCOD9043508 Si02
#       8
#     2   2   2   2   2   2   2   2
#     4  12  25  45  63  87 123 168 225 266 336 401
#     4  11  24  43  67 101 133 170 225 276 327 379
#     4  11  25  43  67  89 122 174 216 274 329 394
#     4  10  23  45  71  98 135 179 223 262 325 401
#     4  10  25  45  67  93 128 176 222 272 327 401
#     4  11  23  45  72 103 138 180 216 259 321 401
#     4  11  24  42  69 100 135 168 222 274 329 385
#     4  12  29  43  62  92 132 167 220 280 343 381
#
# _framework density 24.142015000000001
#
# number of rings (size 3 to 8) (size 9 to 14) (size 15 to 20)
#    0.000    1.000    1.250    4.500    7.000    8.000 
#    0.000    3.750    0.000    0.000    0.000    0.000 
#    0.000    0.000    0.000    0.000    0.000    0.000 
#
# Total GULP energy -89347.635171 kJ/mol
# GULP energy per Si atom -5584.227198 kJ/mol
# Density = 2.408707 g / cm^3
# Si number density = 24.142015 Si / 1000 Ang^3
#
#
#
# Elastic Constant Matrix: (Units=GPa)
#
#
# Indices 1 2 3 4 5 6 
#
# 1 138.2196 82.0129 0.5368 -31.1059 -72.4781 53.8649
# 2 82.0129 146.9892 1.4191 -12.0291 -44.6039 33.7655
# 3 0.5368 1.4191 88.8792 17.9629 -24.9468 -4.9381
# 4 -31.1059 -12.0291 17.9629 42.6082 11.3829 -18.8848
# 5 -72.4781 -44.6039 -24.9468 11.3829 53.4091 -21.7523
# 6 53.8649 33.7655 -4.9381 -18.8848 -21.7523 71.3753
#
#
#
# Elastic Compliance Matrix: (Units=1/GPa)
#
#
# Indices 1 2 3 4 5 6 
#
# 1 0.052825 -0.005210 0.017133 0.005403 0.068523 -0.013903
# 2 -0.005210 0.010352 0.000843 -0.002169 0.002087 -0.000845
# 3 0.017133 0.000843 0.022101 -0.007205 0.034515 -0.003187
# 4 0.005403 -0.002169 -0.007205 0.032484 -0.003098 0.004101
# 5 0.068523 0.002087 0.034515 -0.003098 0.124917 -0.013062
# 6 -0.013903 -0.000845 -0.003187 0.004101 -0.013062 0.021786
#
#
# Mechanical properties :
#
#
# Convention : Reuss Voigt Hill
#
# Bulk Modulus (GPa) = 9.02440 60.22507 34.62473
# Shear Modulus (GPa) = 18.12453 52.81980 35.47216
#
# Velocity S-wave (km/s) = 2.74295 4.68255 3.83732
# Velocity P-wave (km/s) = 3.71185 7.36447 5.83152
#
# Compressibility (1/GPa) = 0.11081074
#
# Stress axis : x y z
#
# Youngs Moduli (GPa) = 18.93044 96.60029 45.24663
#
# Poissons Ratio (x) = 0.50329 -0.77521
# Poissons Ratio (y) = 0.09863 -0.03816
# Poissons Ratio (z) = -0.32434 -0.08147
#
# Static dielectric constant tensor:
#      x y z
#    x 1.964790 -0.093020 -0.002730 
#    y -0.093020 1.904420 -0.049540 
#    z -0.002730 -0.049540 1.865800 
# 
# From -- ./inp_files/226291.got.cif
#   From: 2010.05.17/outbox.cif.g08.bks.cpg/sg2_114_cif.got.tgz:226291.got - 2010.06.03 11:33:40.
