data_PCOD9043858
_publ_section_title
;
Structure prediction by ZEFSAII (Michael W. Deem and Ramdas Pophale) SiO2 
 PCOD9043858
Probable space group: P -1
;
_chemical_formula_sum "Si O2"
_cell_formula_units_Z 14
_cell_length_a 9.724348
_cell_length_b 11.191905
_cell_length_c 8.959118
_cell_angle_alpha 39.964537
_cell_angle_beta 114.206807
_cell_angle_gamma 119.734245
_cell_volume 543.049550
_symmetry_space_group_name_H-M "P -1"
_symmetry_group_IT_number 2
_symmetry_cell_setting 'triclinic'
loop_
_space_group_symop_operation_xyz
x,y,z
-x,-y,-z
loop_
_atom_site_type_symbol
_atom_site_label
_atom_site_fract_x
_atom_site_fract_y
_atom_site_fract_z
Si Si1 0.395922 0.452071 0.351282
Si Si2 0.626337 0.330362 0.362073
Si Si3 0.890013 0.298197 0.723875
Si Si4 0.729090 0.089617 0.428972
Si Si5 0.055298 0.231342 0.343720
Si Si6 0.360812 0.849024 0.985469
Si Si7 0.164471 0.253705 0.052626
O O1 0.500000 0.500000 0.500000
O O2 0.477413 0.347129 0.370641
O O3 0.215359 0.318443 0.424865
O O4 0.404788 0.670090 0.100679
O O5 0.742807 0.245769 0.594730
O O6 0.311582 0.953834 0.722142
O O7 0.711111 0.553430 0.140360
O O8 0.000000 0.500000 0.500000
O O9 0.019300 0.191431 0.929639
O O10 0.786144 0.264197 0.863989
O O11 0.606922 0.188138 0.350580
O O12 0.761083 0.914480 0.705332
O O13 0.904264 0.253102 0.341181
O O14 0.099267 0.319530 0.114802
O O15 0.000000 0.000000 0.500000
O O16 0.500000 0.000000 0.000000
#
# Coordination Sequence:
#
# PCOD9043858 Si02
#       7
#     2   2   2   2   2   2   2
#     4  12  28  49  80 114 167 217 270 342 427 494
#     4  11  26  49  78 118 165 209 272 347 426 494
#     4  10  23  46  77 114 162 213 274 342 413 496
#     4  11  26  48  85 117 161 215 279 344 415 502
#     4  10  24  45  78 117 152 211 273 326 400 501
#     4  12  28  49  82 123 166 219 285 346 425 510
#     4  10  23  45  78 115 161 206 272 338 414 499
#
# _framework density 25.780338
#
# number of rings (size 3 to 8) (size 9 to 14) (size 15 to 20)
#    0.000    1.143    2.857    0.857    8.000    5.143 
#    0.000    7.143    0.000    0.000    0.000    0.000 
#    0.000    0.000    0.000    0.000    0.000    0.000 
#
# Total GULP energy -78200.058492 kJ/mol
# GULP energy per Si atom -5585.718464 kJ/mol
# Density = 2.572166 g / cm^3
# Si number density = 25.780338 Si / 1000 Ang^3
#
#
#
# Elastic Constant Matrix: (Units=GPa)
#
#
# Indices 1 2 3 4 5 6 
#
# 1 148.8467 71.8004 67.2467 -20.8211 -3.5244 3.4560
# 2 71.8004 159.0130 64.0583 0.0737 9.6426 28.4350
# 3 67.2467 64.0583 179.9534 9.0226 13.6743 -1.8939
# 4 -20.8211 0.0737 9.0226 36.9569 1.9465 0.6182
# 5 -3.5244 9.6426 13.6743 1.9465 37.8811 0.9352
# 6 3.4560 28.4350 -1.8939 0.6182 0.9352 34.2521
#
#
#
# Elastic Compliance Matrix: (Units=1/GPa)
#
#
# Indices 1 2 3 4 5 6 
#
# 1 0.011253 -0.004342 -0.003206 0.006943 0.002901 0.002087
# 2 -0.004342 0.010714 -0.002035 -0.001718 -0.002099 -0.008480
# 3 -0.003206 -0.002035 0.007879 -0.003637 -0.002501 0.002582
# 4 0.006943 -0.001718 -0.003637 0.031823 0.000763 -0.000070
# 5 0.002901 -0.002099 -0.002501 0.000763 0.028053 0.000532
# 6 0.002087 -0.008480 0.002582 -0.000070 0.000532 0.036154
#
#
# Mechanical properties :
#
#
# Convention : Reuss Voigt Hill
#
# Bulk Modulus (GPa) = 93.63466 99.33597 96.48531
# Shear Modulus (GPa) = 33.64725 40.79853 37.22289
#
# Velocity S-wave (km/s) = 3.61661 3.98244 3.80392
# Velocity P-wave (km/s) = 7.33749 7.73057 7.53660
#
# Compressibility (1/GPa) = 0.01067981
#
# Stress axis : x y z
#
# Youngs Moduli (GPa) = 88.86803 93.33988 126.91954
#
# Poissons Ratio (x) = 0.40527 0.40691
# Poissons Ratio (y) = 0.38585 0.25826
# Poissons Ratio (z) = 0.28491 0.18993
#
# Static dielectric constant tensor:
#      x y z
#    x 2.103230 0.035960 0.017020 
#    y 0.035960 2.078740 0.011370 
#    z 0.017020 0.011370 2.195210 
# 
# From -- ./inp_files/434509.got.cif
#   From: 2010.05.17/outbox.cif.g08.bks.cpg/sg2_218_cif.got.tgz:434509.got - 2010.06.03 11:33:40.
