data_PCOD9043590
_publ_section_title
;
Structure prediction by ZEFSAII (Michael W. Deem and Ramdas Pophale) SiO2 
 PCOD9043590
Probable space group: P -1
;
_chemical_formula_sum "Si O2"
_cell_formula_units_Z 12
_cell_length_a 8.287788
_cell_length_b 8.670818
_cell_length_c 10.128561
_cell_angle_alpha 77.036132
_cell_angle_beta 76.779081
_cell_angle_gamma 126.888428
_cell_volume 501.884561
_symmetry_space_group_name_H-M "P -1"
_symmetry_group_IT_number 2
_symmetry_cell_setting 'triclinic'
loop_
_space_group_symop_operation_xyz
x,y,z
-x,-y,-z
loop_
_atom_site_type_symbol
_atom_site_label
_atom_site_fract_x
_atom_site_fract_y
_atom_site_fract_z
Si Si1 0.357867 0.251007 0.369215
Si Si2 0.182429 0.321303 0.874143
Si Si3 0.291392 0.127029 0.690708
Si Si4 0.838326 0.650067 0.831093
Si Si5 0.279962 0.785198 0.010180
Si Si6 0.525970 0.994983 0.655451
O O1 0.631156 0.443850 0.273950
O O2 0.297282 0.232919 0.536404
O O3 0.264730 0.322846 0.276628
O O4 0.292688 0.031580 0.372868
O O5 0.208213 0.174647 0.819436
O O6 0.247927 0.345036 0.010894
O O7 0.935352 0.239759 0.929865
O O8 0.524185 0.180721 0.660822
O O9 0.103613 0.870580 0.741888
O O10 0.789045 0.432037 0.881715
O O11 0.500000 0.000000 0.000000
O O12 0.354458 0.819475 0.836636
O O13 0.500000 0.000000 0.500000
#
# Coordination Sequence:
#
# PCOD9043590 Si02
#       6
#     2   2   2   2   2   2
#     4  11  25  45  73 106 147 185 233 286 355 420
#     4  12  25  45  72 106 141 187 235 289 350 417
#     4  11  25  45  73 106 147 185 233 286 355 420
#     4  12  25  45  72 106 141 187 235 289 350 417
#     4  12  28  48  73 104 140 188 246 291 349 420
#     4  10  23  45  72  96 143 189 230 285 355 404
#
# _framework density 23.909880999999999
#
# number of rings (size 3 to 8) (size 9 to 14) (size 15 to 20)
#    0.000    0.667    3.333    3.500    4.667    0.000 
#    0.000    0.833    0.000    0.000    0.000    0.000 
#    0.000    0.000    0.000    0.000    0.000    0.000 
#
# Total GULP energy -66972.229464 kJ/mol
# GULP energy per Si atom -5581.019122 kJ/mol
# Density = 2.385546 g / cm^3
# Si number density = 23.909881 Si / 1000 Ang^3
#
#
#
# Elastic Constant Matrix: (Units=GPa)
#
#
# Indices 1 2 3 4 5 6 
#
# 1 117.3899 58.7029 52.6877 20.7316 24.7752 -33.6999
# 2 58.7029 125.8351 42.2156 4.1041 3.5376 -15.1501
# 3 52.6877 42.2156 152.6810 -0.4022 19.1727 -17.8516
# 4 20.7316 4.1041 -0.4022 23.4195 -12.7410 -14.0917
# 5 24.7752 3.5376 19.1727 -12.7410 47.7661 -7.3901
# 6 -33.6999 -15.1501 -17.8516 -14.0917 -7.3901 45.1922
#
#
#
# Elastic Compliance Matrix: (Units=1/GPa)
#
#
# Indices 1 2 3 4 5 6 
#
# 1 0.022863 -0.007935 -0.003438 -0.026881 -0.016766 0.001907
# 2 -0.007935 0.011719 -0.001104 0.009388 0.006435 0.001556
# 3 -0.003438 -0.001104 0.008252 0.004389 -0.000015 0.001692
# 4 -0.026881 0.009388 0.004389 0.102228 0.042412 0.023648
# 5 -0.016766 0.006435 -0.000015 0.042412 0.041981 0.009739
# 6 0.001907 0.001556 0.001692 0.023648 0.009739 0.033706
#
#
# Mechanical properties :
#
#
# Convention : Reuss Voigt Hill
#
# Bulk Modulus (GPa) = 55.92391 78.12425 67.02408
# Shear Modulus (GPa) = 19.86792 39.42889 29.64840
#
# Velocity S-wave (km/s) = 2.88575 4.06527 3.52519
# Velocity P-wave (km/s) = 5.87738 7.40139 6.68297
#
# Compressibility (1/GPa) = 0.01788144
#
# Stress axis : x y z
#
# Youngs Moduli (GPa) = 43.73915 85.33261 121.17550
#
# Poissons Ratio (x) = 0.67707 0.41662
# Poissons Ratio (y) = 0.34705 0.13373
# Poissons Ratio (z) = 0.15038 0.09418
#
# Static dielectric constant tensor:
#      x y z
#    x 1.976720 0.004060 -0.025130 
#    y 0.004060 1.997780 -0.035200 
#    z -0.025130 -0.035200 1.909410 
# 
# From -- ./inp_files/158038.got.cif
#   From: 2010.05.17/outbox.cif.g08.bks.cpg/sg2_80_cif.got.tgz:158038.got - 2010.06.03 11:33:40.
