data_PCOD9043243
_publ_section_title
;
Structure prediction by ZEFSAII (Michael W. Deem and Ramdas Pophale) SiO2 
 PCOD9043243
Probable space group: P -1
;
_chemical_formula_sum "Si O2"
_cell_formula_units_Z 13
_cell_length_a 8.898397
_cell_length_b 13.843114
_cell_length_c 5.198039
_cell_angle_alpha 73.177043
_cell_angle_beta 93.867110
_cell_angle_gamma 55.192426
_cell_volume 480.682760
_symmetry_space_group_name_H-M "P -1"
_symmetry_group_IT_number 2
_symmetry_cell_setting 'triclinic'
loop_
_space_group_symop_operation_xyz
x,y,z
-x,-y,-z
loop_
_atom_site_type_symbol
_atom_site_label
_atom_site_fract_x
_atom_site_fract_y
_atom_site_fract_z
Si Si1 0.391464 0.449794 0.914069
Si Si2 0.979856 0.340547 0.049017
Si Si3 0.707491 0.931220 0.452561
Si Si4 0.793634 0.080054 0.637723
Si Si5 0.000000 0.500000 0.500000
Si Si6 0.417918 0.314177 0.528232
Si Si7 0.994285 0.168850 0.825316
O O1 0.163714 0.570351 0.804539
O O2 0.427664 0.348645 0.209589
O O3 0.500000 0.500000 0.000000
O O4 0.443336 0.392510 0.680946
O O5 0.015575 0.422744 0.820068
O O6 0.884442 0.301334 0.863459
O O7 0.157977 0.202084 0.271392
O O8 0.801297 0.876770 0.224328
O O9 0.500000 0.000000 0.500000
O O10 0.746820 0.035473 0.414093
O O11 0.592359 0.165771 0.699652
O O12 0.868742 0.164098 0.595289
O O13 0.952517 0.942100 0.887086
O O14 0.794791 0.632673 0.480172
#
# Coordination Sequence:
#
# PCOD9043243 Si02
#       7
#     2   2   2   2   1   2   2
#     4  11  25  44  70 104 137 187 240 295 354 423
#     4  10  25  44  69  98 137 187 232 296 350 428
#     4  11  26  40  73 102 137 181 232 297 358 426
#     4  10  24  43  68 102 135 186 229 296 352 422
#     4  10  26  46  66 100 144 186 238 284 362 418
#     4  11  26  42  72 100 142 188 235 294 357 427
#     4  10  23  45  69  98 138 178 238 291 357 418
#
# _framework density 27.044865999999999
#
# number of rings (size 3 to 8) (size 9 to 14) (size 15 to 20)
#    0.000    1.538    0.000    1.846   12.923    3.692 
#    0.000    0.000    0.000    0.000    0.000    0.000 
#    0.000    0.000    0.000    0.000    0.000    0.000 
#
# Total GULP energy -72486.925987 kJ/mol
# GULP energy per Si atom -5575.917384 kJ/mol
# Density = 2.698331 g / cm^3
# Si number density = 27.044866 Si / 1000 Ang^3
#
#
#
# Elastic Constant Matrix: (Units=GPa)
#
#
# Indices 1 2 3 4 5 6 
#
# 1 77.6312 20.1763 -5.9191 -12.1672 5.4603 -11.9641
# 2 20.1763 152.9811 19.1075 -0.9227 9.1894 -4.7850
# 3 -5.9191 19.1075 73.9007 -7.7829 -0.0815 1.3324
# 4 -12.1672 -0.9227 -7.7829 31.3388 -3.4792 0.7054
# 5 5.4603 9.1894 -0.0815 -3.4792 28.4348 1.1547
# 6 -11.9641 -4.7850 1.3324 0.7054 1.1547 50.9083
#
#
#
# Elastic Compliance Matrix: (Units=1/GPa)
#
#
# Indices 1 2 3 4 5 6 
#
# 1 0.015176 -0.002057 0.002335 0.006158 -0.001622 0.003264
# 2 -0.002057 0.007210 -0.002181 -0.001371 -0.002122 0.000319
# 3 0.002335 -0.002181 0.014771 0.004610 0.000868 -0.000126
# 4 0.006158 -0.001371 0.004610 0.035793 0.003628 0.000619
# 5 -0.001622 -0.002122 0.000868 0.003628 0.036672 -0.001485
# 6 0.003264 0.000319 -0.000126 0.000619 -0.001485 0.020469
#
#
# Mechanical properties :
#
#
# Convention : Reuss Voigt Hill
#
# Bulk Modulus (GPa) = 29.98325 41.24917 35.61621
# Shear Modulus (GPa) = 34.47945 40.21294 37.34620
#
# Velocity S-wave (km/s) = 3.57445 3.86021 3.72007
# Velocity P-wave (km/s) = 5.30529 5.92905 5.62582
#
# Compressibility (1/GPa) = 0.03335196
#
# Stress axis : x y z
#
# Youngs Moduli (GPa) = 65.89271 138.70415 67.69822
#
# Poissons Ratio (x) = 0.28525 -0.15809
# Poissons Ratio (y) = 0.13551 0.14767
# Poissons Ratio (z) = -0.15387 0.30255
#
# Static dielectric constant tensor:
#      x y z
#    x 2.513320 0.256330 0.187780 
#    y 0.256330 2.159200 0.112220 
#    z 0.187780 0.112220 2.137000 
# 
# From -- ./inp_files/26504.got.cif
#   From: 2010.05.17/outbox.cif.g08.bks.cpg/sg2_14_cif.got.tgz:26504.got - 2010.06.03 11:33:40.
