data_PCOD9043790
_publ_section_title
;
Structure prediction by ZEFSAII (Michael W. Deem and Ramdas Pophale) SiO2 
 PCOD9043790
Probable space group: P -1
;
_chemical_formula_sum "Si O2"
_cell_formula_units_Z 16
_cell_length_a 14.538103
_cell_length_b 9.720303
_cell_length_c 8.701833
_cell_angle_alpha 123.182051
_cell_angle_beta 110.977643
_cell_angle_gamma 106.283207
_cell_volume 761.821095
_symmetry_space_group_name_H-M "P -1"
_symmetry_group_IT_number 2
_symmetry_cell_setting 'triclinic'
loop_
_space_group_symop_operation_xyz
x,y,z
-x,-y,-z
loop_
_atom_site_type_symbol
_atom_site_label
_atom_site_fract_x
_atom_site_fract_y
_atom_site_fract_z
Si Si1 0.785051 0.043344 0.292063
Si Si2 0.391973 0.444814 0.164137
Si Si3 0.877972 0.269894 0.812227
Si Si4 0.729441 0.373953 0.972881
Si Si5 0.390580 0.943042 0.016680
Si Si6 0.044848 0.181022 0.513288
Si Si7 0.106353 0.031634 0.185611
Si Si8 0.377730 0.278330 0.376491
O O1 0.823854 0.143044 0.544237
O O2 0.722929 0.121708 0.201856
O O3 0.914158 0.118716 0.337566
O O4 0.687422 0.791637 0.087708
O O5 0.380554 0.416294 0.325712
O O6 0.542081 0.593627 0.346102
O O7 0.342541 0.559159 0.125762
O O8 0.930089 0.177246 0.891105
O O9 0.767295 0.256151 0.820576
O O10 0.000000 0.500000 0.000000
O O11 0.652609 0.234239 0.990617
O O12 0.863233 0.589529 0.225371
O O13 0.500000 0.000000 0.000000
O O14 0.417997 0.141637 0.247147
O O15 0.122260 0.171384 0.421990
O O16 0.000000 0.000000 0.500000
O O17 0.234376 0.126717 0.238041
O O18 0.000000 0.000000 0.000000
#
# Coordination Sequence:
#
# PCOD9043790 Si02
#       8
#     2   2   2   2   2   2   2   2
#     4  11  24  47  69  99 148 180 230 291 349 421
#     4  10  23  45  75  93 141 186 231 291 339 423
#     4  12  25  43  69 108 142 179 230 292 358 421
#     4  12  25  44  73 106 138 186 236 286 366 413
#     4  11  27  47  68 102 145 183 231 297 354 417
#     4  12  23  44  70 104 138 181 234 289 350 426
#     4  12  25  43  73 100 140 185 228 288 351 413
#     4  10  24  46  68 105 138 181 245 281 345 428
#
# _framework density 21.002305
#
# number of rings (size 3 to 8) (size 9 to 14) (size 15 to 20)
#    0.000    0.750    5.000    1.500    3.500    6.000 
#    0.000    3.750    0.000    0.000    0.000    0.000 
#    0.000    0.000    0.000    0.000    0.000    0.000 
#
# Total GULP energy -89335.340333 kJ/mol
# GULP energy per Si atom -5583.458771 kJ/mol
# Density = 2.095450 g / cm^3
# Si number density = 21.002305 Si / 1000 Ang^3
#
#
#
# Elastic Constant Matrix: (Units=GPa)
#
#
# Indices 1 2 3 4 5 6 
#
# 1 115.7234 46.9602 46.0585 -3.1174 1.3352 -5.4911
# 2 46.9602 157.0868 56.7934 -6.1024 10.8201 -24.9195
# 3 46.0585 56.7934 122.3995 2.5528 18.3226 -5.0394
# 4 -3.1174 -6.1024 2.5528 22.4696 -2.8177 7.4794
# 5 1.3352 10.8201 18.3226 -2.8177 38.1070 -8.1574
# 6 -5.4911 -24.9195 -5.0394 7.4794 -8.1574 32.6097
#
#
#
# Elastic Compliance Matrix: (Units=1/GPa)
#
#
# Indices 1 2 3 4 5 6 
#
# 1 0.010883 -0.002108 -0.003452 0.001641 0.001956 -0.000199
# 2 -0.002108 0.009139 -0.003268 0.000584 0.000397 0.006089
# 3 -0.003452 -0.003268 0.011742 -0.002706 -0.005214 -0.001948
# 4 0.001641 0.000584 -0.002706 0.048938 0.002492 -0.010297
# 5 0.001956 0.000397 -0.005214 0.002492 0.030210 0.006813
# 6 -0.000199 0.006089 -0.001948 -0.010297 0.006813 0.039050
#
#
# Mechanical properties :
#
#
# Convention : Reuss Voigt Hill
#
# Bulk Modulus (GPa) = 70.88482 77.20378 74.04430
# Shear Modulus (GPa) = 29.01545 34.99711 32.00628
#
# Velocity S-wave (km/s) = 3.72093 4.08652 3.90800
# Velocity P-wave (km/s) = 7.23082 7.68802 7.46292
#
# Compressibility (1/GPa) = 0.01410739
#
# Stress axis : x y z
#
# Youngs Moduli (GPa) = 91.88741 109.42266 85.16195
#
# Poissons Ratio (x) = 0.23063 0.29402
# Poissons Ratio (y) = 0.19367 0.27833
# Poissons Ratio (z) = 0.31724 0.35762
#
# Static dielectric constant tensor:
#      x y z
#    x 1.828100 0.045770 0.018040 
#    y 0.045770 1.809850 0.070850 
#    z 0.018040 0.070850 1.858340 
# 
# From -- ./inp_files/299780.got.cif
#   From: 2010.05.17/outbox.cif.g08.bks.cpg/sg2_150_cif.got.tgz:299780.got - 2010.06.03 11:33:40.
