data_PCOD9043357
_publ_section_title
;
Structure prediction by ZEFSAII (Michael W. Deem and Ramdas Pophale) SiO2 
 PCOD9043357
Probable space group: P -1
;
_chemical_formula_sum "Si O2"
_cell_formula_units_Z 16
_cell_length_a 7.869886
_cell_length_b 12.436224
_cell_length_c 8.747997
_cell_angle_alpha 58.408560
_cell_angle_beta 66.789203
_cell_angle_gamma 56.340140
_cell_volume 600.491195
_symmetry_space_group_name_H-M "P -1"
_symmetry_group_IT_number 2
_symmetry_cell_setting 'triclinic'
loop_
_space_group_symop_operation_xyz
x,y,z
-x,-y,-z
loop_
_atom_site_type_symbol
_atom_site_label
_atom_site_fract_x
_atom_site_fract_y
_atom_site_fract_z
Si Si1 0.437211 0.267176 0.890813
Si Si2 0.736543 0.826591 0.713150
Si Si3 0.873036 0.741005 0.194064
Si Si4 0.577741 0.131609 0.443311
Si Si5 0.272462 0.480638 0.529536
Si Si6 0.062099 0.045332 0.787557
Si Si7 0.177269 0.768421 0.511139
Si Si8 0.329958 0.604092 0.102929
O O1 0.344656 0.181724 0.877923
O O2 0.430873 0.377513 0.679853
O O3 0.608906 0.278111 0.932903
O O4 0.279414 0.275729 0.077089
O O5 0.640293 0.791889 0.620903
O O6 0.960917 0.820032 0.637297
O O7 0.594653 0.997273 0.636753
O O8 0.871595 0.598278 0.359538
O O9 0.880577 0.833815 0.261821
O O10 0.092372 0.688446 0.066723
O O11 0.647272 0.228656 0.446475
O O12 0.753094 0.063695 0.299661
O O13 0.191805 0.626812 0.538533
O O14 0.324630 0.511542 0.319115
O O15 0.864869 0.117470 0.693181
O O16 0.000000 0.000000 0.000000
O O17 0.500000 0.500000 0.000000
#
# Coordination Sequence:
#
# PCOD9043357 Si02
#       8
#     2   2   2   2   2   2   2   2
#     4  10  27  44  74 105 150 188 245 301 372 436
#     4  10  23  45  70 110 141 190 254 293 371 425
#     4  10  26  48  75 103 151 196 241 302 359 447
#     4  10  25  46  73 106 146 194 248 308 358 432
#     4  10  25  50  73 109 147 197 240 297 379 437
#     4  11  24  44  75 103 146 197 244 295 366 432
#     4  11  24  46  77 102 152 193 241 307 366 439
#     4  12  26  46  73 109 149 194 247 302 366 442
#
# _framework density 26.644853999999999
#
# number of rings (size 3 to 8) (size 9 to 14) (size 15 to 20)
#    0.750    0.750    1.250    2.250    7.000    4.000 
#    6.750    0.625    0.000    0.000    0.000    0.000 
#    0.000    0.000    0.000    0.000    0.000    0.000 
#
# Total GULP energy -89160.522884 kJ/mol
# GULP energy per Si atom -5572.532680 kJ/mol
# Density = 2.658421 g / cm^3
# Si number density = 26.644854 Si / 1000 Ang^3
#
#
#
# Elastic Constant Matrix: (Units=GPa)
#
#
# Indices 1 2 3 4 5 6 
#
# 1 166.5876 31.8383 31.4004 -2.0417 4.7702 34.7843
# 2 31.8383 90.3212 35.6992 22.0726 5.4435 11.5506
# 3 31.4004 35.6992 97.1671 17.1036 -9.7554 10.8445
# 4 -2.0417 22.0726 17.1036 29.6566 0.5836 -0.3163
# 5 4.7702 5.4435 -9.7554 0.5836 32.0860 0.9080
# 6 34.7843 11.5506 10.8445 -0.3163 0.9080 34.8221
#
#
#
# Elastic Compliance Matrix: (Units=1/GPa)
#
#
# Indices 1 2 3 4 5 6 
#
# 1 0.008251 -0.001955 -0.001837 0.003034 -0.001312 -0.006959
# 2 -0.001955 0.016123 -0.003606 -0.010014 -0.003294 -0.002278
# 3 -0.001837 -0.003606 0.013882 -0.005568 0.005249 -0.001480
# 4 0.003034 -0.010014 -0.005568 0.044645 -0.001327 0.002465
# 5 -0.001312 -0.003294 0.005249 -0.001327 0.033544 -0.000118
# 6 -0.006959 -0.002278 -0.001480 0.002465 -0.000118 0.036911
#
#
# Mechanical properties :
#
#
# Convention : Reuss Voigt Hill
#
# Bulk Modulus (GPa) = 42.62433 61.32797 51.97615
# Shear Modulus (GPa) = 28.41388 36.32213 32.36801
#
# Velocity S-wave (km/s) = 3.26911 3.69615 3.48917
# Velocity P-wave (km/s) = 5.50285 6.42512 5.98179
#
# Compressibility (1/GPa) = 0.02346078
#
# Stress axis : x y z
#
# Youngs Moduli (GPa) = 121.20332 62.02384 72.03488
#
# Poissons Ratio (x) = 0.12123 0.13234
# Poissons Ratio (y) = 0.23690 0.25974
# Poissons Ratio (z) = 0.22267 0.22364
#
# Static dielectric constant tensor:
#      x y z
#    x 2.261850 -0.188550 -0.056180 
#    y -0.188550 2.229070 0.031190 
#    z -0.056180 0.031190 2.153620 
# 
# From -- ./inp_files/205811.got.cif
#   From: 2010.05.17/outbox.cif.g08.bks.cpg/sg2_103_cif.got.tgz:205811.got - 2010.06.03 11:33:40.
