data_PCOD9043685
_publ_section_title
;
Structure prediction by ZEFSAII (Michael W. Deem and Ramdas Pophale) SiO2 
 PCOD9043685
Probable space group: P -1
;
_chemical_formula_sum "Si O2"
_cell_formula_units_Z 15
_cell_length_a 18.399756
_cell_length_b 9.031408
_cell_length_c 11.058924
_cell_angle_alpha 140.829747
_cell_angle_beta 141.157738
_cell_angle_gamma 42.622271
_cell_volume 686.401610
_symmetry_space_group_name_H-M "P -1"
_symmetry_group_IT_number 2
_symmetry_cell_setting 'triclinic'
loop_
_space_group_symop_operation_xyz
x,y,z
-x,-y,-z
loop_
_atom_site_type_symbol
_atom_site_label
_atom_site_fract_x
_atom_site_fract_y
_atom_site_fract_z
Si Si1 0.000000 0.500000 0.000000
Si Si2 0.897774 0.376035 0.323390
Si Si3 0.536770 0.328423 0.288866
Si Si4 0.476211 0.942154 0.137212
Si Si5 0.266696 0.724222 0.167149
Si Si6 0.965180 0.136015 0.908046
Si Si7 0.702974 0.739128 0.473448
Si Si8 0.291284 0.364430 0.307795
O O1 0.012940 0.351586 0.058247
O O2 0.853857 0.542677 0.838280
O O3 0.816392 0.528441 0.423700
O O4 0.000000 0.500000 0.500000
O O5 0.801110 0.377080 0.091750
O O6 0.977903 0.084050 0.255100
O O7 0.534305 0.122497 0.252839
O O8 0.401834 0.532677 0.237533
O O9 0.636195 0.455444 0.526140
O O10 0.561322 0.208767 0.112172
O O11 0.357836 0.106306 0.161543
O O12 0.581732 0.781997 0.262076
O O13 0.179815 0.758122 0.192410
O O14 0.272956 0.997100 0.321383
O O15 0.000000 0.000000 0.000000
O O16 0.680980 0.671601 0.537097
#
# Coordination Sequence:
#
# PCOD9043685 Si02
#       8
#     1   2   2   2   2   2   2   2
#     4  12  28  48  72 108 150 192 248 300 368 454
#     4  11  23  41  70 108 143 191 249 294 362 445
#     4  11  25  44  73 106 138 188 247 296 367 431
#     4  11  25  47  71 106 143 185 242 304 361 438
#     4  11  22  42  72 102 139 195 243 299 364 434
#     4  10  23  45  74 100 146 196 240 301 364 435
#     4  12  25  44  74 107 143 188 245 298 372 435
#     4  12  27  46  71 105 144 189 234 302 369 432
#
# _framework density 21.853095
#
# number of rings (size 3 to 8) (size 9 to 14) (size 15 to 20)
#    0.000    0.800    4.000    3.200    3.733    2.667 
#    0.000    1.333    0.000    0.000    0.000    0.000 
#    0.000    0.000    0.000    0.000    0.000    0.000 
#
# Total GULP energy -83595.015906 kJ/mol
# GULP energy per Si atom -5573.001060 kJ/mol
# Density = 2.180336 g / cm^3
# Si number density = 21.853095 Si / 1000 Ang^3
#
#
#
# Elastic Constant Matrix: (Units=GPa)
#
#
# Indices 1 2 3 4 5 6 
#
# 1 94.2685 60.9801 32.1149 -12.0453 -10.9050 -10.2528
# 2 60.9801 71.8082 42.4841 -12.8918 -17.2877 -23.2920
# 3 32.1149 42.4841 67.0870 -16.3639 -17.5466 -25.8771
# 4 -12.0453 -12.8918 -16.3639 34.1043 -5.9127 0.9572
# 5 -10.9050 -17.2877 -17.5466 -5.9127 44.4876 -4.0009
# 6 -10.2528 -23.2920 -25.8771 0.9572 -4.0009 44.0984
#
#
#
# Elastic Compliance Matrix: (Units=1/GPa)
#
#
# Indices 1 2 3 4 5 6 
#
# 1 0.025766 -0.025460 -0.001336 -0.001810 -0.005125 -0.008667
# 2 -0.025460 0.050148 -0.007687 0.008019 0.012813 0.017046
# 3 -0.001336 -0.007687 0.033862 0.014746 0.013476 0.016402
# 4 -0.001810 0.008019 0.014746 0.041045 0.015108 0.012947
# 5 -0.005125 0.012813 0.013476 0.015108 0.034993 0.016331
# 6 -0.008667 0.017046 0.016402 0.012947 0.016331 0.040490
#
#
# Mechanical properties :
#
#
# Convention : Reuss Voigt Hill
#
# Bulk Modulus (GPa) = 24.50463 56.03575 40.27019
# Shear Modulus (GPa) = 16.18785 31.04368 23.61576
#
# Velocity S-wave (km/s) = 2.72464 3.77312 3.29091
# Velocity P-wave (km/s) = 4.59738 6.68428 5.73653
#
# Compressibility (1/GPa) = 0.04080862
#
# Stress axis : x y z
#
# Youngs Moduli (GPa) = 38.81077 19.94079 29.53194
#
# Poissons Ratio (x) = 0.50770 0.03946
# Poissons Ratio (y) = 0.98813 0.22702
# Poissons Ratio (z) = 0.05186 0.15329
#
# Static dielectric constant tensor:
#      x y z
#    x 1.787850 0.028450 -0.020440 
#    y 0.028450 1.855360 0.008350 
#    z -0.020440 0.008350 1.808620 
# 
# From -- ./inp_files/461706.got.cif
#   From: 2010.05.17/outbox.cif.g08.bks.cpg/sg2_231_cif.got.tgz:461706.got - 2010.06.03 11:33:40.
