data_PCOD9043620
_publ_section_title
;
Structure prediction by ZEFSAII (Michael W. Deem and Ramdas Pophale) SiO2 
 PCOD9043620
Probable space group: P -1
;
_chemical_formula_sum "Si O2"
_cell_formula_units_Z 16
_cell_length_a 11.457576
_cell_length_b 5.179087
_cell_length_c 24.082721
_cell_angle_alpha 70.689049
_cell_angle_beta 29.868898
_cell_angle_gamma 61.107884
_cell_volume 610.206707
_symmetry_space_group_name_H-M "P -1"
_symmetry_group_IT_number 2
_symmetry_cell_setting 'triclinic'
loop_
_space_group_symop_operation_xyz
x,y,z
-x,-y,-z
loop_
_atom_site_type_symbol
_atom_site_label
_atom_site_fract_x
_atom_site_fract_y
_atom_site_fract_z
Si Si1 0.336260 0.661347 0.834751
Si Si2 0.844743 0.146220 0.798932
Si Si3 0.571566 0.863759 0.860381
Si Si4 0.223241 0.185672 0.339974
Si Si5 0.657219 0.137400 0.461052
Si Si6 0.133324 0.665887 0.795998
Si Si7 0.894652 0.283263 0.963568
Si Si8 0.674509 0.242121 0.565512
O O1 0.634511 0.599896 0.718748
O O2 0.238169 0.619513 0.818751
O O3 0.242533 0.542824 0.935726
O O4 0.172109 0.023771 0.883730
O O5 0.625454 0.041662 0.876054
O O6 0.063311 0.990247 0.673199
O O7 0.973960 0.993500 0.814054
O O8 0.749257 0.502805 0.816188
O O9 0.652501 0.951861 0.760956
O O10 0.288422 0.869146 0.972129
O O11 0.914858 0.330357 0.452918
O O12 0.288387 0.947169 0.380003
O O13 0.500000 0.500000 0.500000
O O14 0.681059 0.049448 0.522211
O O15 0.500000 0.000000 0.500000
O O16 0.393611 0.510974 0.664509
O O17 0.951973 0.489588 0.881398
#
# Coordination Sequence:
#
# PCOD9043620 Si02
#       8
#     2   2   2   2   2   2   2   2
#     4  10  23  45  73 103 141 191 244 307 372 434
#     4  12  28  47  75 107 153 192 251 292 374 435
#     4  11  27  50  72 108 145 201 240 309 363 436
#     4  10  23  46  70 106 146 187 244 305 364 437
#     4  12  26  47  76 107 152 198 240 296 365 442
#     4  12  26  42  75 107 144 191 249 303 364 447
#     4  10  24  47  73 100 147 186 251 302 376 424
#     4  11  24  45  72 113 145 192 243 304 366 440
#
# _framework density 26.220623
#
# number of rings (size 3 to 8) (size 9 to 14) (size 15 to 20)
#    0.000    1.000    3.750    1.125    5.250    3.500 
#    0.000    0.000    0.000    0.000    0.000    0.000 
#    0.000    0.000    0.000    0.000    0.000    0.000 
#
# Total GULP energy -89728.477531 kJ/mol
# GULP energy per Si atom -5608.029846 kJ/mol
# Density = 2.616094 g / cm^3
# Si number density = 26.220623 Si / 1000 Ang^3
#
#
#
# Elastic Constant Matrix: (Units=GPa)
#
#
# Indices 1 2 3 4 5 6 
#
# 1 149.1509 36.0792 57.9361 -5.4736 -6.4296 10.8362
# 2 36.0792 91.4238 33.9033 6.2905 -1.9876 3.2707
# 3 57.9361 33.9033 161.9184 -8.1698 -15.8599 2.8758
# 4 -5.4736 6.2905 -8.1698 26.8876 3.7936 -5.2717
# 5 -6.4296 -1.9876 -15.8599 3.7936 43.0113 -2.6941
# 6 10.8362 3.2707 2.8758 -5.2717 -2.6941 39.0976
#
#
#
# Elastic Compliance Matrix: (Units=1/GPa)
#
#
# Indices 1 2 3 4 5 6 
#
# 1 0.008403 -0.002444 -0.002399 0.001198 0.000041 -0.001784
# 2 -0.002444 0.012992 -0.002067 -0.004304 -0.000201 -0.000851
# 3 -0.002399 -0.002067 0.007787 0.002181 0.002270 0.000716
# 4 0.001198 -0.004304 0.002181 0.040463 -0.002461 0.005154
# 5 0.000041 -0.000201 0.002270 -0.002461 0.024375 0.001186
# 6 -0.001784 -0.000851 0.000716 0.005154 0.001186 0.026867
#
#
# Mechanical properties :
#
#
# Convention : Reuss Voigt Hill
#
# Bulk Modulus (GPa) = 65.10188 73.14781 69.12485
# Shear Modulus (GPa) = 35.75846 40.10425 37.93135
#
# Velocity S-wave (km/s) = 3.69691 3.91512 3.80758
# Velocity P-wave (km/s) = 6.56546 6.95666 6.76389
#
# Compressibility (1/GPa) = 0.01536054
#
# Stress axis : x y z
#
# Youngs Moduli (GPa) = 119.00546 76.97307 128.42300
#
# Poissons Ratio (x) = 0.18815 0.30805
# Poissons Ratio (y) = 0.29089 0.26550
# Poissons Ratio (z) = 0.28546 0.15913
#
# Static dielectric constant tensor:
#      x y z
#    x 2.115410 -0.027750 -0.284040 
#    y -0.027750 2.072790 0.110920 
#    z -0.284040 0.110920 3.140340 
# 
# From -- ./inp_files/410271.got.cif
#   From: 2010.05.17/outbox.cif.g08.bks.cpg/sg2_206_cif.got.tgz:410271.got - 2010.06.03 11:33:40.
