data_PCOD9043618
_publ_section_title
;
Structure prediction by ZEFSAII (Michael W. Deem and Ramdas Pophale) SiO2 
 PCOD9043618
Probable space group: P -1
;
_chemical_formula_sum "Si O2"
_cell_formula_units_Z 13
_cell_length_a 9.228287
_cell_length_b 7.956969
_cell_length_c 11.369781
_cell_angle_alpha 72.991000
_cell_angle_beta 129.414941
_cell_angle_gamma 84.467913
_cell_volume 570.035146
_symmetry_space_group_name_H-M "P -1"
_symmetry_group_IT_number 2
_symmetry_cell_setting 'triclinic'
loop_
_space_group_symop_operation_xyz
x,y,z
-x,-y,-z
loop_
_atom_site_type_symbol
_atom_site_label
_atom_site_fract_x
_atom_site_fract_y
_atom_site_fract_z
Si Si1 0.866466 0.836239 0.049355
Si Si2 0.387517 0.702624 0.633512
Si Si3 0.500000 0.000000 0.500000
Si Si4 0.967030 0.843806 0.846408
Si Si5 0.590757 0.051369 0.184030
Si Si6 0.604781 0.363121 0.974329
Si Si7 0.038365 0.313196 0.631250
O O1 0.903499 0.683627 0.202864
O O2 0.949572 0.754452 0.982051
O O3 0.624519 0.950567 0.886768
O O4 0.966132 0.981721 0.116456
O O5 0.502259 0.788869 0.585113
O O6 0.355908 0.834345 0.706460
O O7 0.510564 0.485328 0.784619
O O8 0.169743 0.719836 0.473714
O O9 0.749828 0.921110 0.657480
O O10 0.152975 0.705946 0.893947
O O11 0.563701 0.174981 0.025438
O O12 0.776919 0.856669 0.299055
O O13 0.500000 0.500000 0.000000
O O14 0.000000 0.500000 0.500000
#
# Coordination Sequence:
#
# PCOD9043618 Si02
#       7
#     2   2   1   2   2   2   2
#     4  11  23  43  69 101 140 192 228 294 370 417
#     4  11  24  43  69 105 136 191 245 288 356 420
#     4  12  22  48  68 100 142 184 238 296 350 424
#     4  11  24  44  72 100 142 186 240 290 359 430
#     4  11  22  45  72  97 142 191 245 296 350 428
#     4  10  23  45  73 103 138 187 243 292 352 427
#     4  12  25  42  71 108 146 186 242 300 359 423
#
# _framework density 22.805610000000001
#
# number of rings (size 3 to 8) (size 9 to 14) (size 15 to 20)
#    0.000    0.923    4.615    1.846    2.154    1.846 
#    2.769    0.769    0.000    0.000    0.000    0.000 
#    0.000    0.000    0.000    0.000    0.000    0.000 
#
# Total GULP energy -72430.971598 kJ/mol
# GULP energy per Si atom -5571.613200 kJ/mol
# Density = 2.275370 g / cm^3
# Si number density = 22.805610 Si / 1000 Ang^3
#
#
#
# Elastic Constant Matrix: (Units=GPa)
#
#
# Indices 1 2 3 4 5 6 
#
# 1 130.3531 29.2905 44.4300 -18.5868 29.6434 14.4173
# 2 29.2905 55.7628 23.1924 -21.5105 9.4697 6.1032
# 3 44.4300 23.1924 122.6923 -29.8894 32.3251 7.7247
# 4 -18.5868 -21.5105 -29.8894 26.6078 7.0521 -7.2174
# 5 29.6434 9.4697 32.3251 7.0521 54.5939 -3.9741
# 6 14.4173 6.1032 7.7247 -7.2174 -3.9741 41.8340
#
#
#
# Elastic Compliance Matrix: (Units=1/GPa)
#
#
# Indices 1 2 3 4 5 6 
#
# 1 0.010956 -0.001193 0.000336 0.008181 -0.007212 -0.002938
# 2 -0.001193 0.032101 0.006854 0.036293 -0.013709 -0.000579
# 3 0.000336 0.006854 0.018631 0.030846 -0.016445 -0.000796
# 4 0.008181 0.036293 0.030846 0.119741 -0.044277 0.002642
# 5 -0.007212 -0.013709 -0.016445 -0.044277 0.040338 0.003715
# 6 -0.002938 -0.000579 -0.000796 0.002642 0.003715 0.025957
#
#
# Mechanical properties :
#
#
# Convention : Reuss Voigt Hill
#
# Bulk Modulus (GPa) = 13.57195 55.84824 34.71009
# Shear Modulus (GPa) = 19.20944 38.73350 28.97147
#
# Velocity S-wave (km/s) = 2.90541 4.12566 3.56809
# Velocity P-wave (km/s) = 4.14961 6.87290 5.67697
#
# Compressibility (1/GPa) = 0.07368140
#
# Stress axis : x y z
#
# Youngs Moduli (GPa) = 91.27042 31.15215 53.67528
#
# Poissons Ratio (x) = 0.03715 -0.01803
# Poissons Ratio (y) = 0.10885 -0.36787
# Poissons Ratio (z) = -0.03066 -0.21350
#
# Static dielectric constant tensor:
#      x y z
#    x 1.886380 0.043310 -0.071150 
#    y 0.043310 1.886540 0.003640 
#    z -0.071150 0.003640 1.860820 
# 
# From -- ./inp_files/181415.got.cif
#   From: 2010.05.17/outbox.cif.g08.bks.cpg/sg2_91_cif.got.tgz:181415.got - 2010.06.03 11:33:40.
