data_PCOD9043090
_publ_section_title
;
Structure prediction by ZEFSAII (Michael W. Deem and Ramdas Pophale) SiO2 
 PCOD9043090
Probable space group: P -1
;
_chemical_formula_sum "Si O2"
_cell_formula_units_Z 16
_cell_length_a 15.121871
_cell_length_b 8.033467
_cell_length_c 10.828881
_cell_angle_alpha 95.277614
_cell_angle_beta 107.020898
_cell_angle_gamma 142.140376
_cell_volume 644.465442
_symmetry_space_group_name_H-M "P -1"
_symmetry_group_IT_number 2
_symmetry_cell_setting 'triclinic'
loop_
_space_group_symop_operation_xyz
x,y,z
-x,-y,-z
loop_
_atom_site_type_symbol
_atom_site_label
_atom_site_fract_x
_atom_site_fract_y
_atom_site_fract_z
Si Si1 0.308400 0.518973 0.313436
Si Si2 0.899977 0.281156 0.824217
Si Si3 0.360074 0.292691 0.154069
Si Si4 0.066834 0.415129 0.504472
Si Si5 0.970807 0.187366 0.199021
Si Si6 0.571746 0.188944 0.374366
Si Si7 0.478766 0.740590 0.912027
Si Si8 0.183512 0.516497 0.826414
O O1 0.385479 0.504913 0.248732
O O2 0.098198 0.235277 0.208880
O O3 0.363942 0.575507 0.482579
O O4 0.396633 0.829908 0.329912
O O5 0.019419 0.308793 0.833360
O O6 0.927897 0.474296 0.752670
O O7 0.707332 0.930176 0.774801
O O8 0.000000 0.500000 0.000000
O O9 0.506951 0.428070 0.138778
O O10 0.198241 0.064090 0.975732
O O11 0.944632 0.136079 0.332279
O O12 0.268421 0.700119 0.555082
O O13 0.087632 0.364139 0.643677
O O14 0.000000 0.500000 0.500000
O O15 0.539959 0.194976 0.222738
O O16 0.307357 0.545718 0.902988
O O17 0.665319 0.098444 0.073710
#
# Coordination Sequence:
#
# PCOD9043090 Si02
#       8
#     2   2   2   2   2   2   2   2
#     4  10  21  37  55  85 119 144 188 238 289 335
#     4  10  18  32  55  90 109 143 194 225 280 334
#     4  11  21  34  59  89 116 151 187 237 285 330
#     4  10  17  33  60  82 108 143 196 233 268 336
#     4  10  19  34  57  86 114 147 191 232 278 337
#     4   9  21  36  57  82 110 151 190 233 285 339
#     4  10  19  35  58  82 114 149 197 230 274 345
#     4  10  19  33  58  87 111 153 190 234 278 329
#
# _framework density 24.826775999999999
#
# number of rings (size 3 to 8) (size 9 to 14) (size 15 to 20)
#    0.000    2.000    3.750    1.125    1.750    0.500 
#    0.000    0.000    5.500   11.250    0.000    0.000 
#    0.000    0.000    0.000    0.000    0.000    0.000 
#
# Total GULP energy -89353.558109 kJ/mol
# GULP energy per Si atom -5584.597382 kJ/mol
# Density = 2.477027 g / cm^3
# Si number density = 24.826776 Si / 1000 Ang^3
#
#
#
# Elastic Constant Matrix: (Units=GPa)
#
#
# Indices 1 2 3 4 5 6 
#
# 1 177.9054 20.7805 26.2870 11.4350 -30.6839 17.4078
# 2 20.7805 35.4637 15.1656 -6.3427 4.6155 1.7711
# 3 26.2870 15.1656 119.3099 -18.7982 -6.8301 -2.4694
# 4 11.4350 -6.3427 -18.7982 24.4230 -0.0455 -4.9808
# 5 -30.6839 4.6155 -6.8301 -0.0455 37.5548 -4.8429
# 6 17.4078 1.7711 -2.4694 -4.9808 -4.8429 32.6954
#
#
#
# Elastic Compliance Matrix: (Units=1/GPa)
#
#
# Indices 1 2 3 4 5 6 
#
# 1 0.008946 -0.006515 -0.002181 -0.008531 0.007081 -0.004826
# 2 -0.006515 0.036048 -0.001904 0.011260 -0.009877 0.001625
# 3 -0.002181 -0.001904 0.010733 0.009536 0.000887 0.003659
# 4 -0.008531 0.011260 0.009536 0.057790 -0.004908 0.012729
# 5 0.007081 -0.009877 0.000887 -0.004908 0.033925 0.001110
# 6 -0.004826 0.001625 0.003659 0.012729 0.001110 0.035447
#
#
# Mechanical properties :
#
#
# Convention : Reuss Voigt Hill
#
# Bulk Modulus (GPa) = 28.96462 50.79392 39.87927
# Shear Modulus (GPa) = 23.19104 36.96435 30.07770
#
# Velocity S-wave (km/s) = 3.05964 3.86280 3.48444
# Velocity P-wave (km/s) = 4.91670 6.35600 5.68210
#
# Compressibility (1/GPa) = 0.03452488
#
# Stress axis : x y z
#
# Youngs Moduli (GPa) = 111.78070 27.74063 93.16840
#
# Poissons Ratio (x) = 0.18074 0.20324
# Poissons Ratio (y) = 0.72831 0.17743
# Poissons Ratio (z) = 0.24385 0.05283
#
# Static dielectric constant tensor:
#      x y z
#    x 2.009460 -0.028940 0.001630 
#    y -0.028940 2.143980 0.013000 
#    z 0.001630 0.013000 1.934930 
# 
# From -- ./inp_files/268821.got.cif
#   From: 2010.05.17/outbox.cif.g08.bks.cpg/sg2_135_cif.got.tgz:268821.got - 2010.06.03 11:33:40.
