data_PCOD9043773
_publ_section_title
;
Structure prediction by ZEFSAII (Michael W. Deem and Ramdas Pophale) SiO2 
 PCOD9043773
Probable space group: P -1
;
_chemical_formula_sum "Si O2"
_cell_formula_units_Z 12
_cell_length_a 13.564589
_cell_length_b 8.161028
_cell_length_c 5.159946
_cell_angle_alpha 118.261310
_cell_angle_beta 101.181233
_cell_angle_gamma 77.943719
_cell_volume 489.021392
_symmetry_space_group_name_H-M "P -1"
_symmetry_group_IT_number 2
_symmetry_cell_setting 'triclinic'
loop_
_space_group_symop_operation_xyz
x,y,z
-x,-y,-z
loop_
_atom_site_type_symbol
_atom_site_label
_atom_site_fract_x
_atom_site_fract_y
_atom_site_fract_z
Si Si1 0.069514 0.513896 0.294168
Si Si2 0.754847 0.930989 0.559476
Si Si3 0.690170 0.176275 0.194226
Si Si4 0.708523 0.614244 0.642685
Si Si5 0.988905 0.881467 0.651465
Si Si6 0.516879 0.627034 0.853111
O O1 0.174945 0.386739 0.213030
O O2 0.000000 0.500000 0.500000
O O3 0.084569 0.724655 0.526236
O O4 0.000000 0.500000 0.000000
O O5 0.693350 0.767101 0.518322
O O6 0.872948 0.837948 0.537598
O O7 0.718310 0.048122 0.368608
O O8 0.747743 0.081929 0.903584
O O9 0.702867 0.397587 0.397993
O O10 0.569691 0.195025 0.074730
O O11 0.630225 0.667100 0.876034
O O12 0.000000 0.000000 0.500000
O O13 0.000000 0.000000 0.000000
O O14 0.500000 0.500000 0.500000
O O15 0.500000 0.500000 0.000000
#
# Coordination Sequence:
#
# PCOD9043773 Si02
#       6
#     2   2   2   2   2   2
#     4  12  26  44  69 103 142 185 245 295 358 433
#     4  12  26  44  74 106 144 191 244 292 370 436
#     4  11  26  47  71 110 146 184 246 301 363 438
#     4  11  26  48  76 102 149 194 239 307 363 429
#     4  12  25  45  69 100 144 191 244 305 356 429
#     4  10  23  45  75 106 142 189 240 298 369 433
#
# _framework density 24.538802
#
# number of rings (size 3 to 8) (size 9 to 14) (size 15 to 20)
#    0.000    0.667    1.667    6.000    2.333    9.333 
#    0.000    0.000    0.000    0.000    0.000    0.000 
#    0.000    0.000    0.000    0.000    0.000    0.000 
#
# Total GULP energy -66962.777625 kJ/mol
# GULP energy per Si atom -5580.231469 kJ/mol
# Density = 2.448295 g / cm^3
# Si number density = 24.538802 Si / 1000 Ang^3
#
#
#
# Elastic Constant Matrix: (Units=GPa)
#
#
# Indices 1 2 3 4 5 6 
#
# 1 159.3700 48.2829 20.0429 -29.9745 -16.8019 -12.1946
# 2 48.2829 141.3418 40.3695 -25.9469 -0.0530 7.8479
# 3 20.0429 40.3695 144.9964 -33.5830 -18.1156 3.3538
# 4 -29.9745 -25.9469 -33.5830 52.9318 7.0742 -6.0989
# 5 -16.8019 -0.0530 -18.1156 7.0742 24.6989 -0.3422
# 6 -12.1946 7.8479 3.3538 -6.0989 -0.3422 57.9385
#
#
#
# Elastic Compliance Matrix: (Units=1/GPa)
#
#
# Indices 1 2 3 4 5 6 
#
# 1 0.008398 -0.002627 0.001049 0.003691 0.005454 0.002483
# 2 -0.002627 0.009022 -0.002160 0.001919 -0.003922 -0.001471
# 3 0.001049 -0.002160 0.009171 0.004593 0.006127 0.000502
# 4 0.003691 0.001919 0.004593 0.025351 -0.001337 0.002912
# 5 0.005454 -0.003922 0.006127 -0.001337 0.049087 0.001474
# 6 0.002483 -0.001471 0.000502 0.002912 0.001474 0.018268
#
#
# Mechanical properties :
#
#
# Convention : Reuss Voigt Hill
#
# Bulk Modulus (GPa) = 52.31464 73.67764 62.99614
# Shear Modulus (GPa) = 37.55365 49.58137 43.56751
#
# Velocity S-wave (km/s) = 3.91625 4.49991 4.21818
# Velocity P-wave (km/s) = 6.46643 7.55573 7.03220
#
# Compressibility (1/GPa) = 0.01911511
#
# Stress axis : x y z
#
# Youngs Moduli (GPa) = 119.07995 110.84220 109.04245
#
# Poissons Ratio (x) = 0.29115 -0.11442
# Poissons Ratio (y) = 0.31278 0.23556
# Poissons Ratio (z) = -0.12495 0.23945
#
# Static dielectric constant tensor:
#      x y z
#    x 2.094250 0.119500 0.140400 
#    y 0.119500 1.989450 0.012890 
#    z 0.140400 0.012890 1.857650 
# 
# From -- ./inp_files/86830.got.cif
#   From: 2010.05.17/outbox.cif.g08.bks.cpg/sg2_44_cif.got.tgz:86830.got - 2010.06.03 11:33:40.
