data_PCOD9043640
_publ_section_title
;
Structure prediction by ZEFSAII (Michael W. Deem and Ramdas Pophale) SiO2 
 PCOD9043640
Probable space group: P -1
;
_chemical_formula_sum "Si O2"
_cell_formula_units_Z 15
_cell_length_a 7.928272
_cell_length_b 16.899266
_cell_length_c 5.610570
_cell_angle_alpha 58.179744
_cell_angle_beta 85.135436
_cell_angle_gamma 71.656247
_cell_volume 603.204440
_symmetry_space_group_name_H-M "P -1"
_symmetry_group_IT_number 2
_symmetry_cell_setting 'triclinic'
loop_
_space_group_symop_operation_xyz
x,y,z
-x,-y,-z
loop_
_atom_site_type_symbol
_atom_site_label
_atom_site_fract_x
_atom_site_fract_y
_atom_site_fract_z
Si Si1 0.424682 0.734886 0.411365
Si Si2 0.000000 0.000000 0.000000
Si Si3 0.499542 0.084077 0.677396
Si Si4 0.281136 0.460629 0.454793
Si Si5 0.913285 0.176341 0.999271
Si Si6 0.043222 0.570685 0.688735
Si Si7 0.792479 0.964947 0.494679
Si Si8 0.817812 0.335107 0.105576
O O1 0.520414 0.813129 0.358656
O O2 0.546571 0.630780 0.464033
O O3 0.319187 0.715280 0.688075
O O4 0.288484 0.783078 0.139895
O O5 0.156160 0.976804 0.819757
O O6 0.017819 0.111341 0.867824
O O7 0.348907 0.086825 0.494888
O O8 0.693281 0.041507 0.592435
O O9 0.500000 0.000000 0.000000
O O10 0.230817 0.512297 0.634644
O O11 0.118466 0.416874 0.492824
O O12 0.274772 0.551894 0.139091
O O13 0.920690 0.278793 0.952022
O O14 0.022214 0.106223 0.313557
O O15 0.055434 0.662685 0.689775
O O16 0.000000 0.500000 0.000000
#
# Coordination Sequence:
#
# PCOD9043640 Si02
#       8
#     2   1   2   2   2   2   2   2
#     4  12  26  44  74 109 150 192 248 312 383 445
#     4  12  24  48  76 106 148 196 256 316 376 456
#     4  11  26  50  74 111 155 196 254 319 384 457
#     4  10  23  45  73 105 149 194 249 313 373 450
#     4  12  25  41  71 109 148 193 246 304 375 451
#     4   9  21  45  68 100 147 191 247 305 373 444
#     4  11  25  47  76 107 148 199 253 316 380 455
#     4  11  24  43  71 108 148 193 252 307 377 450
#
# _framework density 24.867191999999999
#
# number of rings (size 3 to 8) (size 9 to 14) (size 15 to 20)
#    0.000    1.067    0.000    5.600    1.867    5.333 
#   12.000    0.000    0.000    0.000    0.000    0.000 
#    0.000    0.000    0.000    0.000    0.000    0.000 
#
# Total GULP energy -83561.512479 kJ/mol
# GULP energy per Si atom -5570.767499 kJ/mol
# Density = 2.481059 g / cm^3
# Si number density = 24.867192 Si / 1000 Ang^3
#
#
#
# Elastic Constant Matrix: (Units=GPa)
#
#
# Indices 1 2 3 4 5 6 
#
# 1 80.0357 47.3058 37.2494 -9.2892 5.6184 7.9208
# 2 47.3058 177.4858 56.6947 -7.1419 18.6433 11.3889
# 3 37.2494 56.6947 84.8276 -5.0694 -10.9961 -7.6753
# 4 -9.2892 -7.1419 -5.0694 48.7945 -2.1012 0.9192
# 5 5.6184 18.6433 -10.9961 -2.1012 44.1253 7.1599
# 6 7.9208 11.3889 -7.6753 0.9192 7.1599 47.6130
#
#
#
# Elastic Compliance Matrix: (Units=1/GPa)
#
#
# Indices 1 2 3 4 5 6 
#
# 1 0.017625 -0.001911 -0.006947 0.002306 -0.002529 -0.003259
# 2 -0.001911 0.008532 -0.005607 0.000149 -0.004433 -0.001963
# 3 -0.006947 -0.005607 0.019984 0.000169 0.007497 0.004588
# 4 0.002306 0.000149 0.000169 0.021026 0.000837 -0.000924
# 5 -0.002529 -0.004433 0.007497 0.000837 0.026991 -0.001385
# 6 -0.003259 -0.001963 0.004588 -0.000924 -0.001385 0.022980
#
#
# Mechanical properties :
#
#
# Convention : Reuss Voigt Hill
#
# Bulk Modulus (GPa) = 58.10256 69.42766 63.76511
# Shear Modulus (GPa) = 32.93710 41.51317 37.22513
#
# Velocity S-wave (km/s) = 3.64334 4.09026 3.87325
# Velocity P-wave (km/s) = 6.41206 7.09133 6.76023
#
# Compressibility (1/GPa) = 0.01721095
#
# Stress axis : x y z
#
# Youngs Moduli (GPa) = 56.73776 117.20347 50.04077
#
# Poissons Ratio (x) = 0.22395 0.34765
# Poissons Ratio (y) = 0.10842 0.28057
# Poissons Ratio (z) = 0.39417 0.65714
#
# Static dielectric constant tensor:
#      x y z
#    x 2.216170 0.239720 0.041170 
#    y 0.239720 2.203750 0.072250 
#    z 0.041170 0.072250 2.183240 
# 
# From -- ./inp_files/43250.got.cif
#   From: 2010.05.17/outbox.cif.g08.bks.cpg/sg2_22_cif.got.tgz:43250.got - 2010.06.03 11:33:40.
