data_PCOD9043606
_publ_section_title
;
Structure prediction by ZEFSAII (Michael W. Deem and Ramdas Pophale) SiO2 
 PCOD9043606
Probable space group: P -1
;
_chemical_formula_sum "Si O2"
_cell_formula_units_Z 12
_cell_length_a 7.175976
_cell_length_b 9.384683
_cell_length_c 8.095412
_cell_angle_alpha 88.566786
_cell_angle_beta 53.901458
_cell_angle_gamma 83.141185
_cell_volume 436.655828
_symmetry_space_group_name_H-M "P -1"
_symmetry_group_IT_number 2
_symmetry_cell_setting 'triclinic'
loop_
_space_group_symop_operation_xyz
x,y,z
-x,-y,-z
loop_
_atom_site_type_symbol
_atom_site_label
_atom_site_fract_x
_atom_site_fract_y
_atom_site_fract_z
Si Si1 0.026519 0.620993 0.847087
Si Si2 0.162670 0.845187 0.016164
Si Si3 0.349733 0.656622 0.398492
Si Si4 0.612317 0.631340 0.800160
Si Si5 0.515449 0.946351 0.304289
Si Si6 0.111318 0.165685 0.515423
O O1 0.058218 0.768332 0.918422
O O2 0.263079 0.592126 0.616267
O O3 0.808165 0.627705 0.838161
O O4 0.000000 0.500000 0.000000
O O5 0.373861 0.726596 0.970208
O O6 0.285757 0.981499 0.894943
O O7 0.976866 0.869214 0.257333
O O8 0.111800 0.755582 0.464221
O O9 0.526002 0.775034 0.304043
O O10 0.413714 0.526894 0.243020
O O11 0.711699 0.715169 0.591147
O O12 0.500000 0.000000 0.500000
O O13 0.267725 0.027194 0.359197
#
# Coordination Sequence:
#
# PCOD9043606 Si02
#       6
#     2   2   2   2   2   2
#     4  11  22  41  70 103 138 179 232 282 340 410
#     4  11  24  47  72 104 139 182 231 282 347 415
#     4  11  22  45  69  99 143 180 225 291 341 407
#     4  10  24  46  71 104 141 178 228 289 348 403
#     4  11  24  47  68 101 140 183 230 282 347 411
#     4  10  23  45  73 100 137 182 233 282 343 412
#
# _framework density 27.481598999999999
#
# number of rings (size 3 to 8) (size 9 to 14) (size 15 to 20)
#    0.000    1.333    1.667    4.500    0.000    4.667 
#    9.000    3.333    0.000    0.000    0.000    0.000 
#    0.000    0.000    0.000    0.000    0.000    0.000 
#
# Total GULP energy -67371.597584 kJ/mol
# GULP energy per Si atom -5614.299799 kJ/mol
# Density = 2.741905 g / cm^3
# Si number density = 27.481599 Si / 1000 Ang^3
#
#
#
# Elastic Constant Matrix: (Units=GPa)
#
#
# Indices 1 2 3 4 5 6 
#
# 1 132.8129 60.8335 51.5655 3.7670 -5.5036 -4.1947
# 2 60.8335 181.9896 78.4011 -29.9916 -21.9977 10.0237
# 3 51.5655 78.4011 224.5083 -25.8786 -23.9898 3.5463
# 4 3.7670 -29.9916 -25.8786 36.3614 -1.3682 0.6003
# 5 -5.5036 -21.9977 -23.9898 -1.3682 47.3913 -5.7907
# 6 -4.1947 10.0237 3.5463 0.6003 -5.7907 44.0636
#
#
#
# Elastic Compliance Matrix: (Units=1/GPa)
#
#
# Indices 1 2 3 4 5 6 
#
# 1 0.010134 -0.003794 -0.001828 -0.005565 -0.001443 0.001861
# 2 -0.003794 0.008870 -0.001042 0.007118 0.003113 -0.001983
# 3 -0.001828 -0.001042 0.005913 0.003631 0.002384 -0.000149
# 4 -0.005565 0.007118 0.003631 0.036769 0.005282 -0.002248
# 5 -0.001443 0.003113 0.002384 0.005282 0.023987 0.002043
# 6 0.001861 -0.001983 -0.000149 -0.002248 0.002043 0.023634
#
#
# Mechanical properties :
#
#
# Convention : Reuss Voigt Hill
#
# Bulk Modulus (GPa) = 86.27795 102.32347 94.30071
# Shear Modulus (GPa) = 39.52639 48.79729 44.16184
#
# Velocity S-wave (km/s) = 3.79659 4.21840 4.01304
# Velocity P-wave (km/s) = 7.11911 7.81286 7.47404
#
# Compressibility (1/GPa) = 0.01159045
#
# Stress axis : x y z
#
# Youngs Moduli (GPa) = 98.68162 112.73553 169.10754
#
# Poissons Ratio (x) = 0.42772 0.30906
# Poissons Ratio (y) = 0.37440 0.17618
# Poissons Ratio (z) = 0.18035 0.11745
#
# Static dielectric constant tensor:
#      x y z
#    x 2.266810 -0.049330 0.037010 
#    y -0.049330 2.069200 -0.038140 
#    z 0.037010 -0.038140 2.129050 
# 
# From -- ./inp_files/24476.got.cif
#   From: 2010.05.17/outbox.cif.g08.bks.cpg/sg2_13_cif.got.tgz:24476.got - 2010.06.03 11:33:40.
