data_PCOD9043528
_publ_section_title
;
Structure prediction by ZEFSAII (Michael W. Deem and Ramdas Pophale) SiO2 
 PCOD9043528
Probable space group: P -1
;
_chemical_formula_sum "Si O2"
_cell_formula_units_Z 12
_cell_length_a 6.919511
_cell_length_b 20.112050
_cell_length_c 7.957669
_cell_angle_alpha 128.898846
_cell_angle_beta 102.424308
_cell_angle_gamma 39.254600
_cell_volume 455.286750
_symmetry_space_group_name_H-M "P -1"
_symmetry_group_IT_number 2
_symmetry_cell_setting 'triclinic'
loop_
_space_group_symop_operation_xyz
x,y,z
-x,-y,-z
loop_
_atom_site_type_symbol
_atom_site_label
_atom_site_fract_x
_atom_site_fract_y
_atom_site_fract_z
Si Si1 0.430462 0.042300 0.748676
Si Si2 0.136485 0.716868 0.481070
Si Si3 0.568741 0.635524 0.136672
Si Si4 0.520267 0.622649 0.737071
Si Si5 0.306821 0.266285 0.210237
Si Si6 0.454383 0.856897 0.578263
O O1 0.500000 0.000000 0.500000
O O2 0.258766 0.017192 0.751181
O O3 0.254449 0.196931 0.993775
O O4 0.825077 0.902090 0.692143
O O5 0.449679 0.623699 0.257637
O O6 0.275995 0.668080 0.619256
O O7 0.881615 0.727771 0.412910
O O8 0.451602 0.634328 0.939336
O O9 0.527188 0.721213 0.856179
O O10 0.000000 0.500000 0.000000
O O11 0.927529 0.441597 0.485879
O O12 0.629261 0.199922 0.622428
O O13 0.548108 0.161950 0.255200
#
# Coordination Sequence:
#
# PCOD9043528 Si02
#       6
#     2   2   2   2   2   2
#     4  10  24  46  68 105 141 189 235 294 349 424
#     4  10  26  45  70 112 133 188 244 286 353 418
#     4  12  22  47  70 104 148 182 234 289 354 419
#     4  11  23  43  74 105 140 192 225 298 348 418
#     4  11  21  45  71  99 149 183 234 286 363 407
#     4  10  23  45  72 100 143 187 232 296 344 419
#
# _framework density 26.357015000000001
#
# number of rings (size 3 to 8) (size 9 to 14) (size 15 to 20)
#    1.000    0.333    3.333    2.500    0.000    3.333 
#    3.000    1.667    0.000    0.000    0.000    0.000 
#    0.000    0.000    0.000    0.000    0.000    0.000 
#
# Total GULP energy -67229.605366 kJ/mol
# GULP energy per Si atom -5602.467114 kJ/mol
# Density = 2.629703 g / cm^3
# Si number density = 26.357015 Si / 1000 Ang^3
#
#
#
# Elastic Constant Matrix: (Units=GPa)
#
#
# Indices 1 2 3 4 5 6 
#
# 1 110.7889 28.4158 54.3025 2.7173 -4.0015 9.1526
# 2 28.4158 84.0617 32.5289 -18.8281 2.4151 11.7042
# 3 54.3025 32.5289 159.0897 -23.6017 12.7307 11.3863
# 4 2.7173 -18.8281 -23.6017 42.9321 4.2973 9.5902
# 5 -4.0015 2.4151 12.7307 4.2973 47.9580 3.8557
# 6 9.1526 11.7042 11.3863 9.5902 3.8557 50.4816
#
#
#
# Elastic Compliance Matrix: (Units=1/GPa)
#
#
# Indices 1 2 3 4 5 6 
#
# 1 0.012402 -0.003778 -0.004507 -0.005303 0.002862 0.000433
# 2 -0.003778 0.015745 -0.000309 0.008080 -0.001403 -0.004324
# 3 -0.004507 -0.000309 0.009175 0.005974 -0.003165 -0.002074
# 4 -0.005303 0.008080 0.005974 0.032742 -0.004716 -0.008119
# 5 0.002862 -0.001403 -0.003165 -0.004716 0.022448 -0.000298
# 6 0.000433 -0.004324 -0.002074 -0.008119 -0.000298 0.022766
#
#
# Mechanical properties :
#
#
# Convention : Reuss Voigt Hill
#
# Bulk Modulus (GPa) = 49.67100 64.93721 57.30410
# Shear Modulus (GPa) = 35.92478 44.18721 40.05599
#
# Velocity S-wave (km/s) = 3.69590 4.09894 3.90262
# Velocity P-wave (km/s) = 6.09091 6.86241 6.48814
#
# Compressibility (1/GPa) = 0.02013247
#
# Stress axis : x y z
#
# Youngs Moduli (GPa) = 80.63025 63.51187 108.98633
#
# Poissons Ratio (x) = 0.23998 0.49126
# Poissons Ratio (y) = 0.30466 0.03370
# Poissons Ratio (z) = 0.36344 0.01964
#
# Static dielectric constant tensor:
#      x y z
#    x 2.044980 -0.020570 -0.029300 
#    y -0.020570 2.108300 0.089510 
#    z -0.029300 0.089510 2.025720 
# 
# From -- ./inp_files/49865.got.cif
#   From: 2010.05.17/outbox.cif.g08.bks.cpg/sg2_25_cif.got.tgz:49865.got - 2010.06.03 11:33:40.
