data_PCOD9043203
_publ_section_title
;
Structure prediction by ZEFSAII (Michael W. Deem and Ramdas Pophale) SiO2 
 PCOD9043203
Probable space group: P -1
;
_chemical_formula_sum "Si O2"
_cell_formula_units_Z 10
_cell_length_a 11.491875
_cell_length_b 10.134984
_cell_length_c 12.291749
_cell_angle_alpha 134.943601
_cell_angle_beta 145.326263
_cell_angle_gamma 33.043658
_cell_volume 443.433431
_symmetry_space_group_name_H-M "P -1"
_symmetry_group_IT_number 2
_symmetry_cell_setting 'triclinic'
loop_
_space_group_symop_operation_xyz
x,y,z
-x,-y,-z
loop_
_atom_site_type_symbol
_atom_site_label
_atom_site_fract_x
_atom_site_fract_y
_atom_site_fract_z
Si Si1 0.303566 0.599566 0.510160
Si Si2 0.794499 0.356475 0.104588
Si Si3 0.053802 0.127833 0.973768
Si Si4 0.692558 0.780217 0.600610
Si Si5 0.776588 0.948247 0.185979
O O1 0.500000 0.500000 0.500000
O O2 0.391877 0.375902 0.522032
O O3 0.004123 0.732277 0.313611
O O4 0.282918 0.807640 0.677273
O O5 0.798293 0.352287 0.973145
O O6 0.003385 0.397747 0.315564
O O7 0.500000 0.500000 0.000000
O O8 0.934158 0.094096 0.111878
O O9 0.280711 0.109155 0.204562
O O10 0.092849 0.129223 0.878448
O O11 0.500000 0.000000 0.500000
O O12 0.500000 0.000000 0.000000
#
# Coordination Sequence:
#
# PCOD9043203 Si02
#       5
#     2   2   2   2   2
#     4  11  27  47  74 108 144 190 243 299 360 431
#     4   9  21  42  70 100 135 189 240 282 358 421
#     4   9  22  42  69 100 142 180 239 288 356 425
#     4  10  23  45  69 106 147 185 236 301 352 428
#     4  11  26  48  74 105 145 190 245 298 362 428
#
# _framework density 22.551297999999999
#
# number of rings (size 3 to 8) (size 9 to 14) (size 15 to 20)
#    1.200    0.800    0.000    1.200    5.600    6.400 
#    0.000    2.000    0.000    0.000    0.000    0.000 
#    0.000    0.000    0.000    0.000    0.000    0.000 
#
# Total GULP energy -55784.824658 kJ/mol
# GULP energy per Si atom -5578.482466 kJ/mol
# Density = 2.249997 g / cm^3
# Si number density = 22.551298 Si / 1000 Ang^3
#
#
#
# Elastic Constant Matrix: (Units=GPa)
#
#
# Indices 1 2 3 4 5 6 
#
# 1 169.5535 51.9479 53.0898 -8.3025 6.4515 -15.2843
# 2 51.9479 90.1613 37.8536 -14.4341 2.9118 17.8306
# 3 53.0898 37.8536 117.8698 -11.7148 -0.1109 3.5243
# 4 -8.3025 -14.4341 -11.7148 26.7149 -3.0751 5.9578
# 5 6.4515 2.9118 -0.1109 -3.0751 45.2178 -0.7802
# 6 -15.2843 17.8306 3.5243 5.9578 -0.7802 40.2609
#
#
#
# Elastic Compliance Matrix: (Units=1/GPa)
#
#
# Indices 1 2 3 4 5 6 
#
# 1 0.009030 -0.005872 -0.002698 -0.003163 -0.001016 0.006713
# 2 -0.005872 0.019491 -0.002209 0.010471 0.000078 -0.012216
# 3 -0.002698 -0.002209 0.010759 0.003090 0.000739 -0.001431
# 4 -0.003163 0.010471 0.003090 0.046667 0.002735 -0.012961
# 5 -0.001016 0.000078 0.000739 0.002735 0.022435 -0.000455
# 6 0.006713 -0.012216 -0.001431 -0.012961 -0.000455 0.034831
#
#
# Mechanical properties :
#
#
# Convention : Reuss Voigt Hill
#
# Bulk Modulus (GPa) = 56.42017 73.70745 65.06381
# Shear Modulus (GPa) = 29.29479 38.08494 33.68986
#
# Velocity S-wave (km/s) = 3.60811 4.11398 3.86932
# Velocity P-wave (km/s) = 6.51390 7.43786 6.99116
#
# Compressibility (1/GPa) = 0.01772416
#
# Stress axis : x y z
#
# Youngs Moduli (GPa) = 110.73677 51.30503 92.94498
#
# Poissons Ratio (x) = 0.30124 0.25075
# Poissons Ratio (y) = 0.65019 0.20531
# Poissons Ratio (z) = 0.29875 0.11333
#
# Static dielectric constant tensor:
#      x y z
#    x 1.904920 -0.135190 0.051630 
#    y -0.135190 1.942270 -0.102350 
#    z 0.051630 -0.102350 1.926520 
# 
# From -- ./inp_files/42517.got.cif
#   From: 2010.05.17/outbox.cif.g08.bks.cpg/sg2_22_cif.got.tgz:42517.got - 2010.06.03 11:33:40.
