data_PCOD9043661
_publ_section_title
;
Structure prediction by ZEFSAII (Michael W. Deem and Ramdas Pophale) SiO2 
 PCOD9043661
Probable space group: P -1
;
_chemical_formula_sum "Si O2"
_cell_formula_units_Z 10
_cell_length_a 11.583337
_cell_length_b 6.939166
_cell_length_c 4.841035
_cell_angle_alpha 109.290793
_cell_angle_beta 78.597339
_cell_angle_gamma 93.147585
_cell_volume 359.996876
_symmetry_space_group_name_H-M "P -1"
_symmetry_group_IT_number 2
_symmetry_cell_setting 'triclinic'
loop_
_space_group_symop_operation_xyz
x,y,z
-x,-y,-z
loop_
_atom_site_type_symbol
_atom_site_label
_atom_site_fract_x
_atom_site_fract_y
_atom_site_fract_z
Si Si1 0.732116 0.536593 0.744833
Si Si2 0.451417 0.183417 0.292302
Si Si3 0.314244 0.868765 0.558890
Si Si4 0.925113 0.595811 0.325847
Si Si5 0.878336 0.914725 0.900173
O O1 0.610401 0.653358 0.799666
O O2 0.731339 0.301223 0.716809
O O3 0.794037 0.516257 0.402309
O O4 0.816571 0.701344 0.930710
O O5 0.567287 0.241205 0.432644
O O6 0.357394 0.074036 0.484499
O O7 0.500000 0.000000 0.000000
O O8 0.221618 0.930384 0.869028
O O9 0.907856 0.836511 0.534596
O O10 0.000000 0.500000 0.500000
O O11 0.000000 0.500000 0.000000
O O12 0.000000 0.000000 0.000000
#
# Coordination Sequence:
#
# PCOD9043661 Si02
#       5
#     2   2   2   2   2
#     4  10  24  45  74 108 147 201 256 307 395 453
#     4  11  23  48  70 108 145 197 255 321 386 460
#     4  11  24  46  73 105 153 192 256 322 383 463
#     4  10  23  45  73 109 156 201 256 313 388 461
#     4  10  23  45  73 109 153 197 254 313 378 462
#
# _framework density 27.778020000000001
#
# number of rings (size 3 to 8) (size 9 to 14) (size 15 to 20)
#    1.200    0.400    2.000    1.800    2.800    0.800 
#   10.800    3.000    0.000    0.000    0.000    0.000 
#    0.000    0.000    0.000    0.000    0.000    0.000 
#
# Total GULP energy -55756.599426 kJ/mol
# GULP energy per Si atom -5575.659943 kJ/mol
# Density = 2.771480 g / cm^3
# Si number density = 27.778020 Si / 1000 Ang^3
#
#
#
# Elastic Constant Matrix: (Units=GPa)
#
#
# Indices 1 2 3 4 5 6 
#
# 1 134.8777 55.5155 63.0004 22.5120 -27.8588 8.8514
# 2 55.5155 102.5754 55.1848 39.5291 -6.8827 14.2413
# 3 63.0004 55.1848 212.7295 28.6206 -29.9083 10.1357
# 4 22.5120 39.5291 28.6206 60.6223 0.6800 8.3596
# 5 -27.8588 -6.8827 -29.9083 0.6800 49.8782 18.7310
# 6 8.8514 14.2413 10.1357 8.3596 18.7310 44.7606
#
#
#
# Elastic Compliance Matrix: (Units=1/GPa)
#
#
# Indices 1 2 3 4 5 6 
#
# 1 0.011356 -0.004566 -0.001111 -0.000361 0.006204 -0.003070
# 2 -0.004566 0.016542 -0.001818 -0.007909 -0.000383 -0.002311
# 3 -0.001111 -0.001818 0.006253 -0.001130 0.003614 -0.001919
# 4 -0.000361 -0.007909 -0.001130 0.022407 -0.002103 -0.000461
# 5 0.006204 -0.000383 0.003614 -0.002103 0.031123 -0.014555
# 6 -0.003070 -0.002311 -0.001919 -0.000461 -0.014555 0.030295
#
#
# Mechanical properties :
#
#
# Convention : Reuss Voigt Hill
#
# Bulk Modulus (GPa) = 52.19704 88.62043 70.40874
# Shear Modulus (GPa) = 35.87985 49.48435 42.68210
#
# Velocity S-wave (km/s) = 3.59787 4.22527 3.92413
# Velocity P-wave (km/s) = 6.00759 7.46835 6.77744
#
# Compressibility (1/GPa) = 0.01915817
#
# Stress axis : x y z
#
# Youngs Moduli (GPa) = 88.05976 60.45347 159.91849
#
# Poissons Ratio (x) = 0.27606 0.17774
# Poissons Ratio (y) = 0.40212 0.29079
# Poissons Ratio (z) = 0.09787 0.10993
#
# Static dielectric constant tensor:
#      x y z
#    x 2.318970 -0.045020 0.180120 
#    y -0.045020 2.336880 -0.203580 
#    z 0.180120 -0.203580 2.418190 
# 
# From -- ./inp_files/58717.got.cif
#   From: 2010.05.17/outbox.cif.g08.bks.cpg/sg2_30_cif.got.tgz:58717.got - 2010.06.03 11:33:40.
