data_PCOD9043356
_publ_section_title
;
Structure prediction by ZEFSAII (Michael W. Deem and Ramdas Pophale) SiO2 
 PCOD9043356
Probable space group: P -1
;
_chemical_formula_sum "Si O2"
_cell_formula_units_Z 13
_cell_length_a 14.166243
_cell_length_b 7.030041
_cell_length_c 7.712897
_cell_angle_alpha 124.743822
_cell_angle_beta 121.937597
_cell_angle_gamma 66.933866
_cell_volume 531.116828
_symmetry_space_group_name_H-M "P -1"
_symmetry_group_IT_number 2
_symmetry_cell_setting 'triclinic'
loop_
_space_group_symop_operation_xyz
x,y,z
-x,-y,-z
loop_
_atom_site_type_symbol
_atom_site_label
_atom_site_fract_x
_atom_site_fract_y
_atom_site_fract_z
Si Si1 0.620655 0.574947 0.627395
Si Si2 0.639621 0.293896 0.167832
Si Si3 0.186800 0.031668 0.450964
Si Si4 0.000000 0.500000 0.500000
Si Si5 0.379733 0.292000 0.917143
Si Si6 0.900814 0.437822 0.749409
Si Si7 0.261241 0.079238 0.168753
O O1 0.500000 0.500000 0.500000
O O2 0.668645 0.390132 0.431757
O O3 0.617621 0.827193 0.661944
O O4 0.659200 0.602441 0.877868
O O5 0.635312 0.507397 0.138943
O O6 0.700876 0.897908 0.311181
O O7 0.514502 0.217665 0.016233
O O8 0.731123 0.099507 0.073547
O O9 0.132956 0.809370 0.350853
O O10 0.094971 0.261164 0.485039
O O11 0.222665 0.980628 0.258405
O O12 0.059967 0.568597 0.413705
O O13 0.811685 0.672358 0.807865
O O14 0.000000 0.500000 0.000000
#
# Coordination Sequence:
#
# PCOD9043356 Si02
#       7
#     2   2   2   1   2   2   2
#     4  10  23  45  70 109 151 199 251 296 362 435
#     4  10  23  47  70 109 161 195 246 304 356 446
#     4  11  25  49  79 114 150 196 252 311 373 449
#     4  10  26  52  78 108 142 192 250 316 378 440
#     4  10  23  45  75 109 149 205 249 299 371 432
#     4  11  28  52  74 111 147 195 248 315 384 444
#     4  11  26  45  75 114 149 198 247 309 370 445
#
# _framework density 24.476724000000001
#
# number of rings (size 3 to 8) (size 9 to 14) (size 15 to 20)
#    0.000    1.538    1.538    0.462    4.308    9.231 
#    2.769    0.000    0.000    0.000    0.000    0.000 
#    0.000    0.000    0.000    0.000    0.000    0.000 
#
# Total GULP energy -72426.416538 kJ/mol
# GULP energy per Si atom -5571.262811 kJ/mol
# Density = 2.442101 g / cm^3
# Si number density = 24.476724 Si / 1000 Ang^3
#
#
#
# Elastic Constant Matrix: (Units=GPa)
#
#
# Indices 1 2 3 4 5 6 
#
# 1 145.0334 79.1247 100.1339 1.1981 -35.8135 35.1242
# 2 79.1247 140.4063 82.4340 4.9352 4.0170 40.9785
# 3 100.1339 82.4340 175.6781 14.1898 -20.2264 8.4639
# 4 1.1981 4.9352 14.1898 22.6220 5.2377 -1.7978
# 5 -35.8135 4.0170 -20.2264 5.2377 63.3417 4.4042
# 6 35.1242 40.9785 8.4639 -1.7978 4.4042 60.6903
#
#
#
# Elastic Compliance Matrix: (Units=1/GPa)
#
#
# Indices 1 2 3 4 5 6 
#
# 1 0.017782 -0.004128 -0.007041 0.001867 0.008405 -0.007077
# 2 -0.004128 0.013913 -0.004407 0.000447 -0.004239 -0.006070
# 3 -0.007041 -0.004407 0.012027 -0.005859 0.000264 0.005180
# 4 0.001867 0.000447 -0.005859 0.048935 -0.004977 0.001246
# 5 0.008405 -0.004239 0.000264 -0.004977 0.021565 -0.003752
# 6 -0.007077 -0.006070 0.005180 0.001246 -0.003752 0.024258
#
#
# Mechanical properties :
#
#
# Convention : Reuss Voigt Hill
#
# Bulk Modulus (GPa) = 79.54982 109.38922 94.46952
# Shear Modulus (GPa) = 28.76512 42.62581 35.69546
#
# Velocity S-wave (km/s) = 3.43184 4.17764 3.82297
# Velocity P-wave (km/s) = 6.94796 8.24975 7.62668
#
# Compressibility (1/GPa) = 0.01257074
#
# Stress axis : x y z
#
# Youngs Moduli (GPa) = 56.23701 71.87510 83.14436
#
# Poissons Ratio (x) = 0.29670 0.58538
# Poissons Ratio (y) = 0.23214 0.36644
# Poissons Ratio (z) = 0.39594 0.31677
#
# Static dielectric constant tensor:
#      x y z
#    x 2.301760 0.045730 0.093570 
#    y 0.045730 2.002020 0.023050 
#    z 0.093570 0.023050 1.970080 
# 
# From -- ./inp_files/134002.got.cif
#   From: 2010.05.17/outbox.cif.g08.bks.cpg/sg2_68_cif.got.tgz:134002.got - 2010.06.03 11:33:40.
