data_PCOD9043276
_publ_section_title
;
Structure prediction by ZEFSAII (Michael W. Deem and Ramdas Pophale) SiO2 
 PCOD9043276
Probable space group: P -1
;
_chemical_formula_sum "Si O2"
_cell_formula_units_Z 16
_cell_length_a 21.507969
_cell_length_b 5.029667
_cell_length_c 11.613319
_cell_angle_alpha 84.390424
_cell_angle_beta 38.079428
_cell_angle_gamma 67.361587
_cell_volume 667.030852
_symmetry_space_group_name_H-M "P -1"
_symmetry_group_IT_number 2
_symmetry_cell_setting 'triclinic'
loop_
_space_group_symop_operation_xyz
x,y,z
-x,-y,-z
loop_
_atom_site_type_symbol
_atom_site_label
_atom_site_fract_x
_atom_site_fract_y
_atom_site_fract_z
Si Si1 0.264345 0.109964 0.435632
Si Si2 0.958582 0.558267 0.366119
Si Si3 0.462318 0.818155 0.480179
Si Si4 0.794088 0.950501 0.225521
Si Si5 0.893809 0.933181 0.673155
Si Si6 0.510473 0.960707 0.156239
Si Si7 0.345623 0.699942 0.106275
Si Si8 0.934140 0.250247 0.985198
O O1 0.149829 0.423524 0.545796
O O2 0.227739 0.998226 0.607913
O O3 0.374724 0.137984 0.311991
O O4 0.300654 0.864857 0.288952
O O5 0.908118 0.702423 0.558031
O O6 0.075285 0.241775 0.241984
O O7 0.992988 0.772023 0.233198
O O8 0.500000 0.500000 0.500000
O O9 0.500000 0.000000 0.500000
O O10 0.324357 0.994638 0.658033
O O11 0.516316 0.805187 0.277191
O O12 0.889650 0.594399 0.080887
O O13 0.829600 0.187967 0.113110
O O14 0.763594 0.206277 0.825242
O O15 0.000000 0.000000 0.500000
O O16 0.420285 0.330751 0.017150
O O17 0.571455 0.167155 0.062581
O O18 0.000000 0.000000 0.000000
#
# Coordination Sequence:
#
# PCOD9043276 Si02
#       8
#     2   2   2   2   2   2   2   2
#     4  10  23  45  70 100 142 181 227 286 360 408
#     4  10  24  44  67 101 137 186 228 291 348 420
#     4  11  24  46  69  98 139 186 228 283 354 411
#     4  11  26  44  69 102 140 186 230 293 349 421
#     4  10  25  45  68  98 139 186 229 283 357 415
#     4  11  25  45  69 105 134 177 235 286 338 421
#     4  11  25  44  72 100 138 178 232 287 343 412
#     4  12  25  44  68 105 140 178 242 286 352 415
#
# _framework density 23.986895000000001
#
# number of rings (size 3 to 8) (size 9 to 14) (size 15 to 20)
#    0.000    1.250    1.250    2.625    7.000    7.000 
#    2.250    0.000    0.000    0.000    0.000    0.000 
#    0.000    0.000    0.000    0.000    0.000    0.000 
#
# Total GULP energy -89538.425248 kJ/mol
# GULP energy per Si atom -5596.151578 kJ/mol
# Density = 2.393230 g / cm^3
# Si number density = 23.986895 Si / 1000 Ang^3
#
#
#
# Elastic Constant Matrix: (Units=GPa)
#
#
# Indices 1 2 3 4 5 6 
#
# 1 133.8434 36.0167 42.6395 -10.0380 -24.0382 -20.7061
# 2 36.0167 91.8595 30.3843 -22.3644 -5.4859 -5.8559
# 3 42.6395 30.3843 89.0414 -16.7581 -9.2244 -11.3448
# 4 -10.0380 -22.3644 -16.7581 36.3267 -4.2949 -0.8521
# 5 -24.0382 -5.4859 -9.2244 -4.2949 51.5454 -0.8170
# 6 -20.7061 -5.8559 -11.3448 -0.8521 -0.8170 45.9417
#
#
#
# Elastic Compliance Matrix: (Units=1/GPa)
#
#
# Indices 1 2 3 4 5 6 
#
# 1 0.010512 -0.002457 -0.003196 0.000498 0.004169 0.003719
# 2 -0.002457 0.014418 -0.002284 0.007220 0.000586 0.000311
# 3 -0.003196 -0.002284 0.014838 0.004763 0.001351 0.002045
# 4 0.000498 0.007220 0.004763 0.034949 0.004813 0.003055
# 5 0.004169 0.000586 0.001351 0.004813 0.022094 0.002770
# 6 0.003719 0.000311 0.002045 0.003055 0.002770 0.024093
#
#
# Mechanical properties :
#
#
# Convention : Reuss Voigt Hill
#
# Bulk Modulus (GPa) = 41.85330 59.20279 50.52804
# Shear Modulus (GPa) = 34.54409 40.47637 37.51023
#
# Velocity S-wave (km/s) = 3.79901 4.11230 3.95876
# Velocity P-wave (km/s) = 6.06050 6.87626 6.48122
#
# Compressibility (1/GPa) = 0.02389298
#
# Stress axis : x y z
#
# Youngs Moduli (GPa) = 95.12632 69.35870 67.39642
#
# Poissons Ratio (x) = 0.17044 0.21541
# Poissons Ratio (y) = 0.23375 0.15393
# Poissons Ratio (z) = 0.30403 0.15841
#
# Static dielectric constant tensor:
#      x y z
#    x 1.896920 0.005470 -0.029460 
#    y 0.005470 1.862770 0.052340 
#    z -0.029460 0.052340 1.962110 
# 
# From -- ./inp_files/468053.got.cif
#   From: 2010.05.17/outbox.cif.g08.bks.cpg/sg2_235_cif.got.tgz:468053.got - 2010.06.03 11:33:40.
