data_PCOD9043312
_publ_section_title
;
Structure prediction by ZEFSAII (Michael W. Deem and Ramdas Pophale) SiO2 
 PCOD9043312
Probable space group: P -1
;
_chemical_formula_sum "Si O2"
_cell_formula_units_Z 15
_cell_length_a 4.939552
_cell_length_b 9.448123
_cell_length_c 20.267206
_cell_angle_alpha 36.006189
_cell_angle_beta 98.135021
_cell_angle_gamma 102.430125
_cell_volume 542.133975
_symmetry_space_group_name_H-M "P -1"
_symmetry_group_IT_number 2
_symmetry_cell_setting 'triclinic'
loop_
_space_group_symop_operation_xyz
x,y,z
-x,-y,-z
loop_
_atom_site_type_symbol
_atom_site_label
_atom_site_fract_x
_atom_site_fract_y
_atom_site_fract_z
Si Si1 0.281247 0.718843 0.026104
Si Si2 0.184927 0.966302 0.629760
Si Si3 0.056483 0.572685 0.666716
Si Si4 0.076265 0.841567 0.329409
Si Si5 0.547216 0.276522 0.820755
Si Si6 0.345868 0.589555 0.538498
Si Si7 0.517550 0.247820 0.165518
Si Si8 0.000000 0.500000 0.000000
O O1 0.299000 0.672508 0.121959
O O2 0.355179 0.480568 0.076978
O O3 0.979173 0.685301 0.996007
O O4 0.455499 0.985902 0.921094
O O5 0.055605 0.798759 0.629603
O O6 0.381932 0.812015 0.735845
O O7 0.975087 0.011614 0.662257
O O8 0.368753 0.221935 0.517477
O O9 0.279598 0.408177 0.761536
O O10 0.168396 0.669410 0.563223
O O11 0.757824 0.401632 0.725192
O O12 0.776884 0.700958 0.349201
O O13 0.249642 0.642418 0.440378
O O14 0.280814 0.021510 0.223441
O O15 0.778126 0.283082 0.113173
#
# Coordination Sequence:
#
# PCOD9043312 Si02
#       8
#     2   2   2   2   2   2   2   1
#     4  11  26  47  70 103 145 196 244 309 366 449
#     4  11  23  44  74 102 143 192 238 303 372 438
#     4  12  26  46  75 112 145 199 246 311 359 455
#     4  10  23  45  70 103 145 193 236 305 375 440
#     4  11  28  47  76 104 154 192 253 300 383 427
#     4  10  25  43  71 105 146 186 250 300 371 441
#     4  11  23  43  69 103 142 187 238 301 369 439
#     4  12  26  40  72 102 142 192 250 300 366 438
#
# _framework density 27.668438999999999
#
# number of rings (size 3 to 8) (size 9 to 14) (size 15 to 20)
#    0.000    1.067    1.333    3.600    7.467    3.733 
#    0.000    0.000    0.000    0.000    0.000    0.000 
#    0.000    0.000    0.000    0.000    0.000    0.000 
#
# Total GULP energy -83815.245225 kJ/mol
# GULP energy per Si atom -5587.683015 kJ/mol
# Density = 2.760546 g / cm^3
# Si number density = 27.668439 Si / 1000 Ang^3
#
#
#
# Elastic Constant Matrix: (Units=GPa)
#
#
# Indices 1 2 3 4 5 6 
#
# 1 85.3125 2.7635 56.0010 -21.3340 -28.8171 -10.1406
# 2 2.7635 162.0950 43.2554 -21.6221 -8.9366 8.7658
# 3 56.0010 43.2554 177.8859 -12.2441 -29.6739 9.0128
# 4 -21.3340 -21.6221 -12.2441 41.3074 11.3843 -0.5800
# 5 -28.8171 -8.9366 -29.6739 11.3843 59.9764 4.8053
# 6 -10.1406 8.7658 9.0128 -0.5800 4.8053 35.2443
#
#
#
# Elastic Compliance Matrix: (Units=1/GPa)
#
#
# Indices 1 2 3 4 5 6 
#
# 1 0.019936 0.002265 -0.005719 0.008498 0.004985 0.006095
# 2 0.002265 0.007315 -0.002105 0.004262 0.000377 -0.000611
# 3 -0.005719 -0.002105 0.008249 -0.002129 0.001704 -0.003499
# 4 0.008498 0.004262 -0.002129 0.030905 -0.002423 0.002769
# 5 0.004985 0.000377 0.001704 -0.002423 0.020583 -0.001941
# 6 0.006095 -0.000611 -0.003499 0.002769 -0.001941 0.031484
#
#
# Mechanical properties :
#
#
# Convention : Reuss Voigt Hill
#
# Bulk Modulus (GPa) = 41.01352 69.92589 55.46970
# Shear Modulus (GPa) = 36.30657 48.85718 42.58188
#
# Velocity S-wave (km/s) = 3.62636 4.20671 3.92727
# Velocity P-wave (km/s) = 5.69117 6.99449 6.37622
#
# Compressibility (1/GPa) = 0.02438220
#
# Stress axis : x y z
#
# Youngs Moduli (GPa) = 50.16025 136.71340 121.22932
#
# Poissons Ratio (x) = -0.30968 0.69334
# Poissons Ratio (y) = -0.11362 0.25513
# Poissons Ratio (z) = 0.28688 0.28772
#
# Static dielectric constant tensor:
#      x y z
#    x 1.359970 -0.375490 -0.115540 
#    y -0.375490 1.946500 -0.109920 
#    z -0.115540 -0.109920 2.099260 
# 
# From -- ./inp_files/582179.got.cif
#   From: 2010.05.17/outbox.cif.g08.bks.cpg/sg2_292_cif.got.tgz:582179.got - 2010.06.03 11:33:40.
