data_PCOD9043295
_publ_section_title
;
Structure prediction by ZEFSAII (Michael W. Deem and Ramdas Pophale) SiO2 
 PCOD9043295
Probable space group: P -1
;
_chemical_formula_sum "Si O2"
_cell_formula_units_Z 16
_cell_length_a 5.082930
_cell_length_b 18.103065
_cell_length_c 21.268665
_cell_angle_alpha 160.684826
_cell_angle_beta 114.870005
_cell_angle_gamma 64.270111
_cell_volume 582.758897
_symmetry_space_group_name_H-M "P -1"
_symmetry_group_IT_number 2
_symmetry_cell_setting 'triclinic'
loop_
_space_group_symop_operation_xyz
x,y,z
-x,-y,-z
loop_
_atom_site_type_symbol
_atom_site_label
_atom_site_fract_x
_atom_site_fract_y
_atom_site_fract_z
Si Si1 0.529787 0.325026 0.758402
Si Si2 0.088256 0.593235 0.517265
Si Si3 0.586587 0.863856 0.836459
Si Si4 0.319952 0.055219 0.626068
Si Si5 0.060168 0.523682 0.258236
Si Si6 0.199896 0.223973 0.877471
Si Si7 0.628675 0.216701 0.018862
Si Si8 0.138549 0.114944 0.377534
O O1 0.455866 0.256945 0.766913
O O2 0.200397 0.382132 0.741178
O O3 0.713352 0.115540 0.571508
O O4 0.719429 0.527369 0.928528
O O5 0.326524 0.758570 0.690047
O O6 0.203605 0.362673 0.308421
O O7 0.000000 0.500000 0.500000
O O8 0.863408 0.744324 0.573021
O O9 0.500000 0.000000 0.000000
O O10 0.695114 0.030878 0.930023
O O11 0.118961 0.144178 0.735567
O O12 0.562946 0.905922 0.572109
O O13 0.914474 0.327068 0.120140
O O14 0.087126 0.723579 0.470763
O O15 0.367759 0.410055 0.170335
O O16 0.491376 0.129594 0.870785
O O17 0.962568 0.134173 0.827636
#
# Coordination Sequence:
#
# PCOD9043295 Si02
#       8
#     2   2   2   2   2   2   2   2
#     4   9  22  47  67 105 145 187 246 293 366 431
#     4  11  27  45  69 105 144 188 250 315 365 450
#     4  11  26  46  70 102 144 193 245 307 381 442
#     4  10  23  45  70 101 145 190 241 299 366 439
#     4  10  25  45  74 104 147 194 241 304 363 442
#     4  11  24  39  70  99 141 184 239 299 354 436
#     4  11  25  46  73 105 144 191 246 301 368 445
#     4  11  25  43  69 104 141 191 245 300 377 429
#
# _framework density 27.455608999999999
#
# number of rings (size 3 to 8) (size 9 to 14) (size 15 to 20)
#    0.000    1.500    1.250    1.125   14.000    1.000 
#    4.500    1.875    0.000    0.000    0.000    0.000 
#    0.000    0.000    0.000    0.000    0.000    0.000 
#
# Total GULP energy -89594.819477 kJ/mol
# GULP energy per Si atom -5599.676217 kJ/mol
# Density = 2.739312 g / cm^3
# Si number density = 27.455609 Si / 1000 Ang^3
#
#
#
# Elastic Constant Matrix: (Units=GPa)
#
#
# Indices 1 2 3 4 5 6 
#
# 1 69.2548 19.6994 25.0612 11.9080 -3.3701 26.9748
# 2 19.6994 186.8339 44.9027 16.6160 2.4014 30.2399
# 3 25.0612 44.9027 129.7369 10.6240 -4.4329 14.5814
# 4 11.9080 16.6160 10.6240 48.6867 4.4229 6.2992
# 5 -3.3701 2.4014 -4.4329 4.4229 46.0678 15.5744
# 6 26.9748 30.2399 14.5814 6.2992 15.5744 47.2461
#
#
#
# Elastic Compliance Matrix: (Units=1/GPa)
#
#
# Indices 1 2 3 4 5 6 
#
# 1 0.021253 0.000750 -0.002335 -0.003769 0.006194 -0.013433
# 2 0.000750 0.006502 -0.001755 -0.001577 0.001121 -0.004207
# 3 -0.002335 -0.001755 0.008928 -0.000803 0.001037 -0.000534
# 4 -0.003769 -0.001577 -0.000803 0.022256 -0.002878 0.001391
# 5 0.006194 0.001121 0.001037 -0.002878 0.026891 -0.013055
# 6 -0.013433 -0.004207 -0.000534 0.001391 -0.013055 0.035811
#
#
# Mechanical properties :
#
#
# Convention : Reuss Voigt Hill
#
# Bulk Modulus (GPa) = 33.33054 62.79468 48.06261
# Shear Modulus (GPa) = 36.14776 48.14427 42.14602
#
# Velocity S-wave (km/s) = 3.63242 4.19206 3.92224
# Velocity P-wave (km/s) = 5.45516 6.80824 6.16891
#
# Compressibility (1/GPa) = 0.03000251
#
# Stress axis : x y z
#
# Youngs Moduli (GPa) = 47.05307 153.80233 112.01295
#
# Poissons Ratio (x) = -0.11537 0.26154
# Poissons Ratio (y) = -0.03529 0.19657
# Poissons Ratio (z) = 0.10987 0.26991
#
# Static dielectric constant tensor:
#      x y z
#    x 2.123660 -0.246120 -0.189850 
#    y -0.246120 1.426330 -0.295520 
#    z -0.189850 -0.295520 2.171170 
# 
# From -- ./inp_files/141176.got.cif
#   From: 2010.05.17/outbox.cif.g08.bks.cpg/sg2_71_cif.got.tgz:141176.got - 2010.06.03 11:33:40.
