data_PCOD9043832
_publ_section_title
;
Structure prediction by ZEFSAII (Michael W. Deem and Ramdas Pophale) SiO2 
 PCOD9043832
Probable space group: P -1
;
_chemical_formula_sum "Si O2"
_cell_formula_units_Z 16
_cell_length_a 9.535152
_cell_length_b 17.400431
_cell_length_c 5.987685
_cell_angle_alpha 101.412933
_cell_angle_beta 53.097185
_cell_angle_gamma 120.500882
_cell_volume 676.201356
_symmetry_space_group_name_H-M "P -1"
_symmetry_group_IT_number 2
_symmetry_cell_setting 'triclinic'
loop_
_space_group_symop_operation_xyz
x,y,z
-x,-y,-z
loop_
_atom_site_type_symbol
_atom_site_label
_atom_site_fract_x
_atom_site_fract_y
_atom_site_fract_z
Si Si1 0.219129 0.503043 0.799961
Si Si2 0.810725 0.197620 0.234188
Si Si3 0.773133 0.680781 0.328098
Si Si4 0.008882 0.808887 0.532939
Si Si5 0.245856 0.562231 0.306702
Si Si6 0.469156 0.736666 0.460465
Si Si7 0.814358 0.910152 0.022540
Si Si8 0.303791 0.965215 0.023148
O O1 0.236050 0.413229 0.758113
O O2 0.293496 0.530204 0.483623
O O3 0.307717 0.551115 0.987188
O O4 0.000000 0.500000 0.000000
O O5 0.827563 0.202384 0.487285
O O6 0.708828 0.251311 0.253277
O O7 0.695676 0.091969 0.223694
O O8 0.041404 0.249430 0.963586
O O9 0.585037 0.695443 0.463236
O O10 0.849607 0.715248 0.523587
O O11 0.899154 0.849497 0.806717
O O12 0.120286 0.886382 0.288568
O O13 0.358534 0.669489 0.318325
O O14 0.000000 0.500000 0.500000
O O15 0.633956 0.840172 0.309893
O O16 0.727698 0.951616 0.951637
O O17 0.000000 0.000000 0.000000
O O18 0.500000 0.000000 0.000000
#
# Coordination Sequence:
#
# PCOD9043832 Si02
#       8
#     2   2   2   2   2   2   2   2
#     4  10  23  45  77 105 151 196 245 311 390 457
#     4  11  24  47  68 104 148 191 253 308 377 452
#     4  11  26  46  72 110 143 193 247 312 379 455
#     4  11  24  44  71  98 152 194 243 319 373 448
#     4  10  24  47  74 113 149 197 248 319 384 464
#     4  12  27  45  77 108 145 198 249 312 382 459
#     4  12  24  46  70 103 148 194 250 307 371 443
#     4  11  25  41  66 103 140 197 251 306 377 446
#
# _framework density 23.661594000000001
#
# number of rings (size 3 to 8) (size 9 to 14) (size 15 to 20)
#    0.000    1.000    2.500    3.375    8.750    3.000 
#    0.000    0.000    0.000    0.000    0.000    0.000 
#    0.000    0.000    0.000    0.000    0.000    0.000 
#
# Total GULP energy -89199.605866 kJ/mol
# GULP energy per Si atom -5574.975367 kJ/mol
# Density = 2.360774 g / cm^3
# Si number density = 23.661594 Si / 1000 Ang^3
#
#
#
# Elastic Constant Matrix: (Units=GPa)
#
#
# Indices 1 2 3 4 5 6 
#
# 1 137.1043 46.0455 34.9527 -2.3265 -3.5178 -14.1205
# 2 46.0455 95.6905 28.2800 4.8272 3.7795 3.9893
# 3 34.9527 28.2800 60.0916 8.7259 15.6808 -3.6782
# 4 -2.3265 4.8272 8.7259 30.7648 -5.8313 3.4486
# 5 -3.5178 3.7795 15.6808 -5.8313 33.9566 7.4389
# 6 -14.1205 3.9893 -3.6782 3.4486 7.4389 50.1730
#
#
#
# Elastic Compliance Matrix: (Units=1/GPa)
#
#
# Indices 1 2 3 4 5 6 
#
# 1 0.010408 -0.003709 -0.005879 0.003663 0.004422 0.001886
# 2 -0.003709 0.013676 -0.004468 -0.000772 0.000570 -0.002490
# 3 -0.005879 -0.004468 0.028173 -0.011183 -0.015895 0.003891
# 4 0.003663 -0.000772 -0.011183 0.039088 0.013303 -0.004387
# 5 0.004422 0.000570 -0.015895 0.013303 0.040993 -0.006958
# 6 0.001886 -0.002490 0.003891 -0.004387 -0.006958 0.022278
#
#
# Mechanical properties :
#
#
# Convention : Reuss Voigt Hill
#
# Bulk Modulus (GPa) = 41.41458 56.82697 49.12077
# Shear Modulus (GPa) = 26.20897 35.21944 30.71420
#
# Velocity S-wave (km/s) = 3.33176 3.86225 3.60677
# Velocity P-wave (km/s) = 5.68698 6.63008 6.17656
#
# Compressibility (1/GPa) = 0.02414609
#
# Stress axis : x y z
#
# Youngs Moduli (GPa) = 96.08190 73.12278 35.49507
#
# Poissons Ratio (x) = 0.27120 0.20866
# Poissons Ratio (y) = 0.35635 0.15858
# Poissons Ratio (z) = 0.56483 0.32669
#
# Static dielectric constant tensor:
#      x y z
#    x 1.934690 -0.026160 0.254690 
#    y -0.026160 1.996580 -0.099160 
#    z 0.254690 -0.099160 1.870420 
# 
# From -- ./inp_files/48152.got.cif
#   From: 2010.05.17/outbox.cif.g08.bks.cpg/sg2_25_cif.got.tgz:48152.got - 2010.06.03 11:33:40.
