data_PCOD9043290
_publ_section_title
;
Structure prediction by ZEFSAII (Michael W. Deem and Ramdas Pophale) SiO2 
 PCOD9043290
Probable space group: P -1
;
_chemical_formula_sum "Si O2"
_cell_formula_units_Z 14
_cell_length_a 12.843893
_cell_length_b 10.356650
_cell_length_c 14.228993
_cell_angle_alpha 108.023457
_cell_angle_beta 147.820991
_cell_angle_gamma 48.757537
_cell_volume 594.248194
_symmetry_space_group_name_H-M "P -1"
_symmetry_group_IT_number 2
_symmetry_cell_setting 'triclinic'
loop_
_space_group_symop_operation_xyz
x,y,z
-x,-y,-z
loop_
_atom_site_type_symbol
_atom_site_label
_atom_site_fract_x
_atom_site_fract_y
_atom_site_fract_z
Si Si1 0.155993 0.164918 0.232143
Si Si2 0.986402 0.069602 0.233768
Si Si3 0.656502 0.561426 0.616914
Si Si4 0.747788 0.443293 0.455447
Si Si5 0.273256 0.449185 0.125261
Si Si6 0.779415 0.939579 0.409082
Si Si7 0.429329 0.867630 0.202878
O O1 0.944022 0.219502 0.165098
O O2 0.500000 0.000000 0.500000
O O3 0.193764 0.040345 0.145805
O O4 0.011568 0.379068 0.126196
O O5 0.978132 0.118845 0.346417
O O6 0.348541 0.825617 0.439401
O O7 0.757243 0.079650 0.020451
O O8 0.500000 0.500000 0.500000
O O9 0.817447 0.461434 0.616588
O O10 0.837669 0.482224 0.835611
O O11 0.479956 0.473408 0.268720
O O12 0.630884 0.632520 0.344657
O O13 0.041592 0.211649 0.578790
O O14 0.508184 0.195558 0.236521
O O15 0.632767 0.889798 0.339711
#
# Coordination Sequence:
#
# PCOD9043290 Si02
#       7
#     2   2   2   2   2   2   2
#     4  12  23  44  74 103 136 179 240 294 342 409
#     4  11  22  44  69 102 138 185 232 288 347 407
#     4   9  19  38  70 100 128 180 232 286 339 402
#     4  11  21  42  74 101 145 187 229 281 349 421
#     4  10  23  45  70 101 140 184 231 291 349 404
#     4  11  26  44  69 108 144 185 230 284 346 423
#     4  12  23  41  73 105 142 183 237 285 347 411
#
# _framework density 23.559179
#
# number of rings (size 3 to 8) (size 9 to 14) (size 15 to 20)
#    0.000    1.143    4.286    3.000    0.000    1.143 
#    2.571    0.000    0.000   15.429    0.000    0.000 
#    0.000    0.000    0.000    0.000    0.000    0.000 
#
# Total GULP energy -78393.190941 kJ/mol
# GULP energy per Si atom -5599.513639 kJ/mol
# Density = 2.350556 g / cm^3
# Si number density = 23.559179 Si / 1000 Ang^3
#
#
#
# Elastic Constant Matrix: (Units=GPa)
#
#
# Indices 1 2 3 4 5 6 
#
# 1 70.4557 48.5848 35.3185 -8.8777 -25.7362 7.4668
# 2 48.5848 142.7480 60.4371 -0.2587 -27.7524 -7.7255
# 3 35.3185 60.4371 124.6230 15.4004 -32.7018 -2.3399
# 4 -8.8777 -0.2587 15.4004 41.0285 8.4243 -5.2926
# 5 -25.7362 -27.7524 -32.7018 8.4243 33.3825 3.9900
# 6 7.4668 -7.7255 -2.3399 -5.2926 3.9900 55.1676
#
#
#
# Elastic Compliance Matrix: (Units=1/GPa)
#
#
# Indices 1 2 3 4 5 6 
#
# 1 0.024018 -0.005433 -0.001195 0.002369 0.012800 -0.004761
# 2 -0.005433 0.010565 -0.003274 0.000151 0.001109 0.002010
# 3 -0.001195 -0.003274 0.014281 -0.008417 0.012640 -0.001413
# 4 0.002369 0.000151 -0.008417 0.031496 -0.014651 0.003425
# 5 0.012800 0.001109 0.012640 -0.014651 0.057616 -0.006614
# 6 -0.004761 0.002010 -0.001413 0.003425 -0.006614 0.019799
#
#
# Mechanical properties :
#
#
# Convention : Reuss Voigt Hill
#
# Bulk Modulus (GPa) = 34.41229 69.61192 52.01211
# Shear Modulus (GPa) = 26.69984 38.81481 32.75733
#
# Velocity S-wave (km/s) = 3.37012 4.06340 3.73289
# Velocity P-wave (km/s) = 5.45729 7.18518 6.38000
#
# Compressibility (1/GPa) = 0.02905939
#
# Stress axis : x y z
#
# Youngs Moduli (GPa) = 41.63582 94.64816 70.02310
#
# Poissons Ratio (x) = 0.51426 0.08368
# Poissons Ratio (y) = 0.22622 0.22925
# Poissons Ratio (z) = 0.04976 0.30987
#
# Static dielectric constant tensor:
#      x y z
#    x 0.000000 0.000000 0.000000 
#    y 0.000000 0.000000 0.000000 
#    z 0.000000 0.000000 0.000000 
# 
# From -- ./inp_files/532632.got.cif
#   From: 2010.05.17/outbox.cif.g08.bks.cpg/sg2_267_cif.got.tgz:532632.got - 2010.06.03 11:33:40.
