data_PCOD9043978
_publ_section_title
;
Structure prediction by ZEFSAII (Michael W. Deem and Ramdas Pophale) SiO2 
 PCOD9043978
Probable space group: P -1
;
_chemical_formula_sum "Si O2"
_cell_formula_units_Z 14
_cell_length_a 5.565799
_cell_length_b 7.651931
_cell_length_c 15.652672
_cell_angle_alpha 65.467524
_cell_angle_beta 100.822262
_cell_angle_gamma 73.873812
_cell_volume 546.432664
_symmetry_space_group_name_H-M "P -1"
_symmetry_group_IT_number 2
_symmetry_cell_setting 'triclinic'
loop_
_space_group_symop_operation_xyz
x,y,z
-x,-y,-z
loop_
_atom_site_type_symbol
_atom_site_label
_atom_site_fract_x
_atom_site_fract_y
_atom_site_fract_z
Si Si1 0.859132 0.252033 0.927596
Si Si2 0.571541 0.081827 0.232857
Si Si3 0.183624 0.615853 0.519406
Si Si4 0.583528 0.551381 0.706963
Si Si5 0.208471 0.170209 0.426985
Si Si6 0.590353 0.779688 0.997460
Si Si7 0.179116 0.913389 0.325523
O O1 0.256828 0.664117 0.190106
O O2 0.092314 0.333247 0.944131
O O3 0.601760 0.325133 0.956966
O O4 0.000000 0.000000 0.000000
O O5 0.401130 0.947615 0.276152
O O6 0.887182 0.943288 0.267961
O O7 0.513795 0.264567 0.264299
O O8 0.462737 0.178197 0.114130
O O9 0.354890 0.540509 0.632364
O O10 0.306809 0.701330 0.433231
O O11 0.000000 0.500000 0.500000
O O12 0.952118 0.823986 0.500469
O O13 0.765443 0.615985 0.640643
O O14 0.500000 0.000000 0.500000
O O15 0.106520 0.102215 0.349634
O O16 0.500000 0.000000 0.000000
#
# Coordination Sequence:
#
# PCOD9043978 Si02
#       7
#     2   2   2   2   2   2   2
#     4  10  24  45  71  98 146 188 238 304 374 433
#     4  11  24  43  76 107 138 193 250 297 364 442
#     4  12  26  44  68 111 155 196 244 308 363 443
#     4  11  25  43  73 105 143 198 248 300 361 445
#     4  11  22  46  73  99 151 198 248 297 359 443
#     4  10  23  46  68 102 139 187 239 307 372 430
#     4  11  23  44  73 106 149 196 241 291 364 445
#
# _framework density 25.620723999999999
#
# number of rings (size 3 to 8) (size 9 to 14) (size 15 to 20)
#    0.000    1.143    2.857    3.000    2.000    4.000 
#    7.714    0.000    0.000    0.000    0.000    0.000 
#    0.000    0.000    0.000    0.000    0.000    0.000 
#
# Total GULP energy -78315.931805 kJ/mol
# GULP energy per Si atom -5593.995129 kJ/mol
# Density = 2.556241 g / cm^3
# Si number density = 25.620724 Si / 1000 Ang^3
#
#
#
# Elastic Constant Matrix: (Units=GPa)
#
#
# Indices 1 2 3 4 5 6 
#
# 1 198.3370 31.5895 87.1336 -12.8979 11.6593 32.6016
# 2 31.5895 98.8284 50.5444 -3.7138 -1.1569 11.7646
# 3 87.1336 50.5444 172.7245 -13.4741 19.0710 18.5703
# 4 -12.8979 -3.7138 -13.4741 56.2337 -4.7500 -6.8857
# 5 11.6593 -1.1569 19.0710 -4.7500 53.6590 -2.7926
# 6 32.6016 11.7646 18.5703 -6.8857 -2.7926 34.6680
#
#
#
# Elastic Compliance Matrix: (Units=1/GPa)
#
#
# Indices 1 2 3 4 5 6 
#
# 1 0.007291 -0.000199 -0.002952 0.000246 -0.000789 -0.005223
# 2 -0.000199 0.012180 -0.003413 -0.000191 0.001396 -0.002043
# 3 -0.002952 -0.003413 0.008702 0.000880 -0.002486 -0.000752
# 4 0.000246 -0.000191 0.000880 0.018546 0.001436 0.003162
# 5 -0.000789 0.001396 -0.002486 0.001436 0.020031 0.003499
# 6 -0.005223 -0.002043 -0.000752 0.003162 0.003499 0.035762
#
#
# Mechanical properties :
#
#
# Convention : Reuss Voigt Hill
#
# Bulk Modulus (GPa) = 66.46996 89.82499 78.14747
# Shear Modulus (GPa) = 41.44007 48.95364 45.19685
#
# Velocity S-wave (km/s) = 4.02611 4.37590 4.20464
# Velocity P-wave (km/s) = 6.90021 7.78890 7.35798
#
# Compressibility (1/GPa) = 0.01504439
#
# Stress axis : x y z
#
# Youngs Moduli (GPa) = 137.14690 82.10039 114.92038
#
# Poissons Ratio (x) = 0.01634 0.33927
# Poissons Ratio (y) = 0.02730 0.39225
# Poissons Ratio (z) = 0.40488 0.28023
#
# Static dielectric constant tensor:
#      x y z
#    x 2.135170 -0.014160 0.064710 
#    y -0.014160 2.048020 0.009330 
#    z 0.064710 0.009330 1.962720 
# 
# From -- ./inp_files/480677.got.cif
#   From: 2010.05.17/outbox.cif.g08.bks.cpg/sg2_241_cif.got.tgz:480677.got - 2010.06.03 11:33:40.
