data_PCOD9043669
_publ_section_title
;
Structure prediction by ZEFSAII (Michael W. Deem and Ramdas Pophale) SiO2 
 PCOD9043669
Probable space group: P -1
;
_chemical_formula_sum "Si O2"
_cell_formula_units_Z 16
_cell_length_a 9.715308
_cell_length_b 14.190615
_cell_length_c 14.834423
_cell_angle_alpha 149.460647
_cell_angle_beta 102.754996
_cell_angle_gamma 97.548459
_cell_volume 771.315103
_symmetry_space_group_name_H-M "P -1"
_symmetry_group_IT_number 2
_symmetry_cell_setting 'triclinic'
loop_
_space_group_symop_operation_xyz
x,y,z
-x,-y,-z
loop_
_atom_site_type_symbol
_atom_site_label
_atom_site_fract_x
_atom_site_fract_y
_atom_site_fract_z
Si Si1 0.164118 0.916542 0.849142
Si Si2 0.048065 0.104445 0.840317
Si Si3 0.867670 0.512249 0.583221
Si Si4 0.739203 0.374190 0.651790
Si Si5 0.313040 0.311955 0.761739
Si Si6 0.630745 0.784339 0.508545
Si Si7 0.055578 0.832322 0.446640
Si Si8 0.549034 0.420827 0.354170
O O1 0.118586 0.695431 0.601947
O O2 0.058029 0.784908 0.818711
O O3 0.089280 0.026993 0.873681
O O4 0.380525 0.137821 0.077069
O O5 0.844236 0.018236 0.746533
O O6 0.059276 0.968481 0.647736
O O7 0.191925 0.393409 0.087762
O O8 0.782309 0.466637 0.631057
O O9 0.732804 0.469528 0.449663
O O10 0.518309 0.178924 0.471989
O O11 0.855136 0.289746 0.620130
O O12 0.373990 0.308236 0.667372
O O13 0.160422 0.348276 0.764102
O O14 0.187222 0.041892 0.564504
O O15 0.500000 0.500000 0.000000
O O16 0.580495 0.582957 0.408200
O O17 0.500000 0.500000 0.500000
#
# Coordination Sequence:
#
# PCOD9043669 Si02
#       8
#     2   2   2   2   2   2   2   2
#     4  11  23  39  62  89 133 178 222 275 318 395
#     4  11  22  42  65  94 134 175 216 274 330 388
#     4  11  24  39  61  98 131 177 228 267 329 392
#     4  12  24  41  70  98 135 176 219 272 333 393
#     4  10  23  45  73  96 132 175 214 275 341 388
#     4  11  24  40  65 101 132 170 224 273 326 399
#     4  10  24  46  68  99 131 169 224 270 328 404
#     4  12  23  39  61  93 133 172 219 268 327 390
#
# _framework density 20.743791999999999
#
# number of rings (size 3 to 8) (size 9 to 14) (size 15 to 20)
#    0.000    1.000    5.000    1.125    1.750    2.500 
#    0.000   10.000    0.000    0.000    0.000    0.000 
#    0.000    0.000    0.000    0.000    0.000    0.000 
#
# Total GULP energy -89405.615031 kJ/mol
# GULP energy per Si atom -5587.850939 kJ/mol
# Density = 2.069658 g / cm^3
# Si number density = 20.743792 Si / 1000 Ang^3
#
#
#
# Elastic Constant Matrix: (Units=GPa)
#
#
# Indices 1 2 3 4 5 6 
#
# 1 127.7606 33.0942 20.0302 1.8128 10.8660 -15.7326
# 2 33.0942 100.5648 10.5787 -4.2616 2.5591 8.1957
# 3 20.0302 10.5787 45.6617 5.0813 8.6156 -6.7956
# 4 1.8128 -4.2616 5.0813 18.5219 2.0120 4.3932
# 5 10.8660 2.5591 8.6156 2.0120 31.9899 1.7559
# 6 -15.7326 8.1957 -6.7956 4.3932 1.7559 38.3418
#
#
#
# Elastic Compliance Matrix: (Units=1/GPa)
#
#
# Indices 1 2 3 4 5 6 
#
# 1 0.009891 -0.003441 -0.002105 -0.002027 -0.002652 0.004774
# 2 -0.003441 0.011963 -0.002738 0.004942 0.000916 -0.005063
# 3 -0.002105 -0.002738 0.026344 -0.008338 -0.005945 0.005618
# 4 -0.002027 0.004942 -0.008338 0.060111 -0.000681 -0.010222
# 5 -0.002652 0.000916 -0.005945 -0.000681 0.033941 -0.003814
# 6 0.004774 -0.005063 0.005618 -0.010222 -0.003814 0.031464
#
#
# Mechanical properties :
#
#
# Convention : Reuss Voigt Hill
#
# Bulk Modulus (GPa) = 31.61695 44.59927 38.10811
# Shear Modulus (GPa) = 24.89729 31.78966 28.34347
#
# Velocity S-wave (km/s) = 3.46819 3.91895 3.70044
# Velocity P-wave (km/s) = 5.59576 6.48261 6.05544
#
# Compressibility (1/GPa) = 0.03162860
#
# Stress axis : x y z
#
# Youngs Moduli (GPa) = 101.10482 83.59164 37.95976
#
# Poissons Ratio (x) = 0.28763 0.07991
# Poissons Ratio (y) = 0.34789 0.10395
# Poissons Ratio (z) = 0.21283 0.22890
#
# Static dielectric constant tensor:
#      x y z
#    x 1.816470 -0.013170 0.029870 
#    y -0.013170 1.740270 -0.026420 
#    z 0.029870 -0.026420 1.738700 
# 
# From -- ./inp_files/348541.got.cif
#   From: 2010.05.17/outbox.cif.g08.bks.cpg/sg2_175_cif.got.tgz:348541.got - 2010.06.03 11:33:40.
