data_PCOD9043871
_publ_section_title
;
Structure prediction by ZEFSAII (Michael W. Deem and Ramdas Pophale) SiO2 
 PCOD9043871
Probable space group: P -1
;
_chemical_formula_sum "Si O2"
_cell_formula_units_Z 14
_cell_length_a 9.406132
_cell_length_b 9.414427
_cell_length_c 7.126142
_cell_angle_alpha 86.493247
_cell_angle_beta 115.329124
_cell_angle_gamma 66.272364
_cell_volume 500.976513
_symmetry_space_group_name_H-M "P -1"
_symmetry_group_IT_number 2
_symmetry_cell_setting 'triclinic'
loop_
_space_group_symop_operation_xyz
x,y,z
-x,-y,-z
loop_
_atom_site_type_symbol
_atom_site_label
_atom_site_fract_x
_atom_site_fract_y
_atom_site_fract_z
Si Si1 0.159311 0.738041 0.197214
Si Si2 0.670095 0.106674 0.963849
Si Si3 0.067962 0.257397 0.404618
Si Si4 0.677357 0.487670 0.001610
Si Si5 0.819401 0.736337 0.115715
Si Si6 0.742406 0.132534 0.427891
Si Si7 0.426567 0.190049 0.491299
O O1 0.183735 0.876184 0.085503
O O2 0.158683 0.785434 0.410401
O O3 0.985808 0.714451 0.083803
O O4 0.313795 0.579251 0.199219
O O5 0.286858 0.359590 0.983718
O O6 0.488935 0.203448 0.736272
O O7 0.693787 0.928070 0.011443
O O8 0.103167 0.305329 0.627023
O O9 0.214435 0.279801 0.359738
O O10 0.865140 0.354690 0.214624
O O11 0.143314 0.061821 0.461192
O O12 0.698948 0.153150 0.183332
O O13 0.500000 0.500000 0.000000
O O14 0.554314 0.219956 0.423357
O O15 0.500000 0.000000 0.500000
#
# Coordination Sequence:
#
# PCOD9043871 Si02
#       7
#     2   2   2   2   2   2   2
#     4  11  26  48  81 118 160 204 266 329 392 476
#     4  10  23  45  83 121 168 197 258 341 391 471
#     4  10  24  47  80 114 163 202 265 334 386 476
#     4  12  30  54  76 110 165 219 264 324 392 475
#     4  11  26  48  80 118 159 213 265 315 408 472
#     4   9  22  43  79 129 154 203 256 331 414 451
#     4   9  20  41  72 125 160 198 255 323 396 460
#
# _framework density 27.945419999999999
#
# number of rings (size 3 to 8) (size 9 to 14) (size 15 to 20)
#    0.000    1.714    0.000    1.286   14.000    6.286 
#    0.000    0.714    0.000    0.000    0.000    0.000 
#    0.000    0.000    0.000    0.000    0.000    0.000 
#
# Total GULP energy -78444.520911 kJ/mol
# GULP energy per Si atom -5603.180065 kJ/mol
# Density = 2.788182 g / cm^3
# Si number density = 27.945420 Si / 1000 Ang^3
#
#
#
# Elastic Constant Matrix: (Units=GPa)
#
#
# Indices 1 2 3 4 5 6 
#
# 1 223.2020 70.7229 73.9237 0.3703 31.2664 1.1544
# 2 70.7229 144.0917 66.9916 13.4323 3.0651 26.5854
# 3 73.9237 66.9916 180.7913 23.7709 13.6936 -10.4385
# 4 0.3703 13.4323 23.7709 58.6273 -12.9380 6.9509
# 5 31.2664 3.0651 13.6936 -12.9380 45.0214 5.1711
# 6 1.1544 26.5854 -10.4385 6.9509 5.1711 59.4155
#
#
#
# Elastic Compliance Matrix: (Units=1/GPa)
#
#
# Indices 1 2 3 4 5 6 
#
# 1 0.006267 -0.002647 -0.001224 0.000058 -0.003919 0.001182
# 2 -0.002647 0.010840 -0.003521 0.000278 0.002906 -0.005703
# 3 -0.001224 -0.003521 0.008243 -0.003605 -0.002880 0.003720
# 4 0.000058 0.000278 -0.003605 0.020533 0.007374 -0.003803
# 5 -0.003919 0.002906 -0.002880 0.007374 0.028311 -0.005057
# 6 0.001182 -0.005703 0.003720 -0.003803 -0.005057 0.020898
#
#
# Mechanical properties :
#
#
# Convention : Reuss Voigt Hill
#
# Bulk Modulus (GPa) = 94.63206 107.92905 101.28055
# Shear Modulus (GPa) = 44.09210 55.04264 49.56737
#
# Velocity S-wave (km/s) = 3.97645 4.44289 4.21613
# Velocity P-wave (km/s) = 7.41752 8.06376 7.74738
#
# Compressibility (1/GPa) = 0.01056724
#
# Stress axis : x y z
#
# Youngs Moduli (GPa) = 159.56108 92.24698 121.31085
#
# Poissons Ratio (x) = 0.24417 0.14854
# Poissons Ratio (y) = 0.42234 0.42708
# Poissons Ratio (z) = 0.19537 0.32476
#
# Static dielectric constant tensor:
#      x y z
#    x 2.207360 0.003530 -0.051160 
#    y 0.003530 2.182050 -0.050290 
#    z -0.051160 -0.050290 2.255240 
# 
# From -- ./inp_files/178035.got.cif
#   From: 2010.05.17/outbox.cif.g08.bks.cpg/sg2_90_cif.got.tgz:178035.got - 2010.06.03 11:33:40.
