data_PCOD9043749
_publ_section_title
;
Structure prediction by ZEFSAII (Michael W. Deem and Ramdas Pophale) SiO2 
 PCOD9043749
Probable space group: P -1
;
_chemical_formula_sum "Si O2"
_cell_formula_units_Z 16
_cell_length_a 10.950355
_cell_length_b 12.061014
_cell_length_c 12.825771
_cell_angle_alpha 141.667148
_cell_angle_beta 99.470210
_cell_angle_gamma 108.792663
_cell_volume 699.821363
_symmetry_space_group_name_H-M "P -1"
_symmetry_group_IT_number 2
_symmetry_cell_setting 'triclinic'
loop_
_space_group_symop_operation_xyz
x,y,z
-x,-y,-z
loop_
_atom_site_type_symbol
_atom_site_label
_atom_site_fract_x
_atom_site_fract_y
_atom_site_fract_z
Si Si1 0.291040 0.404085 0.814054
Si Si2 0.102876 0.423428 0.974894
Si Si3 0.281847 0.084238 0.728054
Si Si4 0.203107 0.163432 0.416278
Si Si5 0.841289 0.236375 0.138544
Si Si6 0.513267 0.700087 0.584137
Si Si7 0.995048 0.223922 0.350728
Si Si8 0.216215 0.596717 0.339852
O O1 0.207244 0.471928 0.921897
O O2 0.224629 0.149116 0.671604
O O3 0.239109 0.349283 0.646466
O O4 0.509631 0.641762 0.020170
O O5 0.235466 0.560484 0.195526
O O6 0.945081 0.120464 0.762655
O O7 0.000000 0.500000 0.000000
O O8 0.149859 0.978066 0.728433
O O9 0.275385 0.866421 0.548674
O O10 0.377332 0.239663 0.460482
O O11 0.121258 0.186017 0.324835
O O12 0.883335 0.152981 0.180182
O O13 0.885108 0.478191 0.373131
O O14 0.001464 0.370568 0.175311
O O15 0.644511 0.978968 0.871712
O O16 0.500000 0.500000 0.500000
O O17 0.330273 0.602989 0.444762
#
# Coordination Sequence:
#
# PCOD9043749 Si02
#       8
#     2   2   2   2   2   2   2   2
#     4  11  26  43  67 106 139 182 238 293 343 427
#     4  12  27  45  74 103 143 191 232 292 356 424
#     4  10  24  44  69  99 142 184 232 293 348 417
#     4  12  26  42  71 102 141 189 234 287 361 412
#     4  10  24  49  72 102 140 180 240 291 361 412
#     4  12  29  45  74 107 145 186 235 295 355 427
#     4  10  23  45  74  98 134 190 230 298 351 427
#     4  11  26  47  71 105 141 189 236 289 356 420
#
# _framework density 22.862977000000001
#
# number of rings (size 3 to 8) (size 9 to 14) (size 15 to 20)
#    0.000    1.000    2.500    1.875   14.000    1.500 
#    0.000    2.500    0.000    0.000    0.000    0.000 
#    0.000    0.000    0.000    0.000    0.000    0.000 
#
# Total GULP energy -89499.520047 kJ/mol
# GULP energy per Si atom -5593.720003 kJ/mol
# Density = 2.281094 g / cm^3
# Si number density = 22.862977 Si / 1000 Ang^3
#
#
#
# Elastic Constant Matrix: (Units=GPa)
#
#
# Indices 1 2 3 4 5 6 
#
# 1 59.4462 0.5467 16.4000 -0.3700 1.9062 -27.1541
# 2 0.5467 64.7505 30.0025 -3.7379 4.8075 -14.4762
# 3 16.4000 30.0025 79.9367 -11.1795 6.1461 -10.4231
# 4 -0.3700 -3.7379 -11.1795 34.7401 2.5427 2.2567
# 5 1.9062 4.8075 6.1461 2.5427 25.9541 -6.1422
# 6 -27.1541 -14.4762 -10.4231 2.2567 -6.1422 34.4224
#
#
#
# Elastic Compliance Matrix: (Units=1/GPa)
#
#
# Indices 1 2 3 4 5 6 
#
# 1 0.030541 0.008262 -0.006660 -0.002972 0.004372 0.026525
# 2 0.008262 0.022204 -0.008482 -0.001171 0.000591 0.013469
# 3 -0.006660 -0.008482 0.017479 0.005203 -0.003659 -0.004522
# 4 -0.002972 -0.001171 0.005203 0.030923 -0.004808 -0.004147
# 5 0.004372 0.000591 -0.003659 -0.004808 0.041893 0.010380
# 6 0.026525 0.013469 -0.004522 -0.004147 0.010380 0.056394
#
#
# Mechanical properties :
#
#
# Convention : Reuss Voigt Hill
#
# Bulk Modulus (GPa) = 17.71019 33.11463 25.41241
# Shear Modulus (GPa) = 21.55029 29.50226 25.52628
#
# Velocity S-wave (km/s) = 3.07348 3.59610 3.34502
# Velocity P-wave (km/s) = 4.51200 5.63542 5.10471
#
# Compressibility (1/GPa) = 0.05646466
#
# Stress axis : x y z
#
# Youngs Moduli (GPa) = 32.74304 45.03674 57.21131
#
# Poissons Ratio (x) = -0.37210 0.38103
# Poissons Ratio (y) = -0.27053 0.48525
# Poissons Ratio (z) = 0.21807 0.38199
#
# Static dielectric constant tensor:
#      x y z
#    x 1.837640 -0.010420 -0.010760 
#    y -0.010420 1.870760 -0.037470 
#    z -0.010760 -0.037470 1.902390 
# 
# From -- ./inp_files/429085.got.cif
#   From: 2010.05.17/outbox.cif.g08.bks.cpg/sg2_215_cif.got.tgz:429085.got - 2010.06.03 11:33:40.
