data_PCOD9043437
_publ_section_title
;
Structure prediction by ZEFSAII (Michael W. Deem and Ramdas Pophale) SiO2 
 PCOD9043437
Probable space group: P -1
;
_chemical_formula_sum "Si O2"
_cell_formula_units_Z 16
_cell_length_a 23.337191
_cell_length_b 14.964399
_cell_length_c 8.165997
_cell_angle_alpha 66.818055
_cell_angle_beta 59.847531
_cell_angle_gamma 19.190875
_cell_volume 777.199172
_symmetry_space_group_name_H-M "P -1"
_symmetry_group_IT_number 2
_symmetry_cell_setting 'triclinic'
loop_
_space_group_symop_operation_xyz
x,y,z
-x,-y,-z
loop_
_atom_site_type_symbol
_atom_site_label
_atom_site_fract_x
_atom_site_fract_y
_atom_site_fract_z
Si Si1 0.464880 0.967990 0.210084
Si Si2 0.833166 0.225907 0.395641
Si Si3 0.477195 0.637958 0.123674
Si Si4 0.242012 0.608345 0.258925
Si Si5 0.568168 0.210190 0.598257
Si Si6 0.893336 0.365829 0.182192
Si Si7 0.297028 0.875608 0.854993
Si Si8 0.308100 0.300753 0.465965
O O1 0.411583 0.930234 0.278039
O O2 0.678246 0.668068 0.200865
O O3 0.301809 0.237650 0.368264
O O4 0.500000 0.000000 0.000000
O O5 0.750749 0.340720 0.616892
O O6 0.658292 0.456439 0.356441
O O7 0.925731 0.206030 0.266825
O O8 0.014162 0.906869 0.338318
O O9 0.370381 0.808263 0.323881
O O10 0.573631 0.398859 0.166430
O O11 0.648984 0.480090 0.969225
O O12 0.354444 0.820718 0.000877
O O13 0.337152 0.372391 0.317541
O O14 0.663955 0.102249 0.363075
O O15 0.869106 0.449773 0.333560
O O16 0.069728 0.165544 0.974130
O O17 0.500000 0.000000 0.500000
#
# Coordination Sequence:
#
# PCOD9043437 Si02
#       8
#     2   2   2   2   2   2   2   2
#     4  10  21  42  64  91 122 156 210 265 303 351
#     4   9  18  34  61  92 121 151 198 263 312 356
#     4  11  23  37  64  90 129 168 196 245 317 381
#     4  10  17  33  60  94 119 154 207 251 307 367
#     4  11  23  41  64  90 127 161 204 256 307 371
#     4   9  19  39  62  88 122 159 201 255 310 365
#     4  11  23  42  59  91 131 164 199 246 313 378
#     4   9  19  34  62  85 117 161 205 248 303 354
#
# _framework density 20.586742999999998
#
# number of rings (size 3 to 8) (size 9 to 14) (size 15 to 20)
#    0.000    2.000    2.500    1.875    0.000    0.500 
#    4.500    1.250    0.000    0.000    0.000    0.000 
#    0.000    0.000    0.000    0.000    0.000    0.000 
#
# Total GULP energy -89206.396810 kJ/mol
# GULP energy per Si atom -5575.399801 kJ/mol
# Density = 2.053989 g / cm^3
# Si number density = 20.586743 Si / 1000 Ang^3
#
#
#
# Elastic Constant Matrix: (Units=GPa)
#
#
# Indices 1 2 3 4 5 6 
#
# 1 55.4993 20.6325 25.8235 0.2808 14.3349 8.5902
# 2 20.6325 58.4414 15.3279 -9.9735 -3.1149 23.6548
# 3 25.8235 15.3279 80.1115 -9.4101 -1.6729 4.8185
# 4 0.2808 -9.9735 -9.4101 28.2927 -1.0223 -6.5193
# 5 14.3349 -3.1149 -1.6729 -1.0223 27.5748 -2.4795
# 6 8.5902 23.6548 4.8185 -6.5193 -2.4795 16.8374
#
#
#
# Elastic Compliance Matrix: (Units=1/GPa)
#
#
# Indices 1 2 3 4 5 6 
#
# 1 0.031699 -0.007492 -0.009686 -0.008977 -0.019069 -0.009159
# 2 -0.007492 0.042973 -0.002205 0.002053 0.003785 -0.054567
# 3 -0.009686 -0.002205 0.016533 0.006638 0.006652 0.006858
# 4 -0.008977 0.002053 0.006638 0.042723 0.008466 0.017585
# 5 -0.019069 0.003785 0.006652 0.008466 0.048485 0.012926
# 6 -0.009159 -0.054567 0.006858 0.017585 0.012926 0.147475
#
#
# Mechanical properties :
#
#
# Convention : Reuss Voigt Hill
#
# Bulk Modulus (GPa) = 19.06985 35.29111 27.18048
# Shear Modulus (GPa) = 12.94888 23.35887 18.15387
#
# Velocity S-wave (km/s) = 2.51069 3.37212 2.97277
# Velocity P-wave (km/s) = 4.20571 5.68695 5.00147
#
# Compressibility (1/GPa) = 0.05243879
#
# Stress axis : x y z
#
# Youngs Moduli (GPa) = 31.54707 23.27039 60.48527
#
# Poissons Ratio (x) = 0.17434 0.58587
# Poissons Ratio (y) = 0.23634 0.13337
# Poissons Ratio (z) = 0.30557 0.05131
#
# Static dielectric constant tensor:
#      x y z
#    x 1.780160 0.009620 0.018460 
#    y 0.009620 1.829410 -0.084200 
#    z 0.018460 -0.084200 1.829220 
# 
# From -- ./inp_files/313274.got.cif
#   From: 2010.05.17/outbox.cif.g08.bks.cpg/sg2_157_cif.got.tgz:313274.got - 2010.06.03 11:33:40.
