data_PCOD9043309
_publ_section_title
;
Structure prediction by ZEFSAII (Michael W. Deem and Ramdas Pophale) SiO2 
 PCOD9043309
Probable space group: P -1
;
_chemical_formula_sum "Si O2"
_cell_formula_units_Z 15
_cell_length_a 11.957404
_cell_length_b 6.987471
_cell_length_c 8.712911
_cell_angle_alpha 104.940610
_cell_angle_beta 108.200890
_cell_angle_gamma 63.680080
_cell_volume 613.749067
_symmetry_space_group_name_H-M "P -1"
_symmetry_group_IT_number 2
_symmetry_cell_setting 'triclinic'
loop_
_space_group_symop_operation_xyz
x,y,z
-x,-y,-z
loop_
_atom_site_type_symbol
_atom_site_label
_atom_site_fract_x
_atom_site_fract_y
_atom_site_fract_z
Si Si1 0.749212 0.098911 0.115657
Si Si2 0.840265 0.330144 0.749412
Si Si3 0.000000 0.000000 0.000000
Si Si4 0.867953 0.978450 0.471893
Si Si5 0.355851 0.259347 0.079589
Si Si6 0.192609 0.350440 0.449745
Si Si7 0.423644 0.001433 0.315022
Si Si8 0.390849 0.414776 0.792349
O O1 0.796869 0.016765 0.289427
O O2 0.638435 0.336991 0.138794
O O3 0.861187 0.113529 0.058797
O O4 0.706391 0.918830 0.990291
O O5 0.948961 0.185427 0.881519
O O6 0.795161 0.167666 0.601770
O O7 0.731825 0.516536 0.834248
O O8 0.880385 0.457587 0.658740
O O9 0.888504 0.752693 0.511375
O O10 0.000000 0.000000 0.500000
O O11 0.464472 0.130288 0.224658
O O12 0.378021 0.312333 0.927924
O O13 0.284255 0.408477 0.620798
O O14 0.281012 0.155127 0.336372
O O15 0.470286 0.749684 0.241786
O O16 0.500000 0.000000 0.500000
#
# Coordination Sequence:
#
# PCOD9043309 Si02
#       8
#     2   2   1   2   2   2   2   2
#     4  12  26  44  69 102 140 182 240 283 343 415
#     4  11  25  43  69  99 141 186 226 290 347 408
#     4  12  26  46  62 104 142 178 232 290 340 404
#     4  12  25  46  69 101 139 187 238 286 341 426
#     4  11  24  43  70 101 139 184 224 292 350 409
#     4  10  23  45  70 103 142 182 231 287 355 409
#     4   9  22  42  71 103 137 182 230 282 354 416
#     4  11  21  45  70  99 142 180 231 291 342 411
#
# _framework density 24.439957
#
# number of rings (size 3 to 8) (size 9 to 14) (size 15 to 20)
#    0.000    1.067    5.333    0.400    3.733    1.600 
#    4.800    3.333    0.000    0.000    0.000    0.000 
#    0.000    0.000    0.000    0.000    0.000    0.000 
#
# Total GULP energy -83621.407654 kJ/mol
# GULP energy per Si atom -5574.760510 kJ/mol
# Density = 2.438433 g / cm^3
# Si number density = 24.439957 Si / 1000 Ang^3
#
#
#
# Elastic Constant Matrix: (Units=GPa)
#
#
# Indices 1 2 3 4 5 6 
#
# 1 56.6060 48.3221 35.0634 -0.7703 -18.1618 6.8801
# 2 48.3221 170.8123 91.8979 -33.0950 -15.2469 9.5782
# 3 35.0634 91.8979 144.7893 -4.2503 -19.6636 0.9588
# 4 -0.7703 -33.0950 -4.2503 74.1008 -0.7752 -13.0285
# 5 -18.1618 -15.2469 -19.6636 -0.7752 29.6979 2.2947
# 6 6.8801 9.5782 0.9588 -13.0285 2.2947 39.0416
#
#
#
# Elastic Compliance Matrix: (Units=1/GPa)
#
#
# Indices 1 2 3 4 5 6 
#
# 1 0.029281 -0.006997 -0.000806 -0.003683 0.014108 -0.005482
# 2 -0.006997 0.011756 -0.005903 0.004859 -0.002044 0.000236
# 3 -0.000806 -0.005903 0.011318 -0.001874 0.003886 0.000458
# 4 -0.003683 0.004859 -0.001874 0.016394 -0.000960 0.005030
# 5 0.014108 -0.002044 0.003886 -0.000960 0.044185 -0.004998
# 6 -0.005482 0.000236 0.000458 0.005030 -0.004998 0.028483
#
#
# Mechanical properties :
#
#
# Convention : Reuss Voigt Hill
#
# Bulk Modulus (GPa) = 40.09171 80.30826 60.19999
# Shear Modulus (GPa) = 28.22581 41.69634 34.96108
#
# Velocity S-wave (km/s) = 3.40208 4.13494 3.78628
# Velocity P-wave (km/s) = 5.64552 7.46510 6.61815
#
# Compressibility (1/GPa) = 0.02494281
#
# Stress axis : x y z
#
# Youngs Moduli (GPa) = 34.15222 85.06629 88.35244
#
# Poissons Ratio (x) = 0.59518 0.07120
# Poissons Ratio (y) = 0.23895 0.52157
# Poissons Ratio (z) = 0.02752 0.50218
#
# Static dielectric constant tensor:
#      x y z
#    x 2.085480 0.055070 -0.129910 
#    y 0.055070 1.972620 -0.085250 
#    z -0.129910 -0.085250 2.261860 
# 
# From -- ./inp_files/40339.got.cif
#   From: 2010.05.17/outbox.cif.g08.bks.cpg/sg2_21_cif.got.tgz:40339.got - 2010.06.03 11:33:40.
