data_PCOD9043533
_publ_section_title
;
Structure prediction by ZEFSAII (Michael W. Deem and Ramdas Pophale) SiO2 
 PCOD9043533
Probable space group: P -1
;
_chemical_formula_sum "Si O2"
_cell_formula_units_Z 16
_cell_length_a 5.108798
_cell_length_b 19.366265
_cell_length_c 25.028868
_cell_angle_alpha 160.937709
_cell_angle_beta 98.386320
_cell_angle_gamma 90.579854
_cell_volume 711.271759
_symmetry_space_group_name_H-M "P -1"
_symmetry_group_IT_number 2
_symmetry_cell_setting 'triclinic'
loop_
_space_group_symop_operation_xyz
x,y,z
-x,-y,-z
loop_
_atom_site_type_symbol
_atom_site_label
_atom_site_fract_x
_atom_site_fract_y
_atom_site_fract_z
Si Si1 0.866031 0.327691 0.610438
Si Si2 0.504270 0.486208 0.796366
Si Si3 0.740087 0.037955 0.078556
Si Si4 0.283713 0.476626 0.055694
Si Si5 0.672159 0.029689 0.189022
Si Si6 0.620619 0.213807 0.817059
Si Si7 0.177758 0.380306 0.269600
Si Si8 0.623889 0.654712 0.561849
O O1 0.717078 0.449072 0.733096
O O2 0.926295 0.464618 0.656003
O O3 0.167789 0.355140 0.667517
O O4 0.617263 0.059698 0.395760
O O5 0.572027 0.411456 0.801545
O O6 0.592436 0.764654 0.010249
O O7 0.590011 0.012142 0.111502
O O8 0.002727 0.290149 0.254165
O O9 0.500000 0.000000 0.000000
O O10 0.855988 0.842976 0.930116
O O11 0.467958 0.350333 0.943909
O O12 0.935882 0.281854 0.904760
O O13 0.304554 0.675884 0.159788
O O14 0.500984 0.152038 0.302806
O O15 0.022449 0.203180 0.324747
O O16 0.510264 0.511841 0.398655
O O17 0.500000 0.500000 0.500000
#
# Coordination Sequence:
#
# PCOD9043533 Si02
#       8
#     2   2   2   2   2   2   2   2
#     4  12  26  43  66 103 134 172 226 274 322 393
#     4  12  26  44  67  99 137 174 221 267 335 390
#     4  11  23  43  66  84 130 175 214 267 336 386
#     4  10  23  45  72 101 136 179 213 262 336 396
#     4  12  26  43  64  92 131 168 218 275 327 390
#     4  10  23  45  72 103 136 172 220 267 324 396
#     4  11  26  40  64  94 126 173 220 274 327 388
#     4  12  26  44  64  94 123 170 227 276 328 389
#
# _framework density 22.49492
#
# number of rings (size 3 to 8) (size 9 to 14) (size 15 to 20)
#    0.000    0.750    2.500    4.125    7.000    1.000 
#    0.000    0.000    0.000    0.000    0.000    0.000 
#    0.000    0.000    0.000    0.000    0.000    0.000 
#
# Total GULP energy -89527.315533 kJ/mol
# GULP energy per Si atom -5595.457221 kJ/mol
# Density = 2.244372 g / cm^3
# Si number density = 22.494920 Si / 1000 Ang^3
#
#
#
# Elastic Constant Matrix: (Units=GPa)
#
#
# Indices 1 2 3 4 5 6 
#
# 1 87.6775 12.6285 -8.6661 -14.2552 13.5200 -18.7154
# 2 12.6285 95.6905 19.4154 -14.3647 16.5399 -10.7773
# 3 -8.6661 19.4154 44.3300 -3.6663 12.1094 0.3802
# 4 -14.2552 -14.3647 -3.6663 25.6639 -7.5447 10.4259
# 5 13.5200 16.5399 12.1094 -7.5447 41.9302 -16.2485
# 6 -18.7154 -10.7773 0.3802 10.4259 -16.2485 24.1757
#
#
#
# Elastic Compliance Matrix: (Units=1/GPa)
#
#
# Indices 1 2 3 4 5 6 
#
# 1 0.014579 -0.000894 0.004014 0.004532 -0.001696 0.007730
# 2 -0.000894 0.012786 -0.004923 0.004672 -0.001762 0.001886
# 3 0.004014 -0.004923 0.028613 0.003836 -0.009989 -0.007905
# 4 0.004532 0.004672 0.003836 0.051350 -0.002178 -0.018078
# 5 -0.001696 -0.001762 -0.009989 -0.002178 0.036773 0.023713
# 6 0.007730 0.001886 -0.007905 -0.018078 0.023713 0.072046
#
#
# Mechanical properties :
#
#
# Convention : Reuss Voigt Hill
#
# Bulk Modulus (GPa) = 19.09477 30.49484 24.79481
# Shear Modulus (GPa) = 21.07833 31.97532 26.52683
#
# Velocity S-wave (km/s) = 3.06441 3.77430 3.43773
# Velocity P-wave (km/s) = 4.58560 5.70785 5.17722
#
# Compressibility (1/GPa) = 0.05237036
#
# Stress axis : x y z
#
# Youngs Moduli (GPa) = 68.58962 78.21322 34.94971
#
# Poissons Ratio (x) = 0.06995 -0.14028
# Poissons Ratio (y) = 0.06134 0.17206
# Poissons Ratio (z) = -0.27530 0.38505
#
# Static dielectric constant tensor:
#      x y z
#    x 1.788860 0.041610 0.061590 
#    y 0.041610 1.832160 0.016170 
#    z 0.061590 0.016170 1.888460 
# 
# From -- ./inp_files/605037.got.cif
#   From: 2010.05.17/outbox.cif.g08.bks.cpg/sg2_303_cif.got.tgz:605037.got - 2010.06.03 11:33:40.
