data_PCOD9043344
_publ_section_title
;
Structure prediction by ZEFSAII (Michael W. Deem and Ramdas Pophale) SiO2 
 PCOD9043344
Probable space group: P -1
;
_chemical_formula_sum "Si O2"
_cell_formula_units_Z 15
_cell_length_a 9.621074
_cell_length_b 5.692559
_cell_length_c 11.503700
_cell_angle_alpha 103.886627
_cell_angle_beta 79.980248
_cell_angle_gamma 96.555474
_cell_volume 600.567446
_symmetry_space_group_name_H-M "P -1"
_symmetry_group_IT_number 2
_symmetry_cell_setting 'triclinic'
loop_
_space_group_symop_operation_xyz
x,y,z
-x,-y,-z
loop_
_atom_site_type_symbol
_atom_site_label
_atom_site_fract_x
_atom_site_fract_y
_atom_site_fract_z
Si Si1 0.012867 0.286312 0.571396
Si Si2 0.464212 0.638185 0.136823
Si Si3 0.532399 0.640964 0.685947
Si Si4 0.821549 0.176308 0.810044
Si Si5 0.684547 0.999203 0.259563
Si Si6 0.982318 0.139571 0.141279
Si Si7 0.332107 0.234734 0.544966
Si Si8 0.000000 0.500000 0.000000
O O1 0.176890 0.330342 0.593622
O O2 0.000000 0.500000 0.500000
O O3 0.896389 0.277488 0.691407
O O4 0.000000 0.000000 0.500000
O O5 0.398467 0.450981 0.219899
O O6 0.347500 0.832053 0.165897
O O7 0.608425 0.761002 0.184430
O O8 0.500000 0.500000 0.000000
O O9 0.458749 0.409170 0.600939
O O10 0.635139 0.787240 0.597774
O O11 0.399919 0.789601 0.754955
O O12 0.866635 0.352480 0.933686
O O13 0.887055 0.922485 0.805069
O O14 0.667316 0.001012 0.401819
O O15 0.847405 0.017401 0.209903
O O16 0.950404 0.396062 0.124814
O O17 0.000000 0.000000 0.000000
#
# Coordination Sequence:
#
# PCOD9043344 Si02
#       8
#     2   2   2   2   2   2   2   1
#     4  12  29  46  77 114 161 204 258 318 395 465
#     4  11  28  45  68 107 147 198 244 307 384 459
#     4  10  24  43  72 100 147 187 247 309 377 451
#     4  11  26  47  74 106 151 197 253 319 382 461
#     4  11  24  44  75 101 138 190 249 306 381 454
#     4  10  24  43  70 105 133 187 242 309 375 447
#     4  10  23  45  70 107 138 192 251 309 375 452
#     4  10  26  44  78 100 146 188 256 310 380 454
#
# _framework density 24.976379999999999
#
# number of rings (size 3 to 8) (size 9 to 14) (size 15 to 20)
#    0.000    1.333    1.333    1.200   14.933    1.600 
#    0.000    0.000    0.000    0.000    0.000    0.000 
#    0.000    0.000    0.000    0.000    0.000    0.000 
#
# Total GULP energy -83519.042626 kJ/mol
# GULP energy per Si atom -5567.936175 kJ/mol
# Density = 2.491953 g / cm^3
# Si number density = 24.976380 Si / 1000 Ang^3
#
#
#
# Elastic Constant Matrix: (Units=GPa)
#
#
# Indices 1 2 3 4 5 6 
#
# 1 114.6739 29.2243 40.7742 -21.6341 -17.2343 -12.9345
# 2 29.2243 67.9887 52.0271 -23.4415 2.8742 -6.5038
# 3 40.7742 52.0271 143.8307 -14.7187 -6.2498 -4.6293
# 4 -21.6341 -23.4415 -14.7187 43.1308 -7.3356 3.9394
# 5 -17.2343 2.8742 -6.2498 -7.3356 29.4973 -1.8386
# 6 -12.9345 -6.5038 -4.6293 3.9394 -1.8386 34.4252
#
#
#
# Elastic Compliance Matrix: (Units=1/GPa)
#
#
# Indices 1 2 3 4 5 6 
#
# 1 0.012787 -0.002173 -0.001725 0.005814 0.009011 0.003978
# 2 -0.002173 0.024834 -0.007497 0.009207 -0.002885 0.001660
# 3 -0.001725 -0.007497 0.010082 -0.001194 0.001532 -0.000490
# 4 0.005814 0.009207 -0.001194 0.032402 0.010342 0.000608
# 5 0.009011 -0.002885 0.001532 0.010342 0.042602 0.004138
# 6 0.003978 0.001660 -0.000490 0.000608 0.004138 0.030942
#
#
# Mechanical properties :
#
#
# Convention : Reuss Voigt Hill
#
# Bulk Modulus (GPa) = 40.13639 63.39384 51.76511
# Shear Modulus (GPa) = 27.06471 35.04184 31.05327
#
# Velocity S-wave (km/s) = 3.29540 3.74973 3.52988
# Velocity P-wave (km/s) = 5.53029 6.64710 6.11425
#
# Compressibility (1/GPa) = 0.02491505
#
# Stress axis : x y z
#
# Youngs Moduli (GPa) = 78.20409 40.26684 99.18699
#
# Poissons Ratio (x) = 0.08748 0.17105
# Poissons Ratio (y) = 0.16991 0.74361
# Poissons Ratio (z) = 0.13487 0.30188
#
# Static dielectric constant tensor:
#      x y z
#    x 1.959100 0.014110 0.026930 
#    y 0.014110 2.194570 0.026940 
#    z 0.026930 0.026940 1.978120 
# 
# From -- ./inp_files/373038.got.cif
#   From: 2010.05.17/outbox.cif.g08.bks.cpg/sg2_187_cif.got.tgz:373038.got - 2010.06.03 11:33:40.
