data_PCOD9043582
_publ_section_title
;
Structure prediction by ZEFSAII (Michael W. Deem and Ramdas Pophale) SiO2 
 PCOD9043582
Probable space group: P -1
;
_chemical_formula_sum "Si O2"
_cell_formula_units_Z 14
_cell_length_a 13.549051
_cell_length_b 7.731752
_cell_length_c 8.288740
_cell_angle_alpha 121.696172
_cell_angle_beta 124.546310
_cell_angle_gamma 43.417523
_cell_volume 481.580754
_symmetry_space_group_name_H-M "P -1"
_symmetry_group_IT_number 2
_symmetry_cell_setting 'triclinic'
loop_
_space_group_symop_operation_xyz
x,y,z
-x,-y,-z
loop_
_atom_site_type_symbol
_atom_site_label
_atom_site_fract_x
_atom_site_fract_y
_atom_site_fract_z
Si Si1 0.885962 0.998168 0.746375
Si Si2 0.933694 0.553652 0.287456
Si Si3 0.311863 0.176541 0.221989
Si Si4 0.126802 0.021101 0.791155
Si Si5 0.695435 0.550208 0.933855
Si Si6 0.442606 0.551628 0.784751
Si Si7 0.617361 0.025818 0.478644
O O1 0.003885 0.000124 0.747578
O O2 0.785054 0.247756 0.888076
O O3 0.754465 0.017772 0.530930
O O4 0.975206 0.747072 0.820527
O O5 0.000000 0.500000 0.500000
O O6 0.950455 0.733617 0.280946
O O7 0.761210 0.651152 0.163531
O O8 0.255726 0.421495 0.183135
O O9 0.492977 0.008348 0.277207
O O10 0.298980 0.188042 0.407141
O O11 0.229901 0.066841 0.018318
O O12 0.261879 0.743935 0.706127
O O13 0.520511 0.673450 0.841936
O O14 0.513170 0.298515 0.616223
O O15 0.500000 0.500000 0.000000
#
# Coordination Sequence:
#
# PCOD9043582 Si02
#       7
#     2   2   2   2   2   2   2
#     4  11  26  48  76 104 146 192 242 297 362 429
#     4  11  27  46  68 109 152 190 238 299 362 430
#     4  10  23  45  72 112 137 186 249 299 356 426
#     4  11  26  47  77 106 147 194 238 295 369 431
#     4  10  25  45  75  98 143 196 241 294 361 429
#     4  11  22  45  72 105 143 194 236 295 367 435
#     4  10  24  45  76 106 143 187 241 308 351 424
#
# _framework density 29.070929
#
# number of rings (size 3 to 8) (size 9 to 14) (size 15 to 20)
#    0.000    1.429    1.429    1.286    6.000    9.714 
#    7.714    1.429    0.000    0.000    0.000    0.000 
#    0.000    0.000    0.000    0.000    0.000    0.000 
#
# Total GULP energy -78368.154982 kJ/mol
# GULP energy per Si atom -5597.725356 kJ/mol
# Density = 2.900476 g / cm^3
# Si number density = 29.070929 Si / 1000 Ang^3
#
#
#
# Elastic Constant Matrix: (Units=GPa)
#
#
# Indices 1 2 3 4 5 6 
#
# 1 276.8452 75.6387 51.3687 -13.7782 44.0041 -6.4727
# 2 75.6387 136.5439 17.5746 -24.2790 -3.3419 7.4266
# 3 51.3687 17.5746 129.3957 -10.2795 43.2642 4.1459
# 4 -13.7782 -24.2790 -10.2795 42.1132 5.4989 -4.4333
# 5 44.0041 -3.3419 43.2642 5.4989 55.5862 -9.4007
# 6 -6.4727 7.4266 4.1459 -4.4333 -9.4007 55.6508
#
#
#
# Elastic Compliance Matrix: (Units=1/GPa)
#
#
# Indices 1 2 3 4 5 6 
#
# 1 0.005100 -0.002810 -0.000281 0.000537 -0.003980 0.000360
# 2 -0.002810 0.009828 -0.000860 0.004072 0.002955 -0.000751
# 3 -0.000281 -0.000860 0.011417 0.003204 -0.009387 -0.002099
# 4 0.000537 0.004072 0.003204 0.027809 -0.005324 0.000596
# 5 -0.003980 0.002955 -0.009387 -0.005324 0.029907 0.004470
# 6 0.000360 -0.000751 -0.002099 0.000596 0.004470 0.019070
#
#
# Mechanical properties :
#
#
# Convention : Reuss Voigt Hill
#
# Bulk Modulus (GPa) = 54.22093 92.43877 73.32985
# Shear Modulus (GPa) = 42.66885 57.21688 49.94287
#
# Velocity S-wave (km/s) = 3.83528 4.44123 4.14933
# Velocity P-wave (km/s) = 6.18904 7.62667 6.94515
#
# Compressibility (1/GPa) = 0.01844306
#
# Stress axis : x y z
#
# Youngs Moduli (GPa) = 196.08532 101.74711 87.58810
#
# Poissons Ratio (x) = 0.28594 0.02462
# Poissons Ratio (y) = 0.55106 0.07530
# Poissons Ratio (z) = 0.05512 0.08747
#
# Static dielectric constant tensor:
#      x y z
#    x 2.284970 -0.017290 -0.045590 
#    y -0.017290 2.461870 0.147830 
#    z -0.045590 0.147830 2.470430 
# 
# From -- ./inp_files/159129.got.cif
#   From: 2010.05.17/outbox.cif.g08.bks.cpg/sg2_80_cif.got.tgz:159129.got - 2010.06.03 11:33:40.
