data_PCOD9043282
_publ_section_title
;
Structure prediction by ZEFSAII (Michael W. Deem and Ramdas Pophale) SiO2 
 PCOD9043282
Probable space group: P -1
;
_chemical_formula_sum "Si O2"
_cell_formula_units_Z 15
_cell_length_a 7.141566
_cell_length_b 19.855276
_cell_length_c 8.279781
_cell_angle_alpha 41.607388
_cell_angle_beta 104.616202
_cell_angle_gamma 78.101345
_cell_volume 595.112233
_symmetry_space_group_name_H-M "P -1"
_symmetry_group_IT_number 2
_symmetry_cell_setting 'triclinic'
loop_
_space_group_symop_operation_xyz
x,y,z
-x,-y,-z
loop_
_atom_site_type_symbol
_atom_site_label
_atom_site_fract_x
_atom_site_fract_y
_atom_site_fract_z
Si Si1 0.970815 0.954838 0.842057
Si Si2 0.556159 0.259058 0.812725
Si Si3 0.646291 0.614390 0.799737
Si Si4 0.208530 0.079719 0.812622
Si Si5 0.537418 0.868594 0.730433
Si Si6 0.500000 0.500000 0.500000
Si Si7 0.936777 0.695279 0.862290
Si Si8 0.595417 0.429157 0.943751
O O1 0.720841 0.082173 0.491491
O O2 0.889755 0.902323 0.058673
O O3 0.128643 0.998138 0.865140
O O4 0.148115 0.845552 0.946480
O O5 0.460920 0.299101 0.536598
O O6 0.469789 0.381838 0.677519
O O7 0.445674 0.194082 0.985427
O O8 0.863128 0.609784 0.929382
O O9 0.443560 0.661841 0.809857
O O10 0.692690 0.483333 0.989968
O O11 0.097178 0.208985 0.455721
O O12 0.500000 0.000000 0.000000
O O13 0.761288 0.774316 0.829650
O O14 0.500000 0.000000 0.500000
O O15 0.362899 0.536535 0.597396
O O16 0.228673 0.612427 0.104743
#
# Coordination Sequence:
#
# PCOD9043282 Si02
#       8
#     2   2   2   2   2   1   2   2
#     4  11  25  43  70  98 142 188 227 292 350 410
#     4  11  24  45  70  97 141 182 233 284 350 410
#     4  10  23  45  70 102 132 178 235 290 340 416
#     4  11  23  42  69 107 133 177 239 285 349 412
#     4  12  28  44  65 106 146 189 232 285 348 427
#     4  10  24  44  72 100 136 176 226 290 348 420
#     4  12  24  40  73  95 140 177 231 290 342 416
#     4  10  23  45  70 101 135 180 228 286 356 409
#
# _framework density 25.205328999999999
#
# number of rings (size 3 to 8) (size 9 to 14) (size 15 to 20)
#    0.000    1.067    1.333    4.000    9.333    0.000 
#    0.000    8.667    0.000    0.000    0.000    0.000 
#    0.000    0.000    0.000    0.000    0.000    0.000 
#
# Total GULP energy -83788.224053 kJ/mol
# GULP energy per Si atom -5585.881604 kJ/mol
# Density = 2.514796 g / cm^3
# Si number density = 25.205329 Si / 1000 Ang^3
#
#
#
# Elastic Constant Matrix: (Units=GPa)
#
#
# Indices 1 2 3 4 5 6 
#
# 1 193.8818 57.0623 64.2946 12.9897 -18.9656 -9.1090
# 2 57.0623 94.0811 27.7568 3.4478 -12.2893 1.8446
# 3 64.2946 27.7568 109.8972 10.7462 -23.0790 -7.1420
# 4 12.9897 3.4478 10.7462 39.4038 -7.5051 -3.9599
# 5 -18.9656 -12.2893 -23.0790 -7.5051 58.6870 4.6010
# 6 -9.1090 1.8446 -7.1420 -3.9599 4.6010 50.3045
#
#
#
# Elastic Compliance Matrix: (Units=1/GPa)
#
#
# Indices 1 2 3 4 5 6 
#
# 1 0.007391 -0.003481 -0.003241 -0.001125 0.000171 0.000902
# 2 -0.003481 0.013272 -0.001161 0.000424 0.001360 -0.001373
# 3 -0.003241 -0.001161 0.012162 -0.001451 0.003247 0.000771
# 4 -0.001125 0.000424 -0.001451 0.026722 0.002458 0.001453
# 5 0.000171 0.001360 0.003247 0.002458 0.019057 -0.001108
# 6 0.000902 -0.001373 0.000771 0.001453 -0.001108 0.020418
#
#
# Mechanical properties :
#
#
# Convention : Reuss Voigt Hill
#
# Bulk Modulus (GPa) = 58.61349 77.34306 67.97827
# Shear Modulus (GPa) = 41.50262 46.26217 43.88239
#
# Velocity S-wave (km/s) = 4.06221 4.28882 4.17705
# Velocity P-wave (km/s) = 6.73104 7.43486 7.09169
#
# Compressibility (1/GPa) = 0.01706092
#
# Stress axis : x y z
#
# Youngs Moduli (GPa) = 135.29204 75.34708 82.22154
#
# Poissons Ratio (x) = 0.26229 0.26645
# Poissons Ratio (y) = 0.47097 0.09543
# Poissons Ratio (z) = 0.43843 0.08745
#
# Static dielectric constant tensor:
#      x y z
#    x 2.034270 -0.061770 0.087440 
#    y -0.061770 2.125150 -0.019170 
#    z 0.087440 -0.019170 2.150320 
# 
# From -- ./inp_files/141047.got.cif
#   From: 2010.05.17/outbox.cif.g08.bks.cpg/sg2_71_cif.got.tgz:141047.got - 2010.06.03 11:33:40.
