data_PCOD9043047
_publ_section_title
;
Structure prediction by ZEFSAII (Michael W. Deem and Ramdas Pophale) SiO2 
 PCOD9043047
Probable space group: P -1
;
_chemical_formula_sum "Si O2"
_cell_formula_units_Z 8
_cell_length_a 13.096917
_cell_length_b 5.135554
_cell_length_c 13.240535
_cell_angle_alpha 42.169344
_cell_angle_beta 149.541836
_cell_angle_gamma 125.029749
_cell_volume 297.497780
_symmetry_space_group_name_H-M "P -1"
_symmetry_group_IT_number 2
_symmetry_cell_setting 'triclinic'
loop_
_space_group_symop_operation_xyz
x,y,z
-x,-y,-z
loop_
_atom_site_type_symbol
_atom_site_label
_atom_site_fract_x
_atom_site_fract_y
_atom_site_fract_z
Si Si1 0.298463 0.462015 0.903728
Si Si2 0.849822 0.644981 0.499121
Si Si3 0.021988 0.456220 0.911467
Si Si4 0.538924 0.739570 0.707044
O O1 0.062314 0.413672 0.697115
O O2 0.227777 0.929523 0.738711
O O3 0.500000 0.500000 0.000000
O O4 0.389018 0.131696 0.159476
O O5 0.882807 0.683924 0.637670
O O6 0.663819 0.419249 0.396573
O O7 0.000000 0.500000 0.000000
O O8 0.247836 0.540729 0.058249
O O9 0.000000 0.000000 0.000000
O O10 0.500000 0.000000 0.500000
#
# Coordination Sequence:
#
# PCOD9043047 Si02
#       4
#     2   2   2   2
#     4  10  24  42  68 101 141 194 243 298 367 437
#     4  10  23  45  68 101 146 186 244 302 359 439
#     4  11  25  44  70 107 144 190 242 299 366 434
#     4  11  23  42  70 103 143 187 242 297 366 433
#
# _framework density 26.890954000000001
#
# number of rings (size 3 to 8) (size 9 to 14) (size 15 to 20)
#    0.000    1.500    2.500    0.750    3.500    6.000 
#    0.000    0.000    0.000    0.000    0.000    0.000 
#    0.000    0.000    0.000    0.000    0.000    0.000 
#
# Total GULP energy -44561.085442 kJ/mol
# GULP energy per Si atom -5570.135680 kJ/mol
# Density = 2.682975 g / cm^3
# Si number density = 26.890954 Si / 1000 Ang^3
#
#
#
# Elastic Constant Matrix: (Units=GPa)
#
#
# Indices 1 2 3 4 5 6 
#
# 1 175.5955 39.1219 77.0853 16.2346 3.4245 14.3333
# 2 39.1219 92.8020 46.8207 17.7682 2.7389 5.7126
# 3 77.0853 46.8207 189.1589 17.5052 1.0753 8.8678
# 4 16.2346 17.7682 17.5052 55.8735 26.0943 1.3471
# 5 3.4245 2.7389 1.0753 26.0943 92.1405 11.1625
# 6 14.3333 5.7126 8.8678 1.3471 11.1625 46.5614
#
#
#
# Elastic Compliance Matrix: (Units=1/GPa)
#
#
# Indices 1 2 3 4 5 6 
#
# 1 0.007333 -0.001590 -0.002432 -0.000950 0.000270 -0.001636
# 2 -0.001590 0.013274 -0.002294 -0.003367 0.000740 -0.000782
# 3 -0.002432 -0.002294 0.006944 -0.000907 0.000378 -0.000357
# 4 -0.000950 -0.003367 -0.000907 0.022493 -0.006439 0.001771
# 5 0.000270 0.000740 0.000378 -0.006439 0.013026 -0.003182
# 6 -0.001636 -0.000782 -0.000357 0.001771 -0.003182 0.022856
#
#
# Mechanical properties :
#
#
# Convention : Reuss Voigt Hill
#
# Bulk Modulus (GPa) = 67.02191 87.06802 77.04496
# Shear Modulus (GPa) = 48.29568 58.55033 53.42300
#
# Velocity S-wave (km/s) = 4.24250 4.67124 4.46202
# Velocity P-wave (km/s) = 6.99829 7.84490 7.43366
#
# Compressibility (1/GPa) = 0.01492049
#
# Stress axis : x y z
#
# Youngs Moduli (GPa) = 136.37560 75.33495 144.01438
#
# Poissons Ratio (x) = 0.11976 0.35018
# Poissons Ratio (y) = 0.21680 0.33032
# Poissons Ratio (z) = 0.33161 0.17279
#
# Static dielectric constant tensor:
#      x y z
#    x 2.284000 -0.058840 -0.048500 
#    y -0.058840 2.198440 0.009320 
#    z -0.048500 0.009320 2.098420 
# 
# From -- ./inp_files/1868.got.cif
#   From: 2010.05.17/outbox.cif.g08.bks.cpg/sg2_1_cif.got.tgz:1868.got - 2010.06.03 11:33:40.
