data_PCOD9043958
_publ_section_title
;
Structure prediction by ZEFSAII (Michael W. Deem and Ramdas Pophale) SiO2 
 PCOD9043958
Probable space group: P -1
;
_chemical_formula_sum "Si O2"
_cell_formula_units_Z 12
_cell_length_a 15.582194
_cell_length_b 14.318069
_cell_length_c 10.213448
_cell_angle_alpha 27.787390
_cell_angle_beta 145.699702
_cell_angle_gamma 153.399086
_cell_volume 468.916716
_symmetry_space_group_name_H-M "P -1"
_symmetry_group_IT_number 2
_symmetry_cell_setting 'triclinic'
loop_
_space_group_symop_operation_xyz
x,y,z
-x,-y,-z
loop_
_atom_site_type_symbol
_atom_site_label
_atom_site_fract_x
_atom_site_fract_y
_atom_site_fract_z
Si Si1 0.593354 0.235613 0.227016
Si Si2 0.912921 0.007661 0.510919
Si Si3 0.169919 0.542481 0.248111
Si Si4 0.954096 0.293777 0.528636
Si Si5 0.486270 0.247485 0.780330
Si Si6 0.764039 0.734187 0.903392
O O1 0.815808 0.338836 0.368657
O O2 0.500000 0.000000 0.500000
O O3 0.519809 0.184640 0.045891
O O4 0.572791 0.438284 0.021028
O O5 0.726968 0.981903 0.258558
O O6 0.827535 0.767155 0.791578
O O7 0.000000 0.000000 0.500000
O O8 0.092131 0.248397 0.515828
O O9 0.364794 0.692400 0.222380
O O10 0.105639 0.537403 0.321933
O O11 0.000000 0.500000 0.000000
O O12 0.792828 0.997407 0.634322
O O13 0.090262 0.262470 0.823793
O O14 0.500000 0.500000 0.500000
#
# Coordination Sequence:
#
# PCOD9043958 Si02
#       6
#     2   2   2   2   2   2
#     4  12  26  43  70 107 140 181 239 293 352 424
#     4  11  23  41  72  99 134 186 230 283 350 420
#     4  11  23  44  68 100 139 175 235 294 346 413
#     4  10  24  45  70 100 138 186 232 294 358 413
#     4  12  24  45  72 104 139 186 237 285 356 425
#     4  10  23  46  67  97 139 185 230 284 362 417
#
# _framework density 25.590900000000001
#
# number of rings (size 3 to 8) (size 9 to 14) (size 15 to 20)
#    0.000    1.000    5.000    0.500    2.333    4.000 
#    6.000    0.000    0.000    0.000    0.000    0.000 
#    0.000    0.000    0.000    0.000    0.000    0.000 
#
# Total GULP energy -66875.369393 kJ/mol
# GULP energy per Si atom -5572.947449 kJ/mol
# Density = 2.553265 g / cm^3
# Si number density = 25.590900 Si / 1000 Ang^3
#
#
#
# Elastic Constant Matrix: (Units=GPa)
#
#
# Indices 1 2 3 4 5 6 
#
# 1 102.4202 26.2167 19.1114 -7.7839 4.6659 26.7786
# 2 26.2167 103.8125 5.9700 -5.1511 -5.5220 12.7206
# 3 19.1114 5.9700 114.2580 12.6115 -23.5445 3.1541
# 4 -7.7839 -5.1511 12.6115 47.2006 -11.6766 11.2247
# 5 4.6659 -5.5220 -23.5445 -11.6766 40.8182 -1.8442
# 6 26.7786 12.7206 3.1541 11.2247 -1.8442 39.7391
#
#
#
# Elastic Compliance Matrix: (Units=1/GPa)
#
#
# Indices 1 2 3 4 5 6 
#
# 1 0.013907 -0.002048 -0.003015 0.004546 -0.002752 -0.009888
# 2 -0.002048 0.010660 0.000088 0.001929 0.002166 -0.002484
# 3 -0.003015 0.000088 0.010678 -0.002373 0.005932 0.002102
# 4 0.004546 0.001929 -0.002373 0.026711 0.005527 -0.010781
# 5 -0.002752 0.002166 0.005932 0.005527 0.030133 0.000528
# 6 -0.009888 -0.002484 0.002102 -0.010781 0.000528 0.035525
#
#
# Mechanical properties :
#
#
# Convention : Reuss Voigt Hill
#
# Bulk Modulus (GPa) = 39.53425 47.00965 43.27195
# Shear Modulus (GPa) = 34.24741 43.49776 38.87258
#
# Velocity S-wave (km/s) = 3.66220 4.12726 3.90166
# Velocity P-wave (km/s) = 5.77619 6.41264 6.10271
#
# Compressibility (1/GPa) = 0.02529452
#
# Stress axis : x y z
#
# Youngs Moduli (GPa) = 71.90775 93.80754 93.64938
#
# Poissons Ratio (x) = 0.19210 0.28236
# Poissons Ratio (y) = 0.14725 -0.00820
# Poissons Ratio (z) = 0.21680 -0.00822
#
# Static dielectric constant tensor:
#      x y z
#    x 2.082550 -0.149890 0.074440 
#    y -0.149890 2.109310 -0.058160 
#    z 0.074440 -0.058160 1.996700 
# 
# From -- ./inp_files/314423.got.cif
#   From: 2010.05.17/outbox.cif.g08.bks.cpg/sg2_158_cif.got.tgz:314423.got - 2010.06.03 11:33:40.
