data_PCOD9043013
_publ_section_title
;
Structure prediction by ZEFSAII (Michael W. Deem and Ramdas Pophale) SiO2 
 PCOD9043013
Probable space group: P -1
;
_chemical_formula_sum "Si O2"
_cell_formula_units_Z 14
_cell_length_a 18.483481
_cell_length_b 8.999377
_cell_length_c 12.442325
_cell_angle_alpha 140.813359
_cell_angle_beta 29.015508
_cell_angle_gamma 129.179194
_cell_volume 627.094336
_symmetry_space_group_name_H-M "P -1"
_symmetry_group_IT_number 2
_symmetry_cell_setting 'triclinic'
loop_
_space_group_symop_operation_xyz
x,y,z
-x,-y,-z
loop_
_atom_site_type_symbol
_atom_site_label
_atom_site_fract_x
_atom_site_fract_y
_atom_site_fract_z
Si Si1 0.733405 0.399038 0.030790
Si Si2 0.087398 0.929296 0.954894
Si Si3 0.107510 0.696030 0.449972
Si Si4 0.603917 0.911877 0.417217
Si Si5 0.595962 0.148247 0.794088
Si Si6 0.688173 0.906534 0.762932
Si Si7 0.982234 0.562941 0.181800
O O1 0.848603 0.329731 0.744481
O O2 0.847775 0.443189 0.000351
O O3 0.657188 0.162645 0.007432
O O4 0.621033 0.633485 0.272749
O O5 0.099082 0.648972 0.785392
O O6 0.987929 0.054363 0.251298
O O7 0.236901 0.041418 0.810405
O O8 0.000000 0.000000 0.000000
O O9 0.272344 0.684112 0.286159
O O10 0.000000 0.500000 0.500000
O O11 0.500000 0.000000 0.500000
O O12 0.577950 0.051135 0.643053
O O13 0.657694 0.958889 0.704152
O O14 0.432264 0.244389 0.112259
O O15 0.861427 0.795145 0.490812
O O16 0.000000 0.500000 0.000000
#
# Coordination Sequence:
#
# PCOD9043013 Si02
#       7
#     2   2   2   2   2   2   2
#     4  11  23  43  69 101 138 181 243 292 342 424
#     4  12  23  45  69 100 141 185 233 294 352 421
#     4  11  20  40  73  94 131 184 231 286 349 408
#     4  12  26  43  67 105 143 190 234 287 366 424
#     4  10  23  45  67  98 146 184 231 297 357 413
#     4  10  24  44  70 102 140 184 237 294 360 416
#     4  12  24  43  74 103 138 189 240 288 350 429
#
# _framework density 22.325191
#
# number of rings (size 3 to 8) (size 9 to 14) (size 15 to 20)
#    0.000    0.857    4.286    3.000    0.000    6.286 
#    2.571    3.571    0.000    0.000    0.000    0.000 
#    0.000    0.000    0.000    0.000    0.000    0.000 
#
# Total GULP energy -78114.630762 kJ/mol
# GULP energy per Si atom -5579.616483 kJ/mol
# Density = 2.227438 g / cm^3
# Si number density = 22.325191 Si / 1000 Ang^3
#
#
#
# Elastic Constant Matrix: (Units=GPa)
#
#
# Indices 1 2 3 4 5 6 
#
# 1 132.3884 15.6640 55.2024 20.0504 8.3882 8.5856
# 2 15.6640 92.7379 20.6716 5.1958 -12.1647 16.0105
# 3 55.2024 20.6716 62.7389 -7.8756 -7.5991 2.9066
# 4 20.0504 5.1958 -7.8756 41.2359 -4.5859 -3.3281
# 5 8.3882 -12.1647 -7.5991 -4.5859 42.0234 -4.1796
# 6 8.5856 16.0105 2.9066 -3.3281 -4.1796 28.9881
#
#
#
# Elastic Compliance Matrix: (Units=1/GPa)
#
#
# Indices 1 2 3 4 5 6 
#
# 1 0.019095 0.002285 -0.020200 -0.015101 -0.009242 -0.007958
# 2 0.002285 0.013625 -0.006590 -0.004615 0.001004 -0.007926
# 3 -0.020200 -0.006590 0.039498 0.020373 0.012465 0.009799
# 4 -0.015101 -0.004615 0.020373 0.038124 0.010605 0.010884
# 5 -0.009242 0.001004 0.012465 0.010605 0.029987 0.006474
# 6 -0.007958 -0.007926 0.009799 0.010884 0.006474 0.042432
#
#
# Mechanical properties :
#
#
# Convention : Reuss Voigt Hill
#
# Bulk Modulus (GPa) = 43.09194 52.32681 47.70937
# Shear Modulus (GPa) = 20.87627 35.53798 28.20712
#
# Velocity S-wave (km/s) = 3.06126 3.99411 3.55838
# Velocity P-wave (km/s) = 5.64260 6.69028 6.18865
#
# Compressibility (1/GPa) = 0.02320620
#
# Stress axis : x y z
#
# Youngs Moduli (GPa) = 52.37000 73.39582 25.31805
#
# Poissons Ratio (x) = -0.16772 0.51143
# Poissons Ratio (y) = -0.11967 0.16685
# Poissons Ratio (z) = 1.05789 0.48370
#
# Static dielectric constant tensor:
#      x y z
#    x 1.894600 -0.011430 -0.049140 
#    y -0.011430 1.918280 0.033980 
#    z -0.049140 0.033980 1.836390 
# 
# From -- ./inp_files/462535.got.cif
#   From: 2010.05.17/outbox.cif.g08.bks.cpg/sg2_232_cif.got.tgz:462535.got - 2010.06.03 11:33:40.
