data_PCOD9043950
_publ_section_title
;
Structure prediction by ZEFSAII (Michael W. Deem and Ramdas Pophale) SiO2 
 PCOD9043950
Probable space group: P -1
;
_chemical_formula_sum "Si O2"
_cell_formula_units_Z 14
_cell_length_a 9.548024
_cell_length_b 7.249896
_cell_length_c 20.630932
_cell_angle_alpha 100.539229
_cell_angle_beta 145.081076
_cell_angle_gamma 57.650184
_cell_volume 586.033426
_symmetry_space_group_name_H-M "P -1"
_symmetry_group_IT_number 2
_symmetry_cell_setting 'triclinic'
loop_
_space_group_symop_operation_xyz
x,y,z
-x,-y,-z
loop_
_atom_site_type_symbol
_atom_site_label
_atom_site_fract_x
_atom_site_fract_y
_atom_site_fract_z
Si Si1 0.180686 0.179344 0.473733
Si Si2 0.425129 0.149084 0.066585
Si Si3 0.514467 0.375026 0.431244
Si Si4 0.464280 0.357312 0.661303
Si Si5 0.803269 0.586963 0.133273
Si Si6 0.790022 0.300041 0.216400
Si Si7 0.115432 0.758668 0.067372
O O1 0.470805 0.150519 0.615831
O O2 0.852691 0.444155 0.398949
O O3 0.100160 0.225467 0.369330
O O4 0.230915 0.933951 0.490982
O O5 0.774172 0.082700 0.196777
O O6 0.525787 0.885632 0.067850
O O7 0.214272 0.379351 0.948474
O O8 0.189329 0.229590 0.043430
O O9 0.500000 0.500000 0.500000
O O10 0.592172 0.471746 0.407950
O O11 0.154929 0.476021 0.285738
O O12 0.777994 0.241302 0.818595
O O13 0.752688 0.417909 0.140532
O O14 0.452655 0.513668 0.144248
O O15 0.000000 0.000000 0.000000
#
# Coordination Sequence:
#
# PCOD9043950 Si02
#       7
#     2   2   2   2   2   2   2
#     4  10  24  44  67  96 131 177 223 273 327 389
#     4  11  23  43  63  94 134 169 214 273 327 393
#     4  12  24  41  68  99 135 174 222 271 335 395
#     4  10  23  46  67  94 135 174 223 275 325 397
#     4  11  24  40  63  95 133 171 212 268 336 386
#     4  11  23  41  66  96 127 171 219 267 330 391
#     4  11  22  44  69  94 128 172 221 270 325 390
#
# _framework density 23.889424000000002
#
# number of rings (size 3 to 8) (size 9 to 14) (size 15 to 20)
#    0.000    1.143    2.857    3.000    0.000    4.571 
#    7.714    0.000    0.000    0.000    0.000    0.000 
#    0.000    0.000    0.000    0.000    0.000    0.000 
#
# Total GULP energy -78221.020089 kJ/mol
# GULP energy per Si atom -5587.215721 kJ/mol
# Density = 2.383505 g / cm^3
# Si number density = 23.889424 Si / 1000 Ang^3
#
#
#
# Elastic Constant Matrix: (Units=GPa)
#
#
# Indices 1 2 3 4 5 6 
#
# 1 62.0446 14.0384 -2.4877 -1.6554 -16.3493 18.7566
# 2 14.0384 112.6576 8.2982 1.5112 -16.7724 11.3107
# 3 -2.4877 8.2982 83.7643 14.4325 -17.4609 -6.2594
# 4 -1.6554 1.5112 14.4325 29.5079 4.2220 -2.4833
# 5 -16.3493 -16.7724 -17.4609 4.2220 43.6255 -2.8297
# 6 18.7566 11.3107 -6.2594 -2.4833 -2.8297 39.4236
#
#
#
# Elastic Compliance Matrix: (Units=1/GPa)
#
#
# Indices 1 2 3 4 5 6 
#
# 1 0.021170 -0.000650 0.001977 -0.001663 0.008046 -0.009099
# 2 -0.000650 0.009725 -0.000278 -0.001074 0.003335 -0.002353
# 3 0.001977 -0.000278 0.015144 -0.008236 0.007594 0.001570
# 4 -0.001663 -0.001074 -0.008236 0.039168 -0.008014 0.001684
# 5 0.008046 0.003335 0.007594 -0.008014 0.030914 -0.001865
# 6 -0.009099 -0.002353 0.001570 0.001684 -0.001865 0.030591
#
#
# Mechanical properties :
#
#
# Convention : Reuss Voigt Hill
#
# Bulk Modulus (GPa) = 20.77417 33.12937 26.95177
# Shear Modulus (GPa) = 31.12144 38.41923 34.77034
#
# Velocity S-wave (km/s) = 3.61325 4.01460 3.81920
# Velocity P-wave (km/s) = 5.11100 5.94872 5.54570
#
# Compressibility (1/GPa) = 0.04813670
#
# Stress axis : x y z
#
# Youngs Moduli (GPa) = 47.23592 102.82594 66.03278
#
# Poissons Ratio (x) = 0.06683 -0.13054
# Poissons Ratio (y) = 0.03070 0.01838
# Poissons Ratio (z) = -0.09338 0.02862
#
# Static dielectric constant tensor:
#      x y z
#    x 1.922970 -0.004090 0.020680 
#    y -0.004090 2.040620 0.096420 
#    z 0.020680 0.096420 1.960420 
# 
# From -- ./inp_files/27804.got.cif
#   From: 2010.05.17/outbox.cif.g08.bks.cpg/sg2_14_cif.got.tgz:27804.got - 2010.06.03 11:33:40.
