data_PCOD9043334
_publ_section_title
;
Structure prediction by ZEFSAII (Michael W. Deem and Ramdas Pophale) SiO2 
 PCOD9043334
Probable space group: P -1
;
_chemical_formula_sum "Si O2"
_cell_formula_units_Z 14
_cell_length_a 17.288798
_cell_length_b 11.466674
_cell_length_c 5.347333
_cell_angle_alpha 125.610308
_cell_angle_beta 67.315376
_cell_angle_gamma 142.227620
_cell_volume 521.944529
_symmetry_space_group_name_H-M "P -1"
_symmetry_group_IT_number 2
_symmetry_cell_setting 'triclinic'
loop_
_space_group_symop_operation_xyz
x,y,z
-x,-y,-z
loop_
_atom_site_type_symbol
_atom_site_label
_atom_site_fract_x
_atom_site_fract_y
_atom_site_fract_z
Si Si1 0.092973 0.042937 0.635741
Si Si2 0.700452 0.722112 0.704644
Si Si3 0.079849 0.808934 0.742982
Si Si4 0.265088 0.475715 0.244788
Si Si5 0.835693 0.400705 0.749074
Si Si6 0.609924 0.022181 0.856811
Si Si7 0.458127 0.237214 0.895290
O O1 0.228630 0.166512 0.505714
O O2 0.030179 0.826517 0.580770
O O3 0.141775 0.230609 0.993052
O O4 0.000000 0.000000 0.500000
O O5 0.704946 0.560593 0.572582
O O6 0.571486 0.634782 0.838434
O O7 0.801839 0.940954 0.018308
O O8 0.130351 0.717152 0.509150
O O9 0.973633 0.654788 0.896787
O O10 0.240020 0.608519 0.381629
O O11 0.391419 0.598557 0.083081
O O12 0.743542 0.272596 0.940348
O O13 0.584565 0.887820 0.474354
O O14 0.608393 0.929070 0.996036
O O15 0.500000 0.000000 0.000000
#
# Coordination Sequence:
#
# PCOD9043334 Si02
#       7
#     2   2   2   2   2   2   2
#     4  11  24  46  71 106 147 199 247 318 377 453
#     4  11  24  45  72 104 151 196 247 312 375 452
#     4  10  23  45  70 105 146 188 255 305 381 447
#     4  11  26  43  71 107 148 193 256 301 384 441
#     4  11  22  46  72 105 143 198 248 314 374 451
#     4  12  26  48  75 109 155 197 252 310 376 442
#     4  12  27  48  76 110 151 204 252 311 372 453
#
# _framework density 26.822772000000001
#
# number of rings (size 3 to 8) (size 9 to 14) (size 15 to 20)
#    0.000    0.857    2.857    3.429    4.000    2.857 
#    5.143    4.286    0.000    0.000    0.000    0.000 
#    0.000    0.000    0.000    0.000    0.000    0.000 
#
# Total GULP energy -78346.546704 kJ/mol
# GULP energy per Si atom -5596.181907 kJ/mol
# Density = 2.676172 g / cm^3
# Si number density = 26.822772 Si / 1000 Ang^3
#
#
#
# Elastic Constant Matrix: (Units=GPa)
#
#
# Indices 1 2 3 4 5 6 
#
# 1 115.9442 48.3147 52.5603 -0.9844 -29.2788 -8.8493
# 2 48.3147 175.5138 21.5913 -29.6728 -5.1225 -4.5452
# 3 52.5603 21.5913 113.3365 -20.0187 -7.7101 -11.8412
# 4 -0.9844 -29.6728 -20.0187 45.4790 2.5123 -9.7429
# 5 -29.2788 -5.1225 -7.7101 2.5123 49.6536 -5.7661
# 6 -8.8493 -4.5452 -11.8412 -9.7429 -5.7661 52.5312
#
#
#
# Elastic Compliance Matrix: (Units=1/GPa)
#
#
# Indices 1 2 3 4 5 6 
#
# 1 0.015411 -0.004120 -0.006763 -0.005656 0.007961 0.000540
# 2 -0.004120 0.007630 0.001524 0.005910 -0.001561 0.001234
# 3 -0.006763 0.001524 0.013188 0.007426 -0.001793 0.003146
# 4 -0.005656 0.005910 0.007426 0.030543 -0.002346 0.006640
# 5 0.007961 -0.001561 -0.001793 -0.002346 0.024873 0.003097
# 6 0.000540 0.001234 0.003146 0.006640 0.003097 0.021515
#
#
# Mechanical properties :
#
#
# Convention : Reuss Voigt Hill
#
# Bulk Modulus (GPa) = 57.10987 72.19189 64.65088
# Shear Modulus (GPa) = 36.30725 48.35465 42.33095
#
# Velocity S-wave (km/s) = 3.68312 4.25048 3.97693
# Velocity P-wave (km/s) = 6.27893 7.14574 6.72631
#
# Compressibility (1/GPa) = 0.01751011
#
# Stress axis : x y z
#
# Youngs Moduli (GPa) = 64.88825 131.06334 75.82887
#
# Poissons Ratio (x) = 0.54000 0.51283
# Poissons Ratio (y) = 0.26735 -0.11556
# Poissons Ratio (z) = 0.43884 -0.19973
#
# Static dielectric constant tensor:
#      x y z
#    x 2.181740 -0.006920 0.045930 
#    y -0.006920 2.088390 0.021530 
#    z 0.045930 0.021530 2.141060 
# 
# From -- ./inp_files/68050.got.cif
#   From: 2010.05.17/outbox.cif.g08.bks.cpg/sg2_35_cif.got.tgz:68050.got - 2010.06.03 11:33:40.
