data_PCOD9043110
_publ_section_title
;
Structure prediction by ZEFSAII (Michael W. Deem and Ramdas Pophale) SiO2 
 PCOD9043110
Probable space group: P -1
;
_chemical_formula_sum "Si O2"
_cell_formula_units_Z 16
_cell_length_a 9.759265
_cell_length_b 6.669004
_cell_length_c 16.303089
_cell_angle_alpha 85.268278
_cell_angle_beta 84.301239
_cell_angle_gamma 44.321758
_cell_volume 737.598513
_symmetry_space_group_name_H-M "P -1"
_symmetry_group_IT_number 2
_symmetry_cell_setting 'triclinic'
loop_
_space_group_symop_operation_xyz
x,y,z
-x,-y,-z
loop_
_atom_site_type_symbol
_atom_site_label
_atom_site_fract_x
_atom_site_fract_y
_atom_site_fract_z
Si Si1 0.650244 0.341167 0.421179
Si Si2 0.840925 0.649761 0.147322
Si Si3 0.716810 0.694842 0.330508
Si Si4 0.573053 0.200319 0.032422
Si Si5 0.015557 0.321104 0.576473
Si Si6 0.935722 0.926933 0.929078
Si Si7 0.218315 0.521823 0.154009
Si Si8 0.610972 0.658090 0.669485
O O1 0.500000 0.500000 0.500000
O O2 0.727974 0.475211 0.384396
O O3 0.532783 0.369298 0.349892
O O4 0.831856 0.010717 0.444213
O O5 0.737608 0.665060 0.232645
O O6 0.894978 0.406807 0.093002
O O7 0.046953 0.537301 0.162538
O O8 0.710915 0.963677 0.104847
O O9 0.887491 0.663803 0.353117
O O10 0.509793 0.013598 0.353467
O O11 0.364587 0.334494 0.074039
O O12 0.500000 0.500000 0.000000
O O13 0.737496 0.007022 0.957664
O O14 0.000000 0.500000 0.500000
O O15 0.807675 0.450456 0.611521
O O16 0.880033 0.153747 0.858276
O O17 0.000000 0.000000 0.000000
O O18 0.336182 0.398179 0.236165
#
# Coordination Sequence:
#
# PCOD9043110 Si02
#       8
#     2   2   2   2   2   2   2   2
#     4  11  26  45  69 105 141 180 231 283 341 413
#     4  12  24  44  71  98 138 181 227 290 351 406
#     4  11  25  43  69 102 139 179 232 285 347 408
#     4  10  23  45  68  98 133 180 228 284 344 409
#     4  11  24  44  72  98 138 183 225 283 340 414
#     4  11  25  43  69  96 137 177 229 286 343 411
#     4  11  24  44  67  98 135 178 230 285 344 409
#     4  11  24  44  69 100 141 179 227 285 343 410
#
# _framework density 21.692017
#
# number of rings (size 3 to 8) (size 9 to 14) (size 15 to 20)
#    0.000    1.000    3.750    1.875    1.750    7.500 
#    4.500    0.000    0.000    0.000    0.000    0.000 
#    0.000    0.000    0.000    0.000    0.000    0.000 
#
# Total GULP energy -89256.837081 kJ/mol
# GULP energy per Si atom -5578.552318 kJ/mol
# Density = 2.164264 g / cm^3
# Si number density = 21.692017 Si / 1000 Ang^3
#
#
#
# Elastic Constant Matrix: (Units=GPa)
#
#
# Indices 1 2 3 4 5 6 
#
# 1 57.9521 32.5730 4.0313 9.1490 -8.4514 -3.4830
# 2 32.5730 115.8591 33.1927 2.3391 -1.2675 -13.5972
# 3 4.0313 33.1927 57.8656 -2.2396 -6.5113 7.6021
# 4 9.1490 2.3391 -2.2396 40.4444 -9.5643 -6.6807
# 5 -8.4514 -1.2675 -6.5113 -9.5643 41.5583 0.6867
# 6 -3.4830 -13.5972 7.6021 -6.6807 0.6867 30.3443
#
#
#
# Elastic Compliance Matrix: (Units=1/GPa)
#
#
# Indices 1 2 3 4 5 6 
#
# 1 0.022204 -0.007363 0.003303 -0.003896 0.003953 -0.002526
# 2 -0.007363 0.014133 -0.008864 0.001130 -0.002327 0.008010
# 3 0.003303 -0.008864 0.023913 0.000559 0.004435 -0.009561
# 4 -0.003896 0.001130 0.000559 0.027888 0.005650 0.005931
# 5 0.003953 -0.002327 0.004435 0.005650 0.026808 -0.001063
# 6 -0.002526 0.008010 -0.009561 0.005931 -0.001063 0.039980
#
#
# Mechanical properties :
#
#
# Convention : Reuss Voigt Hill
#
# Bulk Modulus (GPa) = 29.06969 41.25230 35.16099
# Shear Modulus (GPa) = 26.00888 33.26137 29.63513
#
# Velocity S-wave (km/s) = 3.46642 3.92004 3.70019
# Velocity P-wave (km/s) = 5.42694 6.28868 5.87364
#
# Compressibility (1/GPa) = 0.03440010
#
# Stress axis : x y z
#
# Youngs Moduli (GPa) = 45.03600 70.75853 41.81885
#
# Poissons Ratio (x) = 0.52102 -0.13811
# Poissons Ratio (y) = 0.33161 0.37069
# Poissons Ratio (z) = -0.14874 0.62721
#
# Static dielectric constant tensor:
#      x y z
#    x 1.809870 0.006560 0.052410 
#    y 0.006560 1.785840 0.027790 
#    z 0.052410 0.027790 1.804020 
# 
# From -- ./inp_files/553432.got.cif
#   From: 2010.05.17/outbox.cif.g08.bks.cpg/sg2_277_cif.got.tgz:553432.got - 2010.06.03 11:33:40.
