data_PCOD9043741
_publ_section_title
;
Structure prediction by ZEFSAII (Michael W. Deem and Ramdas Pophale) SiO2 
 PCOD9043741
Probable space group: P -1
;
_chemical_formula_sum "Si O2"
_cell_formula_units_Z 16
_cell_length_a 9.703515
_cell_length_b 22.441938
_cell_length_c 16.105325
_cell_angle_alpha 156.894430
_cell_angle_beta 29.629790
_cell_angle_gamma 136.321354
_cell_volume 625.633322
_symmetry_space_group_name_H-M "P -1"
_symmetry_group_IT_number 2
_symmetry_cell_setting 'triclinic'
loop_
_space_group_symop_operation_xyz
x,y,z
-x,-y,-z
loop_
_atom_site_type_symbol
_atom_site_label
_atom_site_fract_x
_atom_site_fract_y
_atom_site_fract_z
Si Si1 0.913588 0.295485 0.738887
Si Si2 0.300714 0.887528 0.646616
Si Si3 0.780487 0.966374 0.396920
Si Si4 0.736895 0.142715 0.869210
Si Si5 0.118194 0.230632 0.371617
Si Si6 0.410181 0.330320 0.633597
Si Si7 0.211225 0.393084 0.377777
Si Si8 0.997934 0.261321 0.157072
O O1 0.122149 0.274431 0.520780
O O2 0.117337 0.306042 0.722536
O O3 0.813684 0.141804 0.598966
O O4 0.646766 0.476293 0.098158
O O5 0.152731 0.828359 0.572786
O O6 0.518480 0.968329 0.599349
O O7 0.562005 0.299657 0.102953
O O8 0.000000 0.000000 0.000000
O O9 0.091637 0.839309 0.115699
O O10 0.782483 0.882415 0.199815
O O11 0.503215 0.737678 0.406851
O O12 0.000000 0.000000 0.500000
O O13 0.448646 0.105530 0.005236
O O14 0.048875 0.376261 0.526614
O O15 0.702274 0.229182 0.295398
O O16 0.109434 0.575758 0.633613
O O17 0.124238 0.301237 0.229050
#
# Coordination Sequence:
#
# PCOD9043741 Si02
#       8
#     2   2   2   2   2   2   2   2
#     4  11  29  50  78 120 154 210 260 328 390 466
#     4  12  29  51  77 117 158 207 257 322 402 462
#     4  12  30  48  81 119 159 198 270 324 388 467
#     4  10  23  45  74 110 153 211 252 318 392 454
#     4  10  24  49  76 110 161 201 264 315 387 469
#     4  11  27  52  82 107 164 206 261 318 399 469
#     4   9  24  46  81 110 159 209 254 325 390 465
#     4  11  24  50  80 119 154 207 264 325 392 460
#
# _framework density 25.574086000000001
#
# number of rings (size 3 to 8) (size 9 to 14) (size 15 to 20)
#    0.750    0.500    1.250    1.500    8.750    5.500 
#    0.000    0.000    0.000    0.000    0.000    0.000 
#    0.000    0.000    0.000    0.000    0.000    0.000 
#
# Total GULP energy -89593.847520 kJ/mol
# GULP energy per Si atom -5599.615470 kJ/mol
# Density = 2.551588 g / cm^3
# Si number density = 25.574086 Si / 1000 Ang^3
#
#
#
# Elastic Constant Matrix: (Units=GPa)
#
#
# Indices 1 2 3 4 5 6 
#
# 1 129.9783 43.8876 39.6020 6.7771 -18.5902 -6.7778
# 2 43.8876 164.9891 62.6802 -5.2947 -15.2581 2.6119
# 3 39.6020 62.6802 122.1366 -1.9698 -16.4866 -7.0361
# 4 6.7771 -5.2947 -1.9698 41.4138 -9.8097 -2.5783
# 5 -18.5902 -15.2581 -16.4866 -9.8097 43.0399 6.6468
# 6 -6.7778 2.6119 -7.0361 -2.5783 6.6468 31.5350
#
#
#
# Elastic Compliance Matrix: (Units=1/GPa)
#
#
# Indices 1 2 3 4 5 6 
#
# 1 0.009238 -0.001614 -0.001814 -0.001195 0.002275 0.001137
# 2 -0.001614 0.008024 -0.003495 0.001337 0.001419 -0.001981
# 3 -0.001814 -0.003495 0.010984 0.000995 0.002105 0.001988
# 4 -0.001195 0.001337 0.000995 0.026065 0.006174 0.000684
# 5 0.002275 0.001419 0.002105 0.006174 0.027625 -0.004477
# 6 0.001137 -0.001981 0.001988 0.000684 -0.004477 0.033562
#
#
# Mechanical properties :
#
#
# Convention : Reuss Voigt Hill
#
# Bulk Modulus (GPa) = 69.44670 78.82706 74.13688
# Shear Modulus (GPa) = 37.27304 41.26003 39.26653
#
# Velocity S-wave (km/s) = 3.82180 4.02101 3.92267
# Velocity P-wave (km/s) = 6.83293 7.24210 7.04049
#
# Compressibility (1/GPa) = 0.01439953
#
# Stress axis : x y z
#
# Youngs Moduli (GPa) = 108.24532 124.62870 91.04052
#
# Poissons Ratio (x) = 0.20119 0.16511
# Poissons Ratio (y) = 0.17475 0.31823
# Poissons Ratio (z) = 0.19631 0.43563
#
# Static dielectric constant tensor:
#      x y z
#    x 2.045910 0.001050 -0.007250 
#    y 0.001050 2.008840 0.011420 
#    z -0.007250 0.011420 2.026060 
# 
# From -- ./inp_files/571047.got.cif
#   From: 2010.05.17/outbox.cif.g08.bks.cpg/sg2_286_cif.got.tgz:571047.got - 2010.06.03 11:33:40.
