data_PCOD9043864
_publ_section_title
;
Structure prediction by ZEFSAII (Michael W. Deem and Ramdas Pophale) SiO2 
 PCOD9043864
Probable space group: P -1
;
_chemical_formula_sum "Si O2"
_cell_formula_units_Z 14
_cell_length_a 18.570474
_cell_length_b 24.407344
_cell_length_c 9.500719
_cell_angle_alpha 144.764266
_cell_angle_beta 26.597405
_cell_angle_gamma 161.190785
_cell_volume 608.375753
_symmetry_space_group_name_H-M "P -1"
_symmetry_group_IT_number 2
_symmetry_cell_setting 'triclinic'
loop_
_space_group_symop_operation_xyz
x,y,z
-x,-y,-z
loop_
_atom_site_type_symbol
_atom_site_label
_atom_site_fract_x
_atom_site_fract_y
_atom_site_fract_z
Si Si1 0.993735 0.078421 0.561528
Si Si2 0.331165 0.900829 0.731849
Si Si3 0.424138 0.235551 0.538008
Si Si4 0.396625 0.042974 0.352683
Si Si5 0.693053 0.687792 0.849255
Si Si6 0.596379 0.429506 0.373339
Si Si7 0.164405 0.482691 0.156144
O O1 0.296153 0.280314 0.492660
O O2 0.896197 0.965659 0.364677
O O3 0.746494 0.036044 0.929987
O O4 0.000000 0.000000 0.500000
O O5 0.509416 0.926033 0.585219
O O6 0.029421 0.694615 0.803484
O O7 0.500000 0.000000 0.500000
O O8 0.540216 0.206084 0.368957
O O9 0.580773 0.341894 0.340038
O O10 0.396433 0.314091 0.847761
O O11 0.042488 0.872991 0.610723
O O12 0.500000 0.000000 0.000000
O O13 0.635341 0.548531 0.631641
O O14 0.484002 0.638277 0.997893
O O15 0.824088 0.530879 0.060197
O O16 0.000000 0.500000 0.500000
#
# Coordination Sequence:
#
# PCOD9043864 Si02
#       7
#     2   2   2   2   2   2   2
#     4  10  23  45  79 107 147 199 256 294 383 450
#     4  12  28  48  77 109 151 198 258 311 374 462
#     4  11  25  46  74 112 150 202 248 311 380 453
#     4  12  26  47  74 113 156 200 251 314 383 450
#     4  12  26  48  77 115 157 197 257 323 380 439
#     4  11  25  48  80 107 153 199 254 311 379 452
#     4  12  28  49  77 113 153 205 257 311 381 454
#
# _framework density 23.012094000000001
#
# number of rings (size 3 to 8) (size 9 to 14) (size 15 to 20)
#    0.000    0.571    2.857    3.857    8.000    1.143 
#    0.000    5.000    0.000    0.000    0.000    0.000 
#    0.000    0.000    0.000    0.000    0.000    0.000 
#
# Total GULP energy -78186.087435 kJ/mol
# GULP energy per Si atom -5584.720531 kJ/mol
# Density = 2.295972 g / cm^3
# Si number density = 23.012094 Si / 1000 Ang^3
#
#
#
# Elastic Constant Matrix: (Units=GPa)
#
#
# Indices 1 2 3 4 5 6 
#
# 1 154.6181 25.2656 50.9835 -11.1357 7.6012 -5.5214
# 2 25.2656 62.5567 42.5005 12.2531 9.3937 5.0531
# 3 50.9835 42.5005 102.2471 11.3457 10.3159 -12.4003
# 4 -11.1357 12.2531 11.3457 46.6466 3.7432 -0.8217
# 5 7.6012 9.3937 10.3159 3.7432 50.7782 -2.1290
# 6 -5.5214 5.0531 -12.4003 -0.8217 -2.1290 45.9499
#
#
#
# Elastic Compliance Matrix: (Units=1/GPa)
#
#
# Indices 1 2 3 4 5 6 
#
# 1 0.008214 -0.001272 -0.003871 0.003274 -0.000444 0.000120
# 2 -0.001272 0.024673 -0.009585 -0.004365 -0.002341 -0.005639
# 3 -0.003871 -0.009585 0.016623 -0.002310 -0.000644 0.005004
# 4 0.003274 -0.004365 -0.002310 0.024016 -0.000957 0.000635
# 5 -0.000444 -0.002341 -0.000644 -0.000957 0.020435 0.000960
# 6 0.000120 -0.005639 0.005004 0.000635 0.000960 0.023804
#
#
# Mechanical properties :
#
#
# Convention : Reuss Voigt Hill
#
# Bulk Modulus (GPa) = 49.86495 61.88011 55.87253
# Shear Modulus (GPa) = 32.48786 42.05308 37.27047
#
# Velocity S-wave (km/s) = 3.76143 4.27949 4.02880
# Velocity P-wave (km/s) = 6.37029 7.16710 6.78041
#
# Compressibility (1/GPa) = 0.02005417
#
# Stress axis : x y z
#
# Youngs Moduli (GPa) = 121.74810 40.52983 60.15909
#
# Poissons Ratio (x) = 0.05155 0.23287
# Poissons Ratio (y) = 0.15485 0.57662
# Poissons Ratio (z) = 0.47127 0.38848
#
# Static dielectric constant tensor:
#      x y z
#    x 1.846820 0.148410 0.001190 
#    y 0.148410 1.770340 -0.015940 
#    z 0.001190 -0.015940 1.859710 
# 
# From -- ./inp_files/338683.got.cif
#   From: 2010.05.17/outbox.cif.g08.bks.cpg/sg2_170_cif.got.tgz:338683.got - 2010.06.03 11:33:40.
