data_PCOD9043757
_publ_section_title
;
Structure prediction by ZEFSAII (Michael W. Deem and Ramdas Pophale) SiO2 
 PCOD9043757
Probable space group: P -1
;
_chemical_formula_sum "Si O2"
_cell_formula_units_Z 14
_cell_length_a 4.857317
_cell_length_b 18.731421
_cell_length_c 7.015298
_cell_angle_alpha 124.573749
_cell_angle_beta 86.481160
_cell_angle_gamma 90.718536
_cell_volume 524.376174
_symmetry_space_group_name_H-M "P -1"
_symmetry_group_IT_number 2
_symmetry_cell_setting 'triclinic'
loop_
_space_group_symop_operation_xyz
x,y,z
-x,-y,-z
loop_
_atom_site_type_symbol
_atom_site_label
_atom_site_fract_x
_atom_site_fract_y
_atom_site_fract_z
Si Si1 0.000000 0.000000 0.000000
Si Si2 0.422458 0.379688 0.133339
Si Si3 0.500000 0.000000 0.000000
Si Si4 0.860499 0.918040 0.484000
Si Si5 0.546895 0.182629 0.215316
Si Si6 0.788233 0.448792 0.565728
Si Si7 0.623459 0.206993 0.687824
Si Si8 0.024098 0.281950 0.243864
O O1 0.256420 0.026459 0.889539
O O2 0.789207 0.948922 0.756318
O O3 0.566527 0.407784 0.368833
O O4 0.346187 0.473370 0.186624
O O5 0.152566 0.328061 0.127324
O O6 0.592889 0.305946 0.906305
O O7 0.305335 0.912903 0.910783
O O8 0.591825 0.867241 0.345596
O O9 0.083689 0.840395 0.371176
O O10 0.000000 0.000000 0.500000
O O11 0.568877 0.215339 0.477785
O O12 0.244965 0.213486 0.212279
O O13 0.751388 0.230267 0.139541
O O14 0.000000 0.500000 0.500000
O O15 0.945805 0.363463 0.510199
#
# Coordination Sequence:
#
# PCOD9043757 Si02
#       8
#     1   2   1   2   2   2   2   2
#     4  12  22  48  70  96 140 192 240 296 364 412
#     4  10  23  45  75 101 145 181 231 305 360 425
#     4  12  24  42  68  90 136 200 228 288 366 406
#     4  12  27  48  72 104 145 193 252 300 364 429
#     4  12  24  44  67  97 145 180 238 293 356 418
#     4   9  20  44  74 105 137 181 236 289 369 432
#     4  12  27  48  64 108 144 184 235 304 366 414
#     4  11  23  43  71 106 129 186 246 280 342 453
#
# _framework density 26.698391000000001
#
# number of rings (size 3 to 8) (size 9 to 14) (size 15 to 20)
#    0.000    0.857    4.286    2.143    4.000    3.429 
#    0.000    1.429    0.000    0.000    0.000    0.000 
#    0.000    0.000    0.000    0.000    0.000    0.000 
#
# Total GULP energy -77964.206588 kJ/mol
# GULP energy per Si atom -5568.871899 kJ/mol
# Density = 2.663762 g / cm^3
# Si number density = 26.698391 Si / 1000 Ang^3
#
#
#
# Elastic Constant Matrix: (Units=GPa)
#
#
# Indices 1 2 3 4 5 6 
#
# 1 161.4273 8.7413 25.3440 13.8869 4.2473 2.2894
# 2 8.7413 69.2078 51.9602 37.5489 -17.7530 -9.7338
# 3 25.3440 51.9602 194.4122 56.6030 -35.7733 -22.4338
# 4 13.8869 37.5489 56.6030 55.5369 -13.6497 -14.1486
# 5 4.2473 -17.7530 -35.7733 -13.6497 42.3893 19.7489
# 6 2.2894 -9.7338 -22.4338 -14.1486 19.7489 39.5599
#
#
#
# Elastic Compliance Matrix: (Units=1/GPa)
#
#
# Indices 1 2 3 4 5 6 
#
# 1 0.006480 0.000058 -0.000805 -0.001345 -0.001476 -0.000562
# 2 0.000058 0.024423 -0.001732 -0.014115 0.005508 -0.002774
# 3 -0.000805 -0.001732 0.008258 -0.005967 0.004420 -0.000037
# 4 -0.001345 -0.014115 -0.005967 0.035098 -0.002867 0.007205
# 5 -0.001476 0.005508 0.004420 -0.002867 0.035823 -0.014962
# 6 -0.000562 -0.002774 -0.000037 0.007205 -0.014962 0.034653
#
#
# Mechanical properties :
#
#
# Convention : Reuss Voigt Hill
#
# Bulk Modulus (GPa) = 29.23700 66.34871 47.79286
# Shear Modulus (GPa) = 31.03752 50.09734 40.56743
#
# Velocity S-wave (km/s) = 3.41328 4.33646 3.90227
# Velocity P-wave (km/s) = 5.14865 7.06954 6.18413
#
# Compressibility (1/GPa) = 0.03420323
#
# Stress axis : x y z
#
# Youngs Moduli (GPa) = 154.30924 40.94473 121.09429
#
# Poissons Ratio (x) = -0.00238 0.09750
# Poissons Ratio (y) = -0.00896 0.20975
# Poissons Ratio (z) = 0.12424 0.07092
#
# Static dielectric constant tensor:
#      x y z
#    x 2.708650 0.555040 -0.434150 
#    y 0.555040 1.753060 -0.122640 
#    z -0.434150 -0.122640 2.667290 
# 
# From -- ./inp_files/140910.got.cif
#   From: 2010.05.17/outbox.cif.g08.bks.cpg/sg2_71_cif.got.tgz:140910.got - 2010.06.03 11:33:40.
