data_PCOD9043286
_publ_section_title
;
Structure prediction by ZEFSAII (Michael W. Deem and Ramdas Pophale) SiO2 
 PCOD9043286
Probable space group: P -1
;
_chemical_formula_sum "Si O2"
_cell_formula_units_Z 12
_cell_length_a 14.247371
_cell_length_b 6.845445
_cell_length_c 24.382535
_cell_angle_alpha 139.702479
_cell_angle_beta 22.960955
_cell_angle_gamma 145.327284
_cell_volume 527.583977
_symmetry_space_group_name_H-M "P -1"
_symmetry_group_IT_number 2
_symmetry_cell_setting 'triclinic'
loop_
_space_group_symop_operation_xyz
x,y,z
-x,-y,-z
loop_
_atom_site_type_symbol
_atom_site_label
_atom_site_fract_x
_atom_site_fract_y
_atom_site_fract_z
Si Si1 0.391327 0.706326 0.182367
Si Si2 0.297185 0.273962 0.472675
Si Si3 0.604180 0.906507 0.232908
Si Si4 0.024119 0.880651 0.073926
Si Si5 0.197888 0.826765 0.654340
Si Si6 0.756050 0.684040 0.617192
O O1 0.491639 0.743705 0.199262
O O2 0.097979 0.370294 0.259803
O O3 0.344408 0.031429 0.263451
O O4 0.665917 0.809060 0.021656
O O5 0.226960 0.512945 0.600322
O O6 0.253209 0.371940 0.455083
O O7 0.574008 0.252830 0.325388
O O8 0.062655 0.881276 0.516975
O O9 0.417212 0.644117 0.324112
O O10 0.895968 0.952414 0.103683
O O11 0.850873 0.917433 0.225279
O O12 0.000000 0.500000 0.000000
O O13 0.500000 0.000000 0.500000
#
# Coordination Sequence:
#
# PCOD9043286 Si02
#       6
#     2   2   2   2   2   2
#     4  10  23  45  70 101 138 181 230 279 345 409
#     4   9  20  36  63  99 136 175 223 282 341 393
#     4  11  21  38  73  99 135 177 235 274 341 413
#     4  12  25  45  72  98 142 187 223 281 354 409
#     4  11  25  45  72 101 140 181 228 290 341 401
#     4   9  17  36  65 100 135 173 221 282 340 400
#
# _framework density 22.745191999999999
#
# number of rings (size 3 to 8) (size 9 to 14) (size 15 to 20)
#    0.000    1.667    1.667    3.500    2.333    2.000 
#    0.000    2.500    0.000    0.000    0.000    0.000 
#    0.000    0.000    0.000    0.000    0.000    0.000 
#
# Total GULP energy -66812.133206 kJ/mol
# GULP energy per Si atom -5567.677767 kJ/mol
# Density = 2.269342 g / cm^3
# Si number density = 22.745192 Si / 1000 Ang^3
#
#
#
# Elastic Constant Matrix: (Units=GPa)
#
#
# Indices 1 2 3 4 5 6 
#
# 1 101.6116 40.7608 55.3961 10.2421 -28.7976 4.4376
# 2 40.7608 80.4562 52.1677 6.6311 -9.9401 14.0677
# 3 55.3961 52.1677 163.6583 -8.8126 -9.8889 13.9870
# 4 10.2421 6.6311 -8.8126 52.1532 -0.5673 -4.2275
# 5 -28.7976 -9.9401 -9.8889 -0.5673 40.8422 -3.7361
# 6 4.4376 14.0677 13.9870 -4.2275 -3.7361 34.2185
#
#
#
# Elastic Compliance Matrix: (Units=1/GPa)
#
#
# Indices 1 2 3 4 5 6 
#
# 1 0.017025 -0.004965 -0.003926 -0.003093 0.009999 0.002148
# 2 -0.004965 0.018659 -0.003939 -0.002537 -0.000477 -0.005783
# 3 -0.003926 -0.003939 0.008851 0.002640 -0.001670 -0.001346
# 4 -0.003093 -0.002537 0.002640 0.020756 -0.001619 0.002752
# 5 0.009999 -0.000477 -0.001670 -0.001619 0.031247 0.002794
# 6 0.002148 -0.005783 -0.001346 0.002752 0.002794 0.032518
#
#
# Mechanical properties :
#
#
# Convention : Reuss Voigt Hill
#
# Bulk Modulus (GPa) = 52.97601 71.37502 62.17551
# Shear Modulus (GPa) = 31.05439 38.60287 34.82863
#
# Velocity S-wave (km/s) = 3.69903 4.12416 3.91737
# Velocity P-wave (km/s) = 6.44867 7.35708 6.91781
#
# Compressibility (1/GPa) = 0.01887647
#
# Stress axis : x y z
#
# Youngs Moduli (GPa) = 58.73657 53.59212 112.98264
#
# Poissons Ratio (x) = 0.26608 0.44358
# Poissons Ratio (y) = 0.29162 0.44499
# Poissons Ratio (z) = 0.23060 0.21107
#
# Static dielectric constant tensor:
#      x y z
#    x 1.915280 0.057090 -0.012860 
#    y 0.057090 1.946720 0.006000 
#    z -0.012860 0.006000 2.022960 
# 
# From -- ./inp_files/559988.got.cif
#   From: 2010.05.17/outbox.cif.g08.bks.cpg/sg2_280_cif.got.tgz:559988.got - 2010.06.03 11:33:40.
