data_PCOD9043336
_publ_section_title
;
Structure prediction by ZEFSAII (Michael W. Deem and Ramdas Pophale) SiO2 
 PCOD9043336
Probable space group: P -1
;
_chemical_formula_sum "Si O2"
_cell_formula_units_Z 14
_cell_length_a 10.991627
_cell_length_b 22.240875
_cell_length_c 11.493225
_cell_angle_alpha 39.625831
_cell_angle_beta 142.259113
_cell_angle_gamma 157.504277
_cell_volume 648.531123
_symmetry_space_group_name_H-M "P -1"
_symmetry_group_IT_number 2
_symmetry_cell_setting 'triclinic'
loop_
_space_group_symop_operation_xyz
x,y,z
-x,-y,-z
loop_
_atom_site_type_symbol
_atom_site_label
_atom_site_fract_x
_atom_site_fract_y
_atom_site_fract_z
Si Si1 0.318563 0.341991 0.196717
Si Si2 0.750614 0.674669 0.085780
Si Si3 0.310423 0.077926 0.276151
Si Si4 0.759377 0.024678 0.861913
Si Si5 0.162895 0.567407 0.896013
Si Si6 0.894709 0.907631 0.441355
Si Si7 0.722136 0.253901 0.920984
O O1 0.650743 0.529680 0.196019
O O2 0.252399 0.246050 0.393529
O O3 0.310890 0.296045 0.128974
O O4 0.008805 0.296548 0.025475
O O5 0.465580 0.606835 0.056927
O O6 0.106487 0.833369 0.177406
O O7 0.268783 0.982220 0.288100
O O8 0.668596 0.268369 0.254527
O O9 0.182692 0.002823 0.419853
O O10 0.044444 0.056498 0.064166
O O11 0.417846 0.850158 0.913817
O O12 0.879993 0.416540 0.822522
O O13 0.000000 0.500000 0.000000
O O14 0.599072 0.856249 0.238070
O O15 0.000000 0.000000 0.500000
#
# Coordination Sequence:
#
# PCOD9043336 Si02
#       7
#     2   2   2   2   2   2   2
#     4  10  21  42  58  87 124 153 196 246 292 354
#     4   9  20  35  59  82 121 159 191 248 297 341
#     4   9  18  32  55  86 122 149 193 251 286 346
#     4   9  16  32  56  87 112 154 200 235 295 345
#     4  10  17  33  60  89 115 152 202 243 287 351
#     4  11  23  39  60  89 122 155 195 244 296 352
#     4  10  21  36  65  89 113 162 198 236 298 351
#
# _framework density 21.587244999999999
#
# number of rings (size 3 to 8) (size 9 to 14) (size 15 to 20)
#    0.000    2.286    1.429    2.571    2.000    2.286 
#    0.000   14.286    0.000    0.000    0.000    0.000 
#    0.000    0.000    0.000    0.000    0.000    0.000 
#
# Total GULP energy -78082.486867 kJ/mol
# GULP energy per Si atom -5577.320491 kJ/mol
# Density = 2.153811 g / cm^3
# Si number density = 21.587245 Si / 1000 Ang^3
#
#
#
# Elastic Constant Matrix: (Units=GPa)
#
#
# Indices 1 2 3 4 5 6 
#
# 1 95.6066 31.4547 25.8472 -8.7653 -35.5260 1.5704
# 2 31.4547 107.4181 9.5987 -16.9158 -16.5165 -9.0945
# 3 25.8472 9.5987 62.7433 -12.9414 -21.3412 3.9497
# 4 -8.7653 -16.9158 -12.9414 29.7007 11.3028 -8.9044
# 5 -35.5260 -16.5165 -21.3412 11.3028 27.8724 -4.1518
# 6 1.5704 -9.0945 3.9497 -8.9044 -4.1518 34.3024
#
#
#
# Elastic Compliance Matrix: (Units=1/GPa)
#
#
# Indices 1 2 3 4 5 6 
#
# 1 0.021128 -0.002862 -0.000118 -0.005904 0.027550 0.000089
# 2 -0.002862 0.011978 0.001286 0.007265 0.002281 0.005320
# 3 -0.000118 0.001286 0.022039 0.004571 0.015767 0.000904
# 4 -0.005904 0.007265 0.004571 0.048354 -0.017526 0.012101
# 5 0.027550 0.002281 0.015767 -0.017526 0.092139 0.004131
# 6 0.000089 0.005320 0.000904 0.012101 0.004131 0.034096
#
#
# Mechanical properties :
#
#
# Convention : Reuss Voigt Hill
#
# Bulk Modulus (GPa) = 19.32181 44.39657 31.85919
# Shear Modulus (GPa) = 19.97012 31.63292 25.80152
#
# Velocity S-wave (km/s) = 3.04483 3.83215 3.46095
# Velocity P-wave (km/s) = 4.61858 6.33965 5.54628
#
# Compressibility (1/GPa) = 0.05175499
#
# Stress axis : x y z
#
# Youngs Moduli (GPa) = 47.33137 83.48799 45.37461
#
# Poissons Ratio (x) = 0.23896 0.00537
# Poissons Ratio (y) = 0.13547 -0.05835
# Poissons Ratio (z) = 0.00560 -0.10736
#
# Static dielectric constant tensor:
#      x y z
#    x 1.855010 -0.028620 0.002060 
#    y -0.028620 1.847230 -0.038110 
#    z 0.002060 -0.038110 1.804390 
# 
# From -- ./inp_files/196967.got.cif
#   From: 2010.05.17/outbox.cif.g08.bks.cpg/sg2_99_cif.got.tgz:196967.got - 2010.06.03 11:33:40.
