data_PCOD9043880
_publ_section_title
;
Structure prediction by ZEFSAII (Michael W. Deem and Ramdas Pophale) SiO2 
 PCOD9043880
Probable space group: P -1
;
_chemical_formula_sum "Si O2"
_cell_formula_units_Z 16
_cell_length_a 11.887473
_cell_length_b 11.488834
_cell_length_c 6.669268
_cell_angle_alpha 125.441593
_cell_angle_beta 84.916581
_cell_angle_gamma 87.395878
_cell_volume 733.872573
_symmetry_space_group_name_H-M "P -1"
_symmetry_group_IT_number 2
_symmetry_cell_setting 'triclinic'
loop_
_space_group_symop_operation_xyz
x,y,z
-x,-y,-z
loop_
_atom_site_type_symbol
_atom_site_label
_atom_site_fract_x
_atom_site_fract_y
_atom_site_fract_z
Si Si1 0.363624 0.651114 0.843423
Si Si2 0.946937 0.084973 0.400635
Si Si3 0.938192 0.582997 0.783809
Si Si4 0.141458 0.629091 0.098560
Si Si5 0.486572 0.643168 0.435483
Si Si6 0.851825 0.874955 0.891446
Si Si7 0.490436 0.842613 0.255317
Si Si8 0.397642 0.130511 0.113448
O O1 0.374056 0.657494 0.607061
O O2 0.463322 0.522771 0.755648
O O3 0.250914 0.608982 0.919712
O O4 0.391450 0.803015 0.080844
O O5 0.867453 0.220732 0.633523
O O6 0.051733 0.131346 0.300621
O O7 0.000000 0.000000 0.500000
O O8 0.880400 0.989766 0.167520
O O9 0.867260 0.488290 0.843857
O O10 0.863965 0.720752 0.842229
O O11 0.000000 0.500000 0.500000
O O12 0.034393 0.630277 0.966263
O O13 0.476875 0.729419 0.318358
O O14 0.574477 0.731165 0.630342
O O15 0.725774 0.911239 0.861242
O O16 0.500000 0.000000 0.500000
O O17 0.599062 0.823324 0.073539
O O18 0.500000 0.000000 0.000000
#
# Coordination Sequence:
#
# PCOD9043880 Si02
#       8
#     2   2   2   2   2   2   2   2
#     4  10  25  42  67 100 134 179 224 290 341 413
#     4  11  24  46  67 105 139 183 232 283 350 412
#     4  11  24  45  67 103 139 175 236 281 349 415
#     4  11  25  43  71 101 136 181 231 285 349 412
#     4  10  23  46  64  95 141 175 232 281 347 406
#     4  11  26  45  72 100 141 184 229 293 345 415
#     4  11  23  43  67  96 132 177 231 276 346 410
#     4  11  25  43  68 103 134 182 233 283 348 409
#
# _framework density 21.802147999999999
#
# number of rings (size 3 to 8) (size 9 to 14) (size 15 to 20)
#    0.000    1.250    3.750    0.375    5.250    4.000 
#    0.000    0.000    0.000    0.000    0.000    0.000 
#    0.000    0.000    0.000    0.000    0.000    0.000 
#
# Total GULP energy -89373.076058 kJ/mol
# GULP energy per Si atom -5585.817254 kJ/mol
# Density = 2.175253 g / cm^3
# Si number density = 21.802148 Si / 1000 Ang^3
#
#
#
# Elastic Constant Matrix: (Units=GPa)
#
#
# Indices 1 2 3 4 5 6 
#
# 1 82.1972 28.7182 26.3920 5.0344 -23.8752 8.6505
# 2 28.7182 130.5175 38.3624 -10.6323 -13.3345 -3.5365
# 3 26.3920 38.3624 114.4960 -9.5961 -13.7400 1.5940
# 4 5.0344 -10.6323 -9.5961 39.0390 8.9359 -2.6212
# 5 -23.8752 -13.3345 -13.7400 8.9359 24.2341 -5.9062
# 6 8.6505 -3.5365 1.5940 -2.6212 -5.9062 23.1778
#
#
#
# Elastic Compliance Matrix: (Units=1/GPa)
#
#
# Indices 1 2 3 4 5 6 
#
# 1 0.020444 -0.002669 -0.002123 -0.008658 0.019725 -0.003844
# 2 -0.002669 0.009286 -0.002211 0.002276 0.001146 0.003114
# 3 -0.002123 -0.002211 0.010349 0.001786 0.002012 0.000458
# 4 -0.008658 0.002276 0.001786 0.031952 -0.017405 0.002634
# 5 0.019725 0.001146 0.002012 -0.017405 0.071032 0.008807
# 6 -0.003844 0.003114 0.000458 0.002634 0.008807 0.047565
#
#
# Mechanical properties :
#
#
# Convention : Reuss Voigt Hill
#
# Bulk Modulus (GPa) = 38.35434 57.12843 47.74138
# Shear Modulus (GPa) = 23.43839 32.87273 28.15556
#
# Velocity S-wave (km/s) = 3.28235 3.88722 3.59752
# Velocity P-wave (km/s) = 5.65644 6.81229 6.26109
#
# Compressibility (1/GPa) = 0.02607267
#
# Stress axis : x y z
#
# Youngs Moduli (GPa) = 48.91375 107.69095 96.62767
#
# Poissons Ratio (x) = 0.28738 0.20519
# Poissons Ratio (y) = 0.13053 0.21366
# Poissons Ratio (z) = 0.10387 0.23812
#
# Static dielectric constant tensor:
#      x y z
#    x 1.811110 0.003820 0.017250 
#    y 0.003820 1.821070 -0.023460 
#    z 0.017250 -0.023460 1.812950 
# 
# From -- ./inp_files/72191.got.cif
#   From: 2010.05.17/outbox.cif.g08.bks.cpg/sg2_37_cif.got.tgz:72191.got - 2010.06.03 11:33:40.
