data_PCOD9043671
_publ_section_title
;
Structure prediction by ZEFSAII (Michael W. Deem and Ramdas Pophale) SiO2 
 PCOD9043671
Probable space group: P -1
;
_chemical_formula_sum "Si O2"
_cell_formula_units_Z 12
_cell_length_a 7.843587
_cell_length_b 14.674599
_cell_length_c 10.863088
_cell_angle_alpha 140.216374
_cell_angle_beta 42.053056
_cell_angle_gamma 144.511192
_cell_volume 440.924964
_symmetry_space_group_name_H-M "P -1"
_symmetry_group_IT_number 2
_symmetry_cell_setting 'triclinic'
loop_
_space_group_symop_operation_xyz
x,y,z
-x,-y,-z
loop_
_atom_site_type_symbol
_atom_site_label
_atom_site_fract_x
_atom_site_fract_y
_atom_site_fract_z
Si Si1 0.287998 0.496965 0.380316
Si Si2 0.798980 0.969009 0.885368
Si Si3 0.229876 0.587946 0.765712
Si Si4 0.367210 0.617702 0.010453
Si Si5 0.636966 0.009206 0.273977
Si Si6 0.773824 0.856197 0.374680
O O1 0.267124 0.489155 0.531680
O O2 0.305501 0.357904 0.148221
O O3 0.590231 0.675314 0.354126
O O4 0.000000 0.500000 0.500000
O O5 0.495055 0.790445 0.813325
O O6 0.688349 0.028183 0.119580
O O7 0.040241 0.927885 0.768545
O O8 0.998987 0.111622 0.824155
O O9 0.272109 0.556654 0.854628
O O10 0.866467 0.510831 0.893750
O O11 0.415824 0.800937 0.191664
O O12 0.470957 0.101731 0.495797
O O13 0.000000 0.000000 0.500000
#
# Coordination Sequence:
#
# PCOD9043671 Si02
#       6
#     2   2   2   2   2   2
#     4  12  29  45  67 104 142 175 222 285 346 394
#     4  10  23  45  73  97 136 179 234 270 333 406
#     4  10  23  45  73  96 136 183 229 270 335 409
#     4  10  25  47  72  98 133 184 229 271 337 407
#     4  10  25  46  73  99 132 183 232 274 328 407
#     4  12  27  45  68 103 140 177 225 282 341 395
#
# _framework density 27.215515
#
# number of rings (size 3 to 8) (size 9 to 14) (size 15 to 20)
#    0.000    1.333    1.667    1.000   16.333    5.333 
#    0.000    0.000    0.000    0.000    0.000    0.000 
#    0.000    0.000    0.000    0.000    0.000    0.000 
#
# Total GULP energy -67220.979097 kJ/mol
# GULP energy per Si atom -5601.748258 kJ/mol
# Density = 2.715357 g / cm^3
# Si number density = 27.215515 Si / 1000 Ang^3
#
#
#
# Elastic Constant Matrix: (Units=GPa)
#
#
# Indices 1 2 3 4 5 6 
#
# 1 83.1864 14.0476 25.8834 -3.4283 5.4600 -5.3412
# 2 14.0476 173.0921 49.8651 -26.1231 16.7727 -22.0501
# 3 25.8834 49.8651 149.4441 -41.4285 22.4435 -17.4570
# 4 -3.4283 -26.1231 -41.4285 49.3730 -4.1875 5.6731
# 5 5.4600 16.7727 22.4435 -4.1875 49.2353 -3.7009
# 6 -5.3412 -22.0501 -17.4570 5.6731 -3.7009 35.6856
#
#
#
# Elastic Compliance Matrix: (Units=1/GPa)
#
#
# Indices 1 2 3 4 5 6 
#
# 1 0.012831 -0.000469 -0.002340 -0.001422 -0.000266 0.000685
# 2 -0.000469 0.007012 -0.001019 0.002328 -0.001430 0.003246
# 3 -0.002340 -0.001019 0.010255 0.007336 -0.003254 0.002533
# 4 -0.001422 0.002328 0.007336 0.027371 -0.001630 0.000294
# 5 -0.000266 -0.001430 -0.003254 -0.001630 0.022175 0.000044
# 6 0.000685 0.003246 0.002533 0.000294 0.000044 0.031327
#
#
# Mechanical properties :
#
#
# Convention : Reuss Voigt Hill
#
# Bulk Modulus (GPa) = 44.55891 65.03499 54.79695
# Shear Modulus (GPa) = 39.64812 47.92056 43.78434
#
# Velocity S-wave (km/s) = 3.82097 4.20072 4.01534
# Velocity P-wave (km/s) = 5.98954 6.89030 6.45565
#
# Compressibility (1/GPa) = 0.02244220
#
# Stress axis : x y z
#
# Youngs Moduli (GPa) = 77.93430 142.60481 97.51240
#
# Poissons Ratio (x) = 0.06685 0.22820
# Poissons Ratio (y) = 0.03654 0.09939
# Poissons Ratio (z) = 0.18238 0.14536
#
# Static dielectric constant tensor:
#      x y z
#    x 2.387680 0.058240 -0.134520 
#    y 0.058240 2.170630 -0.074270 
#    z -0.134520 -0.074270 2.131340 
# 
# From -- ./inp_files/402276.got.cif
#   From: 2010.05.17/outbox.cif.g08.bks.cpg/sg2_202_cif.got.tgz:402276.got - 2010.06.03 11:33:40.
