data_PCOD9043667
_publ_section_title
;
Structure prediction by ZEFSAII (Michael W. Deem and Ramdas Pophale) SiO2 
 PCOD9043667
Probable space group: P -1
;
_chemical_formula_sum "Si O2"
_cell_formula_units_Z 15
_cell_length_a 14.007245
_cell_length_b 8.291840
_cell_length_c 19.347601
_cell_angle_alpha 52.886172
_cell_angle_beta 158.307654
_cell_angle_gamma 132.561128
_cell_volume 609.179173
_symmetry_space_group_name_H-M "P -1"
_symmetry_group_IT_number 2
_symmetry_cell_setting 'triclinic'
loop_
_space_group_symop_operation_xyz
x,y,z
-x,-y,-z
loop_
_atom_site_type_symbol
_atom_site_label
_atom_site_fract_x
_atom_site_fract_y
_atom_site_fract_z
Si Si1 0.201139 0.338688 0.554641
Si Si2 0.822106 0.055585 0.705253
Si Si3 0.945151 0.253138 0.007406
Si Si4 0.796775 0.820358 0.204657
Si Si5 0.426607 0.985708 0.819202
Si Si6 0.216455 0.258141 0.426511
Si Si7 0.171960 0.665019 0.238232
Si Si8 0.000000 0.500000 0.500000
O O1 0.376829 0.209528 0.740801
O O2 0.282194 0.358902 0.522216
O O3 0.192008 0.526379 0.550540
O O4 0.867164 0.180598 0.366982
O O5 0.922256 0.240120 0.783514
O O6 0.004960 0.138805 0.739437
O O7 0.500000 0.000000 0.500000
O O8 0.827311 0.823034 0.789042
O O9 0.660245 0.070122 0.894172
O O10 0.950521 0.255226 0.929016
O O11 0.000000 0.500000 0.000000
O O12 0.789703 0.598533 0.291948
O O13 0.980750 0.014673 0.330742
O O14 0.537189 0.872872 0.984380
O O15 0.092295 0.406470 0.261018
O O16 0.494314 0.256492 0.576415
#
# Coordination Sequence:
#
# PCOD9043667 Si02
#       8
#     2   2   2   2   2   2   2   1
#     4  11  24  46  69 100 133 186 231 284 347 404
#     4  11  23  41  67 101 140 174 222 290 338 398
#     4  11  24  42  69 106 139 185 232 274 345 420
#     4  11  24  46  67 104 135 180 229 283 346 414
#     4  10  23  45  73  93 141 184 230 279 339 424
#     4  11  23  42  72  97 138 181 231 277 347 415
#     4  11  22  41  69 102 135 184 225 283 342 403
#     4  12  28  42  68 100 136 176 232 292 342 400
#
# _framework density 24.623298999999999
#
# number of rings (size 3 to 8) (size 9 to 14) (size 15 to 20)
#    0.000    1.067    2.667    4.400    1.867    3.733 
#    0.000    6.667    0.000    0.000    0.000    0.000 
#    0.000    0.000    0.000    0.000    0.000    0.000 
#
# Total GULP energy -83566.666119 kJ/mol
# GULP energy per Si atom -5571.111075 kJ/mol
# Density = 2.456725 g / cm^3
# Si number density = 24.623299 Si / 1000 Ang^3
#
#
#
# Elastic Constant Matrix: (Units=GPa)
#
#
# Indices 1 2 3 4 5 6 
#
# 1 133.7498 7.2141 27.0786 -17.1256 -1.1559 -11.2100
# 2 7.2141 36.1876 24.1861 -22.8397 -2.8991 2.8851
# 3 27.0786 24.1861 132.7175 -44.5334 -4.6345 15.5626
# 4 -17.1256 -22.8397 -44.5334 47.6450 10.5312 -1.4031
# 5 -1.1559 -2.8991 -4.6345 10.5312 35.3062 -9.0077
# 6 -11.2100 2.8851 15.5626 -1.4031 -9.0077 26.7089
#
#
#
# Elastic Compliance Matrix: (Units=1/GPa)
#
#
# Indices 1 2 3 4 5 6 
#
# 1 0.008440 0.000023 -0.001864 0.001242 0.000941 0.005008
# 2 0.000023 0.040362 -0.000366 0.019710 -0.003724 -0.004358
# 3 -0.001864 -0.000366 0.012875 0.011862 -0.004249 -0.009055
# 4 0.001242 0.019710 0.011862 0.044474 -0.012722 -0.010473
# 5 0.000941 -0.003724 -0.004249 -0.012722 0.034958 0.014395
# 6 0.005008 -0.004358 -0.009055 -0.010473 0.014395 0.049594
#
#
# Mechanical properties :
#
#
# Convention : Reuss Voigt Hill
#
# Bulk Modulus (GPa) = 17.46268 46.62361 32.04314
# Shear Modulus (GPa) = 23.34223 38.21045 30.77634
#
# Velocity S-wave (km/s) = 3.08226 3.94356 3.53921
# Velocity P-wave (km/s) = 4.44684 6.30170 5.45371
#
# Compressibility (1/GPa) = 0.05726499
#
# Stress axis : x y z
#
# Youngs Moduli (GPa) = 118.48812 24.77551 77.66782
#
# Poissons Ratio (x) = -0.00058 0.14476
# Poissons Ratio (y) = -0.00276 0.02840
# Poissons Ratio (z) = 0.22084 0.00906
#
# Static dielectric constant tensor:
#      x y z
#    x 2.110740 -0.200590 -0.130820 
#    y -0.200590 2.251840 0.170630 
#    z -0.130820 0.170630 2.075530 
# 
# From -- ./inp_files/597325.got.cif
#   From: 2010.05.17/outbox.cif.g08.bks.cpg/sg2_299_cif.got.tgz:597325.got - 2010.06.03 11:33:40.
