data_PCOD9043513
_publ_section_title
;
Structure prediction by ZEFSAII (Michael W. Deem and Ramdas Pophale) SiO2 
 PCOD9043513
Probable space group: P -1
;
_chemical_formula_sum "Si O2"
_cell_formula_units_Z 14
_cell_length_a 11.261111
_cell_length_b 9.131760
_cell_length_c 9.671223
_cell_angle_alpha 48.306986
_cell_angle_beta 124.656636
_cell_angle_gamma 119.907219
_cell_volume 599.028638
_symmetry_space_group_name_H-M "P -1"
_symmetry_group_IT_number 2
_symmetry_cell_setting 'triclinic'
loop_
_space_group_symop_operation_xyz
x,y,z
-x,-y,-z
loop_
_atom_site_type_symbol
_atom_site_label
_atom_site_fract_x
_atom_site_fract_y
_atom_site_fract_z
Si Si1 0.772709 0.160492 0.896054
Si Si2 0.249477 0.735623 0.879898
Si Si3 0.915165 0.171510 0.703571
Si Si4 0.411195 0.265680 0.904410
Si Si5 0.140748 0.069390 0.449381
Si Si6 0.670128 0.562555 0.535059
Si Si7 0.799298 0.508100 0.255407
O O1 0.874614 0.109630 0.872364
O O2 0.721971 0.355981 0.682755
O O3 0.820963 0.226583 0.043322
O O4 0.644930 0.965179 0.949341
O O5 0.169514 0.558809 0.837785
O O6 0.253675 0.935165 0.666714
O O7 0.415274 0.700515 0.030487
O O8 0.811366 0.317130 0.478299
O O9 0.075046 0.311875 0.723091
O O10 0.901375 0.995141 0.694042
O O11 0.327436 0.310536 0.682211
O O12 0.352842 0.413649 0.880432
O O13 0.221480 0.297437 0.376108
O O14 0.000000 0.000000 0.500000
O O15 0.500000 0.500000 0.500000
#
# Coordination Sequence:
#
# PCOD9043513 Si02
#       7
#     2   2   2   2   2   2   2
#     4  12  25  42  72 106 140 181 239 292 348 433
#     4  11  24  43  70 107 136 182 242 288 348 428
#     4  10  24  45  70 104 138 187 240 285 358 428
#     4  12  23  46  71 103 147 185 231 302 353 415
#     4  11  25  48  75 102 145 194 232 296 362 420
#     4  12  24  45  75 105 144 190 236 290 364 419
#     4  10  23  45  71  98 142 187 236 293 351 420
#
# _framework density 23.371171
#
# number of rings (size 3 to 8) (size 9 to 14) (size 15 to 20)
#    0.000    0.857    4.286    2.571    4.000    2.286 
#    2.571    2.143    0.000    0.000    0.000    0.000 
#    0.000    0.000    0.000    0.000    0.000    0.000 
#
# Total GULP energy -78285.626644 kJ/mol
# GULP energy per Si atom -5591.830475 kJ/mol
# Density = 2.331798 g / cm^3
# Si number density = 23.371171 Si / 1000 Ang^3
#
#
#
# Elastic Constant Matrix: (Units=GPa)
#
#
# Indices 1 2 3 4 5 6 
#
# 1 107.7390 74.0457 35.2192 15.1734 -18.1143 -27.4231
# 2 74.0457 134.6361 46.4034 5.3336 -13.3610 -8.2897
# 3 35.2192 46.4034 96.6581 12.6076 -3.0109 -12.4899
# 4 15.1734 5.3336 12.6076 39.9098 -16.4908 -9.9919
# 5 -18.1143 -13.3610 -3.0109 -16.4908 45.0789 2.7697
# 6 -27.4231 -8.2897 -12.4899 -9.9919 2.7697 34.3312
#
#
#
# Elastic Compliance Matrix: (Units=1/GPa)
#
#
# Indices 1 2 3 4 5 6 
#
# 1 0.020319 -0.009656 -0.000806 -0.001305 0.003979 0.012905
# 2 -0.009656 0.013832 -0.004063 0.002232 0.001090 -0.005289
# 3 -0.000806 -0.004063 0.013300 -0.003644 -0.002116 0.002323
# 4 -0.001305 0.002232 -0.003644 0.032860 0.011496 0.006807
# 5 0.003979 0.001090 -0.002116 0.011496 0.027938 0.003764
# 6 0.012905 -0.005289 0.002323 0.006807 0.003764 0.040681
#
#
# Mechanical properties :
#
#
# Convention : Reuss Voigt Hill
#
# Bulk Modulus (GPa) = 54.34584 72.26329 63.30457
# Shear Modulus (GPa) = 27.15710 36.08832 31.62271
#
# Velocity S-wave (km/s) = 3.41250 3.93382 3.68239
# Velocity P-wave (km/s) = 6.23143 7.18472 6.72499
#
# Compressibility (1/GPa) = 0.01840067
#
# Stress axis : x y z
#
# Youngs Moduli (GPa) = 49.21575 72.29546 75.18930
#
# Poissons Ratio (x) = 0.69806 0.06063
# Poissons Ratio (y) = 0.47521 0.30549
# Poissons Ratio (z) = 0.03969 0.29373
#
# Static dielectric constant tensor:
#      x y z
#    x 1.852290 -0.113780 -0.017520 
#    y -0.113780 1.822570 -0.019690 
#    z -0.017520 -0.019690 1.891580 
# 
# From -- ./inp_files/242304.got.cif
#   From: 2010.05.17/outbox.cif.g08.bks.cpg/sg2_122_cif.got.tgz:242304.got - 2010.06.03 11:33:40.
