data_PCOD9043617
_publ_section_title
;
Structure prediction by ZEFSAII (Michael W. Deem and Ramdas Pophale) SiO2 
 PCOD9043617
Probable space group: P -1
;
_chemical_formula_sum "Si O2"
_cell_formula_units_Z 14
_cell_length_a 5.456726
_cell_length_b 24.991141
_cell_length_c 13.338363
_cell_angle_alpha 159.675202
_cell_angle_beta 61.692655
_cell_angle_gamma 111.037979
_cell_volume 533.960440
_symmetry_space_group_name_H-M "P -1"
_symmetry_group_IT_number 2
_symmetry_cell_setting 'triclinic'
loop_
_space_group_symop_operation_xyz
x,y,z
-x,-y,-z
loop_
_atom_site_type_symbol
_atom_site_label
_atom_site_fract_x
_atom_site_fract_y
_atom_site_fract_z
Si Si1 0.699755 0.524415 0.718797
Si Si2 0.802667 0.367547 0.220118
Si Si3 0.267383 0.096430 0.355827
Si Si4 0.827180 0.392158 0.898033
Si Si5 0.520734 0.163672 0.830922
Si Si6 0.217597 0.820534 0.657190
Si Si7 0.178224 0.106747 0.979535
O O1 0.814872 0.385851 0.370137
O O2 0.985944 0.565353 0.771633
O O3 0.461630 0.508596 0.815329
O O4 0.565553 0.694847 0.985048
O O5 0.500000 0.500000 0.500000
O O6 0.808805 0.191496 0.873159
O O7 0.748823 0.285805 0.635750
O O8 0.472881 0.150251 0.326236
O O9 0.032348 0.267821 0.717581
O O10 0.055834 0.985672 0.176388
O O11 0.000000 0.500000 0.000000
O O12 0.307907 0.185569 0.004512
O O13 0.500000 0.000000 0.500000
O O14 0.476871 0.991341 0.770194
O O15 0.025877 0.764289 0.678850
O O16 0.000000 0.000000 0.000000
#
# Coordination Sequence:
#
# PCOD9043617 Si02
#       7
#     2   2   2   2   2   2   2
#     4  10  24  49  73 103 151 196 245 308 372 446
#     4   9  22  49  71  98 147 196 240 301 375 435
#     4  11  23  49  69 109 151 192 241 309 370 434
#     4  12  27  46  74 113 145 199 249 308 366 448
#     4  11  25  43  72 114 137 192 243 314 371 444
#     4  10  23  45  73 102 150 196 241 304 374 431
#     4  11  25  43  79 107 148 195 246 304 377 447
#
# _framework density 26.219169000000001
#
# number of rings (size 3 to 8) (size 9 to 14) (size 15 to 20)
#    0.000    1.429    2.857    1.286    6.000    4.571 
#    7.714    0.000    0.000    0.000    0.000    0.000 
#    0.000    0.000    0.000    0.000    0.000    0.000 
#
# Total GULP energy -78088.360181 kJ/mol
# GULP energy per Si atom -5577.740013 kJ/mol
# Density = 2.615949 g / cm^3
# Si number density = 26.219169 Si / 1000 Ang^3
#
#
#
# Elastic Constant Matrix: (Units=GPa)
#
#
# Indices 1 2 3 4 5 6 
#
# 1 135.4539 40.2143 45.7071 7.9176 -6.6729 25.0479
# 2 40.2143 158.6389 11.6502 -10.0771 1.2675 28.5645
# 3 45.7071 11.6502 86.2135 23.4781 19.1896 -8.3180
# 4 7.9176 -10.0771 23.4781 39.0925 11.8894 2.8561
# 5 -6.6729 1.2675 19.1896 11.8894 49.9969 6.2522
# 6 25.0479 28.5645 -8.3180 2.8561 6.2522 39.7406
#
#
#
# Elastic Compliance Matrix: (Units=1/GPa)
#
#
# Indices 1 2 3 4 5 6 
#
# 1 0.013192 -0.000510 -0.010020 0.002046 0.006536 -0.011221
# 2 -0.000510 0.008035 -0.002670 0.004067 0.000586 -0.006397
# 3 -0.010020 -0.002670 0.024015 -0.011253 -0.009763 0.015606
# 4 0.002046 0.004067 -0.011253 0.034398 -0.002612 -0.008630
# 5 0.006536 0.000586 -0.009763 -0.002612 0.026549 -0.010573
# 6 -0.011221 -0.006397 0.015606 -0.008630 -0.010573 0.042383
#
#
# Mechanical properties :
#
#
# Convention : Reuss Voigt Hill
#
# Bulk Modulus (GPa) = 53.07503 63.93884 58.50693
# Shear Modulus (GPa) = 27.58567 44.61497 36.10032
#
# Velocity S-wave (km/s) = 3.24716 4.12954 3.71464
# Velocity P-wave (km/s) = 5.86050 6.86853 6.38444
#
# Compressibility (1/GPa) = 0.01884125
#
# Stress axis : x y z
#
# Youngs Moduli (GPa) = 75.80117 124.46176 41.64029
#
# Poissons Ratio (x) = 0.06350 0.41723
# Poissons Ratio (y) = 0.03868 0.11120
# Poissons Ratio (z) = 0.75951 0.33237
#
# Static dielectric constant tensor:
#      x y z
#    x 2.324770 -0.095030 0.060950 
#    y -0.095030 2.208340 0.013540 
#    z 0.060950 0.013540 2.124850 
# 
# From -- ./inp_files/486290.got.cif
#   From: 2010.05.17/outbox.cif.g08.bks.cpg/sg2_244_cif.got.tgz:486290.got - 2010.06.03 11:33:40.
