data_PCOD9043941
_publ_section_title
;
Structure prediction by ZEFSAII (Michael W. Deem and Ramdas Pophale) SiO2 
 PCOD9043941
Probable space group: P -1
;
_chemical_formula_sum "Si O2"
_cell_formula_units_Z 10
_cell_length_a 10.374299
_cell_length_b 7.864917
_cell_length_c 5.052142
_cell_angle_alpha 72.040188
_cell_angle_beta 80.554368
_cell_angle_gamma 112.862058
_cell_volume 341.850015
_symmetry_space_group_name_H-M "P -1"
_symmetry_group_IT_number 2
_symmetry_cell_setting 'triclinic'
loop_
_space_group_symop_operation_xyz
x,y,z
-x,-y,-z
loop_
_atom_site_type_symbol
_atom_site_label
_atom_site_fract_x
_atom_site_fract_y
_atom_site_fract_z
Si Si1 0.546948 0.751772 0.656145
Si Si2 0.760508 0.376663 0.410134
Si Si3 0.813309 0.708194 0.605418
Si Si4 0.685548 0.026487 0.976755
Si Si5 0.061833 0.828345 0.838977
O O1 0.373337 0.637291 0.719510
O O2 0.636875 0.623871 0.661837
O O3 0.608786 0.931295 0.326932
O O4 0.607470 0.855132 0.867907
O O5 0.852451 0.583584 0.437608
O O6 0.859790 0.295586 0.259520
O O7 0.683164 0.218634 0.755100
O O8 0.892792 0.710826 0.852827
O O9 0.876449 0.944464 0.404943
O O10 0.860286 0.107375 0.930738
#
# Coordination Sequence:
#
# PCOD9043941 Si02
#       5
#     2   2   2   2   2
#     4  11  25  45  70 100 138 176 221 279 337 391
#     4  12  23  43  73  99 135 178 228 272 335 401
#     4  10  23  46  67 105 131 182 222 279 330 403
#     4  11  23  44  72  97 137 180 217 279 337 391
#     4  10  24  46  69  97 142 175 223 278 337 392
#
# _framework density 29.252594999999999
#
# number of rings (size 3 to 8) (size 9 to 14) (size 15 to 20)
#    0.000    1.200    4.000    2.400    2.800    1.600 
#   10.800    5.000    0.000    0.000    0.000    0.000 
#    0.000    0.000    0.000    0.000    0.000    0.000 
#
# Total GULP energy -56042.532449 kJ/mol
# GULP energy per Si atom -5604.253245 kJ/mol
# Density = 2.918601 g / cm^3
# Si number density = 29.252595 Si / 1000 Ang^3
#
#
#
# Elastic Constant Matrix: (Units=GPa)
#
#
# Indices 1 2 3 4 5 6 
#
# 1 187.6180 73.3562 39.6503 -4.5284 38.3650 41.4694
# 2 73.3562 174.2429 50.9894 21.6959 2.5528 14.8345
# 3 39.6503 50.9894 112.7763 30.9288 29.2487 11.8842
# 4 -4.5284 21.6959 30.9288 48.8527 13.9595 3.9015
# 5 38.3650 2.5528 29.2487 13.9595 54.6167 8.8963
# 6 41.4694 14.8345 11.8842 3.9015 8.8963 61.1589
#
#
#
# Elastic Compliance Matrix: (Units=1/GPa)
#
#
# Indices 1 2 3 4 5 6 
#
# 1 0.009641 -0.003995 -0.000837 0.005513 -0.006769 -0.004773
# 2 -0.003995 0.008565 -0.002709 -0.003867 0.004728 0.000717
# 3 -0.000837 -0.002709 0.013286 -0.005877 -0.004853 -0.000276
# 4 0.005513 -0.003867 -0.005877 0.028754 -0.007503 -0.002401
# 5 -0.006769 0.004728 -0.004853 -0.007503 0.027212 0.000906
# 6 -0.004773 0.000717 -0.000276 -0.002401 0.000906 0.019488
#
#
# Mechanical properties :
#
#
# Convention : Reuss Voigt Hill
#
# Bulk Modulus (GPa) = 60.93911 89.18099 75.06005
# Shear Modulus (GPa) = 39.21619 53.63508 46.42563
#
# Velocity S-wave (km/s) = 3.66540 4.28660 3.98811
# Velocity P-wave (km/s) = 6.22823 7.41975 6.84994
#
# Compressibility (1/GPa) = 0.01640982
#
# Stress axis : x y z
#
# Youngs Moduli (GPa) = 103.72508 116.75418 75.26858
#
# Poissons Ratio (x) = 0.46642 0.06299
# Poissons Ratio (y) = 0.41437 0.20392
# Poissons Ratio (z) = 0.08680 0.31631
#
# Static dielectric constant tensor:
#      x y z
#    x 2.379090 -0.010270 -0.119480 
#    y -0.010270 2.184490 -0.056780 
#    z -0.119480 -0.056780 2.333140 
# 
# From -- ./inp_files/58213.got.cif
#   From: 2010.05.17/outbox.cif.g08.bks.cpg/sg2_30_cif.got.tgz:58213.got - 2010.06.03 11:33:40.
