data_PCOD9043921
_publ_section_title
;
Structure prediction by ZEFSAII (Michael W. Deem and Ramdas Pophale) SiO2 
 PCOD9043921
Probable space group: P -1
;
_chemical_formula_sum "Si O2"
_cell_formula_units_Z 12
_cell_length_a 6.837989
_cell_length_b 14.630503
_cell_length_c 7.353468
_cell_angle_alpha 112.241522
_cell_angle_beta 127.892889
_cell_angle_gamma 95.495848
_cell_volume 480.045822
_symmetry_space_group_name_H-M "P -1"
_symmetry_group_IT_number 2
_symmetry_cell_setting 'triclinic'
loop_
_space_group_symop_operation_xyz
x,y,z
-x,-y,-z
loop_
_atom_site_type_symbol
_atom_site_label
_atom_site_fract_x
_atom_site_fract_y
_atom_site_fract_z
Si Si1 0.624956 0.105560 0.019743
Si Si2 0.268861 0.763785 0.498264
Si Si3 0.832103 0.038329 0.570710
Si Si4 0.173895 0.457011 0.778869
Si Si5 0.819778 0.578786 0.674683
Si Si6 0.854419 0.809963 0.820710
O O1 0.473484 0.066146 0.708384
O O2 0.603603 0.201285 0.195860
O O3 0.950019 0.150178 0.211967
O O4 0.500000 0.000000 0.000000
O O5 0.201197 0.857710 0.448874
O O6 0.535704 0.767551 0.554276
O O7 0.995603 0.651459 0.279723
O O8 0.000000 0.000000 0.500000
O O9 0.009384 0.083749 0.888416
O O10 0.131813 0.426896 0.518443
O O11 0.045639 0.538091 0.836061
O O12 0.500000 0.500000 0.000000
O O13 0.500000 0.500000 0.500000
O O14 0.880208 0.704589 0.839882
#
# Coordination Sequence:
#
# PCOD9043921 Si02
#       6
#     2   2   2   2   2   2
#     4  10  23  46  66  99 139 179 232 290 344 408
#     4  11  24  45  69 100 139 186 231 290 353 418
#     4  11  25  43  70 101 138 181 235 286 347 417
#     4  11  26  45  72 103 145 185 233 293 353 422
#     4  11  25  45  72 106 140 182 236 293 355 418
#     4  12  24  45  73 100 142 186 233 287 357 415
#
# _framework density 24.997616000000001
#
# number of rings (size 3 to 8) (size 9 to 14) (size 15 to 20)
#    0.000    1.000    5.000    0.500    2.333    6.000 
#    6.000    0.000    0.000    0.000    0.000    0.000 
#    0.000    0.000    0.000    0.000    0.000    0.000 
#
# Total GULP energy -67022.464737 kJ/mol
# GULP energy per Si atom -5585.205395 kJ/mol
# Density = 2.494072 g / cm^3
# Si number density = 24.997616 Si / 1000 Ang^3
#
#
#
# Elastic Constant Matrix: (Units=GPa)
#
#
# Indices 1 2 3 4 5 6 
#
# 1 162.5082 40.7749 22.6765 15.0728 54.1419 -3.6268
# 2 40.7749 99.0509 12.3869 13.9707 21.0499 -13.3371
# 3 22.6765 12.3869 74.6422 11.3636 20.0533 -0.8700
# 4 15.0728 13.9707 11.3636 29.2642 7.2937 0.8057
# 5 54.1419 21.0499 20.0533 7.2937 66.1384 -0.0330
# 6 -3.6268 -13.3371 -0.8700 0.8057 -0.0330 49.3552
#
#
#
# Elastic Compliance Matrix: (Units=1/GPa)
#
#
# Indices 1 2 3 4 5 6 
#
# 1 0.009037 -0.002013 -0.000387 -0.001946 -0.006425 0.000141
# 2 -0.002013 0.012390 -0.000268 -0.004434 -0.001723 0.003267
# 3 -0.000387 -0.000268 0.015273 -0.004684 -0.003711 0.000242
# 4 -0.001946 -0.004434 -0.004684 0.039140 0.000107 -0.002063
# 5 -0.006425 -0.001723 -0.003711 0.000107 0.022041 -0.000990
# 6 0.000141 0.003267 0.000242 -0.002063 -0.000990 0.021192
#
#
# Mechanical properties :
#
#
# Convention : Reuss Voigt Hill
#
# Bulk Modulus (GPa) = 31.88601 54.20863 43.04732
# Shear Modulus (GPa) = 37.07491 46.30909 41.69200
#
# Velocity S-wave (km/s) = 3.85533 4.30878 4.08835
# Velocity P-wave (km/s) = 5.70976 6.81812 6.28841
#
# Compressibility (1/GPa) = 0.03136172
#
# Stress axis : x y z
#
# Youngs Moduli (GPa) = 110.65878 80.71349 65.47680
#
# Poissons Ratio (x) = 0.16246 0.02537
# Poissons Ratio (y) = 0.22274 0.01757
# Poissons Ratio (z) = 0.04287 0.02166
#
# Static dielectric constant tensor:
#      x y z
#    x 2.050650 -0.082880 -0.023800 
#    y -0.082880 2.066330 -0.090470 
#    z -0.023800 -0.090470 2.188130 
# 
# From -- ./inp_files/138287.got.cif
#   From: 2010.05.17/outbox.cif.g08.bks.cpg/sg2_70_cif.got.tgz:138287.got - 2010.06.03 11:33:40.
