data_PCOD9043794
_publ_section_title
;
Structure prediction by ZEFSAII (Michael W. Deem and Ramdas Pophale) SiO2 
 PCOD9043794
Probable space group: P -1
;
_chemical_formula_sum "Si O2"
_cell_formula_units_Z 14
_cell_length_a 9.397897
_cell_length_b 8.285753
_cell_length_c 21.948343
_cell_angle_alpha 46.715030
_cell_angle_beta 152.146344
_cell_angle_gamma 133.190000
_cell_volume 565.694125
_symmetry_space_group_name_H-M "P -1"
_symmetry_group_IT_number 2
_symmetry_cell_setting 'triclinic'
loop_
_space_group_symop_operation_xyz
x,y,z
-x,-y,-z
loop_
_atom_site_type_symbol
_atom_site_label
_atom_site_fract_x
_atom_site_fract_y
_atom_site_fract_z
Si Si1 0.244345 0.500587 0.823395
Si Si2 0.164422 0.954235 0.160738
Si Si3 0.230326 0.993103 0.704345
Si Si4 0.428221 0.462816 0.669247
Si Si5 0.952560 0.580857 0.029635
Si Si6 0.590615 0.055420 0.413615
Si Si7 0.715961 0.427395 0.547514
O O1 0.600468 0.501492 0.942103
O O2 0.072163 0.282049 0.852935
O O3 0.057907 0.489639 0.691190
O O4 0.212167 0.733981 0.783969
O O5 0.442637 0.942764 0.223639
O O6 0.992532 0.145578 0.024079
O O7 0.363700 0.041827 0.273900
O O8 0.259815 0.218656 0.698781
O O9 0.923581 0.989747 0.548460
O O10 0.341779 0.688450 0.603356
O O11 0.340479 0.455542 0.566685
O O12 0.794533 0.497234 0.812764
O O13 0.000000 0.500000 0.000000
O O14 0.401248 0.844585 0.437135
O O15 0.500000 0.500000 0.500000
#
# Coordination Sequence:
#
# PCOD9043794 Si02
#       7
#     2   2   2   2   2   2   2
#     4  10  24  45  75 101 136 195 240 288 354 421
#     4  10  23  45  75  99 140 190 244 282 352 426
#     4  11  24  40  73 104 140 185 236 296 355 409
#     4  12  26  42  69 110 146 181 241 293 353 430
#     4  11  25  49  69 103 149 191 232 290 359 423
#     4  11  22  42  69 107 141 184 232 301 352 414
#     4  11  23  46  74 108 139 183 244 295 357 422
#
# _framework density 24.748358
#
# number of rings (size 3 to 8) (size 9 to 14) (size 15 to 20)
#    0.000    1.143    2.857    3.000    4.000    4.000 
#    2.571    3.571    0.000    0.000    0.000    0.000 
#    0.000    0.000    0.000    0.000    0.000    0.000 
#
# Total GULP energy -78379.167197 kJ/mol
# GULP energy per Si atom -5598.511943 kJ/mol
# Density = 2.469203 g / cm^3
# Si number density = 24.748358 Si / 1000 Ang^3
#
#
#
# Elastic Constant Matrix: (Units=GPa)
#
#
# Indices 1 2 3 4 5 6 
#
# 1 66.3757 50.6687 51.8246 -0.3321 6.0083 12.6886
# 2 50.6687 198.6583 30.2060 -13.4328 22.5276 11.6541
# 3 51.8246 30.2060 180.8864 0.0872 23.2407 14.7859
# 4 -0.3321 -13.4328 0.0872 41.2465 -8.5269 3.3090
# 5 6.0083 22.5276 23.2407 -8.5269 30.4528 -0.8438
# 6 12.6886 11.6541 14.7859 3.3090 -0.8438 32.8501
#
#
#
# Elastic Compliance Matrix: (Units=1/GPa)
#
#
# Indices 1 2 3 4 5 6 
#
# 1 0.024725 -0.005537 -0.006262 -0.000446 0.003744 -0.004626
# 2 -0.005537 0.006949 0.001095 0.001365 -0.004531 -0.001073
# 3 -0.006262 0.001095 0.008045 -0.000815 -0.005989 -0.001663
# 4 -0.000446 0.001365 -0.000815 0.026330 0.007006 -0.002417
# 5 0.003744 -0.004531 -0.005989 0.007006 0.042073 0.003232
# 6 -0.004626 -0.001073 -0.001663 -0.002417 0.003232 0.033684
#
#
# Mechanical properties :
#
#
# Convention : Reuss Voigt Hill
#
# Bulk Modulus (GPa) = 54.61094 79.03544 66.82319
# Shear Modulus (GPa) = 29.53038 41.79128 35.66083
#
# Velocity S-wave (km/s) = 3.45806 4.11378 3.80009
# Velocity P-wave (km/s) = 6.16917 7.38709 6.80543
#
# Compressibility (1/GPa) = 0.01831135
#
# Stress axis : x y z
#
# Youngs Moduli (GPa) = 40.44465 143.91203 124.29663
#
# Poissons Ratio (x) = 0.79691 0.77832
# Poissons Ratio (y) = 0.22396 -0.13615
# Poissons Ratio (z) = 0.25326 -0.15764
#
# Static dielectric constant tensor:
#      x y z
#    x 2.006650 -0.057450 -0.000120 
#    y -0.057450 2.038620 -0.007430 
#    z -0.000120 -0.007430 1.919290 
# 
# From -- ./inp_files/618212.got.cif
#   From: 2010.05.17/outbox.cif.g08.bks.cpg/sg2_310_cif.got.tgz:618212.got - 2010.06.03 11:33:40.
