data_PCOD9043695
_publ_section_title
;
Structure prediction by ZEFSAII (Michael W. Deem and Ramdas Pophale) SiO2 
 PCOD9043695
Probable space group: P -1
;
_chemical_formula_sum "Si O2"
_cell_formula_units_Z 16
_cell_length_a 23.935858
_cell_length_b 8.729258
_cell_length_c 9.016136
_cell_angle_alpha 49.612207
_cell_angle_beta 150.918712
_cell_angle_gamma 131.438098
_cell_volume 673.801961
_symmetry_space_group_name_H-M "P -1"
_symmetry_group_IT_number 2
_symmetry_cell_setting 'triclinic'
loop_
_space_group_symop_operation_xyz
x,y,z
-x,-y,-z
loop_
_atom_site_type_symbol
_atom_site_label
_atom_site_fract_x
_atom_site_fract_y
_atom_site_fract_z
Si Si1 0.090298 0.082885 0.523920
Si Si2 0.244146 0.622946 0.780115
Si Si3 0.807119 0.498770 0.595376
Si Si4 0.383218 0.339454 0.767868
Si Si5 0.215161 0.251623 0.170006
Si Si6 0.029679 0.732760 0.353955
Si Si7 0.745731 0.037534 0.805936
Si Si8 0.475674 0.957200 0.146818
O O1 0.080720 0.307819 0.302879
O O2 0.069756 0.910663 0.458009
O O3 0.000000 0.000000 0.500000
O O4 0.214649 0.087512 0.889843
O O5 0.245930 0.582903 0.635795
O O6 0.141037 0.740639 0.500733
O O7 0.209121 0.411728 0.924627
O O8 0.375936 0.742497 0.060928
O O9 0.721349 0.614262 0.407095
O O10 0.806081 0.284930 0.811380
O O11 0.333619 0.342246 0.483139
O O12 0.500000 0.500000 0.000000
O O13 0.413259 0.119022 0.977469
O O14 0.215861 0.043579 0.211733
O O15 0.098612 0.235691 0.012086
O O16 0.000000 0.500000 0.500000
O O17 0.603567 0.985960 0.499522
O O18 0.500000 0.000000 0.000000
#
# Coordination Sequence:
#
# PCOD9043695 Si02
#       8
#     2   2   2   2   2   2   2   2
#     4  12  25  49  71 110 148 187 245 309 358 439
#     4  11  23  46  74 106 145 200 243 299 373 438
#     4  12  26  46  72 109 146 191 242 306 365 423
#     4  12  25  46  69 107 151 185 245 308 357 434
#     4  11  24  47  74 106 144 199 243 299 371 439
#     4  10  23  45  74 102 148 190 243 300 364 441
#     4  12  25  45  76 104 149 189 246 295 378 421
#     4  12  23  44  69 102 146 189 244 303 359 443
#
# _framework density 23.745850000000001
#
# number of rings (size 3 to 8) (size 9 to 14) (size 15 to 20)
#    0.000    0.500    6.250    1.500    3.500    2.000 
#    2.250    3.750    0.000    0.000    0.000    0.000 
#    0.000    0.000    0.000    0.000    0.000    0.000 
#
# Total GULP energy -89471.482338 kJ/mol
# GULP energy per Si atom -5591.967646 kJ/mol
# Density = 2.369180 g / cm^3
# Si number density = 23.745850 Si / 1000 Ang^3
#
#
#
# Elastic Constant Matrix: (Units=GPa)
#
#
# Indices 1 2 3 4 5 6 
#
# 1 80.0139 33.1850 12.3110 -13.7039 16.9371 -16.2370
# 2 33.1850 136.6770 14.3691 -5.3246 3.9588 -13.5483
# 3 12.3110 14.3691 92.4085 6.3000 7.7044 -12.3488
# 4 -13.7039 -5.3246 6.3000 33.8920 -6.9626 0.0579
# 5 16.9371 3.9588 7.7044 -6.9626 39.7021 3.4791
# 6 -16.2370 -13.5483 -12.3488 0.0579 3.4791 41.0700
#
#
#
# Elastic Compliance Matrix: (Units=1/GPa)
#
#
# Indices 1 2 3 4 5 6 
#
# 1 0.017501 -0.003149 -0.000833 0.005372 -0.006590 0.006181
# 2 -0.003149 0.008275 -0.000779 0.000296 0.000616 0.001198
# 3 -0.000833 -0.000779 0.011936 -0.003245 -0.002736 0.003239
# 4 0.005372 0.000296 -0.003245 0.033158 0.004048 0.000856
# 5 -0.006590 0.000616 -0.002736 0.004048 0.029682 -0.005745
# 6 0.006181 0.001198 0.003239 0.000856 -0.005745 0.028647
#
#
# Mechanical properties :
#
#
# Convention : Reuss Voigt Hill
#
# Bulk Modulus (GPa) = 35.47171 47.64775 41.55973
# Shear Modulus (GPa) = 33.75716 39.54844 36.65280
#
# Velocity S-wave (km/s) = 3.77450 4.08547 3.93306
# Velocity P-wave (km/s) = 5.82807 6.50876 6.17780
#
# Compressibility (1/GPa) = 0.02819148
#
# Stress axis : x y z
#
# Youngs Moduli (GPa) = 57.13902 120.84009 83.78170
#
# Poissons Ratio (x) = 0.38051 0.06978
# Poissons Ratio (y) = 0.17992 0.06524
# Poissons Ratio (z) = 0.04759 0.09410
#
# Static dielectric constant tensor:
#      x y z
#    x 1.900870 0.041760 0.042690 
#    y 0.041760 1.983340 0.019330 
#    z 0.042690 0.019330 1.921290 
# 
# From -- ./inp_files/352079.got.cif
#   From: 2010.05.17/outbox.cif.g08.bks.cpg/sg2_177_cif.got.tgz:352079.got - 2010.06.03 11:33:40.
