data_PCOD9043291
_publ_section_title
;
Structure prediction by ZEFSAII (Michael W. Deem and Ramdas Pophale) SiO2 
 PCOD9043291
Probable space group: P -1
;
_chemical_formula_sum "Si O2"
_cell_formula_units_Z 16
_cell_length_a 9.993210
_cell_length_b 10.213934
_cell_length_c 18.133901
_cell_angle_alpha 48.621380
_cell_angle_beta 152.161647
_cell_angle_gamma 126.048924
_cell_volume 648.525699
_symmetry_space_group_name_H-M "P -1"
_symmetry_group_IT_number 2
_symmetry_cell_setting 'triclinic'
loop_
_space_group_symop_operation_xyz
x,y,z
-x,-y,-z
loop_
_atom_site_type_symbol
_atom_site_label
_atom_site_fract_x
_atom_site_fract_y
_atom_site_fract_z
Si Si1 0.616412 0.118591 0.705052
Si Si2 0.405949 0.765032 0.998440
Si Si3 0.790619 0.171479 0.446464
Si Si4 0.264234 0.118664 0.006153
Si Si5 0.032773 0.650549 0.397603
Si Si6 0.673012 0.617617 0.942837
Si Si7 0.337656 0.358633 0.585240
Si Si8 0.137504 0.672765 0.039300
O O1 0.488910 0.299574 0.605587
O O2 0.930359 0.118402 0.820287
O O3 0.371816 0.008639 0.584336
O O4 0.675883 0.014689 0.849360
O O5 0.488971 0.904598 0.925705
O O6 0.283381 0.587511 0.967742
O O7 0.205092 0.801485 0.956582
O O8 0.721439 0.715479 0.199894
O O9 0.801649 0.203916 0.527626
O O10 0.606806 0.321041 0.259707
O O11 0.102151 0.209916 0.548419
O O12 0.316730 0.309071 0.997628
O O13 0.191625 0.548245 0.447724
O O14 0.000000 0.500000 0.500000
O O15 0.917837 0.721389 0.977545
O O16 0.573270 0.367077 0.761807
O O17 0.000000 0.500000 0.000000
#
# Coordination Sequence:
#
# PCOD9043291 Si02
#       8
#     2   2   2   2   2   2   2   2
#     4  10  22  39  59  84 119 169 201 235 302 354
#     4  11  19  35  60  93 117 155 199 252 301 345
#     4  10  19  35  64  86 113 161 204 235 291 374
#     4  10  22  38  58  83 126 158 202 248 293 359
#     4  10  17  33  60  88 113 150 195 243 297 355
#     4  10  18  35  60  90 116 151 200 250 301 346
#     4  11  18  36  62  89 114 153 203 240 292 367
#     4  10  19  31  60  91 117 145 196 246 297 351
#
# _framework density 24.671343
#
# number of rings (size 3 to 8) (size 9 to 14) (size 15 to 20)
#    0.000    1.750    6.250    1.500    0.000    0.000 
#    0.000    1.875    0.000    3.000    0.000    0.000 
#    0.000    0.000    0.000    0.000    0.000    0.000 
#
# Total GULP energy -89394.552791 kJ/mol
# GULP energy per Si atom -5587.159549 kJ/mol
# Density = 2.461519 g / cm^3
# Si number density = 24.671343 Si / 1000 Ang^3
#
#
#
# Elastic Constant Matrix: (Units=GPa)
#
#
# Indices 1 2 3 4 5 6 
#
# 1 121.8714 29.5598 1.5548 8.9850 30.6291 20.4776
# 2 29.5598 100.4243 17.7419 27.7889 -7.3208 -24.4225
# 3 1.5548 17.7419 81.8954 25.9565 14.3863 5.8884
# 4 8.9850 27.7889 25.9565 43.3385 -1.7839 -5.3094
# 5 30.6291 -7.3208 14.3863 -1.7839 30.0044 7.0444
# 6 20.4776 -24.4225 5.8884 -5.3094 7.0444 37.8002
#
#
#
# Elastic Compliance Matrix: (Units=1/GPa)
#
#
# Indices 1 2 3 4 5 6 
#
# 1 0.020270 -0.011945 0.009312 -0.005127 -0.024551 -0.016294
# 2 -0.011945 0.021409 -0.007323 -0.004005 0.016510 0.017805
# 3 0.009312 -0.007323 0.021902 -0.012549 -0.019901 -0.011242
# 4 -0.005127 -0.004005 -0.012549 0.035296 0.011195 0.005016
# 5 -0.024551 0.016510 -0.019901 0.011195 0.068918 0.015796
# 6 -0.016294 0.017805 -0.011242 0.005016 0.015796 0.046298
#
#
# Mechanical properties :
#
#
# Convention : Reuss Voigt Hill
#
# Bulk Modulus (GPa) = 22.89882 44.65599 33.77741
# Shear Modulus (GPa) = 20.11585 39.25095 29.68340
#
# Velocity S-wave (km/s) = 2.85854 3.99300 3.47241
# Velocity P-wave (km/s) = 4.49407 6.27681 5.45871
#
# Compressibility (1/GPa) = 0.04367037
#
# Stress axis : x y z
#
# Youngs Moduli (GPa) = 49.33432 46.70880 45.65793
#
# Poissons Ratio (x) = 0.55795 -0.42518
# Poissons Ratio (y) = 0.58931 0.33433
# Poissons Ratio (z) = -0.45942 0.34203
#
# Static dielectric constant tensor:
#      x y z
#    x 2.037460 -0.019890 0.008600 
#    y -0.019890 2.019880 0.004800 
#    z 0.008600 0.004800 1.942190 
# 
# From -- ./inp_files/260386.got.cif
#   From: 2010.05.17/outbox.cif.g08.bks.cpg/sg2_131_cif.got.tgz:260386.got - 2010.06.03 11:33:40.
