data_PCOD9043496
_publ_section_title
;
Structure prediction by ZEFSAII (Michael W. Deem and Ramdas Pophale) SiO2 
 PCOD9043496
Probable space group: P -1
;
_chemical_formula_sum "Si O2"
_cell_formula_units_Z 14
_cell_length_a 7.011928
_cell_length_b 10.125394
_cell_length_c 11.089364
_cell_angle_alpha 56.648342
_cell_angle_beta 65.767549
_cell_angle_gamma 82.807667
_cell_volume 594.479129
_symmetry_space_group_name_H-M "P -1"
_symmetry_group_IT_number 2
_symmetry_cell_setting 'triclinic'
loop_
_space_group_symop_operation_xyz
x,y,z
-x,-y,-z
loop_
_atom_site_type_symbol
_atom_site_label
_atom_site_fract_x
_atom_site_fract_y
_atom_site_fract_z
Si Si1 0.700845 0.068979 0.488823
Si Si2 0.321589 0.283430 0.733211
Si Si3 0.518802 0.379965 0.377503
Si Si4 0.868600 0.249453 0.951100
Si Si5 0.703208 0.575880 0.834054
Si Si6 0.060200 0.151728 0.193795
Si Si7 0.442609 0.011641 0.166364
O O1 0.693145 0.259308 0.396671
O O2 0.650863 0.000324 0.667819
O O3 0.905039 0.037343 0.378040
O O4 0.500000 0.000000 0.500000
O O5 0.375232 0.335955 0.555105
O O6 0.373031 0.438724 0.726002
O O7 0.479258 0.157667 0.790326
O O8 0.076399 0.214198 0.843278
O O9 0.382665 0.360314 0.300737
O O10 0.837427 0.432243 0.845027
O O11 0.921704 0.220002 0.092055
O O12 0.648092 0.141069 0.036367
O O13 0.826979 0.708002 0.821599
O O14 0.500000 0.500000 0.000000
O O15 0.240493 0.064713 0.126334
#
# Coordination Sequence:
#
# PCOD9043496 Si02
#       7
#     2   2   2   2   2   2   2
#     4  11  21  43  70 100 136 170 225 281 340 401
#     4  10  24  46  68  95 138 183 230 273 327 398
#     4  10  23  45  71  96 136 178 227 281 326 401
#     4  12  24  43  67 102 137 180 222 279 335 400
#     4  12  23  42  70 104 136 170 226 279 343 404
#     4  12  24  42  72 102 138 176 215 286 350 388
#     4  11  24  43  66 101 134 182 225 274 334 406
#
# _framework density 23.550028000000001
#
# number of rings (size 3 to 8) (size 9 to 14) (size 15 to 20)
#    0.000    0.857    2.857    4.714    0.000    1.143 
#    2.571    0.000    0.000    0.000    0.000    0.000 
#    0.000    0.000    0.000    0.000    0.000    0.000 
#
# Total GULP energy -78413.105597 kJ/mol
# GULP energy per Si atom -5600.936114 kJ/mol
# Density = 2.349643 g / cm^3
# Si number density = 23.550028 Si / 1000 Ang^3
#
#
#
# Elastic Constant Matrix: (Units=GPa)
#
#
# Indices 1 2 3 4 5 6 
#
# 1 95.1123 20.6516 34.4789 7.5909 -24.9142 -12.8402
# 2 20.6516 80.0257 11.4792 -18.0179 -11.6215 -15.6828
# 3 34.4789 11.4792 97.7655 19.5778 -13.5661 3.0263
# 4 7.5909 -18.0179 19.5778 44.9845 -0.4654 3.8651
# 5 -24.9142 -11.6215 -13.5661 -0.4654 55.1507 2.8677
# 6 -12.8402 -15.6828 3.0263 3.8651 2.8677 40.3797
#
#
#
# Elastic Compliance Matrix: (Units=1/GPa)
#
#
# Indices 1 2 3 4 5 6 
#
# 1 0.014315 -0.002092 -0.003879 -0.001847 0.004855 0.003862
# 2 -0.002092 0.016362 -0.002640 0.007640 0.001656 0.005039
# 3 -0.003879 -0.002640 0.013333 -0.005957 0.001065 -0.002763
# 4 -0.001847 0.007640 -0.005957 0.028175 -0.000460 0.000162
# 5 0.004855 0.001656 0.001065 -0.000460 0.020898 0.000667
# 6 0.003862 0.005039 -0.002763 0.000162 0.000667 0.028094
#
#
# Mechanical properties :
#
#
# Convention : Reuss Voigt Hill
#
# Bulk Modulus (GPa) = 37.32750 45.12478 41.22614
# Shear Modulus (GPa) = 33.93818 41.85591 37.89704
#
# Velocity S-wave (km/s) = 3.80031 4.22040 4.01585
# Velocity P-wave (km/s) = 5.92800 6.55377 6.24872
#
# Compressibility (1/GPa) = 0.02678990
#
# Stress axis : x y z
#
# Youngs Moduli (GPa) = 69.85800 61.11565 75.00457
#
# Poissons Ratio (x) = 0.12782 0.29093
# Poissons Ratio (y) = 0.14611 0.19798
# Poissons Ratio (z) = 0.27097 0.16132
#
# Static dielectric constant tensor:
#      x y z
#    x 1.882440 -0.045070 0.039870 
#    y -0.045070 1.947940 -0.037230 
#    z 0.039870 -0.037230 1.913360 
# 
# From -- ./inp_files/63605.got.cif
#   From: 2010.05.17/outbox.cif.g08.bks.cpg/sg2_32_cif.got.tgz:63605.got - 2010.06.03 11:33:40.
