data_PCOD9043147
_publ_section_title
;
Structure prediction by ZEFSAII (Michael W. Deem and Ramdas Pophale) SiO2 
 PCOD9043147
Probable space group: P -1
;
_chemical_formula_sum "Si O2"
_cell_formula_units_Z 16
_cell_length_a 6.816026
_cell_length_b 8.091890
_cell_length_c 17.961649
_cell_angle_alpha 51.714806
_cell_angle_beta 75.955955
_cell_angle_gamma 93.121151
_cell_volume 726.571688
_symmetry_space_group_name_H-M "P -1"
_symmetry_group_IT_number 2
_symmetry_cell_setting 'triclinic'
loop_
_space_group_symop_operation_xyz
x,y,z
-x,-y,-z
loop_
_atom_site_type_symbol
_atom_site_label
_atom_site_fract_x
_atom_site_fract_y
_atom_site_fract_z
Si Si1 0.555457 0.859779 0.923402
Si Si2 0.037318 0.911725 0.101101
Si Si3 0.343799 0.111193 0.760056
Si Si4 0.488983 0.412812 0.441359
Si Si5 0.171327 0.223204 0.403390
Si Si6 0.466968 0.960107 0.630057
Si Si7 0.947259 0.404030 0.251245
Si Si8 0.840187 0.539943 0.938289
O O1 0.696811 0.698300 0.930543
O O2 0.502076 0.030509 0.822358
O O3 0.327273 0.690113 0.005313
O O4 0.714754 0.005734 0.927555
O O5 0.890301 0.978010 0.159796
O O6 0.947320 0.652887 0.176580
O O7 0.000000 0.000000 0.000000
O O8 0.386020 0.373583 0.674891
O O9 0.392481 0.024756 0.699047
O O10 0.500000 0.500000 0.500000
O O11 0.268439 0.337135 0.439297
O O12 0.540936 0.180978 0.512821
O O13 0.346938 0.154716 0.356986
O O14 0.084275 0.381720 0.315848
O O15 0.000000 0.000000 0.500000
O O16 0.269461 0.778443 0.667481
O O17 0.037615 0.361090 0.174922
O O18 0.000000 0.500000 0.000000
#
# Coordination Sequence:
#
# PCOD9043147 Si02
#       8
#     2   2   2   2   2   2   2   2
#     4  11  23  43  68  98 139 176 235 288 352 420
#     4  12  27  43  67 102 144 188 232 294 357 426
#     4  11  24  44  68  99 141 186 237 289 356 427
#     4  10  23  45  69 100 142 189 227 295 359 422
#     4  12  25  43  72 103 139 181 240 295 351 428
#     4  11  24  45  71 100 139 185 236 292 353 418
#     4  12  25  42  71 101 139 187 235 288 360 417
#     4  11  24  44  72 101 136 184 237 295 352 427
#
# _framework density 22.021228000000001
#
# number of rings (size 3 to 8) (size 9 to 14) (size 15 to 20)
#    0.000    0.750    1.250    6.375    1.750    6.000 
#    0.000    1.250    0.000    0.000    0.000    0.000 
#    0.000    0.000    0.000    0.000    0.000    0.000 
#
# Total GULP energy -89339.759494 kJ/mol
# GULP energy per Si atom -5583.734968 kJ/mol
# Density = 2.197111 g / cm^3
# Si number density = 22.021228 Si / 1000 Ang^3
#
#
#
# Elastic Constant Matrix: (Units=GPa)
#
#
# Indices 1 2 3 4 5 6 
#
# 1 101.0353 30.3386 50.3349 5.3224 -6.2957 14.4659
# 2 30.3386 98.9570 39.3159 -9.3427 -8.5523 18.2539
# 3 50.3349 39.3159 145.9031 -7.1629 9.2144 10.5642
# 4 5.3224 -9.3427 -7.1629 44.8870 -4.4959 5.1201
# 5 -6.2957 -8.5523 9.2144 -4.4959 45.9728 -1.7169
# 6 14.4659 18.2539 10.5642 5.1201 -1.7169 40.8515
#
#
#
# Elastic Compliance Matrix: (Units=1/GPa)
#
#
# Indices 1 2 3 4 5 6 
#
# 1 0.013077 -0.002015 -0.004026 -0.002153 0.001925 -0.002338
# 2 -0.002015 0.013183 -0.002519 0.003416 0.002835 -0.004835
# 3 -0.004026 -0.002519 0.009157 0.001148 -0.002746 -0.000076
# 4 -0.002153 0.003416 0.001148 0.024115 0.002320 -0.003986
# 5 0.001925 0.002835 -0.002746 0.002320 0.023300 -0.000550
# 6 -0.002338 -0.004835 -0.000076 -0.003986 -0.000550 0.027964
#
#
# Mechanical properties :
#
#
# Convention : Reuss Voigt Hill
#
# Bulk Modulus (GPa) = 54.65357 65.09714 59.87536
# Shear Modulus (GPa) = 37.30976 41.40263 39.35620
#
# Velocity S-wave (km/s) = 4.12061 4.34074 4.23211
# Velocity P-wave (km/s) = 6.89287 7.39919 7.15051
#
# Compressibility (1/GPa) = 0.01829707
#
# Stress axis : x y z
#
# Youngs Moduli (GPa) = 76.47255 75.85418 109.20823
#
# Poissons Ratio (x) = 0.15285 0.43970
# Poissons Ratio (y) = 0.15409 0.27504
# Poissons Ratio (z) = 0.30790 0.19104
#
# Static dielectric constant tensor:
#      x y z
#    x 1.671150 -0.003150 0.099400 
#    y -0.003150 1.846700 0.000260 
#    z 0.099400 0.000260 1.654370 
# 
# From -- ./inp_files/547772.got.cif
#   From: 2010.05.17/outbox.cif.g08.bks.cpg/sg2_274_cif.got.tgz:547772.got - 2010.06.03 11:33:40.
