data_PCOD9043793
_publ_section_title
;
Structure prediction by ZEFSAII (Michael W. Deem and Ramdas Pophale) SiO2 
 PCOD9043793
Probable space group: P -1
;
_chemical_formula_sum "Si O2"
_cell_formula_units_Z 14
_cell_length_a 6.833864
_cell_length_b 7.844558
_cell_length_c 11.321748
_cell_angle_alpha 91.775274
_cell_angle_beta 68.293746
_cell_angle_gamma 79.891253
_cell_volume 552.093255
_symmetry_space_group_name_H-M "P -1"
_symmetry_group_IT_number 2
_symmetry_cell_setting 'triclinic'
loop_
_space_group_symop_operation_xyz
x,y,z
-x,-y,-z
loop_
_atom_site_type_symbol
_atom_site_label
_atom_site_fract_x
_atom_site_fract_y
_atom_site_fract_z
Si Si1 0.501486 0.758454 0.039295
Si Si2 0.847807 0.032577 0.717195
Si Si3 0.478009 0.864761 0.398726
Si Si4 0.314696 0.519600 0.394501
Si Si5 0.665349 0.407342 0.136880
Si Si6 0.901341 0.698032 0.377299
Si Si7 0.932200 0.859383 0.924876
O O1 0.278209 0.829752 0.156034
O O2 0.610116 0.585088 0.080952
O O3 0.450041 0.719590 0.916594
O O4 0.682164 0.871221 0.004125
O O5 0.653219 0.019802 0.673393
O O6 0.020256 0.120801 0.613132
O O7 0.957891 0.884079 0.778145
O O8 0.348620 0.706239 0.443030
O O9 0.724313 0.760126 0.315403
O O10 0.500000 0.000000 0.500000
O O11 0.543090 0.433308 0.288268
O O12 0.231890 0.390107 0.499764
O O13 0.132825 0.564442 0.331930
O O14 0.914528 0.324501 0.086331
O O15 0.000000 0.000000 0.000000
#
# Coordination Sequence:
#
# PCOD9043793 Si02
#       7
#     2   2   2   2   2   2   2
#     4  11  24  47  74 108 151 188 252 301 367 455
#     4  11  25  46  74 109 149 195 243 307 365 446
#     4  11  25  45  73 102 148 197 247 303 367 432
#     4  10  23  47  74 109 141 192 255 310 354 448
#     4  11  24  46  77 112 145 194 247 303 372 441
#     4  10  23  45  75  98 147 192 250 300 371 423
#     4  12  27  44  76 112 153 195 237 302 388 438
#
# _framework density 25.358035000000001
#
# number of rings (size 3 to 8) (size 9 to 14) (size 15 to 20)
#    0.000    1.143    4.286    1.286    2.000    5.714 
#    0.000    2.857    0.000    0.000    0.000    0.000 
#    0.000    0.000    0.000    0.000    0.000    0.000 
#
# Total GULP energy -78178.644952 kJ/mol
# GULP energy per Si atom -5584.188925 kJ/mol
# Density = 2.530032 g / cm^3
# Si number density = 25.358035 Si / 1000 Ang^3
#
#
#
# Elastic Constant Matrix: (Units=GPa)
#
#
# Indices 1 2 3 4 5 6 
#
# 1 141.8339 23.9622 11.5676 -4.3736 11.0448 -5.8267
# 2 23.9622 80.7250 27.0466 -1.8420 -1.2657 4.7985
# 3 11.5676 27.0466 66.2324 4.7142 8.2302 16.0319
# 4 -4.3736 -1.8420 4.7142 32.6318 -4.2426 1.4002
# 5 11.0448 -1.2657 8.2302 -4.2426 49.3826 -2.5137
# 6 -5.8267 4.7985 16.0319 1.4002 -2.5137 56.6579
#
#
#
# Elastic Compliance Matrix: (Units=1/GPa)
#
#
# Indices 1 2 3 4 5 6 
#
# 1 0.007647 -0.002148 -0.000570 0.000739 -0.001554 0.001042
# 2 -0.002148 0.015184 -0.006285 0.001734 0.002083 0.000321
# 3 -0.000570 -0.006285 0.019763 -0.003570 -0.003899 -0.005203
# 4 0.000739 0.001734 -0.003570 0.031763 0.003218 0.000297
# 5 -0.001554 0.002083 -0.003899 0.003218 0.021661 0.001649
# 6 0.001042 0.000321 -0.005203 0.000297 0.001649 0.019268
#
#
# Mechanical properties :
#
#
# Convention : Reuss Voigt Hill
#
# Bulk Modulus (GPa) = 40.67349 45.99379 43.33364
# Shear Modulus (GPa) = 35.33845 42.81544 39.07694
#
# Velocity S-wave (km/s) = 3.73712 4.11352 3.92983
# Velocity P-wave (km/s) = 5.89032 6.38267 6.14143
#
# Compressibility (1/GPa) = 0.02458604
#
# Stress axis : x y z
#
# Youngs Moduli (GPa) = 130.77817 65.85673 50.60046
#
# Poissons Ratio (x) = 0.14147 0.02885
# Poissons Ratio (y) = 0.28094 0.31805
# Poissons Ratio (z) = 0.07456 0.41394
#
# Static dielectric constant tensor:
#      x y z
#    x 1.989260 -0.021860 0.023090 
#    y -0.021860 2.067950 0.000730 
#    z 0.023090 0.000730 2.019580 
# 
# From -- ./inp_files/360733.got.cif
#   From: 2010.05.17/outbox.cif.g08.bks.cpg/sg2_181_cif.got.tgz:360733.got - 2010.06.03 11:33:40.
