data_PCOD9043212
_publ_section_title
;
Structure prediction by ZEFSAII (Michael W. Deem and Ramdas Pophale) SiO2 
 PCOD9043212
Probable space group: P -1
;
_chemical_formula_sum "Si O2"
_cell_formula_units_Z 14
_cell_length_a 5.559407
_cell_length_b 5.052256
_cell_length_c 23.614696
_cell_angle_alpha 78.158554
_cell_angle_beta 126.071512
_cell_angle_gamma 87.471108
_cell_volume 513.175251
_symmetry_space_group_name_H-M "P -1"
_symmetry_group_IT_number 2
_symmetry_cell_setting 'triclinic'
loop_
_space_group_symop_operation_xyz
x,y,z
-x,-y,-z
loop_
_atom_site_type_symbol
_atom_site_label
_atom_site_fract_x
_atom_site_fract_y
_atom_site_fract_z
Si Si1 0.265299 0.699816 0.895130
Si Si2 0.312203 0.323484 0.604460
Si Si3 0.526026 0.126586 0.436803
Si Si4 0.348662 0.857273 0.062941
Si Si5 0.277385 0.537986 0.177457
Si Si6 0.891127 0.426990 0.321134
Si Si7 0.944509 0.130026 0.757183
O O1 0.947570 0.634990 0.876461
O O2 0.441823 0.926667 0.931605
O O3 0.482503 0.579353 0.059624
O O4 0.143506 0.827793 0.810557
O O5 0.396042 0.570723 0.567892
O O6 0.092692 0.481810 0.615204
O O7 0.597285 0.167953 0.688138
O O8 0.254834 0.087160 0.564791
O O9 0.180375 0.183333 0.361433
O O10 0.500000 0.000000 0.500000
O O11 0.368975 0.744161 0.135205
O O12 0.000000 0.000000 0.000000
O O13 0.569586 0.366746 0.259101
O O14 0.083447 0.716298 0.192476
O O15 0.921643 0.692141 0.277479
#
# Coordination Sequence:
#
# PCOD9043212 Si02
#       7
#     2   2   2   2   2   2   2
#     4  12  25  47  71 105 141 185 248 299 360 443
#     4  10  25  40  71 103 139 191 243 300 372 423
#     4  11  25  47  69 105 151 192 245 299 357 448
#     4  12  29  48  71 105 149 195 241 298 369 443
#     4  11  24  46  75 104 145 191 244 309 375 424
#     4  10  23  47  71 110 146 193 245 314 369 436
#     4  10  23  45  69 109 138 183 244 309 358 432
#
# _framework density 27.281131999999999
#
# number of rings (size 3 to 8) (size 9 to 14) (size 15 to 20)
#    0.000    1.143    2.857    0.857   10.000    4.571 
#    2.571    0.000    0.000    0.000    0.000    0.000 
#    0.000    0.000    0.000    0.000    0.000    0.000 
#
# Total GULP energy -78466.837321 kJ/mol
# GULP energy per Si atom -5604.774094 kJ/mol
# Density = 2.721904 g / cm^3
# Si number density = 27.281132 Si / 1000 Ang^3
#
#
#
# Elastic Constant Matrix: (Units=GPa)
#
#
# Indices 1 2 3 4 5 6 
#
# 1 83.9081 42.3034 27.0821 -5.3712 0.1934 -1.3776
# 2 42.3034 170.3552 44.9595 -6.1029 -0.4586 3.2346
# 3 27.0821 44.9595 111.2212 -25.6555 7.8745 3.0432
# 4 -5.3712 -6.1029 -25.6555 52.8926 -3.2817 -3.7839
# 5 0.1934 -0.4586 7.8745 -3.2817 72.5757 -9.4467
# 6 -1.3776 3.2346 3.0432 -3.7839 -9.4467 45.0387
#
#
#
# Elastic Compliance Matrix: (Units=1/GPa)
#
#
# Indices 1 2 3 4 5 6 
#
# 1 0.014149 -0.002921 -0.002294 0.000068 0.000309 0.000868
# 2 -0.002921 0.007202 -0.002347 -0.000623 0.000221 -0.000454
# 3 -0.002294 -0.002347 0.011768 0.005099 -0.001120 -0.000503
# 4 0.000068 -0.000623 0.005099 0.021470 0.000627 0.001638
# 5 0.000309 0.000221 -0.001120 0.000627 0.014336 0.003129
# 6 0.000868 -0.000454 -0.000503 0.001638 0.003129 0.023090
#
#
# Mechanical properties :
#
#
# Convention : Reuss Voigt Hill
#
# Bulk Modulus (GPa) = 55.57466 66.01938 60.79702
# Shear Modulus (GPa) = 44.19389 50.84402 47.51895
#
# Velocity S-wave (km/s) = 4.02922 4.32175 4.17805
# Velocity P-wave (km/s) = 6.48548 7.01110 6.75341
#
# Compressibility (1/GPa) = 0.01799381
#
# Stress axis : x y z
#
# Youngs Moduli (GPa) = 70.67639 138.85499 84.97939
#
# Poissons Ratio (x) = 0.40563 0.19496
# Poissons Ratio (y) = 0.20646 0.19942
# Poissons Ratio (z) = 0.16215 0.32586
#
# Static dielectric constant tensor:
#      x y z
#    x 2.108070 0.004100 0.023990 
#    y 0.004100 2.100880 0.082100 
#    z 0.023990 0.082100 2.164560 
# 
# From -- ./inp_files/581058.got.cif
#   From: 2010.05.17/outbox.cif.g08.bks.cpg/sg2_291_cif.got.tgz:581058.got - 2010.06.03 11:33:40.
