data_PCOD9043927
_publ_section_title
;
Structure prediction by ZEFSAII (Michael W. Deem and Ramdas Pophale) SiO2 
 PCOD9043927
Probable space group: P -1
;
_chemical_formula_sum "Si O2"
_cell_formula_units_Z 12
_cell_length_a 8.288527
_cell_length_b 10.241315
_cell_length_c 10.845481
_cell_angle_alpha 47.509461
_cell_angle_beta 69.075643
_cell_angle_gamma 47.287006
_cell_volume 490.045165
_symmetry_space_group_name_H-M "P -1"
_symmetry_group_IT_number 2
_symmetry_cell_setting 'triclinic'
loop_
_space_group_symop_operation_xyz
x,y,z
-x,-y,-z
loop_
_atom_site_type_symbol
_atom_site_label
_atom_site_fract_x
_atom_site_fract_y
_atom_site_fract_z
Si Si1 0.655872 0.420712 0.337865
Si Si2 0.663477 0.050694 0.499383
Si Si3 0.992873 0.474341 0.163551
Si Si4 0.120998 0.089312 0.976260
Si Si5 0.299840 0.093910 0.686910
Si Si6 0.815410 0.260418 0.672035
O O1 0.762763 0.181732 0.396430
O O2 0.748208 0.550483 0.197366
O O3 0.725674 0.356102 0.501215
O O4 0.393388 0.576431 0.284424
O O5 0.446235 0.173654 0.570808
O O6 0.611070 0.065571 0.358215
O O7 0.835051 0.786634 0.666185
O O8 0.008979 0.645038 0.127824
O O9 0.000000 0.500000 0.000000
O O10 0.316644 0.015208 0.872958
O O11 0.153862 0.971881 0.173462
O O12 0.000000 0.000000 0.000000
O O13 0.031171 0.244203 0.646291
#
# Coordination Sequence:
#
# PCOD9043927 Si02
#       6
#     2   2   2   2   2   2
#     4  11  25  43  73  98 137 181 228 287 338 410
#     4  11  25  44  70 103 138 180 227 284 343 406
#     4  12  27  44  72 103 138 180 229 287 344 405
#     4  10  25  45  70  97 139 183 226 284 335 410
#     4  10  24  43  70  96 138 181 226 276 339 407
#     4  10  23  46  67 101 131 185 230 277 339 407
#
# _framework density 24.487539999999999
#
# number of rings (size 3 to 8) (size 9 to 14) (size 15 to 20)
#    0.000    1.333    1.667    1.500   11.667    7.333 
#    0.000    4.167    0.000    0.000    0.000    0.000 
#    0.000    0.000    0.000    0.000    0.000    0.000 
#
# Total GULP energy -66834.210667 kJ/mol
# GULP energy per Si atom -5569.517556 kJ/mol
# Density = 2.443180 g / cm^3
# Si number density = 24.487540 Si / 1000 Ang^3
#
#
#
# Elastic Constant Matrix: (Units=GPa)
#
#
# Indices 1 2 3 4 5 6 
#
# 1 90.4452 38.3174 16.5654 -12.4143 -15.2384 -5.6608
# 2 38.3174 73.9124 37.2235 5.5642 -8.8420 -6.4150
# 3 16.5654 37.2235 78.1207 11.9366 -5.1389 5.7075
# 4 -12.4143 5.5642 11.9366 55.4185 5.5500 -5.3656
# 5 -15.2384 -8.8420 -5.1389 5.5500 33.4376 -4.1091
# 6 -5.6608 -6.4150 5.7075 -5.3656 -4.1091 50.7704
#
#
#
# Elastic Compliance Matrix: (Units=1/GPa)
#
#
# Indices 1 2 3 4 5 6 
#
# 1 0.015793 -0.007755 -0.000078 0.004020 0.004663 0.001592
# 2 -0.007755 0.022677 -0.008957 -0.001978 0.001776 0.002942
# 3 -0.000078 -0.008957 0.017882 -0.003353 0.000475 -0.003467
# 4 0.004020 -0.001978 -0.003353 0.020339 -0.002270 0.002541
# 5 0.004663 0.001776 0.000475 -0.002270 0.033338 0.003149
# 6 0.001592 0.002942 -0.003467 0.002541 0.003149 0.021159
#
#
# Mechanical properties :
#
#
# Convention : Reuss Voigt Hill
#
# Bulk Modulus (GPa) = 43.91127 47.41011 45.66069
# Shear Modulus (GPa) = 29.00924 37.95009 33.47967
#
# Velocity S-wave (km/s) = 3.44561 3.94098 3.70159
# Velocity P-wave (km/s) = 5.81384 6.33336 6.07915
#
# Compressibility (1/GPa) = 0.02277320
#
# Stress axis : x y z
#
# Youngs Moduli (GPa) = 63.31844 44.09667 55.92260
#
# Poissons Ratio (x) = 0.34197 0.00434
# Poissons Ratio (y) = 0.49103 0.50090
# Poissons Ratio (z) = 0.00492 0.39497
#
# Static dielectric constant tensor:
#      x y z
#    x 2.052350 -0.058930 0.020880 
#    y -0.058930 2.021040 -0.038040 
#    z 0.020880 -0.038040 2.083940 
# 
# From -- ./inp_files/391825.got.cif
#   From: 2010.05.17/outbox.cif.g08.bks.cpg/sg2_196_cif.got.tgz:391825.got - 2010.06.03 11:33:40.
