data_PCOD9043865
_publ_section_title
;
Structure prediction by ZEFSAII (Michael W. Deem and Ramdas Pophale) SiO2 
 PCOD9043865
Probable space group: P -1
;
_chemical_formula_sum "Si O2"
_cell_formula_units_Z 10
_cell_length_a 8.799742
_cell_length_b 15.712025
_cell_length_c 9.297533
_cell_angle_alpha 142.866449
_cell_angle_beta 61.769645
_cell_angle_gamma 145.582082
_cell_volume 368.851819
_symmetry_space_group_name_H-M "P -1"
_symmetry_group_IT_number 2
_symmetry_cell_setting 'triclinic'
loop_
_space_group_symop_operation_xyz
x,y,z
-x,-y,-z
loop_
_atom_site_type_symbol
_atom_site_label
_atom_site_fract_x
_atom_site_fract_y
_atom_site_fract_z
Si Si1 0.203851 0.949747 0.601937
Si Si2 0.615678 0.735272 0.806314
Si Si3 0.449321 0.120565 0.244079
Si Si4 0.140881 0.300819 0.846078
Si Si5 0.796635 0.338439 0.662618
O O1 0.065581 0.722812 0.451419
O O2 0.928385 0.816072 0.437389
O O3 0.454303 0.079936 0.541797
O O4 0.415945 0.199710 0.942508
O O5 0.500000 0.500000 0.500000
O O6 0.516905 0.760514 0.749383
O O7 0.000000 0.000000 0.000000
O O8 0.112705 0.906464 0.192308
O O9 0.727416 0.329312 0.517623
O O10 0.500000 0.000000 0.000000
O O11 0.500000 0.500000 0.000000
O O12 0.086670 0.432162 0.020317
#
# Coordination Sequence:
#
# PCOD9043865 Si02
#       5
#     2   2   2   2   2
#     4  10  24  48  72 113 157 213 266 329 402 493
#     4  12  31  49  79 121 167 212 267 347 418 483
#     4  11  26  51  76 114 158 213 272 331 406 491
#     4  11  27  45  80 117 160 211 270 338 407 483
#     4  10  23  45  79 107 155 208 273 320 403 481
#
# _framework density 27.111156999999999
#
# number of rings (size 3 to 8) (size 9 to 14) (size 15 to 20)
#    0.000    1.200    2.000    0.600   11.200    4.000 
#    0.000    3.000    0.000    0.000    0.000    0.000 
#    0.000    0.000    0.000    0.000    0.000    0.000 
#
# Total GULP energy -55901.836519 kJ/mol
# GULP energy per Si atom -5590.183652 kJ/mol
# Density = 2.704945 g / cm^3
# Si number density = 27.111157 Si / 1000 Ang^3
#
#
#
# Elastic Constant Matrix: (Units=GPa)
#
#
# Indices 1 2 3 4 5 6 
#
# 1 169.7522 61.4149 110.7407 -9.7858 -14.1327 -28.4140
# 2 61.4149 114.9970 62.5471 -18.3732 10.5711 -17.3162
# 3 110.7407 62.5471 256.7069 -6.7772 -5.6773 -33.0580
# 4 -9.7858 -18.3732 -6.7772 46.9357 -17.1335 3.4165
# 5 -14.1327 10.5711 -5.6773 -17.1335 62.7627 -3.3280
# 6 -28.4140 -17.3162 -33.0580 3.4165 -3.3280 44.1517
#
#
#
# Elastic Compliance Matrix: (Units=1/GPa)
#
#
# Indices 1 2 3 4 5 6 
#
# 1 0.009817 -0.003268 -0.002961 0.001213 0.002981 0.002950
# 2 -0.003268 0.012011 -0.001322 0.003013 -0.001991 0.001234
# 3 -0.002961 -0.001322 0.005730 -0.000424 0.000059 0.001904
# 4 0.001213 0.003013 -0.000424 0.025064 0.006580 0.000201
# 5 0.002981 -0.001991 0.000059 0.006580 0.018852 0.002094
# 6 0.002950 0.001234 0.001904 0.000201 0.002094 0.026599
#
#
# Mechanical properties :
#
#
# Convention : Reuss Voigt Hill
#
# Bulk Modulus (GPa) = 80.28724 112.31796 96.30260
# Shear Modulus (GPa) = 42.61595 51.22024 46.91810
#
# Velocity S-wave (km/s) = 3.96902 4.35129 4.16454
# Velocity P-wave (km/s) = 7.11917 8.17090 7.66310
#
# Compressibility (1/GPa) = 0.01245528
#
# Stress axis : x y z
#
# Youngs Moduli (GPa) = 101.86728 83.25985 174.51747
#
# Poissons Ratio (x) = 0.27212 0.51669
# Poissons Ratio (y) = 0.33294 0.23072
# Poissons Ratio (z) = 0.30159 0.11007
#
# Static dielectric constant tensor:
#      x y z
#    x 2.190490 -0.138900 0.076730 
#    y -0.138900 1.484820 0.235210 
#    z 0.076730 0.235210 2.104570 
# 
# From -- ./inp_files/57952.got.cif
#   From: 2010.05.17/outbox.cif.g08.bks.cpg/sg2_29_cif.got.tgz:57952.got - 2010.06.03 11:33:40.
