data_PCOD9043683
_publ_section_title
;
Structure prediction by ZEFSAII (Michael W. Deem and Ramdas Pophale) SiO2 
 PCOD9043683
Probable space group: P -1
;
_chemical_formula_sum "Si O2"
_cell_formula_units_Z 11
_cell_length_a 8.140400
_cell_length_b 8.511555
_cell_length_c 8.783145
_cell_angle_alpha 51.783290
_cell_angle_beta 58.533534
_cell_angle_gamma 64.394552
_cell_volume 402.366106
_symmetry_space_group_name_H-M "P -1"
_symmetry_group_IT_number 2
_symmetry_cell_setting 'triclinic'
loop_
_space_group_symop_operation_xyz
x,y,z
-x,-y,-z
loop_
_atom_site_type_symbol
_atom_site_label
_atom_site_fract_x
_atom_site_fract_y
_atom_site_fract_z
Si Si1 0.660017 0.087312 0.154408
Si Si2 0.225071 0.249657 0.934784
Si Si3 0.420653 0.577554 0.242602
Si Si4 0.014484 0.321563 0.306327
Si Si5 0.000000 0.500000 0.500000
Si Si6 0.679766 0.143413 0.434751
O O1 0.774358 0.080411 0.262034
O O2 0.774697 0.942152 0.058076
O O3 0.464995 0.999298 0.346900
O O4 0.611168 0.308161 0.971810
O O5 0.448515 0.290353 0.801716
O O6 0.078956 0.441836 0.823833
O O7 0.163752 0.249023 0.140492
O O8 0.546757 0.356827 0.327301
O O9 0.205484 0.567448 0.409942
O O10 0.111127 0.341112 0.410785
O O11 0.845133 0.187963 0.442528
#
# Coordination Sequence:
#
# PCOD9043683 Si02
#       6
#     2   2   2   2   1   2
#     4  11  23  43  75 106 136 188 234 290 345 419
#     4  10  23  45  74 100 143 184 236 286 355 411
#     4  11  25  46  70 103 141 188 230 292 345 419
#     4  10  24  45  70 104 140 189 229 292 350 422
#     4  12  26  42  72 102 136 186 240 278 356 412
#     4  10  24  47  73 102 146 182 234 285 358 411
#
# _framework density 27.338287000000001
#
# number of rings (size 3 to 8) (size 9 to 14) (size 15 to 20)
#    0.000    1.455    0.000    3.273   10.182    3.636 
#    6.545    1.818    0.000    0.000    0.000    0.000 
#    0.000    0.000    0.000    0.000    0.000    0.000 
#
# Total GULP energy -61462.842067 kJ/mol
# GULP energy per Si atom -5587.531097 kJ/mol
# Density = 2.727606 g / cm^3
# Si number density = 27.338287 Si / 1000 Ang^3
#
#
#
# Elastic Constant Matrix: (Units=GPa)
#
#
# Indices 1 2 3 4 5 6 
#
# 1 112.2813 53.1340 23.3163 7.1019 -13.8656 16.8503
# 2 53.1340 137.5102 78.1020 22.4699 7.5275 9.9282
# 3 23.3163 78.1020 119.7262 1.0655 10.8403 -1.9338
# 4 7.1019 22.4699 1.0655 50.4691 -11.7234 18.7950
# 5 -13.8656 7.5275 10.8403 -11.7234 45.7407 6.2661
# 6 16.8503 9.9282 -1.9338 18.7950 6.2661 46.2756
#
#
#
# Elastic Compliance Matrix: (Units=1/GPa)
#
#
# Indices 1 2 3 4 5 6 
#
# 1 0.013222 -0.006238 0.000714 0.004905 0.006998 -0.006386
# 2 -0.006238 0.016040 -0.008695 -0.008117 -0.004883 0.002425
# 3 0.000714 -0.008695 0.013983 0.002759 -0.001127 0.001222
# 4 0.004905 -0.008117 0.002759 0.030670 0.011948 -0.014004
# 5 0.006998 -0.004883 -0.001127 0.011948 0.029541 -0.010401
# 6 -0.006386 0.002425 0.001222 -0.014004 -0.010401 0.030562
#
#
# Mechanical properties :
#
#
# Convention : Reuss Voigt Hill
#
# Bulk Modulus (GPa) = 67.53881 75.40245 71.47063
# Shear Modulus (GPa) = 29.87010 42.82810 36.34910
#
# Velocity S-wave (km/s) = 3.30905 3.96232 3.65033
# Velocity P-wave (km/s) = 6.27361 6.96954 6.63071
#
# Compressibility (1/GPa) = 0.01480630
#
# Stress axis : x y z
#
# Youngs Moduli (GPa) = 75.63025 62.34545 71.51751
#
# Poissons Ratio (x) = 0.38892 -0.05107
# Poissons Ratio (y) = 0.47179 0.62184
# Poissons Ratio (z) = -0.05400 0.54209
#
# Static dielectric constant tensor:
#      x y z
#    x 2.087830 0.001430 0.058860 
#    y 0.001430 2.276270 0.071640 
#    z 0.058860 0.071640 2.234350 
# 
# From -- ./inp_files/149817.got.cif
#   From: 2010.05.17/outbox.cif.g08.bks.cpg/sg2_75_cif.got.tgz:149817.got - 2010.06.03 11:33:40.
