data_PCOD9043241
_publ_section_title
;
Structure prediction by ZEFSAII (Michael W. Deem and Ramdas Pophale) SiO2 
 PCOD9043241
Probable space group: P -1
;
_chemical_formula_sum "Si O2"
_cell_formula_units_Z 15
_cell_length_a 8.231411
_cell_length_b 8.905763
_cell_length_c 11.094083
_cell_angle_alpha 88.278210
_cell_angle_beta 61.760994
_cell_angle_gamma 63.995618
_cell_volume 627.572585
_symmetry_space_group_name_H-M "P -1"
_symmetry_group_IT_number 2
_symmetry_cell_setting 'triclinic'
loop_
_space_group_symop_operation_xyz
x,y,z
-x,-y,-z
loop_
_atom_site_type_symbol
_atom_site_label
_atom_site_fract_x
_atom_site_fract_y
_atom_site_fract_z
Si Si1 0.859397 0.206181 0.880029
Si Si2 0.835300 0.275560 0.627079
Si Si3 0.224943 0.356945 0.975876
Si Si4 0.725036 0.986307 0.595957
Si Si5 0.270713 0.520486 0.563465
Si Si6 0.500000 0.500000 0.000000
Si Si7 0.287245 0.217179 0.712636
Si Si8 0.108638 0.147308 0.198347
O O1 0.744691 0.319093 0.793481
O O2 0.663393 0.317693 0.029983
O O3 0.076609 0.208378 0.817701
O O4 0.908580 0.015052 0.840514
O O5 0.785994 0.435770 0.558044
O O6 0.086841 0.151881 0.549145
O O7 0.763748 0.151987 0.585775
O O8 0.338552 0.426924 0.021649
O O9 0.350366 0.281406 0.811342
O O10 0.205899 0.210914 0.059446
O O11 0.000000 0.500000 0.000000
O O12 0.763003 0.913147 0.720019
O O13 0.496274 0.038473 0.626266
O O14 0.500000 0.500000 0.500000
O O15 0.253830 0.358726 0.622040
O O16 0.107933 0.687496 0.691356
#
# Coordination Sequence:
#
# PCOD9043241 Si02
#       8
#     2   2   2   2   2   1   2   2
#     4  11  25  42  67 102 140 183 233 288 344 415
#     4   9  19  39  63  90 135 178 224 274 347 405
#     4  12  24  48  71  98 139 180 228 295 340 416
#     4   9  19  38  63  94 130 176 223 283 336 407
#     4  11  21  38  69  99 130 187 229 286 347 409
#     4  12  26  46  72 100 136 184 230 288 354 400
#     4  12  24  42  67 103 139 178 234 291 345 406
#     4  10  23  45  69  98 136 183 231 278 356 411
#
# _framework density 23.901615
#
# number of rings (size 3 to 8) (size 9 to 14) (size 15 to 20)
#    0.000    1.333    4.000    2.400    0.000    3.733 
#    2.400    0.000    0.000    0.000    0.000    0.000 
#    0.000    0.000    0.000    0.000    0.000    0.000 
#
# Total GULP energy -83680.603945 kJ/mol
# GULP energy per Si atom -5578.706930 kJ/mol
# Density = 2.384721 g / cm^3
# Si number density = 23.901615 Si / 1000 Ang^3
#
#
#
# Elastic Constant Matrix: (Units=GPa)
#
#
# Indices 1 2 3 4 5 6 
#
# 1 135.8855 61.3662 5.1269 8.5795 -33.8618 1.2503
# 2 61.3662 121.4054 26.4868 -20.2250 -13.2874 -4.7762
# 3 5.1269 26.4868 44.0058 -23.4515 1.8426 1.6395
# 4 8.5795 -20.2250 -23.4515 39.5560 -10.9484 -10.3591
# 5 -33.8618 -13.2874 1.8426 -10.9484 34.1460 18.4152
# 6 1.2503 -4.7762 1.6395 -10.3591 18.4152 41.1424
#
#
#
# Elastic Compliance Matrix: (Units=1/GPa)
#
#
# Indices 1 2 3 4 5 6 
#
# 1 0.014747 -0.006880 -0.000731 -0.005373 0.015357 -0.009444
# 2 -0.006880 0.013740 -0.003845 0.006995 -0.001360 0.004327
# 3 -0.000731 -0.003845 0.035885 0.020463 0.000823 0.002930
# 4 -0.005373 0.006995 0.020463 0.046245 0.006264 0.009000
# 5 0.015357 -0.001360 0.000823 0.006264 0.059917 -0.025899
# 6 -0.009444 0.004327 0.002930 0.009000 -0.025899 0.038837
#
#
# Mechanical properties :
#
#
# Convention : Reuss Voigt Hill
#
# Bulk Modulus (GPa) = 24.12024 54.13963 39.12994
# Shear Modulus (GPa) = 20.31656 36.85666 28.58661
#
# Velocity S-wave (km/s) = 2.91865 3.93111 3.46209
# Velocity P-wave (km/s) = 4.63373 6.58066 5.69107
#
# Compressibility (1/GPa) = 0.04145895
#
# Stress axis : x y z
#
# Youngs Moduli (GPa) = 67.81109 72.77896 27.86659
#
# Poissons Ratio (x) = 0.50074 0.02038
# Poissons Ratio (y) = 0.46656 0.10715
# Poissons Ratio (z) = 0.04959 0.27984
#
# Static dielectric constant tensor:
#      x y z
#    x 1.978090 -0.080750 -0.019950 
#    y -0.080750 1.915600 -0.071780 
#    z -0.019950 -0.071780 1.672760 
# 
# From -- ./inp_files/381919.got.cif
#   From: 2010.05.17/outbox.cif.g08.bks.cpg/sg2_191_cif.got.tgz:381919.got - 2010.06.03 11:33:40.
