data_PCOD9043840
_publ_section_title
;
Structure prediction by ZEFSAII (Michael W. Deem and Ramdas Pophale) SiO2 
 PCOD9043840
Probable space group: P -1
;
_chemical_formula_sum "Si O2"
_cell_formula_units_Z 13
_cell_length_a 9.643083
_cell_length_b 11.705025
_cell_length_c 8.446616
_cell_angle_alpha 139.388333
_cell_angle_beta 75.833179
_cell_angle_gamma 82.280192
_cell_volume 518.567512
_symmetry_space_group_name_H-M "P -1"
_symmetry_group_IT_number 2
_symmetry_cell_setting 'triclinic'
loop_
_space_group_symop_operation_xyz
x,y,z
-x,-y,-z
loop_
_atom_site_type_symbol
_atom_site_label
_atom_site_fract_x
_atom_site_fract_y
_atom_site_fract_z
Si Si1 0.337389 0.412912 0.701309
Si Si2 0.624366 0.031170 0.389174
Si Si3 0.932081 0.647052 0.822807
Si Si4 0.253718 0.863467 0.243402
Si Si5 0.893934 0.099174 0.976585
Si Si6 0.000000 0.500000 0.000000
Si Si7 0.464123 0.820080 0.863299
O O1 0.505776 0.243056 0.558739
O O2 0.386931 0.378763 0.466610
O O3 0.277070 0.640421 0.013675
O O4 0.190526 0.372485 0.742120
O O5 0.248930 0.952478 0.507889
O O6 0.500000 0.000000 0.500000
O O7 0.746719 0.837299 0.045444
O O8 0.055937 0.734182 0.901659
O O9 0.000000 0.500000 0.500000
O O10 0.928770 0.548137 0.885913
O O11 0.103870 0.996437 0.300616
O O12 0.420082 0.826121 0.066240
O O13 0.706372 0.160517 0.135925
O O14 0.000000 0.000000 0.000000
O O15 0.500000 0.000000 0.000000
#
# Coordination Sequence:
#
# PCOD9043840 Si02
#       7
#     2   2   2   2   2   1   2
#     4  12  24  49  72 116 162 211 272 335 412 490
#     4  12  26  48  80 117 158 217 270 333 416 501
#     4  12  29  54  81 123 169 213 276 348 420 500
#     4  10  25  46  77 114 158 211 278 332 407 502
#     4  10  24  49  77 120 159 214 269 338 421 483
#     4  12  26  50  80 114 162 208 276 336 418 472
#     4  10  23  45  77 109 154 210 271 329 403 491
#
# _framework density 25.069061999999999
#
# number of rings (size 3 to 8) (size 9 to 14) (size 15 to 20)
#    0.923    0.000    3.077    2.769    0.000    6.769 
#    8.308    0.000    0.000    0.000    0.000    0.000 
#    0.000    0.000    0.000    0.000    0.000    0.000 
#
# Total GULP energy -72374.584840 kJ/mol
# GULP energy per Si atom -5567.275757 kJ/mol
# Density = 2.501200 g / cm^3
# Si number density = 25.069062 Si / 1000 Ang^3
#
#
#
# Elastic Constant Matrix: (Units=GPa)
#
#
# Indices 1 2 3 4 5 6 
#
# 1 139.2821 17.1783 45.8667 6.6039 -18.9732 -10.0246
# 2 17.1783 81.7726 20.9535 2.5296 -2.6078 -23.0840
# 3 45.8667 20.9535 131.6644 -0.2412 -12.4167 -18.4363
# 4 6.6039 2.5296 -0.2412 29.6676 1.5702 5.4712
# 5 -18.9732 -2.6078 -12.4167 1.5702 43.9573 -1.6001
# 6 -10.0246 -23.0840 -18.4363 5.4712 -1.6001 47.2592
#
#
#
# Elastic Compliance Matrix: (Units=1/GPa)
#
#
# Indices 1 2 3 4 5 6 
#
# 1 0.008686 -0.000778 -0.002494 -0.002209 0.003108 0.000850
# 2 -0.000778 0.014703 -0.001052 -0.002392 0.000576 0.006903
# 3 -0.002494 -0.001052 0.009133 0.000168 0.001528 0.002552
# 4 -0.002209 -0.002392 0.000168 0.035604 -0.002530 -0.005779
# 5 0.003108 0.000576 0.001528 -0.002530 0.024744 0.002667
# 6 0.000850 0.006903 0.002552 -0.005779 0.002667 0.026467
#
#
# Mechanical properties :
#
#
# Convention : Reuss Voigt Hill
#
# Bulk Modulus (GPa) = 41.88722 57.85737 49.87229
# Shear Modulus (GPa) = 36.77979 42.09152 39.43565
#
# Velocity S-wave (km/s) = 3.83448 4.10203 3.97051
# Velocity P-wave (km/s) = 6.02904 6.75017 6.39977
#
# Compressibility (1/GPa) = 0.02387363
#
# Stress axis : x y z
#
# Youngs Moduli (GPa) = 115.12380 68.01269 109.49183
#
# Poissons Ratio (x) = 0.05293 0.27307
# Poissons Ratio (y) = 0.08959 0.11522
# Poissons Ratio (z) = 0.28711 0.07157
#
# Static dielectric constant tensor:
#      x y z
#    x 2.030730 -0.064080 0.007190 
#    y -0.064080 2.117610 0.008100 
#    z 0.007190 0.008100 1.939780 
# 
# From -- ./inp_files/198651.got.cif
#   From: 2010.05.17/outbox.cif.g08.bks.cpg/sg2_100_cif.got.tgz:198651.got - 2010.06.03 11:33:40.
