data_PCOD9043891
_publ_section_title
;
Structure prediction by ZEFSAII (Michael W. Deem and Ramdas Pophale) SiO2 
 PCOD9043891
Probable space group: P -1
;
_chemical_formula_sum "Si O2"
_cell_formula_units_Z 14
_cell_length_a 10.155612
_cell_length_b 14.302490
_cell_length_c 7.101002
_cell_angle_alpha 37.120168
_cell_angle_beta 93.243462
_cell_angle_gamma 87.162653
_cell_volume 613.745788
_symmetry_space_group_name_H-M "P -1"
_symmetry_group_IT_number 2
_symmetry_cell_setting 'triclinic'
loop_
_space_group_symop_operation_xyz
x,y,z
-x,-y,-z
loop_
_atom_site_type_symbol
_atom_site_label
_atom_site_fract_x
_atom_site_fract_y
_atom_site_fract_z
Si Si1 0.656172 0.313240 0.325846
Si Si2 0.940567 0.680483 0.681318
Si Si3 0.476361 0.175224 0.795460
Si Si4 0.100764 0.937781 0.278075
Si Si5 0.542503 0.335747 0.882253
Si Si6 0.821042 0.750997 0.168301
Si Si7 0.270676 0.376635 0.984909
O O1 0.517009 0.291222 0.450332
O O2 0.757219 0.154710 0.629938
O O3 0.711313 0.455106 0.204137
O O4 0.643913 0.341511 0.053989
O O5 0.921683 0.699442 0.427282
O O6 0.031154 0.799731 0.582237
O O7 0.797254 0.712744 0.717673
O O8 0.000000 0.500000 0.000000
O O9 0.571568 0.205832 0.930898
O O10 0.326567 0.218267 0.796566
O O11 0.500000 0.000000 0.000000
O O12 0.137408 0.084540 0.161194
O O13 0.000000 0.000000 0.000000
O O14 0.500000 0.500000 0.500000
O O15 0.413222 0.299023 0.043453
O O16 0.820975 0.626811 0.201677
#
# Coordination Sequence:
#
# PCOD9043891 Si02
#       7
#     2   2   2   2   2   2   2
#     4  12  23  43  68  98 138 172 218 279 333 394
#     4  11  23  42  67  94 129 177 224 271 324 389
#     4  11  23  42  68  99 132 175 212 271 342 400
#     4  10  23  46  65  93 134 176 222 274 322 390
#     4  11  25  41  66 103 133 167 219 272 338 404
#     4  10  24  44  66  97 135 165 225 274 327 400
#     4  11  24  40  69  99 126 174 216 274 336 384
#
# _framework density 22.810746000000002
#
# number of rings (size 3 to 8) (size 9 to 14) (size 15 to 20)
#    0.000    1.143    4.286    1.286    4.000    1.714 
#    2.571    0.000    0.000    0.000    0.000    0.000 
#    0.000    0.000    0.000    0.000    0.000    0.000 
#
# Total GULP energy -78143.759078 kJ/mol
# GULP energy per Si atom -5581.697077 kJ/mol
# Density = 2.275883 g / cm^3
# Si number density = 22.810746 Si / 1000 Ang^3
#
#
#
# Elastic Constant Matrix: (Units=GPa)
#
#
# Indices 1 2 3 4 5 6 
#
# 1 73.7074 26.9280 28.1231 -5.6011 -17.8564 21.8786
# 2 26.9280 180.2673 63.3837 11.1750 1.3353 40.5347
# 3 28.1231 63.3837 77.3867 2.8839 -7.2394 20.7281
# 4 -5.6011 11.1750 2.8839 34.4267 7.3317 -1.3529
# 5 -17.8564 1.3353 -7.2394 7.3317 44.8624 -6.6429
# 6 21.8786 40.5347 20.7281 -1.3529 -6.6429 37.3070
#
#
#
# Elastic Compliance Matrix: (Units=1/GPa)
#
#
# Indices 1 2 3 4 5 6 
#
# 1 0.019002 0.000466 -0.004715 0.001893 0.005292 -0.008020
# 2 0.000466 0.009447 -0.005937 -0.002412 -0.001792 -0.007646
# 3 -0.004715 -0.005937 0.020134 -0.000901 0.001438 -0.001748
# 4 0.001893 -0.002412 -0.000901 0.031173 -0.004056 0.002420
# 5 0.005292 -0.001792 0.001438 -0.004056 0.025711 0.002476
# 6 -0.008020 -0.007646 -0.001748 0.002420 0.002476 0.041315
#
#
# Mechanical properties :
#
#
# Convention : Reuss Voigt Hill
#
# Bulk Modulus (GPa) = 35.44519 63.13679 49.29099
# Shear Modulus (GPa) = 28.31930 37.51432 32.91681
#
# Velocity S-wave (km/s) = 3.52730 4.05975 3.80286
# Velocity P-wave (km/s) = 5.67113 7.05082 6.39827
#
# Compressibility (1/GPa) = 0.02821257
#
# Stress axis : x y z
#
# Youngs Moduli (GPa) = 52.62563 105.85155 49.66625
#
# Poissons Ratio (x) = -0.04932 0.23416
# Poissons Ratio (y) = -0.02452 0.29486
# Poissons Ratio (z) = 0.24811 0.62843
#
# Static dielectric constant tensor:
#      x y z
#    x 1.958090 0.006340 0.015710 
#    y 0.006340 1.862150 0.006930 
#    z 0.015710 0.006930 1.911200 
# 
# From -- ./inp_files/68144.got.cif
#   From: 2010.05.17/outbox.cif.g08.bks.cpg/sg2_35_cif.got.tgz:68144.got - 2010.06.03 11:33:40.
