data_PCOD9043925
_publ_section_title
;
Structure prediction by ZEFSAII (Michael W. Deem and Ramdas Pophale) SiO2 
 PCOD9043925
Probable space group: P -1
;
_chemical_formula_sum "Si O2"
_cell_formula_units_Z 14
_cell_length_a 10.182977
_cell_length_b 8.509821
_cell_length_c 9.848257
_cell_angle_alpha 120.978167
_cell_angle_beta 125.463793
_cell_angle_gamma 54.127572
_cell_volume 543.144105
_symmetry_space_group_name_H-M "P -1"
_symmetry_group_IT_number 2
_symmetry_cell_setting 'triclinic'
loop_
_space_group_symop_operation_xyz
x,y,z
-x,-y,-z
loop_
_atom_site_type_symbol
_atom_site_label
_atom_site_fract_x
_atom_site_fract_y
_atom_site_fract_z
Si Si1 0.873327 0.147113 0.288441
Si Si2 0.195417 0.420709 0.634735
Si Si3 0.763349 0.121404 0.511256
Si Si4 0.300892 0.837247 0.062166
Si Si5 0.337506 0.410748 0.984977
Si Si6 0.829958 0.509089 0.815931
Si Si7 0.630466 0.815779 0.611912
O O1 0.769679 0.381501 0.291006
O O2 0.788300 0.105367 0.355485
O O3 0.853140 0.050714 0.090597
O O4 0.079627 0.075057 0.417543
O O5 0.205749 0.380501 0.783277
O O6 0.000000 0.500000 0.500000
O O7 0.334117 0.246404 0.550828
O O8 0.816881 0.300859 0.675830
O O9 0.563466 0.162949 0.449197
O O10 0.290816 0.649091 0.051101
O O11 0.477621 0.732387 0.031707
O O12 0.324893 0.996422 0.244696
O O13 0.323364 0.369178 0.113677
O O14 0.780203 0.636175 0.705905
O O15 0.000000 0.500000 0.000000
#
# Coordination Sequence:
#
# PCOD9043925 Si02
#       7
#     2   2   2   2   2   2   2
#     4  10  23  46  67 100 145 182 229 286 358 411
#     4  11  25  45  69 102 142 187 227 291 353 421
#     4  11  25  41  74 106 142 180 237 298 346 411
#     4  10  24  46  71 103 137 190 228 292 349 426
#     4  10  25  44  72  97 147 180 234 286 362 411
#     4  12  25  44  72 106 141 185 235 294 348 419
#     4  12  26  44  78 105 140 180 250 287 346 416
#
# _framework density 25.775848
#
# number of rings (size 3 to 8) (size 9 to 14) (size 15 to 20)
#    0.000    1.143    1.429    3.000    8.000    5.143 
#    0.000    3.571    0.000    0.000    0.000    0.000 
#    0.000    0.000    0.000    0.000    0.000    0.000 
#
# Total GULP energy -78408.323939 kJ/mol
# GULP energy per Si atom -5600.594567 kJ/mol
# Density = 2.571718 g / cm^3
# Si number density = 25.775848 Si / 1000 Ang^3
#
#
#
# Elastic Constant Matrix: (Units=GPa)
#
#
# Indices 1 2 3 4 5 6 
#
# 1 72.9067 -2.0042 10.1062 3.9532 -8.0615 -15.9574
# 2 -2.0042 72.0604 40.2422 5.2335 -6.9593 1.9379
# 3 10.1062 40.2422 108.1280 7.1979 0.9521 0.9957
# 4 3.9532 5.2335 7.1979 53.1395 -2.1749 -1.9597
# 5 -8.0615 -6.9593 0.9521 -2.1749 46.9964 -6.9446
# 6 -15.9574 1.9379 0.9957 -1.9597 -6.9446 24.7905
#
#
#
# Elastic Compliance Matrix: (Units=1/GPa)
#
#
# Indices 1 2 3 4 5 6 
#
# 1 0.017491 0.002109 -0.002549 -0.000485 0.005206 0.012616
# 2 0.002109 0.018163 -0.006941 -0.000830 0.003313 0.001079
# 3 -0.002549 -0.006941 0.012172 -0.000944 -0.002087 -0.002247
# 4 -0.000485 -0.000830 -0.000944 0.019160 0.000931 0.001566
# 5 0.005206 0.003313 -0.002087 0.000931 0.024230 0.010037
# 6 0.012616 0.001079 -0.002247 0.001566 0.010037 0.051400
#
#
# Mechanical properties :
#
#
# Convention : Reuss Voigt Hill
#
# Bulk Modulus (GPa) = 30.24512 38.86484 34.55498
# Shear Modulus (GPa) = 29.69121 38.63534 34.16327
#
# Velocity S-wave (km/s) = 3.39765 3.87576 3.64455
# Velocity P-wave (km/s) = 5.21070 5.92785 5.58081
#
# Compressibility (1/GPa) = 0.03306318
#
# Stress axis : x y z
#
# Youngs Moduli (GPa) = 57.17274 55.05626 82.15818
#
# Poissons Ratio (x) = -0.11611 0.20945
# Poissons Ratio (y) = -0.12057 0.57024
# Poissons Ratio (z) = 0.14576 0.38213
#
# Static dielectric constant tensor:
#      x y z
#    x 2.010120 0.012140 0.079370 
#    y 0.012140 2.063950 0.060290 
#    z 0.079370 0.060290 2.109830 
# 
# From -- ./inp_files/419800.got.cif
#   From: 2010.05.17/outbox.cif.g08.bks.cpg/sg2_210_cif.got.tgz:419800.got - 2010.06.03 11:33:40.
