data_PCOD9043080
_publ_section_title
;
Structure prediction by ZEFSAII (Michael W. Deem and Ramdas Pophale) SiO2 
 PCOD9043080
Probable space group: P -1
;
_chemical_formula_sum "Si O2"
_cell_formula_units_Z 16
_cell_length_a 9.140627
_cell_length_b 21.304483
_cell_length_c 8.937312
_cell_angle_alpha 39.793404
_cell_angle_beta 132.940265
_cell_angle_gamma 125.014808
_cell_volume 810.727149
_symmetry_space_group_name_H-M "P -1"
_symmetry_group_IT_number 2
_symmetry_cell_setting 'triclinic'
loop_
_space_group_symop_operation_xyz
x,y,z
-x,-y,-z
loop_
_atom_site_type_symbol
_atom_site_label
_atom_site_fract_x
_atom_site_fract_y
_atom_site_fract_z
Si Si1 0.666494 0.744955 0.389614
Si Si2 0.009695 0.614771 0.764834
Si Si3 0.486270 0.882760 0.590202
Si Si4 0.571956 0.713332 0.731584
Si Si5 0.724742 0.259793 0.068141
Si Si6 0.816409 0.426716 0.328643
Si Si7 0.225905 0.052283 0.072880
Si Si8 0.970589 0.643995 0.114734
O O1 0.612801 0.742771 0.531848
O O2 0.466176 0.718796 0.200292
O O3 0.825272 0.669247 0.595293
O O4 0.752896 0.853295 0.193838
O O5 0.040281 0.624373 0.591696
O O6 0.209219 0.661495 0.902390
O O7 0.000000 0.500000 0.000000
O O8 0.503813 0.800210 0.627854
O O9 0.695886 0.912107 0.771161
O O10 0.385600 0.975100 0.285227
O O11 0.336607 0.839265 0.699819
O O12 0.407473 0.617653 0.788971
O O13 0.785054 0.685621 0.989840
O O14 0.913948 0.273597 0.062595
O O15 0.871344 0.544652 0.144097
O O16 0.868703 0.393029 0.592294
O O17 0.000000 0.000000 0.000000
#
# Coordination Sequence:
#
# PCOD9043080 Si02
#       8
#     2   2   2   2   2   2   2   2
#     4  11  25  41  66  92 127 169 206 262 321 370
#     4  12  23  40  63  94 127 173 216 253 305 374
#     4  10  24  41  68  95 121 160 213 267 313 383
#     4  12  23  40  64  95 129 164 211 262 315 367
#     4  11  21  42  61  92 128 168 211 257 307 374
#     4  11  24  40  60  92 133 172 217 254 304 371
#     4  10  23  45  68  90 121 162 210 262 327 379
#     4  11  24  40  60  92 133 175 209 258 309 367
#
# _framework density 19.735368999999999
#
# number of rings (size 3 to 8) (size 9 to 14) (size 15 to 20)
#    0.000    1.000    5.000    1.125    3.500    1.000 
#    0.000    0.625    0.000    0.000    0.000    0.000 
#    0.000    0.000    0.000    0.000    0.000    0.000 
#
# Total GULP energy -89253.036884 kJ/mol
# GULP energy per Si atom -5578.314805 kJ/mol
# Density = 1.969045 g / cm^3
# Si number density = 19.735369 Si / 1000 Ang^3
#
#
#
# Elastic Constant Matrix: (Units=GPa)
#
#
# Indices 1 2 3 4 5 6 
#
# 1 103.0469 39.3082 30.5536 -8.6837 2.7509 1.4799
# 2 39.3082 110.1480 19.9839 -1.7251 7.5235 17.2014
# 3 30.5536 19.9839 72.2430 -11.4260 4.6360 8.1515
# 4 -8.6837 -1.7251 -11.4260 24.3469 -0.4829 3.6027
# 5 2.7509 7.5235 4.6360 -0.4829 23.5868 3.6614
# 6 1.4799 17.2014 8.1515 3.6027 3.6614 32.2717
#
#
#
# Elastic Compliance Matrix: (Units=1/GPa)
#
#
# Indices 1 2 3 4 5 6 
#
# 1 0.012637 -0.004120 -0.004201 0.001891 0.000328 0.002429
# 2 -0.004120 0.011708 -0.000756 -0.000213 -0.002243 -0.005582
# 3 -0.004201 -0.000756 0.017613 0.007336 -0.001888 -0.004458
# 4 0.001891 -0.000213 0.007336 0.046225 0.000444 -0.007037
# 5 0.000328 -0.002243 -0.001888 0.000444 0.043979 -0.003382
# 6 0.002429 -0.005582 -0.004458 -0.007037 -0.003382 0.036146
#
#
# Mechanical properties :
#
#
# Convention : Reuss Voigt Hill
#
# Bulk Modulus (GPa) = 42.01072 51.68104 46.84588
# Shear Modulus (GPa) = 25.72067 29.08056 27.40062
#
# Velocity S-wave (km/s) = 3.61401 3.84282 3.73017
# Velocity P-wave (km/s) = 6.22479 6.77743 6.50698
#
# Compressibility (1/GPa) = 0.02380345
#
# Stress axis : x y z
#
# Youngs Moduli (GPa) = 79.13161 85.41379 56.77781
#
# Poissons Ratio (x) = 0.35188 0.23853
# Poissons Ratio (y) = 0.32600 0.04293
# Poissons Ratio (z) = 0.33244 0.06458
#
# Static dielectric constant tensor:
#      x y z
#    x 1.735990 0.027470 -0.038760 
#    y 0.027470 1.702320 0.007250 
#    z -0.038760 0.007250 1.698490 
# 
# From -- ./inp_files/214952.got.cif
#   From: 2010.05.17/outbox.cif.g08.bks.cpg/sg2_108_cif.got.tgz:214952.got - 2010.06.03 11:33:40.
