data_PCOD9043483
_publ_section_title
;
Structure prediction by ZEFSAII (Michael W. Deem and Ramdas Pophale) SiO2 
 PCOD9043483
Probable space group: P -1
;
_chemical_formula_sum "Si O2"
_cell_formula_units_Z 12
_cell_length_a 8.835255
_cell_length_b 17.675137
_cell_length_c 10.322892
_cell_angle_alpha 143.417224
_cell_angle_beta 134.999780
_cell_angle_gamma 44.299331
_cell_volume 636.155302
_symmetry_space_group_name_H-M "P -1"
_symmetry_group_IT_number 2
_symmetry_cell_setting 'triclinic'
loop_
_space_group_symop_operation_xyz
x,y,z
-x,-y,-z
loop_
_atom_site_type_symbol
_atom_site_label
_atom_site_fract_x
_atom_site_fract_y
_atom_site_fract_z
Si Si1 0.494280 0.153630 0.693477
Si Si2 0.660574 0.093007 0.449567
Si Si3 0.956894 0.657194 0.180291
Si Si4 0.986097 0.091081 0.872485
Si Si5 0.243167 0.203365 0.000151
Si Si6 0.295658 0.795838 0.649561
O O1 0.473564 0.175406 0.555193
O O2 0.286986 0.254961 0.784835
O O3 0.744827 0.155937 0.888915
O O4 0.500000 0.000000 0.500000
O O5 0.664934 0.174055 0.435445
O O6 0.114202 0.938983 0.368029
O O7 0.648402 0.949632 0.201681
O O8 0.148217 0.699803 0.428241
O O9 0.939989 0.706721 0.088901
O O10 0.000000 0.500000 0.000000
O O11 0.144874 0.945035 0.819366
O O12 0.131512 0.182502 0.040796
O O13 0.452812 0.256410 0.210919
#
# Coordination Sequence:
#
# PCOD9043483 Si02
#       6
#     2   2   2   2   2   2
#     4  10  17  33  61  79 112 144 181 226 276 319
#     4   9  16  32  60  81 107 137 184 225 273 310
#     4  12  23  39  55  79 116 151 179 222 277 334
#     4   9  16  32  60  81 107 137 184 225 273 310
#     4  11  19  34  58  84 110 145 183 226 273 325
#     4  11  19  34  58  84 110 145 183 226 273 325
#
# _framework density 18.863316999999999
#
# number of rings (size 3 to 8) (size 9 to 14) (size 15 to 20)
#    1.000    0.667    6.667    3.000    0.000    0.667 
#    0.000    8.333    0.000    2.000    0.000    0.000 
#    0.000    0.000    0.000    0.000    0.000    0.000 
#
# Total GULP energy -66811.157071 kJ/mol
# GULP energy per Si atom -5567.596423 kJ/mol
# Density = 1.882038 g / cm^3
# Si number density = 18.863317 Si / 1000 Ang^3
#
#
#
# Elastic Constant Matrix: (Units=GPa)
#
#
# Indices 1 2 3 4 5 6 
#
# 1 63.2801 16.6714 21.4874 15.2213 18.5535 -17.8907
# 2 16.6714 45.1338 38.1110 9.6343 16.4207 -12.1208
# 3 21.4874 38.1110 59.9934 -0.4632 33.9259 -15.3897
# 4 15.2213 9.6343 -0.4632 34.3283 -4.0151 7.3055
# 5 18.5535 16.4207 33.9259 -4.0151 29.5796 -9.0116
# 6 -17.8907 -12.1208 -15.3897 7.3055 -9.0116 23.7009
#
#
#
# Elastic Compliance Matrix: (Units=1/GPa)
#
#
# Indices 1 2 3 4 5 6 
#
# 1 0.035853 0.004331 0.008824 -0.027272 -0.028829 0.032454
# 2 0.004331 0.065328 -0.050832 -0.022396 0.022055 0.018961
# 3 0.008824 -0.050832 0.096697 -0.000693 -0.084839 0.011409
# 4 -0.027272 -0.022396 -0.000693 0.059233 0.025915 -0.040895
# 5 -0.028829 0.022055 -0.084839 0.025915 0.133526 -0.022789
# 6 0.032454 0.018961 0.011409 -0.040895 -0.022789 0.087736
#
#
# Mechanical properties :
#
#
# Convention : Reuss Voigt Hill
#
# Bulk Modulus (GPa) = 8.16165 35.66077 21.91121
# Shear Modulus (GPa) = 8.40948 23.66426 16.03687
#
# Velocity S-wave (km/s) = 2.11371 3.54575 2.91892
# Velocity P-wave (km/s) = 3.20830 5.97570 4.79595
#
# Compressibility (1/GPa) = 0.12252419
#
# Stress axis : x y z
#
# Youngs Moduli (GPa) = 27.89139 15.30745 10.34162
#
# Poissons Ratio (x) = -0.06629 -0.09126
# Poissons Ratio (y) = -0.12079 0.52569
# Poissons Ratio (z) = -0.24613 0.77811
#
# Static dielectric constant tensor:
#      x y z
#    x 1.756190 -0.025980 0.024000 
#    y -0.025980 1.650490 -0.051600 
#    z 0.024000 -0.051600 1.661320 
# 
# From -- ./inp_files/164069.got.cif
#   From: 2010.05.17/outbox.cif.g08.bks.cpg/sg2_83_cif.got.tgz:164069.got - 2010.06.03 11:33:40.
