data_PCOD9043355
_publ_section_title
;
Structure prediction by ZEFSAII (Michael W. Deem and Ramdas Pophale) SiO2 
 PCOD9043355
Probable space group: P -1
;
_chemical_formula_sum "Si O2"
_cell_formula_units_Z 10
_cell_length_a 16.302030
_cell_length_b 10.112979
_cell_length_c 9.102047
_cell_angle_alpha 73.449794
_cell_angle_beta 37.398808
_cell_angle_gamma 42.952296
_cell_volume 433.086432
_symmetry_space_group_name_H-M "P -1"
_symmetry_group_IT_number 2
_symmetry_cell_setting 'triclinic'
loop_
_space_group_symop_operation_xyz
x,y,z
-x,-y,-z
loop_
_atom_site_type_symbol
_atom_site_label
_atom_site_fract_x
_atom_site_fract_y
_atom_site_fract_z
Si Si1 0.296865 0.571422 0.343567
Si Si2 0.964838 0.697636 0.575090
Si Si3 0.707904 0.263651 0.401474
Si Si4 0.464141 0.883427 0.203479
Si Si5 0.832708 0.618975 0.350385
O O1 0.056680 0.758637 0.505670
O O2 0.253722 0.678409 0.527420
O O3 0.345215 0.366091 0.388273
O O4 0.500000 0.500000 0.000000
O O5 0.059873 0.382187 0.225624
O O6 0.227319 0.410933 0.200794
O O7 0.714478 0.932596 0.748165
O O8 0.500000 0.500000 0.500000
O O9 0.613912 0.196588 0.602403
O O10 0.000000 0.000000 0.000000
O O11 0.348457 0.094469 0.421506
O O12 0.000000 0.500000 0.000000
#
# Coordination Sequence:
#
# PCOD9043355 Si02
#       5
#     2   2   2   2   2
#     4  10  23  47  69 106 142 188 238 290 352 428
#     4  10  25  43  75 100 142 184 245 283 354 424
#     4  12  26  44  68 102 142 185 232 294 358 417
#     4  12  23  48  71 103 138 194 238 290 351 433
#     4  10  23  45  70 109 144 185 236 300 353 419
#
# _framework density 23.090081000000001
#
# number of rings (size 3 to 8) (size 9 to 14) (size 15 to 20)
#    1.200    0.000    2.000    3.600    0.000    2.400 
#    0.000    3.000    0.000    0.000    0.000    0.000 
#    0.000    0.000    0.000    0.000    0.000    0.000 
#
# Total GULP energy -55788.805558 kJ/mol
# GULP energy per Si atom -5578.880556 kJ/mol
# Density = 2.303753 g / cm^3
# Si number density = 23.090081 Si / 1000 Ang^3
#
#
#
# Elastic Constant Matrix: (Units=GPa)
#
#
# Indices 1 2 3 4 5 6 
#
# 1 176.9859 53.0708 99.4940 8.7908 32.8017 28.0131
# 2 53.0708 119.1924 63.0230 -7.8006 14.6881 20.7645
# 3 99.4940 63.0230 158.9307 1.0068 23.5371 -19.7184
# 4 8.7908 -7.8006 1.0068 42.3338 -6.7299 -6.7588
# 5 32.8017 14.6881 23.5371 -6.7299 50.6502 4.9090
# 6 28.0131 20.7645 -19.7184 -6.7588 4.9090 49.9775
#
#
#
# Elastic Compliance Matrix: (Units=1/GPa)
#
#
# Indices 1 2 3 4 5 6 
#
# 1 0.014131 0.001710 -0.010491 -0.005119 -0.004187 -0.013052
# 2 0.001710 0.013265 -0.007404 0.000706 -0.000523 -0.009244
# 3 -0.010491 -0.007404 0.017909 0.002925 -0.000589 0.016476
# 4 -0.005119 0.000706 0.002925 0.026576 0.004616 0.006871
# 5 -0.004187 -0.000523 -0.000589 0.004616 0.023430 0.000655
# 6 -0.013052 -0.009244 0.016476 0.006871 0.000655 0.038531
#
#
# Mechanical properties :
#
#
# Convention : Reuss Voigt Hill
#
# Bulk Modulus (GPa) = 77.31892 98.47606 87.89749
# Shear Modulus (GPa) = 29.32126 44.56036 36.94081
#
# Velocity S-wave (km/s) = 3.56738 4.39777 4.00416
# Velocity P-wave (km/s) = 7.10822 8.27819 7.71541
#
# Compressibility (1/GPa) = 0.01293345
#
# Stress axis : x y z
#
# Youngs Moduli (GPa) = 70.76462 75.38875 55.83835
#
# Poissons Ratio (x) = -0.12891 0.58582
# Poissons Ratio (y) = -0.12101 0.41344
# Poissons Ratio (z) = 0.74241 0.55820
#
# Static dielectric constant tensor:
#      x y z
#    x 1.899770 0.037770 -0.045250 
#    y 0.037770 1.917110 -0.025140 
#    z -0.045250 -0.025140 1.906330 
# 
# From -- ./inp_files/143810.got.cif
#   From: 2010.05.17/outbox.cif.g08.bks.cpg/sg2_72_cif.got.tgz:143810.got - 2010.06.03 11:33:40.
