data_PCOD9043474
_publ_section_title
;
Structure prediction by ZEFSAII (Michael W. Deem and Ramdas Pophale) SiO2 
 PCOD9043474
Probable space group: P -1
;
_chemical_formula_sum "Si O2"
_cell_formula_units_Z 11
_cell_length_a 15.536341
_cell_length_b 7.361703
_cell_length_c 5.149183
_cell_angle_alpha 66.594588
_cell_angle_beta 60.127880
_cell_angle_gamma 57.897230
_cell_volume 425.499668
_symmetry_space_group_name_H-M "P -1"
_symmetry_group_IT_number 2
_symmetry_cell_setting 'triclinic'
loop_
_space_group_symop_operation_xyz
x,y,z
-x,-y,-z
loop_
_atom_site_type_symbol
_atom_site_label
_atom_site_fract_x
_atom_site_fract_y
_atom_site_fract_z
Si Si1 0.377487 0.657015 0.515350
Si Si2 0.000000 0.500000 0.500000
Si Si3 0.251891 0.391181 0.084972
Si Si4 0.752822 0.041676 0.840332
Si Si5 0.099279 0.064623 0.835526
Si Si6 0.577919 0.946991 0.659240
O O1 0.500000 0.500000 0.500000
O O2 0.366195 0.884079 0.532456
O O3 0.350245 0.736326 0.210903
O O4 0.300422 0.543335 0.786959
O O5 0.876904 0.498843 0.730209
O O6 0.948663 0.674506 0.240183
O O7 0.271618 0.172950 0.009498
O O8 0.326027 0.288672 0.288748
O O9 0.833718 0.002219 0.494244
O O10 0.827159 0.037516 0.970100
O O11 0.000000 0.000000 0.000000
O O12 0.500000 0.000000 0.500000
O O13 0.500000 0.000000 0.000000
#
# Coordination Sequence:
#
# PCOD9043474 Si02
#       6
#     2   1   2   2   2   2
#     4  11  23  46  74 110 142 200 249 304 369 447
#     4  10  24  44  70 104 140 194 238 296 358 444
#     4  10  23  45  71 106 148 190 248 297 372 434
#     4  10  25  43  66 103 143 186 233 310 358 424
#     4  11  23  45  69  99 142 188 244 292 363 429
#     4  11  25  48  71 107 151 189 245 316 371 430
#
# _framework density 25.851958
#
# number of rings (size 3 to 8) (size 9 to 14) (size 15 to 20)
#    0.000    1.455    1.818    1.636    0.000   13.818 
#    6.545    0.000    0.000    0.000    0.000    0.000 
#    0.000    0.000    0.000    0.000    0.000    0.000 
#
# Total GULP energy -61343.829270 kJ/mol
# GULP energy per Si atom -5576.711752 kJ/mol
# Density = 2.579312 g / cm^3
# Si number density = 25.851958 Si / 1000 Ang^3
#
#
#
# Elastic Constant Matrix: (Units=GPa)
#
#
# Indices 1 2 3 4 5 6 
#
# 1 232.8805 54.1421 127.0957 -5.4296 -1.2945 -28.9417
# 2 54.1421 67.4009 47.5950 -22.0397 2.9444 -10.4719
# 3 127.0957 47.5950 180.0673 -29.7779 2.3353 -4.4642
# 4 -5.4296 -22.0397 -29.7779 52.4354 -2.1713 -4.1063
# 5 -1.2945 2.9444 2.3353 -2.1713 87.4504 -12.7922
# 6 -28.9417 -10.4719 -4.4642 -4.1063 -12.7922 58.3999
#
#
#
# Elastic Compliance Matrix: (Units=1/GPa)
#
#
# Indices 1 2 3 4 5 6 
#
# 1 0.008443 -0.003587 -0.005525 -0.003502 0.000751 0.003037
# 2 -0.003587 0.022102 -0.001917 0.008023 -0.000172 0.002565
# 3 -0.005525 -0.001917 0.010658 0.004493 -0.000491 -0.002059
# 4 -0.003502 0.008023 0.004493 0.024799 0.000450 0.001889
# 5 0.000751 -0.000172 -0.000491 0.000450 0.011907 0.002943
# 6 0.003037 0.002565 -0.002059 0.001889 0.002943 0.019709
#
#
# Mechanical properties :
#
#
# Convention : Reuss Voigt Hill
#
# Bulk Modulus (GPa) = 52.23447 104.22380 78.22913
# Shear Modulus (GPa) = 39.66454 56.42487 48.04471
#
# Velocity S-wave (km/s) = 3.92126 4.67691 4.31566
# Velocity P-wave (km/s) = 6.38363 8.34074 7.42693
#
# Compressibility (1/GPa) = 0.01914445
#
# Stress axis : x y z
#
# Youngs Moduli (GPa) = 118.43966 45.24564 93.82437
#
# Poissons Ratio (x) = 0.16230 0.51836
# Poissons Ratio (y) = 0.42484 0.17990
# Poissons Ratio (z) = 0.65436 0.08675
#
# Static dielectric constant tensor:
#      x y z
#    x 2.020230 0.005170 0.054490 
#    y 0.005170 2.233350 0.061080 
#    z 0.054490 0.061080 2.101900 
# 
# From -- ./inp_files/40504.got.cif
#   From: 2010.05.17/outbox.cif.g08.bks.cpg/sg2_21_cif.got.tgz:40504.got - 2010.06.03 11:33:40.
