data_PCOD9043500
_publ_section_title
;
Structure prediction by ZEFSAII (Michael W. Deem and Ramdas Pophale) SiO2 
 PCOD9043500
Probable space group: P -1
;
_chemical_formula_sum "Si O2"
_cell_formula_units_Z 16
_cell_length_a 16.338133
_cell_length_b 6.896269
_cell_length_c 8.821614
_cell_angle_alpha 96.263731
_cell_angle_beta 102.086021
_cell_angle_gamma 43.583278
_cell_volume 668.711773
_symmetry_space_group_name_H-M "P -1"
_symmetry_group_IT_number 2
_symmetry_cell_setting 'triclinic'
loop_
_space_group_symop_operation_xyz
x,y,z
-x,-y,-z
loop_
_atom_site_type_symbol
_atom_site_label
_atom_site_fract_x
_atom_site_fract_y
_atom_site_fract_z
Si Si1 0.819161 0.506639 0.134693
Si Si2 0.255812 0.852568 0.316795
Si Si3 0.137893 0.212857 0.001769
Si Si4 0.426248 0.312648 0.942259
Si Si5 0.498425 0.508554 0.757607
Si Si6 0.071790 0.004096 0.728962
Si Si7 0.810896 0.397663 0.552960
Si Si8 0.737387 0.879144 0.410660
O O1 0.801836 0.680020 0.002437
O O2 0.707876 0.546084 0.108026
O O3 0.818014 0.655513 0.288987
O O4 0.933144 0.173223 0.171822
O O5 0.396035 0.678966 0.341163
O O6 0.242961 0.651964 0.344738
O O7 0.200171 0.072555 0.450311
O O8 0.193444 0.014079 0.150319
O O9 0.137715 0.067158 0.846824
O O10 0.000000 0.500000 0.000000
O O11 0.466156 0.354248 0.806627
O O12 0.443663 0.450924 0.086222
O O13 0.500000 0.000000 0.000000
O O14 0.379038 0.820961 0.681018
O O15 0.935413 0.283616 0.652308
O O16 0.144226 0.804674 0.592670
O O17 0.717204 0.719485 0.490572
#
# Coordination Sequence:
#
# PCOD9043500 Si02
#       8
#     2   2   2   2   2   2   2   2
#     4  11  24  43  74  96 128 182 224 273 332 399
#     4  12  26  42  65 100 143 172 217 281 337 395
#     4  12  26  43  69 103 136 173 219 282 338 394
#     4  11  23  43  69  98 130 173 230 271 327 398
#     4  11  26  42  68 101 134 176 222 282 330 390
#     4  10  23  45  71  97 132 177 228 275 324 406
#     4  10  24  45  69  99 132 181 223 272 336 400
#     4  11  25  44  67  97 135 180 225 270 331 400
#
# _framework density 23.926601999999999
#
# number of rings (size 3 to 8) (size 9 to 14) (size 15 to 20)
#    0.000    1.000    1.250    4.125    7.000    6.500 
#    0.000    5.000    0.000    0.000    0.000    0.000 
#    0.000    0.000    0.000    0.000    0.000    0.000 
#
# Total GULP energy -89524.237973 kJ/mol
# GULP energy per Si atom -5595.264873 kJ/mol
# Density = 2.387214 g / cm^3
# Si number density = 23.926602 Si / 1000 Ang^3
#
#
#
# Elastic Constant Matrix: (Units=GPa)
#
#
# Indices 1 2 3 4 5 6 
#
# 1 102.6761 36.9538 33.2069 -24.1828 -17.0235 31.3736
# 2 36.9538 117.0510 21.7896 -39.5037 -13.4080 16.9767
# 3 33.2069 21.7896 82.3572 -29.7067 7.8249 18.5574
# 4 -24.1828 -39.5037 -29.7067 48.7381 19.7541 -4.9368
# 5 -17.0235 -13.4080 7.8249 19.7541 37.5237 -12.5128
# 6 31.3736 16.9767 18.5574 -4.9368 -12.5128 39.2595
#
#
#
# Elastic Compliance Matrix: (Units=1/GPa)
#
#
# Indices 1 2 3 4 5 6 
#
# 1 0.014993 -0.001967 -0.003312 0.001725 0.003093 -0.008362
# 2 -0.001967 0.013662 0.005248 0.015726 -0.007830 -0.007334
# 3 -0.003312 0.005248 0.030035 0.030444 -0.028252 -0.018996
# 4 0.001725 0.015726 0.030444 0.068162 -0.045314 -0.028441
# 5 0.003093 -0.007830 -0.028252 -0.045314 0.064740 0.029205
# 6 -0.008362 -0.007334 -0.018996 -0.028441 0.029205 0.050036
#
#
# Mechanical properties :
#
#
# Convention : Reuss Voigt Hill
#
# Bulk Modulus (GPa) = 17.05712 53.99831 35.52771
# Shear Modulus (GPa) = 19.13995 39.11318 29.12656
#
# Velocity S-wave (km/s) = 2.83140 4.04755 3.49281
# Velocity P-wave (km/s) = 4.22297 6.66790 5.58096
#
# Compressibility (1/GPa) = 0.05862655
#
# Stress axis : x y z
#
# Youngs Moduli (GPa) = 66.69820 73.19649 33.29449
#
# Poissons Ratio (x) = 0.14401 0.11027
# Poissons Ratio (y) = 0.13123 -0.17472
# Poissons Ratio (z) = 0.22090 -0.38412
#
# Static dielectric constant tensor:
#      x y z
#    x 1.965070 -0.005970 -0.056790 
#    y -0.005970 1.948320 -0.009320 
#    z -0.056790 -0.009320 1.982760 
# 
# From -- ./inp_files/323721.got.cif
#   From: 2010.05.17/outbox.cif.g08.bks.cpg/sg2_162_cif.got.tgz:323721.got - 2010.06.03 11:33:40.
