data_PCOD9043782
_publ_section_title
;
Structure prediction by ZEFSAII (Michael W. Deem and Ramdas Pophale) SiO2 
 PCOD9043782
Probable space group: P -1
;
_chemical_formula_sum "Si O2"
_cell_formula_units_Z 14
_cell_length_a 12.467121
_cell_length_b 13.266538
_cell_length_c 5.375165
_cell_angle_alpha 63.128601
_cell_angle_beta 78.335337
_cell_angle_gamma 46.011326
_cell_volume 561.856780
_symmetry_space_group_name_H-M "P -1"
_symmetry_group_IT_number 2
_symmetry_cell_setting 'triclinic'
loop_
_space_group_symop_operation_xyz
x,y,z
-x,-y,-z
loop_
_atom_site_type_symbol
_atom_site_label
_atom_site_fract_x
_atom_site_fract_y
_atom_site_fract_z
Si Si1 0.648556 0.895989 0.715791
Si Si2 0.563271 0.333039 0.255030
Si Si3 0.231422 0.088449 0.866179
Si Si4 0.064656 0.569858 0.289874
Si Si5 0.688632 0.453952 0.520206
Si Si6 0.820626 0.127203 0.006887
Si Si7 0.320381 0.373873 0.048007
O O1 0.757540 0.862867 0.473019
O O2 0.656294 0.759614 0.956598
O O3 0.500000 0.000000 0.500000
O O4 0.660362 0.955646 0.902110
O O5 0.484927 0.396024 0.491741
O O6 0.471514 0.290502 0.231678
O O7 0.500000 0.500000 0.000000
O O8 0.738623 0.194869 0.245449
O O9 0.069496 0.245640 0.870618
O O10 0.236810 0.951142 0.980745
O O11 0.201664 0.533685 0.411000
O O12 0.152744 0.470730 0.116460
O O13 0.000000 0.500000 0.500000
O O14 0.752176 0.286830 0.732556
O O15 0.701294 0.484583 0.201975
O O16 0.000000 0.000000 0.000000
#
# Coordination Sequence:
#
# PCOD9043782 Si02
#       7
#     2   2   2   2   2   2   2
#     4  12  28  51  76 111 154 203 259 320 395 465
#     4   9  22  44  69 104 143 198 254 308 379 458
#     4  12  27  49  76 112 155 204 253 325 389 461
#     4  11  22  42  73 110 149 195 256 313 385 457
#     4  10  23  45  75 109 151 201 262 311 385 462
#     4  11  23  48  75 112 159 200 258 321 390 459
#     4  11  24  44  77 106 146 201 259 318 378 471
#
# _framework density 24.917379
#
# number of rings (size 3 to 8) (size 9 to 14) (size 15 to 20)
#    0.000    1.143    2.857    2.143    4.000    3.429 
#   15.429    1.429    0.000    0.000    0.000    0.000 
#    0.000    0.000    0.000    0.000    0.000    0.000 
#
# Total GULP energy -77952.592653 kJ/mol
# GULP energy per Si atom -5568.042332 kJ/mol
# Density = 2.486067 g / cm^3
# Si number density = 24.917379 Si / 1000 Ang^3
#
#
#
# Elastic Constant Matrix: (Units=GPa)
#
#
# Indices 1 2 3 4 5 6 
#
# 1 121.5147 81.5062 42.8338 8.4939 -19.2007 4.0524
# 2 81.5062 162.7740 29.3963 -1.6548 -11.0275 -6.4100
# 3 42.8338 29.3963 72.7669 -6.5817 -17.7471 3.3652
# 4 8.4939 -1.6548 -6.5817 33.3691 2.0321 -11.8023
# 5 -19.2007 -11.0275 -17.7471 2.0321 33.8559 2.3042
# 6 4.0524 -6.4100 3.3652 -11.8023 2.3042 72.1893
#
#
#
# Elastic Compliance Matrix: (Units=1/GPa)
#
#
# Indices 1 2 3 4 5 6 
#
# 1 0.016325 -0.006919 -0.006273 -0.006882 0.004300 -0.002501
# 2 -0.006919 0.009615 0.000124 0.002944 -0.001023 0.001750
# 3 -0.006273 0.000124 0.019384 0.005071 0.006334 0.000086
# 4 -0.006882 0.002944 0.005071 0.035254 -0.002829 0.006265
# 5 0.004300 -0.001023 0.006334 -0.002829 0.035283 -0.002216
# 6 -0.002501 0.001750 0.000086 0.006265 -0.002216 0.015239
#
#
# Mechanical properties :
#
#
# Convention : Reuss Voigt Hill
#
# Bulk Modulus (GPa) = 52.11075 73.83646 62.97361
# Shear Modulus (GPa) = 30.55618 41.43749 35.99683
#
# Velocity S-wave (km/s) = 3.50566 4.08241 3.80498
# Velocity P-wave (km/s) = 6.11105 7.20543 6.68069
#
# Compressibility (1/GPa) = 0.01918990
#
# Stress axis : x y z
#
# Youngs Moduli (GPa) = 61.25394 104.00263 51.58851
#
# Poissons Ratio (x) = 0.71959 0.32361
# Poissons Ratio (y) = 0.42381 -0.00642
# Poissons Ratio (z) = 0.38424 -0.01294
#
# Static dielectric constant tensor:
#      x y z
#    x 2.065290 0.028650 0.055700 
#    y 0.028650 1.974510 0.155740 
#    z 0.055700 0.155740 2.302050 
# 
# From -- ./inp_files/69077.got.cif
#   From: 2010.05.17/outbox.cif.g08.bks.cpg/sg2_35_cif.got.tgz:69077.got - 2010.06.03 11:33:40.
