data_PCOD9043708
_publ_section_title
;
Structure prediction by ZEFSAII (Michael W. Deem and Ramdas Pophale) SiO2 
 PCOD9043708
Probable space group: P -1
;
_chemical_formula_sum "Si O2"
_cell_formula_units_Z 16
_cell_length_a 23.743830
_cell_length_b 15.463728
_cell_length_c 8.084159
_cell_angle_alpha 136.261297
_cell_angle_beta 132.010187
_cell_angle_gamma 18.201746
_cell_volume 639.010677
_symmetry_space_group_name_H-M "P -1"
_symmetry_group_IT_number 2
_symmetry_cell_setting 'triclinic'
loop_
_space_group_symop_operation_xyz
x,y,z
-x,-y,-z
loop_
_atom_site_type_symbol
_atom_site_label
_atom_site_fract_x
_atom_site_fract_y
_atom_site_fract_z
Si Si1 0.339874 0.822286 0.553443
Si Si2 0.929007 0.965335 0.302885
Si Si3 0.711662 0.887813 0.666701
Si Si4 0.392297 0.171542 0.850210
Si Si5 0.057668 0.613073 0.328845
Si Si6 0.638979 0.544865 0.662304
Si Si7 0.292751 0.836367 0.108910
Si Si8 0.656079 0.636399 0.451918
O O1 0.500000 0.500000 0.500000
O O2 0.437842 0.807689 0.683771
O O3 0.286933 0.845320 0.304562
O O4 0.149934 0.114442 0.675813
O O5 0.759514 0.240009 0.473125
O O6 0.057077 0.663591 0.206560
O O7 0.844789 0.056107 0.089516
O O8 0.000000 0.000000 0.500000
O O9 0.724845 0.766262 0.371826
O O10 0.757647 0.954022 0.778348
O O11 0.495824 0.212040 0.736450
O O12 0.832893 0.659170 0.739422
O O13 0.553925 0.920838 0.687823
O O14 0.500000 0.000000 0.000000
O O15 0.292677 0.451055 0.072401
O O16 0.153357 0.600475 0.569634
O O17 0.648456 0.578762 0.536835
O O18 0.500000 0.500000 0.000000
#
# Coordination Sequence:
#
# PCOD9043708 Si02
#       8
#     2   2   2   2   2   2   2   2
#     4  12  25  47  70 110 148 190 252 313 366 438
#     4  12  26  46  75 104 151 201 255 294 368 451
#     4  10  23  45  74 104 144 188 253 299 371 443
#     4   8  18  38  72 101 131 187 237 294 364 428
#     4  12  25  45  69 110 152 185 247 318 362 431
#     4  11  19  46  73  96 146 199 245 293 368 446
#     4  12  24  50  79 102 146 208 241 300 380 451
#     4   9  19  43  72  98 139 190 238 296 372 442
#
# _framework density 25.038705
#
# number of rings (size 3 to 8) (size 9 to 14) (size 15 to 20)
#    0.750    0.500    5.000    0.375    0.000    2.000 
#    9.000    1.250    0.000    0.000    0.000    0.000 
#    0.000    0.000    0.000    0.000    0.000    0.000 
#
# Total GULP energy -89089.889488 kJ/mol
# GULP energy per Si atom -5568.118093 kJ/mol
# Density = 2.498172 g / cm^3
# Si number density = 25.038705 Si / 1000 Ang^3
#
#
#
# Elastic Constant Matrix: (Units=GPa)
#
#
# Indices 1 2 3 4 5 6 
#
# 1 135.6727 54.0439 30.4032 -21.6885 7.2204 9.6983
# 2 54.0439 98.8827 5.1992 -31.6461 10.0041 -2.4193
# 3 30.4032 5.1992 109.9738 -26.4846 14.1273 10.9608
# 4 -21.6885 -31.6461 -26.4846 33.0252 0.1160 5.1897
# 5 7.2204 10.0041 14.1273 0.1160 20.4688 -8.5727
# 6 9.6983 -2.4193 10.9608 5.1897 -8.5727 51.4767
#
#
#
# Elastic Compliance Matrix: (Units=1/GPa)
#
#
# Indices 1 2 3 4 5 6 
#
# 1 0.010223 -0.005717 -0.002595 -0.000607 0.000344 -0.001524
# 2 -0.005717 0.023446 0.010278 0.027969 -0.019220 -0.006030
# 3 -0.002595 0.010278 0.018915 0.024813 -0.021103 -0.009072
# 4 -0.000607 0.027969 0.024813 0.079597 -0.038708 -0.018325
# 5 0.000344 -0.019220 -0.021103 -0.038708 0.081722 0.021037
# 6 -0.001524 -0.006030 -0.009072 -0.018325 0.021037 0.026712
#
#
# Mechanical properties :
#
#
# Convention : Reuss Voigt Hill
#
# Bulk Modulus (GPa) = 17.69431 58.20243 37.94837
# Shear Modulus (GPa) = 19.56774 37.98634 28.77704
#
# Velocity S-wave (km/s) = 2.79856 3.89923 3.39381
# Velocity P-wave (km/s) = 4.18626 6.60056 5.52685
#
# Compressibility (1/GPa) = 0.05651536
#
# Stress axis : x y z
#
# Youngs Moduli (GPa) = 97.81763 42.65206 52.86729
#
# Poissons Ratio (x) = 0.24386 0.13717
# Poissons Ratio (y) = 0.55927 -0.54336
# Poissons Ratio (z) = 0.25380 -0.43837
#
# Static dielectric constant tensor:
#      x y z
#    x 2.219160 -0.039840 -0.047790 
#    y -0.039840 2.347280 0.061300 
#    z -0.047790 0.061300 2.042350 
# 
# From -- ./inp_files/357698.got.cif
#   From: 2010.05.17/outbox.cif.g08.bks.cpg/sg2_179_cif.got.tgz:357698.got - 2010.06.03 11:33:40.
