data_PCOD9043910
_publ_section_title
;
Structure prediction by ZEFSAII (Michael W. Deem and Ramdas Pophale) SiO2 
 PCOD9043910
Probable space group: P -1
;
_chemical_formula_sum "Si O2"
_cell_formula_units_Z 13
_cell_length_a 9.865859
_cell_length_b 6.246463
_cell_length_c 11.498584
_cell_angle_alpha 89.567246
_cell_angle_beta 83.143889
_cell_angle_gamma 130.464309
_cell_volume 531.868512
_symmetry_space_group_name_H-M "P -1"
_symmetry_group_IT_number 2
_symmetry_cell_setting 'triclinic'
loop_
_space_group_symop_operation_xyz
x,y,z
-x,-y,-z
loop_
_atom_site_type_symbol
_atom_site_label
_atom_site_fract_x
_atom_site_fract_y
_atom_site_fract_z
Si Si1 0.057461 0.650140 0.244331
Si Si2 0.712943 0.996074 0.300353
Si Si3 0.000000 0.500000 0.000000
Si Si4 0.621158 0.312468 0.038190
Si Si5 0.458411 0.512310 0.176431
Si Si6 0.669151 0.315294 0.625334
Si Si7 0.134308 0.231344 0.581357
O O1 0.976253 0.786332 0.299453
O O2 0.214383 0.732483 0.314054
O O3 0.900506 0.308477 0.271774
O O4 0.109306 0.697140 0.104665
O O5 0.647212 0.832435 0.183393
O O6 0.541378 0.958900 0.357672
O O7 0.735531 0.820288 0.385640
O O8 0.182101 0.554128 0.941309
O O9 0.513185 0.325699 0.150808
O O10 0.636280 0.496693 0.929296
O O11 0.500000 0.000000 0.000000
O O12 0.342109 0.474188 0.297874
O O13 0.761775 0.470702 0.495256
O O14 0.000000 0.000000 0.500000
#
# Coordination Sequence:
#
# PCOD9043910 Si02
#       7
#     2   2   1   2   2   2   2
#     4  12  25  46  68 102 139 174 229 282 334 402
#     4  10  23  46  66  96 134 174 226 275 334 400
#     4  12  24  42  72 102 128 180 228 268 346 390
#     4  11  22  42  64  93 133 179 222 273 327 401
#     4   9  22  44  61  94 136 167 226 275 327 398
#     4  10  23  47  66  99 137 179 219 281 343 391
#     4  12  25  44  71 101 138 177 227 279 335 410
#
# _framework density 24.442131
#
# number of rings (size 3 to 8) (size 9 to 14) (size 15 to 20)
#    0.923    0.308    3.077    2.769    0.000    1.846 
#    5.538    4.615    0.000    0.000    0.000    0.000 
#    0.000    0.000    0.000    0.000    0.000    0.000 
#
# Total GULP energy -72478.785120 kJ/mol
# GULP energy per Si atom -5575.291163 kJ/mol
# Density = 2.438650 g / cm^3
# Si number density = 24.442131 Si / 1000 Ang^3
#
#
#
# Elastic Constant Matrix: (Units=GPa)
#
#
# Indices 1 2 3 4 5 6 
#
# 1 154.6430 20.0421 -1.7510 -11.3543 23.3458 14.0915
# 2 20.0421 60.7181 0.6198 13.9974 2.3105 14.1830
# 3 -1.7510 0.6198 92.1778 4.5829 -0.1784 -3.3169
# 4 -11.3543 13.9974 4.5829 24.5776 -9.2847 0.5028
# 5 23.3458 2.3105 -0.1784 -9.2847 49.9188 4.1771
# 6 14.0915 14.1830 -3.3169 0.5028 4.1771 16.9747
#
#
#
# Elastic Compliance Matrix: (Units=1/GPa)
#
#
# Indices 1 2 3 4 5 6 
#
# 1 0.007834 -0.002559 -0.000193 0.004279 -0.002421 -0.003934
# 2 -0.002559 0.025225 -0.000095 -0.015675 -0.001366 -0.018170
# 3 -0.000193 -0.000095 0.011055 -0.002345 -0.000519 0.002597
# 4 0.004279 -0.015675 -0.002345 0.055139 0.008524 0.005356
# 5 -0.002421 -0.001366 -0.000519 0.008524 0.023052 -0.002875
# 6 -0.003934 -0.018170 0.002597 0.005356 -0.002875 0.078415
#
#
# Mechanical properties :
#
#
# Convention : Reuss Voigt Hill
#
# Bulk Modulus (GPa) = 26.02895 38.37343 32.20119
# Shear Modulus (GPa) = 22.80797 37.53609 30.17203
#
# Velocity S-wave (km/s) = 3.05805 3.92307 3.51725
# Velocity P-wave (km/s) = 4.81053 6.02116 5.44957
#
# Compressibility (1/GPa) = 0.03841876
#
# Stress axis : x y z
#
# Youngs Moduli (GPa) = 127.64692 39.64291 90.45980
#
# Poissons Ratio (x) = 0.10146 0.01745
# Poissons Ratio (y) = 0.32669 0.00863
# Poissons Ratio (z) = 0.02463 0.00378
#
# Static dielectric constant tensor:
#      x y z
#    x 1.920730 0.006510 -0.006270 
#    y 0.006510 1.929140 0.014040 
#    z -0.006270 0.014040 1.940850 
# 
# From -- ./inp_files/372649.got.cif
#   From: 2010.05.17/outbox.cif.g08.bks.cpg/sg2_187_cif.got.tgz:372649.got - 2010.06.03 11:33:40.
