data_PCOD9043934
_publ_section_title
;
Structure prediction by ZEFSAII (Michael W. Deem and Ramdas Pophale) SiO2 
 PCOD9043934
Probable space group: P -1
;
_chemical_formula_sum "Si O2"
_cell_formula_units_Z 16
_cell_length_a 5.173585
_cell_length_b 26.694040
_cell_length_c 6.664109
_cell_angle_alpha 56.162402
_cell_angle_beta 105.306485
_cell_angle_gamma 119.572968
_cell_volume 664.790034
_symmetry_space_group_name_H-M "P -1"
_symmetry_group_IT_number 2
_symmetry_cell_setting 'triclinic'
loop_
_space_group_symop_operation_xyz
x,y,z
-x,-y,-z
loop_
_atom_site_type_symbol
_atom_site_label
_atom_site_fract_x
_atom_site_fract_y
_atom_site_fract_z
Si Si1 0.184397 0.522199 0.781756
Si Si2 0.615731 0.174757 0.377539
Si Si3 0.904473 0.584810 0.285095
Si Si4 0.308269 0.676843 0.841475
Si Si5 0.216797 0.354712 0.493196
Si Si6 0.767639 0.756018 0.502125
Si Si7 0.446180 0.927601 0.075459
Si Si8 0.744009 0.866536 0.010853
O O1 0.263900 0.465293 0.820371
O O2 0.482834 0.589684 0.664476
O O3 0.956633 0.536066 0.560887
O O4 0.000000 0.500000 0.000000
O O5 0.637541 0.246850 0.283744
O O6 0.490147 0.113367 0.641548
O O7 0.965638 0.192980 0.420412
O O8 0.430246 0.154698 0.183763
O O9 0.795200 0.626919 0.316728
O O10 0.198005 0.636060 0.112905
O O11 0.613486 0.691824 0.760039
O O12 0.061386 0.645068 0.688265
O O13 0.177919 0.279917 0.604400
O O14 0.618946 0.800836 0.276178
O O15 0.662633 0.923931 0.955754
O O16 0.098610 0.889807 0.022199
O O17 0.500000 0.000000 0.000000
#
# Coordination Sequence:
#
# PCOD9043934 Si02
#       8
#     2   2   2   2   2   2   2   2
#     4  11  25  45  65  92 134 176 232 294 358 440
#     4  10  25  42  71 104 143 189 242 298 357 434
#     4  11  25  41  66  95 127 180 233 289 366 438
#     4  11  24  43  65  98 135 177 235 295 357 429
#     4  11  24  42  65  96 133 180 228 297 363 430
#     4  10  23  46  67 101 149 184 241 305 363 434
#     4  11  25  47  72 109 154 194 246 302 356 431
#     4  11  25  44  75 107 146 201 242 300 366 430
#
# _framework density 24.06775
#
# number of rings (size 3 to 8) (size 9 to 14) (size 15 to 20)
#    0.000    1.250    1.250    3.000    5.250    7.000 
#    0.000    0.000    0.000    0.000    0.000    0.000 
#    0.000    0.000    0.000    0.000    0.000    0.000 
#
# Total GULP energy -89280.177854 kJ/mol
# GULP energy per Si atom -5580.011116 kJ/mol
# Density = 2.401297 g / cm^3
# Si number density = 24.067750 Si / 1000 Ang^3
#
#
#
# Elastic Constant Matrix: (Units=GPa)
#
#
# Indices 1 2 3 4 5 6 
#
# 1 61.4130 21.6580 26.6492 20.6145 -2.3747 -9.7117
# 2 21.6580 128.0974 59.9391 13.5704 8.1610 -17.6054
# 3 26.6492 59.9391 120.6441 21.8699 1.0870 -5.5742
# 4 20.6145 13.5704 21.8699 33.7258 2.4072 6.4413
# 5 -2.3747 8.1610 1.0870 2.4072 27.4500 -3.4982
# 6 -9.7117 -17.6054 -5.5742 6.4413 -3.4982 39.3713
#
#
#
# Elastic Compliance Matrix: (Units=1/GPa)
#
#
# Indices 1 2 3 4 5 6 
#
# 1 0.023846 -0.000766 -0.001840 -0.014967 0.004714 0.008147
# 2 -0.000766 0.011089 -0.004868 -0.001439 -0.002523 0.004092
# 3 -0.001840 -0.004868 0.011961 -0.004751 0.001225 -0.000051
# 4 -0.014967 -0.001439 -0.004751 0.045392 -0.006316 -0.012995
# 5 0.004714 -0.002523 0.001225 -0.006316 0.038689 0.004679
# 6 0.008147 0.004092 -0.000051 -0.012995 0.004679 0.031773
#
#
# Mechanical properties :
#
#
# Convention : Reuss Voigt Hill
#
# Bulk Modulus (GPa) = 31.29882 58.51635 44.90758
# Shear Modulus (GPa) = 26.54661 33.56996 30.05829
#
# Velocity S-wave (km/s) = 3.32474 3.73877 3.53782
# Velocity P-wave (km/s) = 5.26984 6.55773 5.94874
#
# Compressibility (1/GPa) = 0.03195009
#
# Stress axis : x y z
#
# Youngs Moduli (GPa) = 41.93540 90.17761 83.60186
#
# Poissons Ratio (x) = 0.06908 0.15381
# Poissons Ratio (y) = 0.03213 0.40694
# Poissons Ratio (z) = 0.07715 0.43895
#
# Static dielectric constant tensor:
#      x y z
#    x 2.188310 -0.009240 -0.056990 
#    y -0.009240 1.928780 -0.004610 
#    z -0.056990 -0.004610 1.911470 
# 
# From -- ./inp_files/14385.got.cif
#   From: 2010.05.17/outbox.cif.g08.bks.cpg/sg2_8_cif.got.tgz:14385.got - 2010.06.03 11:33:40.
