data_PCOD9043696
_publ_section_title
;
Structure prediction by ZEFSAII (Michael W. Deem and Ramdas Pophale) SiO2 
 PCOD9043696
Probable space group: P -1
;
_chemical_formula_sum "Si O2"
_cell_formula_units_Z 10
_cell_length_a 5.284152
_cell_length_b 12.468683
_cell_length_c 6.545864
_cell_angle_alpha 93.434505
_cell_angle_beta 81.596254
_cell_angle_gamma 85.533321
_cell_volume 424.244246
_symmetry_space_group_name_H-M "P -1"
_symmetry_group_IT_number 2
_symmetry_cell_setting 'triclinic'
loop_
_space_group_symop_operation_xyz
x,y,z
-x,-y,-z
loop_
_atom_site_type_symbol
_atom_site_label
_atom_site_fract_x
_atom_site_fract_y
_atom_site_fract_z
Si Si1 0.824363 0.398582 0.987463
Si Si2 0.000806 0.116141 0.622206
Si Si3 0.869699 0.732811 0.748124
Si Si4 0.655249 0.518408 0.682240
Si Si5 0.459706 0.115870 0.906126
O O1 0.556450 0.428428 0.131280
O O2 0.951840 0.296869 0.079252
O O3 0.770835 0.406342 0.754411
O O4 0.000000 0.500000 0.000000
O O5 0.036919 0.196929 0.439054
O O6 0.235648 0.115786 0.758514
O O7 0.726669 0.138148 0.769772
O O8 0.000000 0.000000 0.500000
O O9 0.837878 0.613622 0.648463
O O10 0.628418 0.799002 0.894797
O O11 0.500000 0.500000 0.500000
O O12 0.500000 0.000000 0.000000
#
# Coordination Sequence:
#
# PCOD9043696 Si02
#       5
#     2   2   2   2   2
#     4   9  22  44  66 100 143 187 244 306 372 438
#     4  12  28  48  79 112 152 202 257 308 381 452
#     4  11  27  45  74 109 151 198 254 303 386 452
#     4  10  23  45  74 102 148 190 251 311 374 443
#     4  12  28  49  78 109 159 201 248 320 375 448
#
# _framework density 23.571328999999999
#
# number of rings (size 3 to 8) (size 9 to 14) (size 15 to 20)
#    0.000    1.200    2.000    1.200    5.600    9.600 
#    0.000    0.000    0.000    0.000    0.000    0.000 
#    0.000    0.000    0.000    0.000    0.000    0.000 
#
# Total GULP energy -55890.015197 kJ/mol
# GULP energy per Si atom -5589.001520 kJ/mol
# Density = 2.351768 g / cm^3
# Si number density = 23.571329 Si / 1000 Ang^3
#
#
#
# Elastic Constant Matrix: (Units=GPa)
#
#
# Indices 1 2 3 4 5 6 
#
# 1 136.4246 43.9367 84.7703 -32.5053 -1.5206 -4.9588
# 2 43.9367 143.3044 100.6858 -48.6642 11.5762 -6.7201
# 3 84.7703 100.6858 194.1776 -43.9555 0.8502 -3.6059
# 4 -32.5053 -48.6642 -43.9555 59.3812 -4.9014 4.1940
# 5 -1.5206 11.5762 0.8502 -4.9014 67.0756 2.0061
# 6 -4.9588 -6.7201 -3.6059 4.1940 2.0061 38.2532
#
#
#
# Elastic Compliance Matrix: (Units=1/GPa)
#
#
# Indices 1 2 3 4 5 6 
#
# 1 0.010534 0.000939 -0.004324 0.003312 0.000351 0.000741
# 2 0.000939 0.013220 -0.005667 0.006924 -0.001720 0.001241
# 3 -0.004324 -0.005667 0.010090 0.000575 0.000815 -0.000711
# 4 0.003312 0.006924 0.000575 0.024888 0.000723 -0.001067
# 5 0.000351 -0.001720 0.000815 0.000723 0.015288 -0.001061
# 6 0.000741 0.001241 -0.000711 -0.001067 -0.001061 0.026561
#
#
# Mechanical properties :
#
#
# Convention : Reuss Voigt Hill
#
# Bulk Modulus (GPa) = 63.52980 103.63246 83.58113
# Shear Modulus (GPa) = 40.34476 49.24292 44.79384
#
# Velocity S-wave (km/s) = 4.14164 4.57563 4.36403
# Velocity P-wave (km/s) = 7.06269 8.48387 7.80569
#
# Compressibility (1/GPa) = 0.01574065
#
# Stress axis : x y z
#
# Youngs Moduli (GPa) = 94.92728 75.64110 99.11287
#
# Poissons Ratio (x) = -0.07106 0.42856
# Poissons Ratio (y) = -0.08918 0.56170
# Poissons Ratio (z) = 0.41046 0.42868
#
# Static dielectric constant tensor:
#      x y z
#    x 1.942170 0.011790 0.023170 
#    y 0.011790 1.991880 0.023430 
#    z 0.023170 0.023430 1.886770 
# 
# From -- ./inp_files/1461.got.cif
#   From: 2010.05.17/outbox.cif.g08.bks.cpg/sg2_1_cif.got.tgz:1461.got - 2010.06.03 11:33:40.
