data_PCOD9043892
_publ_section_title
;
Structure prediction by ZEFSAII (Michael W. Deem and Ramdas Pophale) SiO2 
 PCOD9043892
Probable space group: P -1
;
_chemical_formula_sum "Si O2"
_cell_formula_units_Z 16
_cell_length_a 11.596382
_cell_length_b 11.486712
_cell_length_c 8.777634
_cell_angle_alpha 139.988817
_cell_angle_beta 99.597958
_cell_angle_gamma 78.173497
_cell_volume 735.688250
_symmetry_space_group_name_H-M "P -1"
_symmetry_group_IT_number 2
_symmetry_cell_setting 'triclinic'
loop_
_space_group_symop_operation_xyz
x,y,z
-x,-y,-z
loop_
_atom_site_type_symbol
_atom_site_label
_atom_site_fract_x
_atom_site_fract_y
_atom_site_fract_z
Si Si1 0.331079 0.494412 0.882511
Si Si2 0.888923 0.646589 0.163198
Si Si3 0.144803 0.107882 0.086800
Si Si4 0.474180 0.806704 0.233932
Si Si5 0.151894 0.443308 0.262060
Si Si6 0.603720 0.063131 0.986726
Si Si7 0.629584 0.457012 0.418972
Si Si8 0.014286 0.849365 0.619081
O O1 0.200228 0.443915 0.835220
O O2 0.417704 0.343269 0.842812
O O3 0.359788 0.488734 0.702063
O O4 0.362264 0.696359 0.142007
O O5 0.938057 0.823564 0.423435
O O6 0.829015 0.660144 0.998764
O O7 0.000000 0.500000 0.000000
O O8 0.093025 0.309720 0.226085
O O9 0.080423 0.077370 0.199929
O O10 0.283022 0.087204 0.137390
O O11 0.113455 0.979395 0.810834
O O12 0.452800 0.862595 0.110136
O O13 0.500000 0.000000 0.500000
O O14 0.278834 0.456384 0.371521
O O15 0.078012 0.642200 0.442801
O O16 0.658706 0.241005 0.232369
O O17 0.500000 0.000000 0.000000
O O18 0.500000 0.500000 0.500000
#
# Coordination Sequence:
#
# PCOD9043892 Si02
#       8
#     2   2   2   2   2   2   2   2
#     4  10  24  46  67  98 138 177 228 278 338 410
#     4  10  24  44  68  99 136 178 232 281 338 407
#     4  11  23  42  70  96 132 176 225 286 333 407
#     4  10  25  43  67  99 132 178 219 274 346 403
#     4  11  23  41  68  98 131 176 224 278 344 399
#     4  11  25  42  64 105 137 168 230 279 339 417
#     4  11  24  42  71  99 137 181 224 281 347 413
#     4  10  23  46  65  94 133 174 234 278 338 403
#
# _framework density 21.748343999999999
#
# number of rings (size 3 to 8) (size 9 to 14) (size 15 to 20)
#    0.000    1.500    1.250    1.875   12.250    1.500 
#    4.500    0.000    0.000    0.000    0.000    0.000 
#    0.000    0.000    0.000    0.000    0.000    0.000 
#
# Total GULP energy -89137.950493 kJ/mol
# GULP energy per Si atom -5571.121906 kJ/mol
# Density = 2.169884 g / cm^3
# Si number density = 21.748344 Si / 1000 Ang^3
#
#
#
# Elastic Constant Matrix: (Units=GPa)
#
#
# Indices 1 2 3 4 5 6 
#
# 1 108.5452 35.1859 24.4066 -14.9452 6.8978 3.6381
# 2 35.1859 94.4678 39.6422 7.5392 15.9987 3.0450
# 3 24.4066 39.6422 120.0907 -14.9535 29.9729 -12.0422
# 4 -14.9452 7.5392 -14.9535 35.4182 -7.0830 -2.6419
# 5 6.8978 15.9987 29.9729 -7.0830 31.1828 -6.7791
# 6 3.6381 3.0450 -12.0422 -2.6419 -6.7791 21.7291
#
#
#
# Elastic Compliance Matrix: (Units=1/GPa)
#
#
# Indices 1 2 3 4 5 6 
#
# 1 0.011646 -0.004927 -0.000427 0.006106 0.001700 -0.000223
# 2 -0.004927 0.016500 -0.004711 -0.009440 -0.006579 -0.007298
# 3 -0.000427 -0.004711 0.013149 0.005337 -0.007543 0.006315
# 4 0.006106 -0.009440 0.005337 0.037727 0.009266 0.010736
# 5 0.001700 -0.006579 -0.007543 0.009266 0.047092 0.012276
# 6 -0.000223 -0.007298 0.006315 0.010736 0.012276 0.055716
#
#
# Mechanical properties :
#
#
# Convention : Reuss Voigt Hill
#
# Bulk Modulus (GPa) = 47.24497 57.95256 52.59877
# Shear Modulus (GPa) = 23.92182 32.59061 28.25621
#
# Velocity S-wave (km/s) = 3.32013 3.87529 3.60840
# Velocity P-wave (km/s) = 6.03890 6.83583 6.44968
#
# Compressibility (1/GPa) = 0.02116627
#
# Stress axis : x y z
#
# Youngs Moduli (GPa) = 85.86738 60.60539 76.05056
#
# Poissons Ratio (x) = 0.29857 0.03248
# Poissons Ratio (y) = 0.42303 0.35827
# Poissons Ratio (z) = 0.03667 0.28550
#
# Static dielectric constant tensor:
#      x y z
#    x 1.735340 0.054600 0.140920 
#    y 0.054600 1.760670 -0.079060 
#    z 0.140920 -0.079060 1.893010 
# 
# From -- ./inp_files/261090.got.cif
#   From: 2010.05.17/outbox.cif.g08.bks.cpg/sg2_131_cif.got.tgz:261090.got - 2010.06.03 11:33:40.
