data_PCOD9043054
_publ_section_title
;
Structure prediction by ZEFSAII (Michael W. Deem and Ramdas Pophale) SiO2 
 PCOD9043054
Probable space group: P -1
;
_chemical_formula_sum "Si O2"
_cell_formula_units_Z 14
_cell_length_a 18.740573
_cell_length_b 8.879274
_cell_length_c 7.973015
_cell_angle_alpha 93.203197
_cell_angle_beta 58.226521
_cell_angle_gamma 47.558652
_cell_volume 628.618940
_symmetry_space_group_name_H-M "P -1"
_symmetry_group_IT_number 2
_symmetry_cell_setting 'triclinic'
loop_
_space_group_symop_operation_xyz
x,y,z
-x,-y,-z
loop_
_atom_site_type_symbol
_atom_site_label
_atom_site_fract_x
_atom_site_fract_y
_atom_site_fract_z
Si Si1 0.459096 0.231442 0.108150
Si Si2 0.337628 0.407743 0.640173
Si Si3 0.035610 0.377357 0.131709
Si Si4 0.258426 0.045662 0.382556
Si Si5 0.067148 0.997024 0.163370
Si Si6 0.663049 0.947275 0.345605
Si Si7 0.200015 0.800960 0.351409
O O1 0.372136 0.364264 0.398482
O O2 0.344015 0.477886 0.135051
O O3 0.500000 0.000000 0.000000
O O4 0.613789 0.093029 0.912463
O O5 0.313832 0.267578 0.707363
O O6 0.492142 0.232739 0.523706
O O7 0.195517 0.717497 0.887459
O O8 0.907579 0.639679 0.424209
O O9 0.020144 0.220782 0.144507
O O10 0.208617 0.165031 0.932747
O O11 0.000000 0.500000 0.000000
O O12 0.311395 0.034829 0.494788
O O13 0.247780 0.882164 0.389588
O O14 0.133943 0.939502 0.259993
O O15 0.927830 0.096031 0.381101
#
# Coordination Sequence:
#
# PCOD9043054 Si02
#       7
#     2   2   2   2   2   2   2
#     4  12  25  44  71 104 141 185 230 285 351 411
#     4  11  25  43  74 101 139 184 230 288 343 416
#     4  10  24  44  73  99 137 179 231 292 339 414
#     4  11  23  47  67 101 142 179 234 280 352 411
#     4  11  26  48  70 105 138 183 238 282 352 410
#     4  10  23  45  68 103 135 182 229 286 344 413
#     4  11  27  46  73 101 143 185 228 293 341 417
#
# _framework density 22.271042999999999
#
# number of rings (size 3 to 8) (size 9 to 14) (size 15 to 20)
#    0.000    1.143    1.429    3.000   10.000    1.714 
#    0.000    0.000    0.000    0.000    0.000    0.000 
#    0.000    0.000    0.000    0.000    0.000    0.000 
#
# Total GULP energy -78383.374746 kJ/mol
# GULP energy per Si atom -5598.812482 kJ/mol
# Density = 2.222035 g / cm^3
# Si number density = 22.271043 Si / 1000 Ang^3
#
#
#
# Elastic Constant Matrix: (Units=GPa)
#
#
# Indices 1 2 3 4 5 6 
#
# 1 89.3354 30.6753 25.6855 5.7942 -12.8079 10.9724
# 2 30.6753 113.4256 47.6676 14.9031 2.3759 28.4058
# 3 25.6855 47.6676 144.3471 13.4344 -18.9851 9.9057
# 4 5.7942 14.9031 13.4344 37.6646 8.1906 1.8557
# 5 -12.8079 2.3759 -18.9851 8.1906 25.3555 -12.1894
# 6 10.9724 28.4058 9.9057 1.8557 -12.1894 27.8540
#
#
#
# Elastic Compliance Matrix: (Units=1/GPa)
#
#
# Indices 1 2 3 4 5 6 
#
# 1 0.013966 -0.004948 0.000579 -0.003009 0.011021 0.004362
# 2 -0.004948 0.019779 -0.006985 0.001567 -0.022422 -0.025653
# 3 0.000579 -0.006985 0.010984 -0.005175 0.015762 0.010232
# 4 -0.003009 0.001567 -0.005175 0.033330 -0.021135 -0.010042
# 5 0.011021 -0.022422 0.015762 -0.021135 0.091973 0.054576
# 6 0.004362 -0.025653 0.010232 -0.010042 0.054576 0.081258
#
#
# Mechanical properties :
#
#
# Convention : Reuss Voigt Hill
#
# Bulk Modulus (GPa) = 45.41482 61.68498 53.54990
# Shear Modulus (GPa) = 17.77220 34.38015 26.07618
#
# Velocity S-wave (km/s) = 2.82795 3.93328 3.42549
# Velocity P-wave (km/s) = 5.57666 6.95594 6.30414
#
# Compressibility (1/GPa) = 0.02201924
#
# Stress axis : x y z
#
# Youngs Moduli (GPa) = 71.60353 50.55973 91.04191
#
# Poissons Ratio (x) = 0.25019 -0.05273
# Poissons Ratio (y) = 0.35432 0.63596
# Poissons Ratio (z) = -0.04147 0.35318
#
# Static dielectric constant tensor:
#      x y z
#    x 1.809310 -0.052020 -0.002720 
#    y -0.052020 1.836990 -0.020070 
#    z -0.002720 -0.020070 1.819600 
# 
# From -- ./inp_files/263241.got.cif
#   From: 2010.05.17/outbox.cif.g08.bks.cpg/sg2_132_cif.got.tgz:263241.got - 2010.06.03 11:33:40.
