data_PCOD9043653
_publ_section_title
;
Structure prediction by ZEFSAII (Michael W. Deem and Ramdas Pophale) SiO2 
 PCOD9043653
Probable space group: P -1
;
_chemical_formula_sum "Si O2"
_cell_formula_units_Z 14
_cell_length_a 8.005697
_cell_length_b 16.145005
_cell_length_c 11.818890
_cell_angle_alpha 143.378144
_cell_angle_beta 35.924758
_cell_angle_gamma 133.007515
_cell_volume 532.399699
_symmetry_space_group_name_H-M "P -1"
_symmetry_group_IT_number 2
_symmetry_cell_setting 'triclinic'
loop_
_space_group_symop_operation_xyz
x,y,z
-x,-y,-z
loop_
_atom_site_type_symbol
_atom_site_label
_atom_site_fract_x
_atom_site_fract_y
_atom_site_fract_z
Si Si1 0.146801 0.358286 0.779777
Si Si2 0.641110 0.681461 0.018377
Si Si3 0.699574 0.390539 0.668389
Si Si4 0.999697 0.063153 0.817371
Si Si5 0.588494 0.160227 0.895322
Si Si6 0.755297 0.082260 0.280781
Si Si7 0.587464 0.829556 0.736396
O O1 0.401764 0.384411 0.757125
O O2 0.299189 0.306610 0.526706
O O3 0.907542 0.235090 0.812790
O O4 0.000000 0.500000 0.000000
O O5 0.361544 0.626251 0.182565
O O6 0.558262 0.749133 0.020881
O O7 0.785125 0.799829 0.152862
O O8 0.827439 0.549940 0.756260
O O9 0.814947 0.246184 0.410994
O O10 0.184890 0.956092 0.664694
O O11 0.819374 0.958503 0.717581
O O12 0.000000 0.000000 0.000000
O O13 0.533309 0.003119 0.701275
O O14 0.443740 0.173735 0.113280
O O15 0.720264 0.132961 0.099288
#
# Coordination Sequence:
#
# PCOD9043653 Si02
#       7
#     2   2   2   2   2   2   2
#     4  12  27  48  72 108 151 190 239 297 367 437
#     4  10  24  46  74 107 145 195 242 298 369 425
#     4  11  25  46  73 107 150 189 245 304 356 436
#     4  10  23  45  73 108 141 193 246 295 362 429
#     4  11  25  46  76 110 143 196 242 295 372 425
#     4  11  23  43  71 106 142 189 246 296 351 426
#     4  11  25  46  77 109 148 189 244 305 357 437
#
# _framework density 26.296032
#
# number of rings (size 3 to 8) (size 9 to 14) (size 15 to 20)
#    0.000    1.143    2.857    1.714    6.000    2.286 
#    2.571    2.143    0.000    2.571    0.000    0.000 
#    0.000    0.000    0.000    0.000    0.000    0.000 
#
# Total GULP energy -78241.724443 kJ/mol
# GULP energy per Si atom -5588.694603 kJ/mol
# Density = 2.623618 g / cm^3
# Si number density = 26.296032 Si / 1000 Ang^3
#
#
#
# Elastic Constant Matrix: (Units=GPa)
#
#
# Indices 1 2 3 4 5 6 
#
# 1 120.5260 25.6759 35.4271 3.0646 4.0771 -13.4568
# 2 25.6759 83.1212 25.6521 27.2102 6.1776 -11.2284
# 3 35.4271 25.6521 179.0876 36.9258 3.4026 -26.6837
# 4 3.0646 27.2102 36.9258 55.3037 -5.6479 -1.7829
# 5 4.0771 6.1776 3.4026 -5.6479 41.3957 1.1456
# 6 -13.4568 -11.2284 -26.6837 -1.7829 1.1456 44.8227
#
#
#
# Elastic Compliance Matrix: (Units=1/GPa)
#
#
# Indices 1 2 3 4 5 6 
#
# 1 0.009506 -0.002920 -0.001712 0.002080 -0.000109 0.001189
# 2 -0.002920 0.016217 0.000542 -0.008423 -0.003417 0.003261
# 3 -0.001712 0.000542 0.007531 -0.005212 -0.001351 0.003932
# 4 0.002080 -0.008423 -0.005212 0.025996 0.005129 -0.003685
# 5 -0.000109 -0.003417 -0.001351 0.005129 0.025548 -0.002142
# 6 0.001189 0.003261 0.003932 -0.003685 -0.002142 0.025733
#
#
# Mechanical properties :
#
#
# Convention : Reuss Voigt Hill
#
# Bulk Modulus (GPa) = 39.88187 61.80501 50.84344
# Shear Modulus (GPa) = 39.34889 48.03640 43.69265
#
# Velocity S-wave (km/s) = 3.87251 4.27869 4.08066
# Velocity P-wave (km/s) = 5.93249 6.92562 6.44820
#
# Compressibility (1/GPa) = 0.02507405
#
# Stress axis : x y z
#
# Youngs Moduli (GPa) = 105.19911 61.66328 132.78467
#
# Poissons Ratio (x) = 0.18008 0.22731
# Poissons Ratio (y) = 0.30722 -0.07201
# Poissons Ratio (z) = 0.18009 -0.03344
#
# Static dielectric constant tensor:
#      x y z
#    x 2.100360 -0.035010 0.001150 
#    y -0.035010 2.206600 -0.079760 
#    z 0.001150 -0.079760 2.133800 
# 
# From -- ./inp_files/155295.got.cif
#   From: 2010.05.17/outbox.cif.g08.bks.cpg/sg2_78_cif.got.tgz:155295.got - 2010.06.03 11:33:40.
