data_PCOD9043403
_publ_section_title
;
Structure prediction by ZEFSAII (Michael W. Deem and Ramdas Pophale) SiO2 
 PCOD9043403
Probable space group: P -1
;
_chemical_formula_sum "Si O2"
_cell_formula_units_Z 10
_cell_length_a 13.864735
_cell_length_b 8.715840
_cell_length_c 11.885455
_cell_angle_alpha 124.727775
_cell_angle_beta 146.430558
_cell_angle_gamma 32.777310
_cell_volume 386.683959
_symmetry_space_group_name_H-M "P -1"
_symmetry_group_IT_number 2
_symmetry_cell_setting 'triclinic'
loop_
_space_group_symop_operation_xyz
x,y,z
-x,-y,-z
loop_
_atom_site_type_symbol
_atom_site_label
_atom_site_fract_x
_atom_site_fract_y
_atom_site_fract_z
Si Si1 0.002849 0.814195 0.999703
Si Si2 0.734281 0.689047 0.727778
Si Si3 0.443143 0.272470 0.056380
Si Si4 0.014687 0.072099 0.707740
Si Si5 0.084899 0.228894 0.420378
O O1 0.327079 0.448485 0.136973
O O2 0.935384 0.933246 0.111921
O O3 0.776863 0.842188 0.762688
O O4 0.000000 0.000000 0.000000
O O5 0.800114 0.433801 0.625651
O O6 0.414913 0.953595 0.580721
O O7 0.000000 0.500000 0.000000
O O8 0.716164 0.131405 0.200170
O O9 0.164989 0.568767 0.832889
O O10 0.500000 0.000000 0.000000
O O11 0.938052 0.919961 0.574717
O O12 0.000000 0.500000 0.500000
#
# Coordination Sequence:
#
# PCOD9043403 Si02
#       5
#     2   2   2   2   2
#     4  11  23  44  76 102 141 188 236 287 359 414
#     4  10  23  45  70  99 143 186 228 292 352 410
#     4  12  26  48  74 106 143 189 235 292 357 424
#     4  11  24  48  72 102 148 186 231 297 355 418
#     4  12  26  43  73 108 142 188 240 290 354 420
#
# _framework density 25.860913
#
# number of rings (size 3 to 8) (size 9 to 14) (size 15 to 20)
#    0.000    0.800    4.000    3.600    5.600    0.800 
#    0.000    1.000    0.000    0.000    0.000    0.000 
#    0.000    0.000    0.000    0.000    0.000    0.000 
#
# Total GULP energy -55923.776619 kJ/mol
# GULP energy per Si atom -5592.377662 kJ/mol
# Density = 2.580205 g / cm^3
# Si number density = 25.860913 Si / 1000 Ang^3
#
#
#
# Elastic Constant Matrix: (Units=GPa)
#
#
# Indices 1 2 3 4 5 6 
#
# 1 185.4868 69.7306 78.0583 -6.1890 61.6631 15.3804
# 2 69.7306 215.6216 76.3910 5.7414 56.3802 15.3619
# 3 78.0583 76.3910 112.2112 -32.2792 44.9128 8.2371
# 4 -6.1890 5.7414 -32.2792 52.2358 -2.5418 19.6623
# 5 61.6631 56.3802 44.9128 -2.5418 78.2481 5.6386
# 6 15.3804 15.3619 8.2371 19.6623 5.6386 66.9943
#
#
#
# Elastic Compliance Matrix: (Units=1/GPa)
#
#
# Indices 1 2 3 4 5 6 
#
# 1 0.008873 0.000159 -0.005237 -0.002245 -0.004143 -0.000422
# 2 0.000159 0.007187 -0.005314 -0.004341 -0.002427 0.000447
# 3 -0.005237 -0.005314 0.022637 0.015458 -0.004208 -0.004545
# 4 -0.002245 -0.004341 0.015458 0.032462 -0.002220 -0.009730
# 5 -0.004143 -0.002427 -0.004208 -0.002220 0.020066 0.000988
# 6 -0.000422 0.000447 -0.004545 -0.009730 0.000988 0.018252
#
#
# Mechanical properties :
#
#
# Convention : Reuss Voigt Hill
#
# Bulk Modulus (GPa) = 55.82345 106.85325 81.33835
# Shear Modulus (GPa) = 36.70194 58.77162 47.73678
#
# Velocity S-wave (km/s) = 3.77132 4.77236 4.30106
# Velocity P-wave (km/s) = 6.37155 8.47203 7.49573
#
# Compressibility (1/GPa) = 0.01791362
#
# Stress axis : x y z
#
# Youngs Moduli (GPa) = 112.70365 139.13454 44.17522
#
# Poissons Ratio (x) = -0.02217 0.23136
# Poissons Ratio (y) = -0.01796 0.23474
# Poissons Ratio (z) = 0.59026 0.73934
#
# Static dielectric constant tensor:
#      x y z
#    x 2.232980 0.015560 -0.175600 
#    y 0.015560 2.026980 0.078400 
#    z -0.175600 0.078400 2.164060 
# 
# From -- ./inp_files/144308.got.cif
#   From: 2010.05.17/outbox.cif.g08.bks.cpg/sg2_73_cif.got.tgz:144308.got - 2010.06.03 11:33:40.
