data_PCOD9043723
_publ_section_title
;
Structure prediction by ZEFSAII (Michael W. Deem and Ramdas Pophale) SiO2 
 PCOD9043723
Probable space group: P -1
;
_chemical_formula_sum "Si O2"
_cell_formula_units_Z 16
_cell_length_a 10.100980
_cell_length_b 8.234835
_cell_length_c 14.100179
_cell_angle_alpha 74.713152
_cell_angle_beta 104.095302
_cell_angle_gamma 147.816356
_cell_volume 602.123252
_symmetry_space_group_name_H-M "P -1"
_symmetry_group_IT_number 2
_symmetry_cell_setting 'triclinic'
loop_
_space_group_symop_operation_xyz
x,y,z
-x,-y,-z
loop_
_atom_site_type_symbol
_atom_site_label
_atom_site_fract_x
_atom_site_fract_y
_atom_site_fract_z
Si Si1 0.301830 0.588927 0.287280
Si Si2 0.063489 0.482887 0.727670
Si Si3 0.336359 0.948390 0.547505
Si Si4 0.374682 0.770403 0.929209
Si Si5 0.225797 0.281314 0.752589
Si Si6 0.387337 0.335425 0.406490
Si Si7 0.896437 0.713533 0.890279
Si Si8 0.361531 0.249864 0.093458
O O1 0.518157 0.836602 0.364860
O O2 0.208650 0.303068 0.346023
O O3 0.310015 0.563226 0.179307
O O4 0.153968 0.610975 0.268531
O O5 0.250264 0.697605 0.818883
O O6 0.049931 0.266619 0.739353
O O7 0.135907 0.629177 0.614506
O O8 0.260805 0.027192 0.456202
O O9 0.500000 0.000000 0.500000
O O10 0.616281 0.911035 0.917793
O O11 0.151424 0.445918 0.999711
O O12 0.500000 0.000000 0.000000
O O13 0.370248 0.424708 0.655961
O O14 0.461255 0.569468 0.814052
O O15 0.131394 0.000361 0.819271
O O16 0.500000 0.500000 0.500000
O O17 0.867323 0.872177 0.901336
O O18 0.500000 0.500000 0.000000
#
# Coordination Sequence:
#
# PCOD9043723 Si02
#       8
#     2   2   2   2   2   2   2   2
#     4  11  26  43  71 108 138 181 242 294 358 423
#     4  11  26  44  71 107 140 185 240 299 351 426
#     4  11  24  48  73  97 144 189 240 299 360 416
#     4  10  23  45  74 106 147 190 230 288 362 427
#     4  11  23  44  69 102 139 183 239 285 357 425
#     4  10  23  46  71  98 138 189 235 291 356 421
#     4  11  24  42  73 104 140 183 231 295 347 430
#     4   9  21  41  67  96 134 183 228 281 345 419
#
# _framework density 26.572634000000001
#
# number of rings (size 3 to 8) (size 9 to 14) (size 15 to 20)
#    0.000    1.500    2.500    0.750    3.500   12.000 
#    2.250    1.250    0.000    0.000    0.000    0.000 
#    0.000    0.000    0.000    0.000    0.000    0.000 
#
# Total GULP energy -89091.649215 kJ/mol
# GULP energy per Si atom -5568.228076 kJ/mol
# Density = 2.651215 g / cm^3
# Si number density = 26.572634 Si / 1000 Ang^3
#
#
#
# Elastic Constant Matrix: (Units=GPa)
#
#
# Indices 1 2 3 4 5 6 
#
# 1 96.9488 25.7499 46.1781 1.6434 5.6997 -15.9541
# 2 25.7499 75.5751 39.7804 -4.4935 -6.8352 -9.3890
# 3 46.1781 39.7804 201.5855 -17.5365 -7.9192 -10.1662
# 4 1.6434 -4.4935 -17.5365 68.8173 -11.0244 1.3507
# 5 5.6997 -6.8352 -7.9192 -11.0244 34.5222 9.1356
# 6 -15.9541 -9.3890 -10.1662 1.3507 9.1356 28.9973
#
#
#
# Elastic Compliance Matrix: (Units=1/GPa)
#
#
# Indices 1 2 3 4 5 6 
#
# 1 0.014165 -0.003150 -0.002685 -0.002420 -0.006463 0.007981
# 2 -0.003150 0.015977 -0.002136 0.001035 0.003081 0.001672
# 3 -0.002685 -0.002136 0.006210 0.001884 0.002256 -0.000790
# 4 -0.002420 0.001035 0.001884 0.016347 0.007143 -0.003348
# 5 -0.006463 0.003081 0.002256 0.007143 0.037090 -0.013785
# 6 0.007981 0.001672 -0.000790 -0.003348 -0.013785 0.043641
#
#
# Mechanical properties :
#
#
# Convention : Reuss Voigt Hill
#
# Bulk Modulus (GPa) = 48.99499 66.39178 57.69339
# Shear Modulus (GPa) = 32.01542 43.96075 37.98809
#
# Velocity S-wave (km/s) = 3.47483 4.07180 3.78510
# Velocity P-wave (km/s) = 5.88026 6.86624 6.39229
#
# Compressibility (1/GPa) = 0.02041025
#
# Stress axis : x y z
#
# Youngs Moduli (GPa) = 70.59833 62.58853 161.03223
#
# Poissons Ratio (x) = 0.19714 0.43240
# Poissons Ratio (y) = 0.22237 0.34396
# Poissons Ratio (z) = 0.18957 0.13369
#
# Static dielectric constant tensor:
#      x y z
#    x 2.181080 -0.020210 0.012030 
#    y -0.020210 2.250340 -0.073960 
#    z 0.012030 -0.073960 2.044640 
# 
# From -- ./inp_files/528497.got.cif
#   From: 2010.05.17/outbox.cif.g08.bks.cpg/sg2_265_cif.got.tgz:528497.got - 2010.06.03 11:33:40.
