data_PCOD9043768
_publ_section_title
;
Structure prediction by ZEFSAII (Michael W. Deem and Ramdas Pophale) SiO2 
 PCOD9043768
Probable space group: P -1
;
_chemical_formula_sum "Si O2"
_cell_formula_units_Z 12
_cell_length_a 13.864097
_cell_length_b 5.270190
_cell_length_c 8.604291
_cell_angle_alpha 89.408381
_cell_angle_beta 41.684378
_cell_angle_gamma 81.227768
_cell_volume 408.039031
_symmetry_space_group_name_H-M "P -1"
_symmetry_group_IT_number 2
_symmetry_cell_setting 'triclinic'
loop_
_space_group_symop_operation_xyz
x,y,z
-x,-y,-z
loop_
_atom_site_type_symbol
_atom_site_label
_atom_site_fract_x
_atom_site_fract_y
_atom_site_fract_z
Si Si1 0.761646 0.918608 0.890531
Si Si2 0.575144 0.376860 0.248746
Si Si3 0.859703 0.375340 0.042883
Si Si4 0.827117 0.884732 0.288249
Si Si5 0.650016 0.683214 0.725700
Si Si6 0.929502 0.297461 0.482898
O O1 0.845997 0.102030 0.676732
O O2 0.667790 0.794372 0.875939
O O3 0.640895 0.065503 0.158266
O O4 0.917168 0.803310 0.792775
O O5 0.500000 0.500000 0.500000
O O6 0.735208 0.452814 0.058927
O O7 0.482693 0.417847 0.198940
O O8 0.840474 0.633910 0.164808
O O9 0.823274 0.151764 0.203278
O O10 0.021930 0.222493 0.793605
O O11 0.684109 0.901891 0.566522
O O12 0.794301 0.450945 0.544543
O O13 0.000000 0.500000 0.500000
#
# Coordination Sequence:
#
# PCOD9043768 Si02
#       6
#     2   2   2   2   2   2
#     4  10  24  45  74 103 143 194 248 312 369 450
#     4  12  26  48  67 109 153 195 244 306 387 450
#     4  10  24  45  69 108 146 200 247 310 369 455
#     4  10  23  45  75 103 147 196 256 305 373 445
#     4  11  24  45  73 106 145 189 247 313 378 446
#     4   9  22  45  74 109 137 187 253 312 368 443
#
# _framework density 29.408949
#
# number of rings (size 3 to 8) (size 9 to 14) (size 15 to 20)
#    0.000    1.667    1.667    0.500    9.333    4.000 
#    6.000    0.000    0.000    0.000    0.000    0.000 
#    0.000    0.000    0.000    0.000    0.000    0.000 
#
# Total GULP energy -66978.477498 kJ/mol
# GULP energy per Si atom -5581.539792 kJ/mol
# Density = 2.934201 g / cm^3
# Si number density = 29.408949 Si / 1000 Ang^3
#
#
#
# Elastic Constant Matrix: (Units=GPa)
#
#
# Indices 1 2 3 4 5 6 
#
# 1 261.7195 39.3784 53.1615 43.3296 -14.0278 38.0152
# 2 39.3784 82.7388 38.1484 10.8613 13.4101 25.2001
# 3 53.1615 38.1484 115.0794 27.4992 13.1641 19.6306
# 4 43.3296 10.8613 27.4992 61.6541 7.7554 -6.0954
# 5 -14.0278 13.4101 13.1641 7.7554 63.5601 8.5858
# 6 38.0152 25.2001 19.6306 -6.0954 8.5858 58.5776
#
#
#
# Elastic Compliance Matrix: (Units=1/GPa)
#
#
# Indices 1 2 3 4 5 6 
#
# 1 0.005472 -0.000972 -0.000946 -0.003932 0.002575 -0.003602
# 2 -0.000972 0.016157 -0.003657 -0.000746 -0.002118 -0.004862
# 3 -0.000946 -0.003657 0.011764 -0.003996 -0.001115 -0.002008
# 4 -0.003932 -0.000746 -0.003996 0.022034 -0.003520 0.007021
# 5 0.002575 -0.002118 -0.001115 -0.003520 0.017864 -0.003371
# 6 -0.003602 -0.004862 -0.002008 0.007021 -0.003371 0.023398
#
#
# Mechanical properties :
#
#
# Convention : Reuss Voigt Hill
#
# Bulk Modulus (GPa) = 44.95863 80.10159 62.53011
# Shear Modulus (GPa) = 43.38319 58.68166 51.03242
#
# Velocity S-wave (km/s) = 3.84496 4.47180 4.17017
# Velocity P-wave (km/s) = 5.91880 7.34567 6.67050
#
# Compressibility (1/GPa) = 0.02224267
#
# Stress axis : x y z
#
# Youngs Moduli (GPa) = 182.76450 61.89289 85.00659
#
# Poissons Ratio (x) = 0.06016 0.08040
# Poissons Ratio (y) = 0.17764 0.31087
# Poissons Ratio (z) = 0.17286 0.22634
#
# Static dielectric constant tensor:
#      x y z
#    x 2.346350 0.029360 -0.018120 
#    y 0.029360 2.802650 0.143390 
#    z -0.018120 0.143390 2.349820 
# 
# From -- ./inp_files/286349.got.cif
#   From: 2010.05.17/outbox.cif.g08.bks.cpg/sg2_144_cif.got.tgz:286349.got - 2010.06.03 11:33:40.
