data_PCOD9043860
_publ_section_title
;
Structure prediction by ZEFSAII (Michael W. Deem and Ramdas Pophale) SiO2 
 PCOD9043860
Probable space group: P -1
;
_chemical_formula_sum "Si O2"
_cell_formula_units_Z 10
_cell_length_a 9.111212
_cell_length_b 14.143975
_cell_length_c 8.776880
_cell_angle_alpha 39.601996
_cell_angle_beta 68.901109
_cell_angle_gamma 39.910029
_cell_volume 381.705644
_symmetry_space_group_name_H-M "P -1"
_symmetry_group_IT_number 2
_symmetry_cell_setting 'triclinic'
loop_
_space_group_symop_operation_xyz
x,y,z
-x,-y,-z
loop_
_atom_site_type_symbol
_atom_site_label
_atom_site_fract_x
_atom_site_fract_y
_atom_site_fract_z
Si Si1 0.667251 0.213285 0.133923
Si Si2 0.338003 0.524576 0.407586
Si Si3 0.967325 0.283070 0.205462
Si Si4 0.419856 0.950129 0.225932
Si Si5 0.838473 0.789069 0.460851
O O1 0.766234 0.279907 0.923600
O O2 0.875982 0.989003 0.460173
O O3 0.661292 0.079159 0.183878
O O4 0.359139 0.480783 0.976287
O O5 0.500000 0.500000 0.500000
O O6 0.539284 0.246914 0.604348
O O7 0.086458 0.633847 0.446160
O O8 0.122064 0.213071 0.083109
O O9 0.039812 0.326691 0.272500
O O10 0.638450 0.816599 0.444369
O O11 0.500000 0.000000 0.000000
#
# Coordination Sequence:
#
# PCOD9043860 Si02
#       5
#     2   2   2   2   2
#     4  10  23  45  79 105 146 188 241 296 370 425
#     4  12  23  47  73 108 150 191 241 299 367 432
#     4  10  25  47  78 104 148 189 247 297 366 428
#     4  12  28  45  73 111 146 194 247 302 361 435
#     4  10  24  47  76 106 144 192 240 298 362 434
#
# _framework density 26.1982
#
# number of rings (size 3 to 8) (size 9 to 14) (size 15 to 20)
#    1.200    0.000    2.000    3.000    0.000    7.200 
#    0.000    0.000    0.000    0.000    0.000    0.000 
#    0.000    0.000    0.000    0.000    0.000    0.000 
#
# Total GULP energy -56120.898946 kJ/mol
# GULP energy per Si atom -5612.089895 kJ/mol
# Density = 2.613857 g / cm^3
# Si number density = 26.198200 Si / 1000 Ang^3
#
#
#
# Elastic Constant Matrix: (Units=GPa)
#
#
# Indices 1 2 3 4 5 6 
#
# 1 149.1364 14.6264 1.7869 -14.4115 1.8885 1.7829
# 2 14.6264 180.0314 43.5654 -15.3499 -4.3916 12.4145
# 3 1.7869 43.5654 128.6460 -0.7835 -14.6101 -4.0366
# 4 -14.4115 -15.3499 -0.7835 56.0994 -7.7194 3.2684
# 5 1.8885 -4.3916 -14.6101 -7.7194 28.0090 -5.3693
# 6 1.7829 12.4145 -4.0366 3.2684 -5.3693 25.7198
#
#
#
# Elastic Compliance Matrix: (Units=1/GPa)
#
#
# Indices 1 2 3 4 5 6 
#
# 1 0.006914 -0.000388 0.000010 0.001679 -0.000162 -0.000538
# 2 -0.000388 0.006572 -0.002376 0.001832 -0.000414 -0.003837
# 3 0.000010 -0.002376 0.009280 -0.000022 0.005168 0.003684
# 4 0.001679 0.001832 -0.000022 0.019601 0.005099 -0.002430
# 5 -0.000162 -0.000414 0.005168 0.005099 0.041482 0.009034
# 6 -0.000538 -0.003837 0.003684 -0.002430 0.009034 0.043543
#
#
# Mechanical properties :
#
#
# Convention : Reuss Voigt Hill
#
# Bulk Modulus (GPa) = 57.94388 64.19681 61.07035
# Shear Modulus (GPa) = 36.06139 48.48798 42.27469
#
# Velocity S-wave (km/s) = 3.71412 4.30678 4.02138
# Velocity P-wave (km/s) = 6.36855 7.02058 6.70250
#
# Compressibility (1/GPa) = 0.01725808
#
# Stress axis : x y z
#
# Youngs Moduli (GPa) = 144.63550 152.16340 107.75564
#
# Poissons Ratio (x) = 0.05903 -0.00111
# Poissons Ratio (y) = 0.05611 0.25607
# Poissons Ratio (z) = -0.00149 0.36160
#
# Static dielectric constant tensor:
#      x y z
#    x 2.048590 0.041960 0.018830 
#    y 0.041960 1.986300 0.032940 
#    z 0.018830 0.032940 2.050420 
# 
# From -- ./inp_files/78970.got.cif
#   From: 2010.05.17/outbox.cif.g08.bks.cpg/sg2_40_cif.got.tgz:78970.got - 2010.06.03 11:33:40.
