data_PCOD9043529
_publ_section_title
;
Structure prediction by ZEFSAII (Michael W. Deem and Ramdas Pophale) SiO2 
 PCOD9043529
Probable space group: P -1
;
_chemical_formula_sum "Si O2"
_cell_formula_units_Z 16
_cell_length_a 18.754377
_cell_length_b 8.673768
_cell_length_c 14.533056
_cell_angle_alpha 145.753340
_cell_angle_beta 148.407561
_cell_angle_gamma 41.193863
_cell_volume 687.525232
_symmetry_space_group_name_H-M "P -1"
_symmetry_group_IT_number 2
_symmetry_cell_setting 'triclinic'
loop_
_space_group_symop_operation_xyz
x,y,z
-x,-y,-z
loop_
_atom_site_type_symbol
_atom_site_label
_atom_site_fract_x
_atom_site_fract_y
_atom_site_fract_z
Si Si1 0.310245 0.464132 0.241369
Si Si2 0.073991 0.071815 0.526606
Si Si3 0.452838 0.996482 0.704242
Si Si4 0.531160 0.723439 0.337275
Si Si5 0.960970 0.199834 0.967851
Si Si6 0.064364 0.777556 0.722804
Si Si7 0.704648 0.581389 0.110625
Si Si8 0.223465 0.490273 0.368459
O O1 0.385211 0.736389 0.463739
O O2 0.409301 0.176974 0.181977
O O3 0.274891 0.404922 0.280278
O O4 0.178055 0.577823 0.088964
O O5 0.167931 0.314368 0.751047
O O6 0.947209 0.103176 0.331692
O O7 0.182402 0.817598 0.483979
O O8 0.000000 0.000000 0.500000
O O9 0.468887 0.187325 0.726184
O O10 0.362484 0.193054 0.776397
O O11 0.674560 0.582680 0.469817
O O12 0.500000 0.000000 0.500000
O O13 0.418263 0.522752 0.130499
O O14 0.967538 0.984057 0.784313
O O15 0.087602 0.361859 0.174457
O O16 0.000000 0.000000 0.000000
O O17 0.215852 0.694452 0.887555
O O18 0.000000 0.500000 0.500000
#
# Coordination Sequence:
#
# PCOD9043529 Si02
#       8
#     2   2   2   2   2   2   2   2
#     4  11  23  47  74 103 146 190 241 306 371 430
#     4  11  26  47  72 110 147 190 244 309 370 435
#     4  11  24  47  73 105 145 195 243 297 364 441
#     4  12  26  46  72 105 148 194 248 294 360 448
#     4  12  26  45  76 107 140 196 246 304 373 433
#     4  10  23  45  72 100 144 185 240 300 364 428
#     4  11  25  48  73 104 147 197 241 301 367 434
#     4  12  25  46  67 106 149 186 249 307 359 433
#
# _framework density 23.271874
#
# number of rings (size 3 to 8) (size 9 to 14) (size 15 to 20)
#    0.000    0.750    3.750    3.000    5.250    0.500 
#    2.250    0.000    0.000    0.000    0.000    0.000 
#    0.000    0.000    0.000    0.000    0.000    0.000 
#
# Total GULP energy -89402.204041 kJ/mol
# GULP energy per Si atom -5587.637753 kJ/mol
# Density = 2.321891 g / cm^3
# Si number density = 23.271874 Si / 1000 Ang^3
#
#
#
# Elastic Constant Matrix: (Units=GPa)
#
#
# Indices 1 2 3 4 5 6 
#
# 1 112.5175 22.0663 20.3879 -4.3986 -3.1022 16.8478
# 2 22.0663 111.8784 18.4074 -30.0693 -4.1828 5.7681
# 3 20.3879 18.4074 99.0437 -8.0760 12.2732 9.6555
# 4 -4.3986 -30.0693 -8.0760 39.7231 -1.6124 -0.6498
# 5 -3.1022 -4.1828 12.2732 -1.6124 35.1092 3.8728
# 6 16.8478 5.7681 9.6555 -0.6498 3.8728 38.4956
#
#
#
# Elastic Compliance Matrix: (Units=1/GPa)
#
#
# Indices 1 2 3 4 5 6 
#
# 1 0.010117 -0.001562 -0.001649 -0.000393 0.001703 -0.003958
# 2 -0.001562 0.011928 -0.001388 0.008652 0.002258 -0.000837
# 3 -0.001649 -0.001388 0.011422 0.000898 -0.004096 -0.001508
# 4 -0.000393 0.008652 0.000898 0.031937 0.002263 -0.001038
# 5 0.001703 0.002258 -0.004096 0.002263 0.030781 -0.003115
# 6 -0.003958 -0.000837 -0.001508 -0.001038 -0.003115 0.028509
#
#
# Mechanical properties :
#
#
# Convention : Reuss Voigt Hill
#
# Bulk Modulus (GPa) = 41.20740 49.46255 45.33497
# Shear Modulus (GPa) = 35.21582 40.17078 37.69330
#
# Velocity S-wave (km/s) = 3.89425 4.15921 4.02891
# Velocity P-wave (km/s) = 6.16163 6.66076 6.41605
#
# Compressibility (1/GPa) = 0.02426748
#
# Stress axis : x y z
#
# Youngs Moduli (GPa) = 98.84415 83.83955 87.55146
#
# Poissons Ratio (x) = 0.13095 0.14442
# Poissons Ratio (y) = 0.15439 0.12152
# Poissons Ratio (z) = 0.16304 0.11637
#
# Static dielectric constant tensor:
#      x y z
#    x 1.900470 0.076160 -0.020650 
#    y 0.076160 1.917280 0.027360 
#    z -0.020650 0.027360 1.852110 
# 
# From -- ./inp_files/537694.got.cif
#   From: 2010.05.17/outbox.cif.g08.bks.cpg/sg2_269_cif.got.tgz:537694.got - 2010.06.03 11:33:40.
