data_PCOD9043371
_publ_section_title
;
Structure prediction by ZEFSAII (Michael W. Deem and Ramdas Pophale) SiO2 
 PCOD9043371
Probable space group: P -1
;
_chemical_formula_sum "Si O2"
_cell_formula_units_Z 14
_cell_length_a 9.325199
_cell_length_b 8.507835
_cell_length_c 15.837044
_cell_angle_alpha 92.774545
_cell_angle_beta 53.400375
_cell_angle_gamma 133.398376
_cell_volume 575.479203
_symmetry_space_group_name_H-M "P -1"
_symmetry_group_IT_number 2
_symmetry_cell_setting 'triclinic'
loop_
_space_group_symop_operation_xyz
x,y,z
-x,-y,-z
loop_
_atom_site_type_symbol
_atom_site_label
_atom_site_fract_x
_atom_site_fract_y
_atom_site_fract_z
Si Si1 0.301560 0.443327 0.264268
Si Si2 0.264480 0.985071 0.858513
Si Si3 0.308881 0.434522 0.460424
Si Si4 0.356768 0.665417 0.673195
Si Si5 0.781333 0.161264 0.757719
Si Si6 0.653048 0.387710 0.126856
Si Si7 0.708138 0.039352 0.345146
O O1 0.638334 0.771439 0.140426
O O2 0.231703 0.404356 0.387952
O O3 0.393693 0.333246 0.209000
O O4 0.007031 0.273070 0.306297
O O5 0.610037 0.162073 0.758108
O O6 0.180653 0.915698 0.788237
O O7 0.990247 0.697850 0.994899
O O8 0.469065 0.376612 0.408154
O O9 0.006696 0.222658 0.619651
O O10 0.506111 0.734294 0.426461
O O11 0.349794 0.673241 0.776930
O O12 0.459829 0.909241 0.603165
O O13 0.005249 0.390636 0.755669
O O14 0.490413 0.852013 0.887115
#
# Coordination Sequence:
#
# PCOD9043371 Si02
#       7
#     2   2   2   2   2   2   2
#     4  10  23  45  70  96 130 176 217 272 336 382
#     4  11  24  44  65  99 132 169 228 269 320 396
#     4  10  26  45  65 101 137 165 223 273 322 402
#     4  11  24  44  69 100 129 176 222 264 334 393
#     4  12  24  43  66  98 133 173 217 271 329 388
#     4  11  25  44  68  94 135 174 219 276 322 387
#     4  11  23  45  69 100 131 174 216 274 333 384
#
# _framework density 24.327551
#
# number of rings (size 3 to 8) (size 9 to 14) (size 15 to 20)
#    0.000    1.143    2.857    2.143    0.000    8.571 
#    2.571    0.000    0.000    0.000    0.000    0.000 
#    0.000    0.000    0.000    0.000    0.000    0.000 
#
# Total GULP energy -78218.362560 kJ/mol
# GULP energy per Si atom -5587.025897 kJ/mol
# Density = 2.427218 g / cm^3
# Si number density = 24.327551 Si / 1000 Ang^3
#
#
#
# Elastic Constant Matrix: (Units=GPa)
#
#
# Indices 1 2 3 4 5 6 
#
# 1 150.2853 52.4975 44.8765 -16.4914 3.4687 6.3902
# 2 52.4975 119.1734 38.7130 -32.8683 3.8224 -4.5057
# 3 44.8765 38.7130 87.5344 -31.8360 0.6765 -2.2689
# 4 -16.4914 -32.8683 -31.8360 32.2816 -8.5678 0.7034
# 5 3.4687 3.8224 0.6765 -8.5678 22.6015 -4.6936
# 6 6.3902 -4.5057 -2.2689 0.7034 -4.6936 51.6440
#
#
#
# Elastic Compliance Matrix: (Units=1/GPa)
#
#
# Indices 1 2 3 4 5 6 
#
# 1 0.008952 -0.003623 -0.004570 -0.004279 -0.002621 -0.001804
# 2 -0.003623 0.013409 0.000923 0.013688 0.003828 0.001820
# 3 -0.004570 0.000923 0.021290 0.021844 0.008618 0.002067
# 4 -0.004279 0.013688 0.021844 0.070928 0.025411 0.004027
# 5 -0.002621 0.003828 0.008618 0.025411 0.054548 0.005648
# 6 -0.001804 0.001820 0.002067 0.004027 0.005648 0.020295
#
#
# Mechanical properties :
#
#
# Convention : Reuss Voigt Hill
#
# Bulk Modulus (GPa) = 34.35085 69.90747 52.12916
# Shear Modulus (GPa) = 23.40126 36.03249 29.71688
#
# Velocity S-wave (km/s) = 3.10486 3.85273 3.49883
# Velocity P-wave (km/s) = 5.19657 6.97063 6.14793
#
# Compressibility (1/GPa) = 0.02911136
#
# Stress axis : x y z
#
# Youngs Moduli (GPa) = 111.70757 74.57928 46.97023
#
# Poissons Ratio (x) = 0.27022 0.21464
# Poissons Ratio (y) = 0.40475 -0.04337
# Poissons Ratio (z) = 0.51048 -0.06887
#
# Static dielectric constant tensor:
#      x y z
#    x 1.982250 -0.108450 0.036010 
#    y -0.108450 2.001040 -0.019730 
#    z 0.036010 -0.019730 1.923250 
# 
# From -- ./inp_files/557167.got.cif
#   From: 2010.05.17/outbox.cif.g08.bks.cpg/sg2_279_cif.got.tgz:557167.got - 2010.06.03 11:33:40.
