data_PCOD9043321
_publ_section_title
;
Structure prediction by ZEFSAII (Michael W. Deem and Ramdas Pophale) SiO2 
 PCOD9043321
Probable space group: P -1
;
_chemical_formula_sum "Si O2"
_cell_formula_units_Z 16
_cell_length_a 9.055676
_cell_length_b 28.903941
_cell_length_c 6.016959
_cell_angle_alpha 82.148575
_cell_angle_beta 87.471912
_cell_angle_gamma 149.487394
_cell_volume 750.024671
_symmetry_space_group_name_H-M "P -1"
_symmetry_group_IT_number 2
_symmetry_cell_setting 'triclinic'
loop_
_space_group_symop_operation_xyz
x,y,z
-x,-y,-z
loop_
_atom_site_type_symbol
_atom_site_label
_atom_site_fract_x
_atom_site_fract_y
_atom_site_fract_z
Si Si1 0.740023 0.789879 0.750793
Si Si2 0.329872 0.562388 0.198479
Si Si3 0.474883 0.540226 0.827669
Si Si4 0.116186 0.321147 0.671889
Si Si5 0.152662 0.851511 0.053496
Si Si6 0.186216 0.674135 0.149736
Si Si7 0.707782 0.033332 0.652665
Si Si8 0.652070 0.351423 0.508110
O O1 0.612176 0.721432 0.607929
O O2 0.924338 0.811138 0.910746
O O3 0.979674 0.891474 0.548705
O O4 0.443192 0.732626 0.913599
O O5 0.543357 0.585990 0.305295
O O6 0.375607 0.622866 0.291028
O O7 0.971608 0.452822 0.305771
O O8 0.440010 0.579730 0.935017
O O9 0.786717 0.632088 0.604787
O O10 0.142071 0.441880 0.796642
O O11 0.500000 0.500000 0.000000
O O12 0.899333 0.295954 0.835646
O O13 0.978635 0.231647 0.772577
O O14 0.480346 0.934143 0.854084
O O15 0.207019 0.905378 0.203593
O O16 0.317578 0.691305 0.361886
O O17 0.500000 0.000000 0.500000
#
# Coordination Sequence:
#
# PCOD9043321 Si02
#       8
#     2   2   2   2   2   2   2   2
#     4  11  22  42  69  97 133 172 213 273 334 390
#     4  11  23  40  61  91 126 178 227 273 315 384
#     4  12  24  43  62  88 133 188 226 267 324 380
#     4  12  25  41  66  93 135 178 224 272 313 395
#     4  10  23  45  70 104 125 168 220 271 335 395
#     4  12  24  40  61  92 136 177 222 267 328 384
#     4   9  20  43  75  97 132 161 210 279 338 394
#     4  11  24  40  61  94 132 172 221 276 328 375
#
# _framework density 21.332629000000001
#
# number of rings (size 3 to 8) (size 9 to 14) (size 15 to 20)
#    0.000    1.000    3.750    3.375    0.000    5.500 
#    0.000    0.625    0.000   10.500    0.000    0.000 
#    0.000    0.000    0.000    0.000    0.000    0.000 
#
# Total GULP energy -89272.009744 kJ/mol
# GULP energy per Si atom -5579.500609 kJ/mol
# Density = 2.128408 g / cm^3
# Si number density = 21.332629 Si / 1000 Ang^3
#
#
#
# Elastic Constant Matrix: (Units=GPa)
#
#
# Indices 1 2 3 4 5 6 
#
# 1 85.3751 33.0138 34.2653 -9.7954 -7.4693 0.5868
# 2 33.0138 113.1002 65.1417 -9.5177 0.0709 7.3878
# 3 34.2653 65.1417 107.2281 -42.7447 -3.3250 -4.8703
# 4 -9.7954 -9.5177 -42.7447 62.6589 10.7353 1.2569
# 5 -7.4693 0.0709 -3.3250 10.7353 34.8724 0.9114
# 6 0.5868 7.3878 -4.8703 1.2569 0.9114 17.2612
#
#
#
# Elastic Compliance Matrix: (Units=1/GPa)
#
#
# Indices 1 2 3 4 5 6 
#
# 1 0.014116 -0.002090 -0.003607 -0.001078 0.003033 -0.000685
# 2 -0.002090 0.016730 -0.012377 -0.006108 0.000484 -0.010162
# 3 -0.003607 -0.012377 0.024127 0.014328 -0.003154 0.011351
# 4 -0.001078 -0.006108 0.014328 0.025716 -0.006904 0.005185
# 5 0.003033 0.000484 -0.003154 -0.006904 0.031211 -0.002345
# 6 -0.000685 -0.010162 0.011351 0.005185 -0.002345 0.065255
#
#
# Mechanical properties :
#
#
# Convention : Reuss Voigt Hill
#
# Bulk Modulus (GPa) = 53.12648 63.39390 58.26019
# Shear Modulus (GPa) = 22.77080 34.51067 28.64074
#
# Velocity S-wave (km/s) = 3.27068 4.02648 3.66810
# Velocity P-wave (km/s) = 6.26267 7.16925 6.73124
#
# Compressibility (1/GPa) = 0.01882300
#
# Stress axis : x y z
#
# Youngs Moduli (GPa) = 70.84330 59.77213 41.44711
#
# Poissons Ratio (x) = 0.12495 0.14952
# Poissons Ratio (y) = 0.14810 0.51300
# Poissons Ratio (z) = 0.25556 0.73981
#
# Static dielectric constant tensor:
#      x y z
#    x 1.788070 0.019920 0.024990 
#    y 0.019920 1.805830 0.024250 
#    z 0.024990 0.024250 1.909950 
# 
# From -- ./inp_files/56897.got.cif
#   From: 2010.05.17/outbox.cif.g08.bks.cpg/sg2_29_cif.got.tgz:56897.got - 2010.06.03 11:33:40.
