data_PCOD9043302
_publ_section_title
;
Structure prediction by ZEFSAII (Michael W. Deem and Ramdas Pophale) SiO2 
 PCOD9043302
Probable space group: P -1
;
_chemical_formula_sum "Si O2"
_cell_formula_units_Z 14
_cell_length_a 15.903554
_cell_length_b 5.357247
_cell_length_c 11.741538
_cell_angle_alpha 115.315064
_cell_angle_beta 45.591108
_cell_angle_gamma 91.419851
_cell_volume 584.761319
_symmetry_space_group_name_H-M "P -1"
_symmetry_group_IT_number 2
_symmetry_cell_setting 'triclinic'
loop_
_space_group_symop_operation_xyz
x,y,z
-x,-y,-z
loop_
_atom_site_type_symbol
_atom_site_label
_atom_site_fract_x
_atom_site_fract_y
_atom_site_fract_z
Si Si1 0.979352 0.243129 0.734486
Si Si2 0.594059 0.185217 0.588704
Si Si3 0.121699 0.583235 0.371028
Si Si4 0.377270 0.292651 0.216939
Si Si5 0.201174 0.363892 0.619002
Si Si6 0.620072 0.008899 0.282218
Si Si7 0.775313 0.342975 0.122136
O O1 0.875963 0.398576 0.763495
O O2 0.057784 0.439582 0.727812
O O3 0.910548 0.189687 0.899037
O O4 0.080044 0.922571 0.525558
O O5 0.567637 0.461321 0.751864
O O6 0.502343 0.012847 0.665339
O O7 0.743105 0.954152 0.425994
O O8 0.576091 0.232580 0.478657
O O9 0.262204 0.383278 0.250505
O O10 0.000000 0.500000 0.500000
O O11 0.297605 0.294051 0.407540
O O12 0.500000 0.000000 0.000000
O O13 0.204899 0.601909 0.753668
O O14 0.701465 0.672842 0.194568
O O15 0.697535 0.135491 0.152158
#
# Coordination Sequence:
#
# PCOD9043302 Si02
#       7
#     2   2   2   2   2   2   2
#     4  11  25  46  74 104 149 202 256 311 392 461
#     4  10  23  45  70 102 154 200 242 317 385 460
#     4  11  25  48  71 102 152 204 256 317 375 464
#     4  12  26  45  75 111 153 205 261 315 387 463
#     4  11  23  46  71 110 151 192 251 322 387 460
#     4  10  24  43  73 111 154 192 252 313 397 463
#     4  11  25  44  77 117 147 197 250 326 393 463
#
# _framework density 23.941392
#
# number of rings (size 3 to 8) (size 9 to 14) (size 15 to 20)
#    0.000    1.143    4.286    0.429    4.000    4.571 
#    0.000    2.857    0.000    0.000    0.000    0.000 
#    0.000    0.000    0.000    0.000    0.000    0.000 
#
# Total GULP energy -78318.091884 kJ/mol
# GULP energy per Si atom -5594.149420 kJ/mol
# Density = 2.388690 g / cm^3
# Si number density = 23.941392 Si / 1000 Ang^3
#
#
#
# Elastic Constant Matrix: (Units=GPa)
#
#
# Indices 1 2 3 4 5 6 
#
# 1 174.7919 53.2401 67.3754 -0.6959 -14.1365 8.7588
# 2 53.2401 86.7581 40.6993 -14.8075 1.4494 15.2728
# 3 67.3754 40.6993 118.4410 -21.2117 -0.1119 2.9671
# 4 -0.6959 -14.8075 -21.2117 39.2847 0.2400 -4.2323
# 5 -14.1365 1.4494 -0.1119 0.2400 21.6261 6.2208
# 6 8.7588 15.2728 2.9671 -4.2323 6.2208 41.5134
#
#
#
# Elastic Compliance Matrix: (Units=1/GPa)
#
#
# Indices 1 2 3 4 5 6 
#
# 1 0.009369 -0.004127 -0.004597 -0.004083 0.006876 -0.001576
# 2 -0.004127 0.016800 -0.002523 0.004452 -0.002656 -0.004278
# 3 -0.004597 -0.002523 0.012984 0.006228 -0.003448 0.002122
# 4 -0.004083 0.004452 0.006228 0.030719 -0.003998 0.002509
# 5 0.006876 -0.002656 -0.003448 -0.003998 0.053425 -0.008641
# 6 -0.001576 -0.004278 0.002122 0.002509 -0.008641 0.027394
#
#
# Mechanical properties :
#
#
# Convention : Reuss Voigt Hill
#
# Bulk Modulus (GPa) = 60.02878 78.06894 69.04886
# Shear Modulus (GPa) = 27.97410 35.06325 31.51868
#
# Velocity S-wave (km/s) = 3.42195 3.83109 3.63229
# Velocity P-wave (km/s) = 6.38284 7.22833 6.81871
#
# Compressibility (1/GPa) = 0.01665868
#
# Stress axis : x y z
#
# Youngs Moduli (GPa) = 106.73661 59.52389 77.01959
#
# Poissons Ratio (x) = 0.24567 0.35403
# Poissons Ratio (y) = 0.44053 0.19432
# Poissons Ratio (z) = 0.49062 0.15018
#
# Static dielectric constant tensor:
#      x y z
#    x 1.945690 -0.025490 -0.031540 
#    y -0.025490 1.994180 -0.002410 
#    z -0.031540 -0.002410 1.908670 
# 
# From -- ./inp_files/124326.got.cif
#   From: 2010.05.17/outbox.cif.g08.bks.cpg/sg2_63_cif.got.tgz:124326.got - 2010.06.03 11:33:40.
