data_PCOD9043000
_publ_section_title
;
Structure prediction by ZEFSAII (Michael W. Deem and Ramdas Pophale) SiO2 
 PCOD9043000
Probable space group: P -1
;
_chemical_formula_sum "Si O2"
_cell_formula_units_Z 10
_cell_length_a 7.220604
_cell_length_b 14.357136
_cell_length_c 9.121690
_cell_angle_alpha 138.257799
_cell_angle_beta 85.252454
_cell_angle_gamma 66.067717
_cell_volume 445.298451
_symmetry_space_group_name_H-M "P -1"
_symmetry_group_IT_number 2
_symmetry_cell_setting 'triclinic'
loop_
_space_group_symop_operation_xyz
x,y,z
-x,-y,-z
loop_
_atom_site_type_symbol
_atom_site_label
_atom_site_fract_x
_atom_site_fract_y
_atom_site_fract_z
Si Si1 0.071324 0.952090 0.608111
Si Si2 0.996914 0.731482 0.525400
Si Si3 0.196590 0.693500 0.777441
Si Si4 0.381686 0.201110 0.567292
Si Si5 0.969674 0.598049 0.913683
O O1 0.126370 0.766318 0.440469
O O2 0.321437 0.915089 0.580627
O O3 0.000000 0.000000 0.500000
O O4 0.839882 0.140133 0.942187
O O5 0.036679 0.776678 0.733894
O O6 0.707091 0.857482 0.624501
O O7 0.114359 0.511969 0.265537
O O8 0.500000 0.500000 0.500000
O O9 0.071265 0.642553 0.831654
O O10 0.217740 0.428168 0.801075
O O11 0.254949 0.223423 0.756500
#
# Coordination Sequence:
#
# PCOD9043000 Si02
#       5
#     2   2   2   2   2
#     4  12  27  43  69  99 134 175 223 273 327 390
#     4  10  23  45  67  97 134 175 214 275 329 389
#     4  12  26  43  68 101 136 174 220 271 336 390
#     4   9  22  44  70  95 135 169 226 266 330 389
#     4   9  21  44  70  98 130 175 218 269 330 393
#
# _framework density 22.456848000000001
#
# number of rings (size 3 to 8) (size 9 to 14) (size 15 to 20)
#    1.200    0.400    0.000    3.600    2.800    4.800 
#    3.600    0.000    0.000    0.000    0.000    0.000 
#    0.000    0.000    0.000    0.000    0.000    0.000 
#
# Total GULP energy -55833.351633 kJ/mol
# GULP energy per Si atom -5583.335163 kJ/mol
# Density = 2.240574 g / cm^3
# Si number density = 22.456848 Si / 1000 Ang^3
#
#
#
# Elastic Constant Matrix: (Units=GPa)
#
#
# Indices 1 2 3 4 5 6 
#
# 1 117.7614 52.2679 28.1064 -7.6813 -4.0333 -11.9262
# 2 52.2679 114.4102 23.9649 -27.5181 -2.1702 25.2917
# 3 28.1064 23.9649 88.4515 -0.6695 1.1841 -16.1283
# 4 -7.6813 -27.5181 -0.6695 35.1731 -5.4107 8.9939
# 5 -4.0333 -2.1702 1.1841 -5.4107 39.6082 -2.3842
# 6 -11.9262 25.2917 -16.1283 8.9939 -2.3842 45.6390
#
#
#
# Elastic Compliance Matrix: (Units=1/GPa)
#
#
# Indices 1 2 3 4 5 6 
#
# 1 0.013949 -0.011224 0.000698 -0.008703 0.000309 0.011843
# 2 -0.011224 0.028000 -0.008707 0.026505 0.002670 -0.026611
# 3 0.000698 -0.008707 0.015646 -0.009753 -0.001461 0.012383
# 4 -0.008703 0.026505 -0.009753 0.056058 0.006643 -0.031109
# 5 0.000309 0.002670 -0.001461 0.006643 0.026265 -0.001852
# 6 0.011843 -0.026611 0.012383 -0.031109 -0.001852 0.050162
#
#
# Mechanical properties :
#
#
# Convention : Reuss Voigt Hill
#
# Bulk Modulus (GPa) = 52.27548 58.81128 55.54338
# Shear Modulus (GPa) = 21.28348 38.50298 29.89323
#
# Velocity S-wave (km/s) = 3.08189 4.14518 3.65244
# Velocity P-wave (km/s) = 5.99940 7.01110 6.52489
#
# Compressibility (1/GPa) = 0.01912943
#
# Stress axis : x y z
#
# Youngs Moduli (GPa) = 71.68786 35.71383 63.91228
#
# Poissons Ratio (x) = 0.40087 -0.04461
# Poissons Ratio (y) = 0.80465 0.55649
# Poissons Ratio (z) = -0.05004 0.31096
#
# Static dielectric constant tensor:
#      x y z
#    x 1.819770 0.015620 0.025710 
#    y 0.015620 1.846880 0.034520 
#    z 0.025710 0.034520 1.866170 
# 
# From -- ./inp_files/17587.got.cif
#   From: 2010.05.17/outbox.cif.g08.bks.cpg/sg2_9_cif.got.tgz:17587.got - 2010.06.03 11:33:40.
