data_PCOD9043105
_publ_section_title
;
Structure prediction by ZEFSAII (Michael W. Deem and Ramdas Pophale) SiO2 
 PCOD9043105
Probable space group: P -1
;
_chemical_formula_sum "Si O2"
_cell_formula_units_Z 16
_cell_length_a 9.438647
_cell_length_b 13.699044
_cell_length_c 12.097894
_cell_angle_alpha 69.039920
_cell_angle_beta 148.251243
_cell_angle_gamma 101.975559
_cell_volume 753.613492
_symmetry_space_group_name_H-M "P -1"
_symmetry_group_IT_number 2
_symmetry_cell_setting 'triclinic'
loop_
_space_group_symop_operation_xyz
x,y,z
-x,-y,-z
loop_
_atom_site_type_symbol
_atom_site_label
_atom_site_fract_x
_atom_site_fract_y
_atom_site_fract_z
Si Si1 0.683539 0.055338 0.248515
Si Si2 0.665912 0.123840 0.968880
Si Si3 0.372016 0.224510 0.136513
Si Si4 0.296596 0.108295 0.354284
Si Si5 0.825120 0.364875 0.659247
Si Si6 0.610666 0.737789 0.458635
Si Si7 0.909263 0.441513 0.210596
Si Si8 0.351618 0.574754 0.730018
O O1 0.555974 0.124164 0.239837
O O2 0.503257 0.966902 0.138854
O O3 0.658244 0.131206 0.093219
O O4 0.000000 0.000000 0.500000
O O5 0.527082 0.226394 0.764963
O O6 0.984648 0.092025 0.159733
O O7 0.319193 0.194156 0.239325
O O8 0.525399 0.322979 0.192837
O O9 0.077183 0.263721 0.868052
O O10 0.374752 0.158316 0.500535
O O11 0.500000 0.000000 0.500000
O O12 0.575224 0.331021 0.571319
O O13 0.749362 0.401300 0.470055
O O14 0.933050 0.462305 0.749457
O O15 0.911673 0.667497 0.669622
O O16 0.868210 0.438130 0.317349
O O17 0.604007 0.474115 0.945481
#
# Coordination Sequence:
#
# PCOD9043105 Si02
#       8
#     2   2   2   2   2   2   2   2
#     4  11  26  46  68 100 137 178 230 286 338 399
#     4  11  26  44  68 102 134 178 230 281 339 400
#     4  11  24  42  68  97 135 178 226 272 342 407
#     4  12  26  45  68 100 142 182 226 276 337 405
#     4  11  23  44  67 100 133 181 224 277 341 407
#     4  12  25  43  70 102 139 178 226 279 342 401
#     4  10  25  43  68 101 131 175 232 280 339 402
#     4  10  23  45  68  97 137 177 222 280 342 404
#
# _framework density 21.231043
#
# number of rings (size 3 to 8) (size 9 to 14) (size 15 to 20)
#    0.000    1.000    2.500    3.000    7.000    3.500 
#    0.000    0.000    0.000    0.000    0.000    0.000 
#    0.000    0.000    0.000    0.000    0.000    0.000 
#
# Total GULP energy -89526.848407 kJ/mol
# GULP energy per Si atom -5595.428025 kJ/mol
# Density = 2.118272 g / cm^3
# Si number density = 21.231043 Si / 1000 Ang^3
#
#
#
# Elastic Constant Matrix: (Units=GPa)
#
#
# Indices 1 2 3 4 5 6 
#
# 1 98.6971 20.5972 43.1538 -4.0502 -3.0066 14.3947
# 2 20.5972 41.7941 8.4547 1.4615 12.8745 8.1174
# 3 43.1538 8.4547 75.0815 -8.2329 -6.9715 1.7621
# 4 -4.0502 1.4615 -8.2329 29.3828 7.1728 5.9245
# 5 -3.0066 12.8745 -6.9715 7.1728 47.1638 -3.1994
# 6 14.3947 8.1174 1.7621 5.9245 -3.1994 39.4649
#
#
#
# Elastic Compliance Matrix: (Units=1/GPa)
#
#
# Indices 1 2 3 4 5 6 
#
# 1 0.015440 -0.005482 -0.007989 0.000789 0.000895 -0.004193
# 2 -0.005482 0.030668 -0.000965 0.000761 -0.009328 -0.005136
# 3 -0.007989 -0.000965 0.018524 0.003217 0.002137 0.001976
# 4 0.000789 0.000761 0.003217 0.037802 -0.005888 -0.006740
# 5 0.000895 -0.009328 0.002137 -0.005888 0.025318 0.004433
# 6 -0.004193 -0.005136 0.001976 -0.006740 0.004433 0.029208
#
#
# Mechanical properties :
#
#
# Convention : Reuss Voigt Hill
#
# Bulk Modulus (GPa) = 27.96363 39.99824 33.98094
# Shear Modulus (GPa) = 25.28405 32.76011 29.02208
#
# Velocity S-wave (km/s) = 3.45469 3.93240 3.70126
# Velocity P-wave (km/s) = 5.39563 6.28481 5.85712
#
# Compressibility (1/GPa) = 0.03576073
#
# Stress axis : x y z
#
# Youngs Moduli (GPa) = 64.76477 32.60729 53.98373
#
# Poissons Ratio (x) = 0.17876 0.43128
# Poissons Ratio (y) = 0.35506 0.05207
# Poissons Ratio (z) = 0.51741 0.03145
#
# Static dielectric constant tensor:
#      x y z
#    x 1.745690 0.025330 -0.011400 
#    y 0.025330 1.756770 0.002490 
#    z -0.011400 0.002490 1.757430 
# 
# From -- ./inp_files/52209.got.cif
#   From: 2010.05.17/outbox.cif.g08.bks.cpg/sg2_27_cif.got.tgz:52209.got - 2010.06.03 11:33:40.
