data_PCOD9043273
_publ_section_title
;
Structure prediction by ZEFSAII (Michael W. Deem and Ramdas Pophale) SiO2 
 PCOD9043273
Probable space group: P -1
;
_chemical_formula_sum "Si O2"
_cell_formula_units_Z 16
_cell_length_a 20.388049
_cell_length_b 8.640068
_cell_length_c 9.278340
_cell_angle_alpha 114.015425
_cell_angle_beta 47.273539
_cell_angle_gamma 142.348784
_cell_volume 701.859957
_symmetry_space_group_name_H-M "P -1"
_symmetry_group_IT_number 2
_symmetry_cell_setting 'triclinic'
loop_
_space_group_symop_operation_xyz
x,y,z
-x,-y,-z
loop_
_atom_site_type_symbol
_atom_site_label
_atom_site_fract_x
_atom_site_fract_y
_atom_site_fract_z
Si Si1 0.078117 0.427006 0.689275
Si Si2 0.077410 0.040090 0.038390
Si Si3 0.147225 0.469922 0.285522
Si Si4 0.839074 0.273169 0.895361
Si Si5 0.409067 0.855507 0.724452
Si Si6 0.381586 0.437685 0.728178
Si Si7 0.656409 0.314369 0.705169
Si Si8 0.360510 0.344705 0.061883
O O1 0.059995 0.340562 0.514952
O O2 0.245843 0.661396 0.532849
O O3 0.980906 0.450161 0.839798
O O4 0.018227 0.213959 0.814995
O O5 0.220869 0.151540 0.829291
O O6 0.120795 0.264364 0.155754
O O7 0.000000 0.000000 0.000000
O O8 0.305189 0.698615 0.199213
O O9 0.126217 0.599107 0.264087
O O10 0.737628 0.263775 0.114380
O O11 0.749489 0.969503 0.902160
O O12 0.392956 0.641116 0.721071
O O13 0.500000 0.000000 0.500000
O O14 0.500908 0.082862 0.795045
O O15 0.500000 0.500000 0.500000
O O16 0.398940 0.450650 0.880060
O O17 0.702463 0.578205 0.740625
O O18 0.500000 0.500000 0.000000
#
# Coordination Sequence:
#
# PCOD9043273 Si02
#       8
#     2   2   2   2   2   2   2   2
#     4  10  24  44  71  99 138 176 237 282 354 404
#     4  12  25  46  72 100 141 190 229 291 353 417
#     4  10  23  45  70 100 141 178 234 286 349 415
#     4  12  22  43  73 101 141 179 236 292 345 414
#     4  12  27  46  71 102 147 184 231 293 357 413
#     4  12  27  50  68 103 143 186 237 285 352 422
#     4  10  24  45  71 102 139 184 230 287 347 417
#     4  12  24  40  74 106 137 184 235 288 349 415
#
# _framework density 22.796569999999999
#
# number of rings (size 3 to 8) (size 9 to 14) (size 15 to 20)
#    0.750    0.000    5.000    1.500    5.250    1.000 
#    2.250    1.250    0.000    0.000    0.000    0.000 
#    0.000    0.000    0.000    0.000    0.000    0.000 
#
# Total GULP energy -89395.280267 kJ/mol
# GULP energy per Si atom -5587.205017 kJ/mol
# Density = 2.274468 g / cm^3
# Si number density = 22.796570 Si / 1000 Ang^3
#
#
#
# Elastic Constant Matrix: (Units=GPa)
#
#
# Indices 1 2 3 4 5 6 
#
# 1 154.1263 6.2349 66.9437 -3.3979 2.4023 0.6883
# 2 6.2349 37.1824 19.6150 2.7057 6.4069 -7.5640
# 3 66.9437 19.6150 126.9743 -14.1644 -6.2835 3.1103
# 4 -3.3979 2.7057 -14.1644 24.5708 -8.3694 5.2004
# 5 2.4023 6.4069 -6.2835 -8.3694 56.2368 -0.5640
# 6 0.6883 -7.5640 3.1103 5.2004 -0.5640 41.6670
#
#
#
# Elastic Compliance Matrix: (Units=1/GPa)
#
#
# Indices 1 2 3 4 5 6 
#
# 1 0.008666 0.002017 -0.005298 -0.002825 -0.001603 0.000949
# 2 0.002017 0.034727 -0.008352 -0.012424 -0.006741 0.008354
# 3 -0.005298 -0.008352 0.013377 0.010075 0.004135 -0.003629
# 4 -0.002825 -0.012424 0.010075 0.053046 0.010462 -0.009440
# 5 -0.001603 -0.006741 0.004135 0.010462 0.020612 -0.002533
# 6 0.000949 0.008354 -0.003629 -0.009440 -0.002533 0.026915
#
#
# Mechanical properties :
#
#
# Convention : Reuss Voigt Hill
#
# Bulk Modulus (GPa) = 29.84813 55.98556 42.91684
# Shear Modulus (GPa) = 26.07171 39.52753 32.79962
#
# Velocity S-wave (km/s) = 3.38549 4.16856 3.79726
# Velocity P-wave (km/s) = 5.32951 6.91240 6.17191
#
# Compressibility (1/GPa) = 0.03350294
#
# Stress axis : x y z
#
# Youngs Moduli (GPa) = 115.38858 28.79569 74.75684
#
# Poissons Ratio (x) = -0.05807 0.39609
# Poissons Ratio (y) = -0.23271 0.62438
# Poissons Ratio (z) = 0.61137 0.24051
#
# Static dielectric constant tensor:
#      x y z
#    x 1.865790 0.009810 -0.049140 
#    y 0.009810 1.840790 0.009350 
#    z -0.049140 0.009350 1.913140 
# 
# From -- ./inp_files/341990.got.cif
#   From: 2010.05.17/outbox.cif.g08.bks.cpg/sg2_171_cif.got.tgz:341990.got - 2010.06.03 11:33:40.
