data_PCOD9043404
_publ_section_title
;
Structure prediction by ZEFSAII (Michael W. Deem and Ramdas Pophale) SiO2 
 PCOD9043404
Probable space group: P -1
;
_chemical_formula_sum "Si O2"
_cell_formula_units_Z 13
_cell_length_a 23.048977
_cell_length_b 13.243869
_cell_length_c 10.103673
_cell_angle_alpha 35.478626
_cell_angle_beta 26.095836
_cell_angle_gamma 25.986207
_cell_volume 594.031423
_symmetry_space_group_name_H-M "P -1"
_symmetry_group_IT_number 2
_symmetry_cell_setting 'triclinic'
loop_
_space_group_symop_operation_xyz
x,y,z
-x,-y,-z
loop_
_atom_site_type_symbol
_atom_site_label
_atom_site_fract_x
_atom_site_fract_y
_atom_site_fract_z
Si Si1 0.764934 0.005236 0.787405
Si Si2 0.150442 0.577736 0.348450
Si Si3 0.394198 0.675251 0.654314
Si Si4 0.000000 0.500000 0.500000
Si Si5 0.789530 0.662800 0.265323
Si Si6 0.382114 0.511637 0.344635
Si Si7 0.338988 0.044892 0.212924
O O1 0.641205 0.063100 0.854803
O O2 0.964848 0.799572 0.552877
O O3 0.745170 0.220882 0.638740
O O4 0.718426 0.910681 0.100411
O O5 0.117758 0.501608 0.364080
O O6 0.245521 0.370319 0.479671
O O7 0.263278 0.647116 0.009703
O O8 0.500000 0.500000 0.500000
O O9 0.513660 0.624106 0.589307
O O10 0.290995 0.930131 0.534878
O O11 0.175786 0.313185 0.247906
O O12 0.716621 0.571888 0.419128
O O13 0.000000 0.500000 0.000000
O O14 0.500000 0.500000 0.000000
O O15 0.500000 0.000000 0.000000
#
# Coordination Sequence:
#
# PCOD9043404 Si02
#       7
#     2   2   2   1   2   2   2
#     4  10  24  45  70 102 145 188 242 300 358 443
#     4  10  23  46  64 106 139 185 243 294 367 434
#     4  12  24  44  72  99 145 187 235 304 362 430
#     4  10  24  40  68 100 136 182 242 288 356 446
#     4  10  23  45  70  99 145 185 238 297 361 428
#     4  12  25  45  71 108 142 189 249 293 363 445
#     4  11  23  44  68 101 143 188 238 299 369 425
#
# _framework density 21.884364000000001
#
# number of rings (size 3 to 8) (size 9 to 14) (size 15 to 20)
#    0.000    1.231    3.077    1.846    0.000    9.231 
#   11.077    0.000    0.000    0.000    0.000    0.000 
#    0.000    0.000    0.000    0.000    0.000    0.000 
#
# Total GULP energy -72412.503915 kJ/mol
# GULP energy per Si atom -5570.192609 kJ/mol
# Density = 2.183455 g / cm^3
# Si number density = 21.884364 Si / 1000 Ang^3
#
#
#
# Elastic Constant Matrix: (Units=GPa)
#
#
# Indices 1 2 3 4 5 6 
#
# 1 -9.7285 -1.9833 -1.2539 6.0968 -66.4950 -3.1917
# 2 -1.9833 20.9154 -5.1781 1.9817 1.4945 3.8201
# 3 -1.2539 -5.1781 98.9829 -7.2353 -15.8857 -12.2103
# 4 6.0968 1.9817 -7.2353 34.7909 3.6243 8.4730
# 5 -66.4950 1.4945 -15.8857 3.6243 28.6873 -3.0886
# 6 -3.1917 3.8201 -12.2103 8.4730 -3.0886 30.5489
#
#
#
# Elastic Compliance Matrix: (Units=1/GPa)
#
#
# Indices 1 2 3 4 5 6 
#
# 1 -0.005039 0.000309 -0.002531 0.002687 -0.013838 -0.003721
# 2 0.000309 0.049421 0.001628 -0.001086 -0.001393 -0.005337
# 3 -0.002531 0.001628 0.010715 0.001753 0.000120 0.003341
# 4 0.002687 -0.001086 0.001753 0.030113 0.002701 -0.006962
# 5 -0.013838 -0.001393 0.000120 0.002701 0.002395 -0.001731
# 6 -0.003721 -0.005337 0.003341 -0.006962 -0.001731 0.036104
#
#
# Mechanical properties :
#
#
# Convention : Reuss Voigt Hill
#
# Bulk Modulus (GPa) = 18.54946 10.37104 14.46025
# Shear Modulus (GPa) = 34.99772 26.71109 30.85441
#
# Velocity S-wave (km/s) = 4.00335 3.49744 3.75892
# Velocity P-wave (km/s) = 5.46476 4.58898 5.04591
#
# Compressibility (1/GPa) = 0.05390993
#
# Stress axis : x y z
#
# Youngs Moduli (GPa) = -198.44953 20.23426 93.32372
#
# Poissons Ratio (x) = -0.00626 0.23622
# Poissons Ratio (y) = 0.06140 -0.15193
# Poissons Ratio (z) = -0.50230 -0.03294
#
# Static dielectric constant tensor:
#      x y z
#    x 1.794240 -0.037950 0.010100 
#    y -0.037950 1.866360 0.005590 
#    z 0.010100 0.005590 1.794570 
# 
# From -- ./inp_files/262649.got.cif
#   From: 2010.05.17/outbox.cif.g08.bks.cpg/sg2_132_cif.got.tgz:262649.got - 2010.06.03 11:33:40.
