data_PCOD9043730
_publ_section_title
;
Structure prediction by ZEFSAII (Michael W. Deem and Ramdas Pophale) SiO2 
 PCOD9043730
Probable space group: P -1
;
_chemical_formula_sum "Si O2"
_cell_formula_units_Z 16
_cell_length_a 19.757018
_cell_length_b 9.484798
_cell_length_c 5.153506
_cell_angle_alpha 66.676455
_cell_angle_beta 130.810366
_cell_angle_gamma 123.420012
_cell_volume 609.087872
_symmetry_space_group_name_H-M "P -1"
_symmetry_group_IT_number 2
_symmetry_cell_setting 'triclinic'
loop_
_space_group_symop_operation_xyz
x,y,z
-x,-y,-z
loop_
_atom_site_type_symbol
_atom_site_label
_atom_site_fract_x
_atom_site_fract_y
_atom_site_fract_z
Si Si1 0.062891 0.585309 0.347625
Si Si2 0.383268 0.028982 0.674726
Si Si3 0.270628 0.474252 0.537508
Si Si4 0.065737 0.909997 0.347947
Si Si5 0.889213 0.693093 0.395100
Si Si6 0.551951 0.372245 0.733809
Si Si7 0.366257 0.805024 0.296637
Si Si8 0.240741 0.179082 0.372998
O O1 0.080323 0.776655 0.287113
O O2 0.141061 0.503922 0.610177
O O3 0.000000 0.500000 0.500000
O O4 0.000000 0.500000 0.000000
O O5 0.481200 0.201383 0.832270
O O6 0.297794 0.093706 0.414833
O O7 0.392934 0.939865 0.498100
O O8 0.359835 0.900470 0.950500
O O9 0.156980 0.344251 0.407048
O O10 0.273257 0.643281 0.291712
O O11 0.307469 0.358122 0.540519
O O12 0.344006 0.536458 0.921890
O O13 0.002510 0.810239 0.513989
O O14 0.176958 0.050879 0.533205
O O15 0.000000 0.000000 0.000000
O O16 0.829219 0.775946 0.026909
O O17 0.500000 0.500000 0.500000
O O18 0.567066 0.292449 0.557175
#
# Coordination Sequence:
#
# PCOD9043730 Si02
#       8
#     2   2   2   2   2   2   2   2
#     4  10  23  45  74 107 144 198 257 312 381 458
#     4  12  29  51  80 115 161 199 272 323 401 466
#     4  12  27  47  77 112 160 209 266 320 399 473
#     4   9  22  47  72 109 154 202 258 325 389 461
#     4  10  24  47  74 110 155 207 262 325 386 472
#     4  12  28  52  83 118 160 211 260 324 401 475
#     4  12  28  52  78 116 155 208 260 332 387 472
#     4  11  27  48  75 115 156 213 263 331 397 472
#
# _framework density 26.268789999999999
#
# number of rings (size 3 to 8) (size 9 to 14) (size 15 to 20)
#    0.000    1.000    1.250    3.000   12.250    1.500 
#    9.000    0.000    0.000    0.000    0.000    0.000 
#    0.000    0.000    0.000    0.000    0.000    0.000 
#
# Total GULP energy -89411.619481 kJ/mol
# GULP energy per Si atom -5588.226218 kJ/mol
# Density = 2.620900 g / cm^3
# Si number density = 26.268790 Si / 1000 Ang^3
#
#
#
# Elastic Constant Matrix: (Units=GPa)
#
#
# Indices 1 2 3 4 5 6 
#
# 1 103.9561 57.0889 17.9242 -8.0152 -2.7781 -15.9115
# 2 57.0889 194.4323 33.0391 -2.8896 -9.2517 -23.9446
# 3 17.9242 33.0391 61.4464 -5.5041 -12.2241 -11.1478
# 4 -8.0152 -2.8896 -5.5041 39.2027 -4.2483 2.4665
# 5 -2.7781 -9.2517 -12.2241 -4.2483 45.0569 -6.0172
# 6 -15.9115 -23.9446 -11.1478 2.4665 -6.0172 81.7198
#
#
#
# Elastic Compliance Matrix: (Units=1/GPa)
#
#
# Indices 1 2 3 4 5 6 
#
# 1 0.011880 -0.003072 -0.001418 0.001936 0.000055 0.001165
# 2 -0.003072 0.006604 -0.002380 -0.000476 0.000619 0.001072
# 3 -0.001418 -0.002380 0.019626 0.002736 0.005275 0.002010
# 4 0.001936 -0.000476 0.002736 0.026606 0.003279 0.000049
# 5 0.000055 0.000619 0.005275 0.003279 0.024414 0.002610
# 6 0.001165 0.001072 0.002010 0.000049 0.002610 0.013243
#
#
# Mechanical properties :
#
#
# Convention : Reuss Voigt Hill
#
# Bulk Modulus (GPa) = 41.03187 63.99326 52.51256
# Shear Modulus (GPa) = 40.24590 49.98138 45.11364
#
# Velocity S-wave (km/s) = 3.91843 4.36672 4.14863
# Velocity P-wave (km/s) = 6.01049 7.05961 6.55607
#
# Compressibility (1/GPa) = 0.02437130
#
# Stress axis : x y z
#
# Youngs Moduli (GPa) = 84.17316 151.42091 50.95157
#
# Poissons Ratio (x) = 0.46524 0.07223
# Poissons Ratio (y) = 0.25862 0.12124
# Poissons Ratio (z) = 0.11933 0.36032
#
# Static dielectric constant tensor:
#      x y z
#    x 2.187270 -0.027830 0.011190 
#    y -0.027830 2.120710 -0.013340 
#    z 0.011190 -0.013340 2.047060 
# 
# From -- ./inp_files/116985.got.cif
#   From: 2010.05.17/outbox.cif.g08.bks.cpg/sg2_59_cif.got.tgz:116985.got - 2010.06.03 11:33:40.
