data_PCOD9043283
_publ_section_title
;
Structure prediction by ZEFSAII (Michael W. Deem and Ramdas Pophale) SiO2 
 PCOD9043283
Probable space group: P -1
;
_chemical_formula_sum "Si O2"
_cell_formula_units_Z 16
_cell_length_a 6.497404
_cell_length_b 17.115823
_cell_length_c 14.705530
_cell_angle_alpha 37.978014
_cell_angle_beta 110.660155
_cell_angle_gamma 130.220826
_cell_volume 724.718284
_symmetry_space_group_name_H-M "P -1"
_symmetry_group_IT_number 2
_symmetry_cell_setting 'triclinic'
loop_
_space_group_symop_operation_xyz
x,y,z
-x,-y,-z
loop_
_atom_site_type_symbol
_atom_site_label
_atom_site_fract_x
_atom_site_fract_y
_atom_site_fract_z
Si Si1 0.540664 0.379880 0.167495
Si Si2 0.080170 0.677120 0.357392
Si Si3 0.561730 0.139749 0.268670
Si Si4 0.821544 0.408343 0.921565
Si Si5 0.990291 0.205664 0.575303
Si Si6 0.248563 0.233317 0.881204
Si Si7 0.089744 0.288561 0.312388
Si Si8 0.708680 0.904597 0.169761
O O1 0.488082 0.241467 0.219174
O O2 0.319011 0.288202 0.299214
O O3 0.858913 0.490922 0.157866
O O4 0.500000 0.500000 0.000000
O O5 0.069605 0.717336 0.424052
O O6 0.393082 0.826577 0.226253
O O7 0.000000 0.500000 0.500000
O O8 0.845411 0.672713 0.269898
O O9 0.773742 0.137770 0.367524
O O10 0.297563 0.969047 0.342382
O O11 0.744336 0.254732 0.105630
O O12 0.547054 0.339210 0.882131
O O13 0.859379 0.547458 0.861946
O O14 0.113407 0.302304 0.411550
O O15 0.197449 0.176927 0.676846
O O16 0.294966 0.147714 0.886339
O O17 0.981882 0.099720 0.028655
#
# Coordination Sequence:
#
# PCOD9043283 Si02
#       8
#     2   2   2   2   2   2   2   2
#     4  11  21  41  68 102 136 182 234 280 330 406
#     4  11  27  47  73 101 138 178 232 288 348 418
#     4  11  22  44  66  99 143 183 225 285 333 407
#     4  11  22  40  71  99 137 186 225 282 341 396
#     4  11  26  45  68 101 143 184 221 286 353 404
#     4  10  23  45  70 101 136 176 230 291 341 406
#     4  11  24  41  67 101 144 181 230 279 339 407
#     4  10  23  45  70 101 136 173 232 287 344 414
#
# _framework density 22.077544
#
# number of rings (size 3 to 8) (size 9 to 14) (size 15 to 20)
#    0.000    1.250    3.750    1.500    3.500    5.500 
#    2.250    0.000    0.000    0.000    0.000    0.000 
#    0.000    0.000    0.000    0.000    0.000    0.000 
#
# Total GULP energy -89365.665736 kJ/mol
# GULP energy per Si atom -5585.354109 kJ/mol
# Density = 2.202729 g / cm^3
# Si number density = 22.077544 Si / 1000 Ang^3
#
#
#
# Elastic Constant Matrix: (Units=GPa)
#
#
# Indices 1 2 3 4 5 6 
#
# 1 128.9012 63.9629 35.2826 8.5332 -17.1134 10.0219
# 2 63.9629 148.5011 39.4623 2.1136 -2.6479 25.2216
# 3 35.2826 39.4623 70.6093 1.9230 -11.4625 -6.7745
# 4 8.5332 2.1136 1.9230 26.2502 -4.6411 0.6121
# 5 -17.1134 -2.6479 -11.4625 -4.6411 27.9403 -2.0670
# 6 10.0219 25.2216 -6.7745 0.6121 -2.0670 31.8637
#
#
#
# Elastic Compliance Matrix: (Units=1/GPa)
#
#
# Indices 1 2 3 4 5 6 
#
# 1 0.011300 -0.003944 -0.002620 -0.002256 0.005052 -0.000619
# 2 -0.003944 0.011615 -0.006178 0.000223 -0.004520 -0.009565
# 3 -0.002620 -0.006178 0.021128 0.000863 0.007410 0.010671
# 4 -0.002256 0.000223 0.000863 0.039733 0.005617 0.000317
# 5 0.005052 -0.004520 0.007410 0.005617 0.042891 0.006239
# 6 -0.000619 -0.009565 0.010671 0.000317 0.006239 0.041816
#
#
# Mechanical properties :
#
#
# Convention : Reuss Voigt Hill
#
# Bulk Modulus (GPa) = 53.88330 69.49190 61.68760
# Shear Modulus (GPa) = 24.98072 31.16443 28.07258
#
# Velocity S-wave (km/s) = 3.36743 3.76119 3.56974
# Velocity P-wave (km/s) = 6.29117 7.09977 6.70766
#
# Compressibility (1/GPa) = 0.01855863
#
# Stress axis : x y z
#
# Youngs Moduli (GPa) = 88.49383 86.09469 47.33068
#
# Poissons Ratio (x) = 0.33953 0.12402
# Poissons Ratio (y) = 0.34899 0.29243
# Poissons Ratio (z) = 0.23188 0.53192
#
# Static dielectric constant tensor:
#      x y z
#    x 1.813610 0.024650 -0.022310 
#    y 0.024650 1.807310 -0.017760 
#    z -0.022310 -0.017760 1.858730 
# 
# From -- ./inp_files/485219.got.cif
#   From: 2010.05.17/outbox.cif.g08.bks.cpg/sg2_243_cif.got.tgz:485219.got - 2010.06.03 11:33:40.
