data_PCOD9043173
_publ_section_title
;
Structure prediction by ZEFSAII (Michael W. Deem and Ramdas Pophale) SiO2 
 PCOD9043173
Probable space group: P -1
;
_chemical_formula_sum "Si O2"
_cell_formula_units_Z 16
_cell_length_a 13.047217
_cell_length_b 11.323211
_cell_length_c 5.726179
_cell_angle_alpha 84.078623
_cell_angle_beta 57.449631
_cell_angle_gamma 111.526416
_cell_volume 612.666621
_symmetry_space_group_name_H-M "P -1"
_symmetry_group_IT_number 2
_symmetry_cell_setting 'triclinic'
loop_
_space_group_symop_operation_xyz
x,y,z
-x,-y,-z
loop_
_atom_site_type_symbol
_atom_site_label
_atom_site_fract_x
_atom_site_fract_y
_atom_site_fract_z
Si Si1 0.952112 0.854625 0.711468
Si Si2 0.343085 0.778399 0.741140
Si Si3 0.540619 0.394833 0.361785
Si Si4 0.789197 0.183539 0.713090
Si Si5 0.264038 0.180499 0.662028
Si Si6 0.600295 0.968015 0.684043
Si Si7 0.736749 0.603933 0.712093
Si Si8 0.917554 0.477088 0.352406
O O1 0.825903 0.718945 0.773224
O O2 0.080412 0.828551 0.532242
O O3 0.883975 0.861153 0.037470
O O4 0.000000 0.000000 0.500000
O O5 0.338688 0.640092 0.697643
O O6 0.457702 0.831831 0.808143
O O7 0.395255 0.904248 0.478532
O O8 0.209397 0.774014 0.028819
O O9 0.500000 0.500000 0.500000
O O10 0.401680 0.250141 0.642224
O O11 0.611645 0.469019 0.012325
O O12 0.804328 0.314072 0.530390
O O13 0.653226 0.033479 0.860498
O O14 0.276809 0.061081 0.546931
O O15 0.309493 0.311955 0.415278
O O16 0.839870 0.564745 0.457930
O O17 0.000000 0.500000 0.500000
O O18 0.000000 0.500000 0.000000
#
# Coordination Sequence:
#
# PCOD9043173 Si02
#       8
#     2   2   2   2   2   2   2   2
#     4  12  26  43  70 102 143 195 242 310 375 455
#     4  10  23  45  69 103 140 187 248 310 382 449
#     4  11  23  46  75 102 144 190 247 315 386 460
#     4  12  24  42  70  99 143 187 249 302 378 452
#     4  11  25  45  68 106 144 190 251 306 385 455
#     4  10  24  44  69 101 142 189 246 314 372 456
#     4  12  25  46  72 105 150 190 253 312 385 458
#     4  12  28  47  74 112 153 201 252 314 388 463
#
# _framework density 26.115342999999999
#
# number of rings (size 3 to 8) (size 9 to 14) (size 15 to 20)
#    0.000    0.750    3.750    3.000    1.750    5.000 
#    6.750    0.000    0.000    0.000    0.000    0.000 
#    0.000    0.000    0.000    0.000    0.000    0.000 
#
# Total GULP energy -89271.939458 kJ/mol
# GULP energy per Si atom -5579.496216 kJ/mol
# Density = 2.605590 g / cm^3
# Si number density = 26.115343 Si / 1000 Ang^3
#
#
#
# Elastic Constant Matrix: (Units=GPa)
#
#
# Indices 1 2 3 4 5 6 
#
# 1 53.3596 30.9712 28.5151 2.7371 -7.8772 -13.8536
# 2 30.9712 146.6936 45.9430 15.0188 -8.0954 -28.0284
# 3 28.5151 45.9430 178.2605 9.0691 -21.2260 -25.5811
# 4 2.7371 15.0188 9.0691 63.4604 -14.6381 -8.0347
# 5 -7.8772 -8.0954 -21.2260 -14.6381 27.8133 0.3832
# 6 -13.8536 -28.0284 -25.5811 -8.0347 0.3832 64.7507
#
#
#
# Elastic Compliance Matrix: (Units=1/GPa)
#
#
# Indices 1 2 3 4 5 6 
#
# 1 0.023246 -0.003681 -0.001864 0.001623 0.004905 0.002816
# 2 -0.003681 0.008548 -0.001257 -0.001476 -0.000321 0.002235
# 3 -0.001864 -0.001257 0.007044 0.000728 0.004839 0.001902
# 4 0.001623 -0.001476 0.000728 0.018604 0.010346 0.002243
# 5 0.004905 -0.000321 0.004839 0.010346 0.046335 0.003832
# 6 0.002816 0.002235 0.001902 0.002243 0.003832 0.018021
#
#
# Mechanical properties :
#
#
# Convention : Reuss Voigt Hill
#
# Bulk Modulus (GPa) = 39.63034 65.46360 52.54697
# Shear Modulus (GPa) = 34.76762 49.39719 42.08240
#
# Velocity S-wave (km/s) = 3.65267 4.35386 4.01859
# Velocity P-wave (km/s) = 5.74434 7.09903 6.45731
#
# Compressibility (1/GPa) = 0.02523319
#
# Stress axis : x y z
#
# Youngs Moduli (GPa) = 43.01891 116.98448 141.96729
#
# Poissons Ratio (x) = 0.43067 0.26464
# Poissons Ratio (y) = 0.15837 0.17840
# Poissons Ratio (z) = 0.08019 0.14701
#
# Static dielectric constant tensor:
#      x y z
#    x 2.175770 0.192500 -0.077650 
#    y 0.192500 2.141860 0.056480 
#    z -0.077650 0.056480 2.103400 
# 
# From -- ./inp_files/84232.got.cif
#   From: 2010.05.17/outbox.cif.g08.bks.cpg/sg2_43_cif.got.tgz:84232.got - 2010.06.03 11:33:40.
