data_PCOD9043478
_publ_section_title
;
Structure prediction by ZEFSAII (Michael W. Deem and Ramdas Pophale) SiO2 
 PCOD9043478
Probable space group: P -1
;
_chemical_formula_sum "Si O2"
_cell_formula_units_Z 14
_cell_length_a 15.307337
_cell_length_b 5.714422
_cell_length_c 9.229817
_cell_angle_alpha 107.431169
_cell_angle_beta 124.432376
_cell_angle_gamma 94.793810
_cell_volume 601.604701
_symmetry_space_group_name_H-M "P -1"
_symmetry_group_IT_number 2
_symmetry_cell_setting 'triclinic'
loop_
_space_group_symop_operation_xyz
x,y,z
-x,-y,-z
loop_
_atom_site_type_symbol
_atom_site_label
_atom_site_fract_x
_atom_site_fract_y
_atom_site_fract_z
Si Si1 0.680866 0.698378 0.232039
Si Si2 0.537250 0.247575 0.475910
Si Si3 0.756044 0.177322 0.605479
Si Si4 0.961138 0.363361 0.636399
Si Si5 0.101039 0.909688 0.009080
Si Si6 0.121177 0.039482 0.745520
Si Si7 0.510083 0.259544 0.133804
O O1 0.795243 0.779099 0.261473
O O2 0.633174 0.455512 0.249348
O O3 0.691525 0.935851 0.396266
O O4 0.585486 0.643188 0.008242
O O5 0.500000 0.500000 0.500000
O O6 0.670587 0.317904 0.604677
O O7 0.487735 0.166493 0.257555
O O8 0.500000 0.000000 0.500000
O O9 0.852682 0.347335 0.624704
O O10 0.815755 0.095300 0.783622
O O11 0.046364 0.628450 0.828642
O O12 0.014240 0.137098 0.681623
O O13 0.915660 0.253228 0.411884
O O14 0.164844 0.064195 0.955872
O O15 0.000000 0.000000 0.000000
O O16 0.500000 0.000000 0.000000
#
# Coordination Sequence:
#
# PCOD9043478 Si02
#       7
#     2   2   2   2   2   2   2
#     4  10  24  46  76 105 147 201 254 315 377 458
#     4  12  29  50  77 113 153 196 254 324 388 464
#     4  11  24  48  71 108 148 202 248 312 395 439
#     4  10  23  46  68 102 149 193 257 307 372 451
#     4  12  25  42  73 109 153 200 247 314 379 454
#     4  10  23  45  71 108 144 197 256 307 371 457
#     4  11  24  49  74 103 146 195 256 310 383 447
#
# _framework density 23.271094000000002
#
# number of rings (size 3 to 8) (size 9 to 14) (size 15 to 20)
#    0.000    1.143    2.857    1.714    4.000    4.571 
#    0.000    0.000    0.000    0.000    0.000    0.000 
#    0.000    0.000    0.000    0.000    0.000    0.000 
#
# Total GULP energy -78020.534285 kJ/mol
# GULP energy per Si atom -5572.895306 kJ/mol
# Density = 2.321813 g / cm^3
# Si number density = 23.271094 Si / 1000 Ang^3
#
#
#
# Elastic Constant Matrix: (Units=GPa)
#
#
# Indices 1 2 3 4 5 6 
#
# 1 128.5369 51.7650 39.8980 -5.5480 -1.5797 -18.3539
# 2 51.7650 87.5759 35.5431 1.3502 -9.5865 -1.1305
# 3 39.8980 35.5431 124.9179 -28.3384 -27.7168 1.2615
# 4 -5.5480 1.3502 -28.3384 45.3948 4.6948 7.9941
# 5 -1.5797 -9.5865 -27.7168 4.6948 45.2493 -0.1938
# 6 -18.3539 -1.1305 1.2615 7.9941 -0.1938 37.1485
#
#
#
# Elastic Compliance Matrix: (Units=1/GPa)
#
#
# Indices 1 2 3 4 5 6 
#
# 1 0.011900 -0.006028 -0.002932 -0.000991 -0.002529 0.005996
# 2 -0.006028 0.016422 -0.003027 -0.002989 0.001717 -0.001724
# 3 -0.002932 -0.003027 0.013045 0.007853 0.006416 -0.003640
# 4 -0.000991 -0.002989 0.007853 0.027982 0.001210 -0.006862
# 5 -0.002529 0.001717 0.006416 0.001210 0.026174 -0.001539
# 6 0.005996 -0.001724 -0.003640 -0.006862 -0.001539 0.031421
#
#
# Mechanical properties :
#
#
# Convention : Reuss Voigt Hill
#
# Bulk Modulus (GPa) = 57.49519 66.16032 61.82776
# Shear Modulus (GPa) = 31.90500 39.81349 35.85924
#
# Velocity S-wave (km/s) = 3.70674 4.14074 3.92973
# Velocity P-wave (km/s) = 6.56355 7.16609 6.87143
#
# Compressibility (1/GPa) = 0.01739276
#
# Stress axis : x y z
#
# Youngs Moduli (GPa) = 84.03440 60.89373 76.65869
#
# Poissons Ratio (x) = 0.36707 0.22477
# Poissons Ratio (y) = 0.50656 0.23203
# Poissons Ratio (z) = 0.24640 0.18432
#
# Static dielectric constant tensor:
#      x y z
#    x 1.888510 0.034430 -0.002480 
#    y 0.034430 1.915990 -0.050160 
#    z -0.002480 -0.050160 1.851430 
# 
# From -- ./inp_files/95127.got.cif
#   From: 2010.05.17/outbox.cif.g08.bks.cpg/sg2_48_cif.got.tgz:95127.got - 2010.06.03 11:33:40.
