data_PCOD9043918
_publ_section_title
;
Structure prediction by ZEFSAII (Michael W. Deem and Ramdas Pophale) SiO2 
 PCOD9043918
Probable space group: P -1
;
_chemical_formula_sum "Si O2"
_cell_formula_units_Z 12
_cell_length_a 7.320622
_cell_length_b 13.444073
_cell_length_c 15.752408
_cell_angle_alpha 20.753337
_cell_angle_beta 121.875070
_cell_angle_gamma 115.086077
_cell_volume 453.779013
_symmetry_space_group_name_H-M "P -1"
_symmetry_group_IT_number 2
_symmetry_cell_setting 'triclinic'
loop_
_space_group_symop_operation_xyz
x,y,z
-x,-y,-z
loop_
_atom_site_type_symbol
_atom_site_label
_atom_site_fract_x
_atom_site_fract_y
_atom_site_fract_z
Si Si1 0.244122 0.664136 0.802770
Si Si2 0.136288 0.636662 0.058496
Si Si3 0.634273 0.337379 0.742670
Si Si4 0.808295 0.716631 0.227888
Si Si5 0.879228 0.242657 0.497030
Si Si6 0.443337 0.137418 0.469375
O O1 0.168083 0.733420 0.632401
O O2 0.079642 0.464694 0.947302
O O3 0.267278 0.973782 0.598246
O O4 0.500000 0.500000 0.000000
O O5 0.221006 0.531367 0.258339
O O6 0.326678 0.475086 0.170706
O O7 0.090542 0.983449 0.772860
O O8 0.500000 0.500000 0.500000
O O9 0.434724 0.290479 0.791290
O O10 0.796611 0.051871 0.971365
O O11 0.850495 0.561671 0.271645
O O12 0.000000 0.500000 0.500000
O O13 0.675708 0.121733 0.584754
O O14 0.500000 0.000000 0.500000
#
# Coordination Sequence:
#
# PCOD9043918 Si02
#       6
#     2   2   2   2   2   2
#     4  11  25  43  68 104 138 182 235 284 346 414
#     4  12  24  45  71  99 142 185 233 286 358 415
#     4  11  27  44  71 110 140 179 240 292 350 424
#     4  11  24  46  71 101 143 186 233 290 356 419
#     4  11  24  45  71  99 140 186 230 285 353 424
#     4  10  23  46  66  98 138 180 230 291 341 410
#
# _framework density 26.444589000000001
#
# number of rings (size 3 to 8) (size 9 to 14) (size 15 to 20)
#    0.000    1.000    5.000    0.500    2.333    6.000 
#    6.000    0.000    0.000    0.000    0.000    0.000 
#    0.000    0.000    0.000    0.000    0.000    0.000 
#
# Total GULP energy -67027.163259 kJ/mol
# GULP energy per Si atom -5585.596938 kJ/mol
# Density = 2.638440 g / cm^3
# Si number density = 26.444589 Si / 1000 Ang^3
#
#
#
# Elastic Constant Matrix: (Units=GPa)
#
#
# Indices 1 2 3 4 5 6 
#
# 1 86.4589 33.4970 22.0895 -15.1950 26.0814 -0.1700
# 2 33.4970 137.2734 55.6697 -12.7213 17.0078 -1.2369
# 3 22.0895 55.6697 158.0264 -14.8448 45.3329 -17.1227
# 4 -15.1950 -12.7213 -14.8448 56.0418 -9.3211 9.7139
# 5 26.0814 17.0078 45.3329 -9.3211 48.2573 -6.7992
# 6 -0.1700 -1.2369 -17.1227 9.7139 -6.7992 46.1610
#
#
#
# Elastic Compliance Matrix: (Units=1/GPa)
#
#
# Indices 1 2 3 4 5 6 
#
# 1 0.015332 -0.003055 0.001394 0.002694 -0.008179 -0.001280
# 2 -0.003055 0.009243 -0.003286 0.000811 0.001506 -0.000931
# 3 0.001394 -0.003286 0.010058 0.000466 -0.008633 0.002278
# 4 0.002694 0.000811 0.000466 0.019720 0.001096 -0.003784
# 5 -0.008179 0.001506 -0.008633 0.001096 0.033139 0.001459
# 6 -0.001280 -0.000931 0.002278 -0.003784 0.001459 0.023490
#
#
# Mechanical properties :
#
#
# Convention : Reuss Voigt Hill
#
# Bulk Modulus (GPa) = 40.42238 67.14123 53.78180
# Shear Modulus (GPa) = 38.72328 48.12554 43.42441
#
# Velocity S-wave (km/s) = 3.83079 4.27061 4.05667
# Velocity P-wave (km/s) = 5.90639 7.05422 6.50567
#
# Compressibility (1/GPa) = 0.02473877
#
# Stress axis : x y z
#
# Youngs Moduli (GPa) = 65.22325 108.19098 99.42607
#
# Poissons Ratio (x) = 0.33052 -0.13857
# Poissons Ratio (y) = 0.19925 0.32668
# Poissons Ratio (z) = -0.09090 0.35548
#
# Static dielectric constant tensor:
#      x y z
#    x 2.239080 0.105770 -0.136290 
#    y 0.105770 2.230870 -0.035160 
#    z -0.136290 -0.035160 2.267740 
# 
# From -- ./inp_files/324281.got.cif
#   From: 2010.05.17/outbox.cif.g08.bks.cpg/sg2_163_cif.got.tgz:324281.got - 2010.06.03 11:33:40.
