data_PCOD9043885
_publ_section_title
;
Structure prediction by ZEFSAII (Michael W. Deem and Ramdas Pophale) SiO2 
 PCOD9043885
Probable space group: P -1
;
_chemical_formula_sum "Si O2"
_cell_formula_units_Z 16
_cell_length_a 13.560257
_cell_length_b 17.392627
_cell_length_c 8.617774
_cell_angle_alpha 89.494128
_cell_angle_beta 84.330646
_cell_angle_gamma 21.375669
_cell_volume 717.541006
_symmetry_space_group_name_H-M "P -1"
_symmetry_group_IT_number 2
_symmetry_cell_setting 'triclinic'
loop_
_space_group_symop_operation_xyz
x,y,z
-x,-y,-z
loop_
_atom_site_type_symbol
_atom_site_label
_atom_site_fract_x
_atom_site_fract_y
_atom_site_fract_z
Si Si1 0.366470 0.382107 0.652297
Si Si2 0.452521 0.714964 0.952889
Si Si3 0.711565 0.284135 0.532894
Si Si4 0.924012 0.644350 0.499114
Si Si5 0.392242 0.904576 0.151257
Si Si6 0.015571 0.707861 0.963264
Si Si7 0.023275 0.009407 0.755189
Si Si8 0.608441 0.910458 0.231959
O O1 0.531797 0.340866 0.612806
O O2 0.565418 0.170607 0.690886
O O3 0.135752 0.561756 0.819519
O O4 0.200515 0.485812 0.520185
O O5 0.506159 0.762363 0.007274
O O6 0.735968 0.462559 0.947430
O O7 0.301653 0.828202 0.809374
O O8 0.219335 0.843046 0.095195
O O9 0.500000 0.500000 0.500000
O O10 0.897520 0.118793 0.365975
O O11 0.904534 0.160805 0.654871
O O12 0.825592 0.736671 0.340660
O O13 0.000000 0.500000 0.500000
O O14 0.668052 0.854040 0.648511
O O15 0.537351 0.881334 0.159650
O O16 0.086092 0.146430 0.126379
O O17 0.752947 0.863824 0.091804
#
# Coordination Sequence:
#
# PCOD9043885 Si02
#       8
#     2   2   2   2   2   2   2   2
#     4  11  24  43  67 100 132 182 225 276 343 398
#     4  10  24  43  69  96 133 177 217 286 332 397
#     4  11  25  44  74  96 135 178 222 286 343 404
#     4  11  24  44  68  98 144 176 222 281 333 400
#     4  11  22  42  69  95 136 180 225 276 326 406
#     4  11  24  42  67  97 135 173 232 267 332 401
#     4  10  23  46  65 102 133 164 232 275 344 398
#     4  11  25  42  66 104 132 184 228 270 330 408
#
# _framework density 22.298378
#
# number of rings (size 3 to 8) (size 9 to 14) (size 15 to 20)
#    0.000    1.250    5.000    0.375    3.500    5.000 
#    0.000    2.500    0.000    0.000    0.000    0.000 
#    0.000    0.000    0.000    0.000    0.000    0.000 
#
# Total GULP energy -89352.966100 kJ/mol
# GULP energy per Si atom -5584.560381 kJ/mol
# Density = 2.224763 g / cm^3
# Si number density = 22.298378 Si / 1000 Ang^3
#
#
#
# Elastic Constant Matrix: (Units=GPa)
#
#
# Indices 1 2 3 4 5 6 
#
# 1 47.8428 35.3399 38.4021 -19.3355 3.8147 -8.6250
# 2 35.3399 157.1780 62.1060 -63.1604 -0.7837 3.2090
# 3 38.4021 62.1060 97.0011 -35.8247 3.3201 -15.3941
# 4 -19.3355 -63.1604 -35.8247 54.7878 -10.2787 3.5630
# 5 3.8147 -0.7837 3.3201 -10.2787 26.1205 -10.1234
# 6 -8.6250 3.2090 -15.3941 3.5630 -10.1234 33.7156
#
#
#
# Elastic Compliance Matrix: (Units=1/GPa)
#
#
# Indices 1 2 3 4 5 6 
#
# 1 0.032190 -0.003127 -0.009880 0.000710 -0.001958 0.003358
# 2 -0.003127 0.014305 -0.003312 0.014512 0.005658 -0.003509
# 3 -0.009880 -0.003312 0.019454 0.005679 0.003913 0.007245
# 4 0.000710 0.014512 0.005679 0.041987 0.016922 0.002037
# 5 -0.001958 0.005658 0.003913 0.016922 0.050358 0.014079
# 6 0.003358 -0.003509 0.007245 0.002037 0.014079 0.038173
#
#
# Mechanical properties :
#
#
# Convention : Reuss Voigt Hill
#
# Bulk Modulus (GPa) = 30.01919 63.74645 46.88282
# Shear Modulus (GPa) = 20.81514 34.00306 27.40910
#
# Velocity S-wave (km/s) = 3.05861 3.90925 3.50979
# Velocity P-wave (km/s) = 5.09560 7.00188 6.12338
#
# Compressibility (1/GPa) = 0.03331203
#
# Stress axis : x y z
#
# Youngs Moduli (GPa) = 31.06539 69.90483 51.40262
#
# Poissons Ratio (x) = 0.21860 0.50784
# Poissons Ratio (y) = 0.09714 0.17025
# Poissons Ratio (z) = 0.30691 0.23153
#
# Static dielectric constant tensor:
#      x y z
#    x 1.813240 -0.021760 0.017300 
#    y -0.021760 1.899740 -0.033640 
#    z 0.017300 -0.033640 1.854580 
# 
# From -- ./inp_files/317634.got.cif
#   From: 2010.05.17/outbox.cif.g08.bks.cpg/sg2_159_cif.got.tgz:317634.got - 2010.06.03 11:33:40.
