data_PCOD9043027
_publ_section_title
;
Structure prediction by ZEFSAII (Michael W. Deem and Ramdas Pophale) SiO2 
 PCOD9043027
Probable space group: P -1
;
_chemical_formula_sum "Si O2"
_cell_formula_units_Z 15
_cell_length_a 8.353806
_cell_length_b 9.870885
_cell_length_c 22.943888
_cell_angle_alpha 140.988119
_cell_angle_beta 42.397548
_cell_angle_gamma 110.369817
_cell_volume 680.030144
_symmetry_space_group_name_H-M "P -1"
_symmetry_group_IT_number 2
_symmetry_cell_setting 'triclinic'
loop_
_space_group_symop_operation_xyz
x,y,z
-x,-y,-z
loop_
_atom_site_type_symbol
_atom_site_label
_atom_site_fract_x
_atom_site_fract_y
_atom_site_fract_z
Si Si1 0.597213 0.492795 0.537583
Si Si2 0.608150 0.580635 0.226520
Si Si3 0.695635 0.213063 0.176055
Si Si4 0.537135 0.901734 0.522527
Si Si5 0.805027 0.803335 0.753226
Si Si6 0.822132 0.498898 0.751611
Si Si7 0.000000 0.500000 0.000000
Si Si8 0.385407 0.633042 0.013527
O O1 0.500000 0.500000 0.500000
O O2 0.379281 0.725266 0.714934
O O3 0.618131 0.246255 0.476662
O O4 0.910620 0.434574 0.429897
O O5 0.646094 0.466410 0.242075
O O6 0.330402 0.605211 0.282846
O O7 0.580023 0.851229 0.322783
O O8 0.872620 0.407227 0.056650
O O9 0.466320 0.162832 0.193839
O O10 0.000000 0.000000 0.000000
O O11 0.859065 0.708147 0.388769
O O12 0.500000 0.000000 0.500000
O O13 0.802261 0.727953 0.796180
O O14 0.801598 0.060910 0.832576
O O15 0.644743 0.579932 0.885254
O O16 0.783317 0.482574 0.007846
O O17 0.500000 0.500000 0.000000
#
# Coordination Sequence:
#
# PCOD9043027 Si02
#       8
#     2   2   2   2   2   2   1   2
#     4  12  26  47  72 110 145 195 246 306 373 442
#     4  10  23  45  68 100 137 191 236 305 368 436
#     4  11  27  46  74 105 147 195 249 304 374 444
#     4  12  24  42  73  98 143 180 246 298 367 440
#     4  11  25  48  71 102 149 192 247 303 370 451
#     4  10  24  45  67 101 141 193 238 303 372 446
#     4  10  24  46  66 104 148 176 250 298 374 432
#     4  11  26  43  74 107 147 197 247 309 375 442
#
# _framework density 22.057845
#
# number of rings (size 3 to 8) (size 9 to 14) (size 15 to 20)
#    0.000    1.067    2.667    2.000    7.467    4.267 
#    2.400    0.000    0.000    0.000    0.000    0.000 
#    0.000    0.000    0.000    0.000    0.000    0.000 
#
# Total GULP energy -83578.333726 kJ/mol
# GULP energy per Si atom -5571.888915 kJ/mol
# Density = 2.200764 g / cm^3
# Si number density = 22.057845 Si / 1000 Ang^3
#
#
#
# Elastic Constant Matrix: (Units=GPa)
#
#
# Indices 1 2 3 4 5 6 
#
# 1 85.0986 52.4271 32.0075 -13.1435 -8.5168 -20.7218
# 2 52.4271 110.8423 22.0435 -12.9059 -9.9565 -21.0485
# 3 32.0075 22.0435 104.3034 -24.9973 -14.0983 -10.1345
# 4 -13.1435 -12.9059 -24.9973 42.5973 6.0938 0.3182
# 5 -8.5168 -9.9565 -14.0983 6.0938 23.8058 -12.4283
# 6 -20.7218 -21.0485 -10.1345 0.3182 -12.4283 46.7826
#
#
#
# Elastic Compliance Matrix: (Units=1/GPa)
#
#
# Indices 1 2 3 4 5 6 
#
# 1 0.019219 -0.006687 -0.002803 0.001448 0.005340 0.006306
# 2 -0.006687 0.013694 0.000858 0.001693 0.006004 0.004969
# 3 -0.002803 0.000858 0.013122 0.005967 0.007681 0.003987
# 4 0.001448 0.001693 0.005967 0.028108 -0.001309 0.002157
# 5 0.005340 0.006004 0.007681 -0.001309 0.063660 0.023652
# 6 0.006306 0.004969 0.003987 0.002157 0.023652 0.033536
#
#
# Mechanical properties :
#
#
# Convention : Reuss Voigt Hill
#
# Bulk Modulus (GPa) = 34.75736 57.02226 45.88981
# Shear Modulus (GPa) = 25.22790 35.55487 30.39139
#
# Velocity S-wave (km/s) = 3.38556 4.01919 3.71591
# Velocity P-wave (km/s) = 5.57443 6.88810 6.26579
#
# Compressibility (1/GPa) = 0.02877089
#
# Stress axis : x y z
#
# Youngs Moduli (GPa) = 52.03299 73.02458 76.20878
#
# Poissons Ratio (x) = 0.48832 0.21359
# Poissons Ratio (y) = 0.34795 -0.06539
# Poissons Ratio (z) = 0.14584 -0.06265
#
# Static dielectric constant tensor:
#      x y z
#    x 1.796190 0.002180 0.019860 
#    y 0.002180 1.876970 -0.031370 
#    z 0.019860 -0.031370 1.929790 
# 
# From -- ./inp_files/216993.got.cif
#   From: 2010.05.17/outbox.cif.g08.bks.cpg/sg2_109_cif.got.tgz:216993.got - 2010.06.03 11:33:40.
