data_PCOD9043809
_publ_section_title
;
Structure prediction by ZEFSAII (Michael W. Deem and Ramdas Pophale) SiO2 
 PCOD9043809
Probable space group: P -1
;
_chemical_formula_sum "Si O2"
_cell_formula_units_Z 12
_cell_length_a 6.894705
_cell_length_b 9.915403
_cell_length_c 14.747929
_cell_angle_alpha 36.710779
_cell_angle_beta 95.706007
_cell_angle_gamma 116.301412
_cell_volume 474.778818
_symmetry_space_group_name_H-M "P -1"
_symmetry_group_IT_number 2
_symmetry_cell_setting 'triclinic'
loop_
_space_group_symop_operation_xyz
x,y,z
-x,-y,-z
loop_
_atom_site_type_symbol
_atom_site_label
_atom_site_fract_x
_atom_site_fract_y
_atom_site_fract_z
Si Si1 0.148111 0.229868 0.493667
Si Si2 0.418617 0.719241 0.377162
Si Si3 0.815675 0.571845 0.798178
Si Si4 0.045300 0.736014 0.947761
Si Si5 0.639737 0.839060 0.868557
Si Si6 0.377953 0.924933 0.436742
O O1 0.296991 0.423360 0.482099
O O2 0.312941 0.029019 0.783798
O O3 0.277801 0.383603 0.322869
O O4 0.904172 0.212585 0.488702
O O5 0.415668 0.731400 0.480023
O O6 0.265838 0.841196 0.276922
O O7 0.030592 0.896744 0.665747
O O8 0.583723 0.382346 0.956606
O O9 0.931398 0.403325 0.886407
O O10 0.849304 0.798728 0.903310
O O11 0.000000 0.500000 0.000000
O O12 0.541058 0.823890 0.768953
O O13 0.500000 0.000000 0.500000
#
# Coordination Sequence:
#
# PCOD9043809 Si02
#       6
#     2   2   2   2   2   2
#     4  11  23  46  74 112 156 194 246 319 370 440
#     4   9  24  46  74 110 153 190 252 315 374 438
#     4  10  25  43  75 106 152 200 251 294 382 450
#     4  11  23  43  75 108 145 203 249 302 375 453
#     4   9  23  46  73 109 146 198 251 306 373 445
#     4  10  23  45  76 109 142 195 255 307 378 447
#
# _framework density 25.274927999999999
#
# number of rings (size 3 to 8) (size 9 to 14) (size 15 to 20)
#    1.000    1.000    0.000    1.500    4.667    4.667 
#    0.000   14.167    0.000    1.000    0.000    0.000 
#    0.000    0.000    0.000    0.000    0.000    0.000 
#
# Total GULP energy -67071.833647 kJ/mol
# GULP energy per Si atom -5589.319471 kJ/mol
# Density = 2.521740 g / cm^3
# Si number density = 25.274928 Si / 1000 Ang^3
#
#
#
# Elastic Constant Matrix: (Units=GPa)
#
#
# Indices 1 2 3 4 5 6 
#
# 1 139.5747 36.5054 74.7677 5.8498 20.8316 -3.7952
# 2 36.5054 155.6412 76.4963 9.9759 8.5568 -4.6914
# 3 74.7677 76.4963 214.3264 11.5254 2.2948 -11.4346
# 4 5.8498 9.9759 11.5254 42.5656 -11.0855 13.2995
# 5 20.8316 8.5568 2.2948 -11.0855 56.4990 -4.6056
# 6 -3.7952 -4.6914 -11.4346 13.2995 -4.6056 36.0078
#
#
#
# Elastic Compliance Matrix: (Units=1/GPa)
#
#
# Indices 1 2 3 4 5 6 
#
# 1 0.009501 -0.000452 -0.003045 -0.001305 -0.003567 0.000001
# 2 -0.000452 0.007976 -0.002555 -0.001625 -0.001205 0.000626
# 3 -0.003045 -0.002555 0.006802 -0.001171 0.001174 0.002089
# 4 -0.001305 -0.001625 -0.001171 0.029207 0.005626 -0.010789
# 5 -0.003567 -0.001205 0.001174 0.005626 0.020282 0.000356
# 6 0.000001 0.000626 0.002089 -0.010789 0.000356 0.032547
#
#
# Mechanical properties :
#
#
# Convention : Reuss Voigt Hill
#
# Bulk Modulus (GPa) = 82.13866 98.34236 90.24051
# Shear Modulus (GPa) = 40.82372 48.46601 44.64486
#
# Velocity S-wave (km/s) = 4.02330 4.38374 4.20738
# Velocity P-wave (km/s) = 7.35875 8.03843 7.70609
#
# Compressibility (1/GPa) = 0.01217453
#
# Stress axis : x y z
#
# Youngs Moduli (GPa) = 105.25351 125.37045 147.01976
#
# Poissons Ratio (x) = 0.05671 0.44761
# Poissons Ratio (y) = 0.04761 0.37570
# Poissons Ratio (z) = 0.32045 0.32037
#
# Static dielectric constant tensor:
#      x y z
#    x 2.118770 -0.007370 0.065530 
#    y -0.007370 2.017160 0.078600 
#    z 0.065530 0.078600 2.112980 
# 
# From -- ./inp_files/481974.got.cif
#   From: 2010.05.17/outbox.cif.g08.bks.cpg/sg2_241_cif.got.tgz:481974.got - 2010.06.03 11:33:40.
