data_PCOD9043560
_publ_section_title
;
Structure prediction by ZEFSAII (Michael W. Deem and Ramdas Pophale) SiO2 
 PCOD9043560
Probable space group: P -1
;
_chemical_formula_sum "Si O2"
_cell_formula_units_Z 16
_cell_length_a 14.158977
_cell_length_b 17.740396
_cell_length_c 5.040072
_cell_angle_alpha 68.470622
_cell_angle_beta 84.314503
_cell_angle_gamma 32.859151
_cell_volume 581.502565
_symmetry_space_group_name_H-M "P -1"
_symmetry_group_IT_number 2
_symmetry_cell_setting 'triclinic'
loop_
_space_group_symop_operation_xyz
x,y,z
-x,-y,-z
loop_
_atom_site_type_symbol
_atom_site_label
_atom_site_fract_x
_atom_site_fract_y
_atom_site_fract_z
Si Si1 0.764228 0.948642 0.073727
Si Si2 0.892588 0.181754 0.843933
Si Si3 0.535356 0.227731 0.142853
Si Si4 0.518985 0.927134 0.339373
Si Si5 0.930557 0.654284 0.604817
Si Si6 0.735967 0.215530 0.367190
Si Si7 0.639548 0.510622 0.556934
Si Si8 0.829189 0.511465 0.735366
O O1 0.596796 0.106222 0.107807
O O2 0.657533 0.002244 0.762008
O O3 0.863207 0.795493 0.367272
O O4 0.911518 0.913931 0.065199
O O5 0.809834 0.214077 0.106344
O O6 0.735754 0.366113 0.563422
O O7 0.875575 0.126282 0.692130
O O8 0.707310 0.146418 0.349227
O O9 0.449600 0.358232 0.792706
O O10 0.374182 0.326022 0.274655
O O11 0.743751 0.736806 0.520593
O O12 0.500000 0.000000 0.500000
O O13 0.500000 0.000000 0.000000
O O14 0.007952 0.594415 0.957158
O O15 0.099605 0.507630 0.542352
O O16 0.526686 0.389367 0.321158
O O17 0.805246 0.432887 0.776475
#
# Coordination Sequence:
#
# PCOD9043560 Si02
#       8
#     2   2   2   2   2   2   2   2
#     4  11  26  46  71 108 135 186 224 285 354 414
#     4  12  25  41  72  96 132 179 251 272 326 408
#     4  11  25  47  66 101 153 180 220 285 358 406
#     4  10  23  45  72 104 141 172 224 292 342 403
#     4  11  22  45  75 102 131 177 239 283 331 410
#     4  11  26  43  64 100 135 183 230 292 330 389
#     4  11  23  43  70  98 136 182 232 284 336 401
#     4  11  22  43  71 101 133 182 229 282 334 403
#
# _framework density 27.514928000000001
#
# number of rings (size 3 to 8) (size 9 to 14) (size 15 to 20)
#    0.000    1.000    3.750    2.250    5.250    2.000 
#   18.000    1.250    0.000    0.000    0.000    0.000 
#    0.000    0.000    0.000    0.000    0.000    0.000 
#
# Total GULP energy -89763.697403 kJ/mol
# GULP energy per Si atom -5610.231088 kJ/mol
# Density = 2.745230 g / cm^3
# Si number density = 27.514928 Si / 1000 Ang^3
#
#
#
# Elastic Constant Matrix: (Units=GPa)
#
#
# Indices 1 2 3 4 5 6 
#
# 1 195.8612 22.8130 47.8874 22.4564 31.5178 -22.8848
# 2 22.8130 126.3707 11.2421 21.3230 3.3909 -0.9402
# 3 47.8874 11.2421 158.2694 19.9317 22.6530 7.0423
# 4 22.4564 21.3230 19.9317 46.0509 3.1943 0.6067
# 5 31.5178 3.3909 22.6530 3.1943 58.5617 2.7344
# 6 -22.8848 -0.9402 7.0423 0.6067 2.7344 47.7819
#
#
#
# Elastic Compliance Matrix: (Units=1/GPa)
#
#
# Indices 1 2 3 4 5 6 
#
# 1 0.006691 -0.000600 -0.001427 -0.002203 -0.003063 0.003606
# 2 -0.000600 0.008646 0.000038 -0.003727 0.000015 -0.000077
# 3 -0.001427 0.000038 0.007388 -0.002367 -0.001887 -0.001633
# 4 -0.002203 -0.003727 -0.002367 0.025487 0.000981 -0.001159
# 5 -0.003063 0.000015 -0.001887 0.000981 0.019508 -0.002317
# 6 0.003606 -0.000077 -0.001633 -0.001159 -0.002317 0.023042
#
#
# Mechanical properties :
#
#
# Convention : Reuss Voigt Hill
#
# Bulk Modulus (GPa) = 53.33911 71.59849 62.46880
# Shear Modulus (GPa) = 49.51007 57.04948 53.27977
#
# Velocity S-wave (km/s) = 4.24652 4.55840 4.40522
# Velocity P-wave (km/s) = 6.59330 7.33373 6.97334
#
# Compressibility (1/GPa) = 0.01874797
#
# Stress axis : x y z
#
# Youngs Moduli (GPa) = 149.45104 115.65831 135.35175
#
# Poissons Ratio (x) = 0.06944 0.19309
# Poissons Ratio (y) = 0.08972 -0.00517
# Poissons Ratio (z) = 0.21321 -0.00442
#
# Static dielectric constant tensor:
#      x y z
#    x 2.156440 0.047340 -0.034050 
#    y 0.047340 2.146570 -0.080690 
#    z -0.034050 -0.080690 2.099780 
# 
# From -- ./inp_files/99681.got.cif
#   From: 2010.05.17/outbox.cif.g08.bks.cpg/sg2_50_cif.got.tgz:99681.got - 2010.06.03 11:33:40.
