data_PCOD9043272
_publ_section_title
;
Structure prediction by ZEFSAII (Michael W. Deem and Ramdas Pophale) SiO2 
 PCOD9043272
Probable space group: P -1
;
_chemical_formula_sum "Si O2"
_cell_formula_units_Z 14
_cell_length_a 8.998711
_cell_length_b 12.269136
_cell_length_c 4.902460
_cell_angle_alpha 79.816327
_cell_angle_beta 92.647748
_cell_angle_gamma 103.304942
_cell_volume 518.428243
_symmetry_space_group_name_H-M "P -1"
_symmetry_group_IT_number 2
_symmetry_cell_setting 'triclinic'
loop_
_space_group_symop_operation_xyz
x,y,z
-x,-y,-z
loop_
_atom_site_type_symbol
_atom_site_label
_atom_site_fract_x
_atom_site_fract_y
_atom_site_fract_z
Si Si1 0.231958 0.301401 0.855060
Si Si2 0.433439 0.583771 0.245414
Si Si3 0.326848 0.044556 0.199941
Si Si4 0.049370 0.699401 0.768295
Si Si5 0.323062 0.888793 0.797417
Si Si6 0.233423 0.539305 0.700264
Si Si7 0.897342 0.875211 0.489665
O O1 0.414175 0.336115 0.899400
O O2 0.206644 0.412397 0.629582
O O3 0.201124 0.183482 0.745017
O O4 0.100418 0.305812 0.061107
O O5 0.500000 0.500000 0.500000
O O6 0.326927 0.625173 0.443357
O O7 0.329292 0.538654 0.991736
O O8 0.501024 0.106168 0.120606
O O9 0.231739 0.127950 0.289225
O O10 0.330108 0.950402 0.478300
O O11 0.259651 0.970226 0.965813
O O12 0.213381 0.765466 0.871516
O O13 0.080680 0.581056 0.730787
O O14 0.019737 0.795662 0.518658
O O15 0.000000 0.000000 0.500000
#
# Coordination Sequence:
#
# PCOD9043272 Si02
#       7
#     2   2   2   2   2   2   2
#     4  11  27  46  76 109 150 201 247 314 385 438
#     4  10  24  50  81 109 149 193 256 312 373 449
#     4  10  23  45  70  98 141 193 254 304 360 440
#     4  12  28  43  74 108 156 197 248 309 384 441
#     4  10  23  45  70 100 140 194 249 306 367 429
#     4  11  27  50  78 113 152 194 257 310 373 459
#     4  12  27  46  72 107 155 198 252 303 377 445
#
# _framework density 27.004702999999999
#
# number of rings (size 3 to 8) (size 9 to 14) (size 15 to 20)
#    0.000    1.143    1.429    3.000   12.000    1.714 
#    2.571    0.000    0.000    0.000    0.000    0.000 
#    0.000    0.000    0.000    0.000    0.000    0.000 
#
# Total GULP energy -78122.187226 kJ/mol
# GULP energy per Si atom -5580.156230 kJ/mol
# Density = 2.694324 g / cm^3
# Si number density = 27.004703 Si / 1000 Ang^3
#
#
#
# Elastic Constant Matrix: (Units=GPa)
#
#
# Indices 1 2 3 4 5 6 
#
# 1 98.9942 35.8661 33.3225 5.4590 -24.4667 7.8238
# 2 35.8661 110.9438 36.4708 21.5097 -1.1132 -18.8452
# 3 33.3225 36.4708 125.1521 23.4497 -18.1091 12.3098
# 4 5.4590 21.5097 23.4497 30.9321 -5.9441 -8.5440
# 5 -24.4667 -1.1132 -18.1091 -5.9441 50.9763 4.1334
# 6 7.8238 -18.8452 12.3098 -8.5440 4.1334 51.7741
#
#
#
# Elastic Compliance Matrix: (Units=1/GPa)
#
#
# Indices 1 2 3 4 5 6 
#
# 1 0.014337 -0.005247 -0.001356 0.002389 0.006881 -0.003909
# 2 -0.005247 0.013654 -0.002700 -0.005750 -0.004320 0.005801
# 3 -0.001356 -0.002700 0.011419 -0.007347 0.002890 -0.004936
# 4 0.002389 -0.005750 -0.007347 0.043788 0.003008 0.006279
# 5 0.006881 -0.004320 0.002890 0.003008 0.024589 -0.004766
# 6 -0.003909 0.005801 -0.004936 0.006279 -0.004766 0.024607
#
#
# Mechanical properties :
#
#
# Convention : Reuss Voigt Hill
#
# Bulk Modulus (GPa) = 48.06955 60.71208 54.39082
# Shear Modulus (GPa) = 31.65858 42.03189 36.84524
#
# Velocity S-wave (km/s) = 3.42765 3.94949 3.69779
# Velocity P-wave (km/s) = 5.78828 6.58246 6.19810
#
# Compressibility (1/GPa) = 0.02080319
#
# Stress axis : x y z
#
# Youngs Moduli (GPa) = 69.75041 73.23631 87.57694
#
# Poissons Ratio (x) = 0.38430 0.11872
# Poissons Ratio (y) = 0.36600 0.23649
# Poissons Ratio (z) = 0.09456 0.19776
#
# Static dielectric constant tensor:
#      x y z
#    x 2.268470 -0.036640 0.119380 
#    y -0.036640 2.395640 -0.228400 
#    z 0.119380 -0.228400 2.293220 
# 
# From -- ./inp_files/28200.got.cif
#   From: 2010.05.17/outbox.cif.g08.bks.cpg/sg2_15_cif.got.tgz:28200.got - 2010.06.03 11:33:40.
