data_PCOD9043748
_publ_section_title
;
Structure prediction by ZEFSAII (Michael W. Deem and Ramdas Pophale) SiO2 
 PCOD9043748
Probable space group: P -1
;
_chemical_formula_sum "Si O2"
_cell_formula_units_Z 10
_cell_length_a 8.064001
_cell_length_b 12.762141
_cell_length_c 9.327311
_cell_angle_alpha 39.352515
_cell_angle_beta 45.467085
_cell_angle_gamma 66.779200
_cell_volume 409.962469
_symmetry_space_group_name_H-M "P -1"
_symmetry_group_IT_number 2
_symmetry_cell_setting 'triclinic'
loop_
_space_group_symop_operation_xyz
x,y,z
-x,-y,-z
loop_
_atom_site_type_symbol
_atom_site_label
_atom_site_fract_x
_atom_site_fract_y
_atom_site_fract_z
Si Si1 0.791078 0.607680 0.227499
Si Si2 0.541412 0.090989 0.224393
Si Si3 0.236279 0.159010 0.748165
Si Si4 0.925713 0.818925 0.651214
Si Si5 0.009787 0.674691 0.464625
O O1 0.500000 0.500000 0.500000
O O2 0.802497 0.773694 0.144036
O O3 0.945083 0.499797 0.325732
O O4 0.905462 0.670732 0.936882
O O5 0.343388 0.186641 0.227437
O O6 0.500000 0.000000 0.500000
O O7 0.544386 0.923694 0.302189
O O8 0.788345 0.241465 0.868224
O O9 0.240010 0.314671 0.469735
O O10 0.000000 0.000000 0.000000
O O11 0.060515 0.794453 0.450962
O O12 0.000000 0.000000 0.500000
#
# Coordination Sequence:
#
# PCOD9043748 Si02
#       5
#     2   2   2   2   2
#     4  12  26  46  71 108 147 180 230 302 358 400
#     4  11  23  44  72 103 138 182 246 284 340 423
#     4  10  23  45  74  97 137 192 232 277 343 430
#     4  12  26  44  74 104 141 191 232 289 354 420
#     4  11  24  47  70 101 144 186 235 287 353 421
#
# _framework density 24.392478000000001
#
# number of rings (size 3 to 8) (size 9 to 14) (size 15 to 20)
#    0.000    0.800    4.000    3.600    5.600    1.600 
#    0.000    2.000    0.000    0.000    0.000    0.000 
#    0.000    0.000    0.000    0.000    0.000    0.000 
#
# Total GULP energy -55823.846881 kJ/mol
# GULP energy per Si atom -5582.384688 kJ/mol
# Density = 2.433696 g / cm^3
# Si number density = 24.392478 Si / 1000 Ang^3
#
#
#
# Elastic Constant Matrix: (Units=GPa)
#
#
# Indices 1 2 3 4 5 6 
#
# 1 53.3742 17.9838 34.5766 -3.2239 28.0258 -0.6025
# 2 17.9838 146.7644 20.2188 2.8870 4.2615 12.9959
# 3 34.5766 20.2188 105.9103 11.8335 39.2093 3.5089
# 4 -3.2239 2.8870 11.8335 34.4910 -1.6122 17.1968
# 5 28.0258 4.2615 39.2093 -1.6122 49.9862 -13.6803
# 6 -0.6025 12.9959 3.5089 17.1968 -13.6803 49.7353
#
#
#
# Elastic Compliance Matrix: (Units=1/GPa)
#
#
# Indices 1 2 3 4 5 6 
#
# 1 0.030423 -0.002358 -0.004775 0.006411 -0.014219 -0.004806
# 2 -0.002358 0.007357 -0.001000 0.000426 0.001014 -0.001749
# 3 -0.004775 -0.001000 0.015602 -0.005256 -0.010158 -0.001874
# 4 0.006411 0.000426 -0.005256 0.037899 -0.001925 -0.013297
# 5 -0.014219 0.001014 -0.010158 -0.001925 0.038991 0.011670
# 6 -0.004806 -0.001749 -0.001874 -0.013297 0.011670 0.028445
#
#
# Mechanical properties :
#
#
# Convention : Reuss Voigt Hill
#
# Bulk Modulus (GPa) = 26.94224 50.17861 38.56042
# Shear Modulus (GPa) = 26.68744 42.39381 34.54063
#
# Velocity S-wave (km/s) = 3.31128 4.17344 3.76711
# Velocity P-wave (km/s) = 5.06841 6.62114 5.89611
#
# Compressibility (1/GPa) = 0.03711644
#
# Stress axis : x y z
#
# Youngs Moduli (GPa) = 32.87040 135.91879 64.09575
#
# Poissons Ratio (x) = 0.32045 0.30605
# Poissons Ratio (y) = 0.07750 0.06409
# Poissons Ratio (z) = 0.15695 0.13591
#
# Static dielectric constant tensor:
#      x y z
#    x 1.715540 0.173330 0.035970 
#    y 0.173330 1.917260 -0.070240 
#    z 0.035970 -0.070240 1.971800 
# 
# From -- ./inp_files/17164.got.cif
#   From: 2010.05.17/outbox.cif.g08.bks.cpg/sg2_9_cif.got.tgz:17164.got - 2010.06.03 11:33:40.
