data_PCOD9043863
_publ_section_title
;
Structure prediction by ZEFSAII (Michael W. Deem and Ramdas Pophale) SiO2 
 PCOD9043863
Probable space group: P -1
;
_chemical_formula_sum "Si O2"
_cell_formula_units_Z 10
_cell_length_a 11.658177
_cell_length_b 9.258681
_cell_length_c 5.476442
_cell_angle_alpha 76.126924
_cell_angle_beta 79.773324
_cell_angle_gamma 42.111239
_cell_volume 384.827919
_symmetry_space_group_name_H-M "P -1"
_symmetry_group_IT_number 2
_symmetry_cell_setting 'triclinic'
loop_
_space_group_symop_operation_xyz
x,y,z
-x,-y,-z
loop_
_atom_site_type_symbol
_atom_site_label
_atom_site_fract_x
_atom_site_fract_y
_atom_site_fract_z
Si Si1 0.914156 0.188981 0.763025
Si Si2 0.575000 0.072586 0.303542
Si Si3 0.735486 0.184614 0.453241
Si Si4 0.106154 0.406393 0.747783
Si Si5 0.293131 0.475136 0.915613
O O1 0.759642 0.240551 0.680480
O O2 0.841779 0.392123 0.862439
O O3 0.072635 0.061865 0.569167
O O4 0.000000 0.000000 0.000000
O O5 0.607044 0.173144 0.447293
O O6 0.500000 0.000000 0.500000
O O7 0.755549 0.854588 0.210007
O O8 0.455276 0.242669 0.063303
O O9 0.686141 0.372401 0.228551
O O10 0.214515 0.458054 0.725773
O O11 0.000000 0.500000 0.500000
O O12 0.000000 0.500000 0.000000
#
# Coordination Sequence:
#
# PCOD9043863 Si02
#       5
#     2   2   2   2   2
#     4   9  21  43  77 111 146 195 272 317 380 461
#     4  12  28  50  75 119 163 203 257 335 409 465
#     4  10  23  45  79 106 151 206 266 314 387 478
#     4  12  29  52  82 112 161 214 268 325 400 481
#     4  11  25  48  73 112 152 202 262 326 392 468
#
# _framework density 25.985638000000002
#
# number of rings (size 3 to 8) (size 9 to 14) (size 15 to 20)
#    0.000    1.200    0.000    3.600   14.000    0.800 
#   14.400    0.000    0.000    0.000    0.000    0.000 
#    0.000    0.000    0.000    0.000    0.000    0.000 
#
# Total GULP energy -56051.256847 kJ/mol
# GULP energy per Si atom -5605.125685 kJ/mol
# Density = 2.592649 g / cm^3
# Si number density = 25.985638 Si / 1000 Ang^3
#
#
#
# Elastic Constant Matrix: (Units=GPa)
#
#
# Indices 1 2 3 4 5 6 
#
# 1 196.1484 37.6484 80.0840 -12.3072 33.5581 39.6126
# 2 37.6484 178.8319 71.0732 -23.3686 23.2875 -9.0509
# 3 80.0840 71.0732 170.1408 -15.5799 42.0060 0.5821
# 4 -12.3072 -23.3686 -15.5799 49.2232 4.3681 7.8840
# 5 33.5581 23.2875 42.0060 4.3681 51.7637 3.3668
# 6 39.6126 -9.0509 0.5821 7.8840 3.3668 46.2367
#
#
#
# Elastic Compliance Matrix: (Units=1/GPa)
#
#
# Indices 1 2 3 4 5 6 
#
# 1 0.008504 -0.000324 -0.002949 0.002485 -0.002693 -0.007540
# 2 -0.000324 0.007142 -0.002238 0.002511 -0.001489 0.001384
# 3 -0.002949 -0.002238 0.009576 0.001346 -0.005104 0.002110
# 4 0.002485 0.002511 0.001346 0.023897 -0.005504 -0.005329
# 5 -0.002693 -0.001489 -0.005104 -0.005504 0.026268 0.001106
# 6 -0.007540 0.001384 0.002110 -0.005329 0.001106 0.029160
#
#
# Mechanical properties :
#
#
# Convention : Reuss Voigt Hill
#
# Bulk Modulus (GPa) = 70.42407 102.52581 86.47494
# Shear Modulus (GPa) = 41.56193 53.19908 47.38050
#
# Velocity S-wave (km/s) = 4.00361 4.52956 4.27468
# Velocity P-wave (km/s) = 6.96648 8.17902 7.59698
#
# Compressibility (1/GPa) = 0.01419969
#
# Stress axis : x y z
#
# Youngs Moduli (GPa) = 117.59512 140.02485 104.42377
#
# Poissons Ratio (x) = 0.04542 0.30792
# Poissons Ratio (y) = 0.03814 0.23368
# Poissons Ratio (z) = 0.34676 0.31335
#
# Static dielectric constant tensor:
#      x y z
#    x 2.203000 -0.045530 -0.175690 
#    y -0.045530 2.049170 0.064440 
#    z -0.175690 0.064440 2.137280 
# 
# From -- ./inp_files/60298.got.cif
#   From: 2010.05.17/outbox.cif.g08.bks.cpg/sg2_31_cif.got.tgz:60298.got - 2010.06.03 11:33:40.
