data_PCOD9043407
_publ_section_title
;
Structure prediction by ZEFSAII (Michael W. Deem and Ramdas Pophale) SiO2 
 PCOD9043407
Probable space group: P -1
;
_chemical_formula_sum "Si O2"
_cell_formula_units_Z 14
_cell_length_a 7.787674
_cell_length_b 9.593541
_cell_length_c 9.311773
_cell_angle_alpha 103.522652
_cell_angle_beta 113.582636
_cell_angle_gamma 83.930440
_cell_volume 619.859998
_symmetry_space_group_name_H-M "P -1"
_symmetry_group_IT_number 2
_symmetry_cell_setting 'triclinic'
loop_
_space_group_symop_operation_xyz
x,y,z
-x,-y,-z
loop_
_atom_site_type_symbol
_atom_site_label
_atom_site_fract_x
_atom_site_fract_y
_atom_site_fract_z
Si Si1 0.050108 0.760673 0.240526
Si Si2 0.317566 0.029751 0.109293
Si Si3 0.574605 0.252197 0.813132
Si Si4 0.108279 0.646794 0.548441
Si Si5 0.005115 0.917383 0.765707
Si Si6 0.479014 0.494139 0.660472
Si Si7 0.358180 0.312036 0.028457
O O1 0.210491 0.741055 0.167721
O O2 0.112845 0.687874 0.392016
O O3 0.849200 0.703246 0.110718
O O4 0.024813 0.932363 0.291176
O O5 0.172675 0.096086 0.192066
O O6 0.454612 0.916434 0.206119
O O7 0.404533 0.161215 0.086264
O O8 0.186567 0.941796 0.933601
O O9 0.455561 0.332218 0.668849
O O10 0.507316 0.329637 0.954622
O O11 0.027318 0.780901 0.640484
O O12 0.311339 0.603543 0.664899
O O13 0.000000 0.500000 0.500000
O O14 0.500000 0.500000 0.500000
O O15 0.644060 0.561066 0.826013
#
# Coordination Sequence:
#
# PCOD9043407 Si02
#       7
#     2   2   2   2   2   2   2
#     4  10  23  45  71 100 133 178 228 285 338 407
#     4   9  20  40  71 104 131 175 228 291 332 405
#     4  11  22  44  69 100 139 175 228 274 345 400
#     4  12  25  43  69  99 140 184 223 281 343 408
#     4   9  20  40  69 102 134 173 229 282 345 395
#     4  12  27  46  62  98 145 180 225 283 339 405
#     4  11  24  43  73 101 134 181 232 280 339 413
#
# _framework density 22.585747000000001
#
# number of rings (size 3 to 8) (size 9 to 14) (size 15 to 20)
#    0.000    1.429    1.429    3.857    2.000    2.857 
#    0.000    2.143    0.000    0.000    0.000    0.000 
#    0.000    0.000    0.000    0.000    0.000    0.000 
#
# Total GULP energy -78275.942261 kJ/mol
# GULP energy per Si atom -5591.138733 kJ/mol
# Density = 2.253434 g / cm^3
# Si number density = 22.585747 Si / 1000 Ang^3
#
#
#
# Elastic Constant Matrix: (Units=GPa)
#
#
# Indices 1 2 3 4 5 6 
#
# 1 76.3816 36.2729 32.9934 8.5861 -17.5343 -4.9405
# 2 36.2729 150.8823 43.4965 -24.3214 -1.2608 -5.4136
# 3 32.9934 43.4965 56.3841 0.3957 -12.1078 5.5923
# 4 8.5861 -24.3214 0.3957 50.0513 -0.6057 -6.5668
# 5 -17.5343 -1.2608 -12.1078 -0.6057 26.1624 -8.6627
# 6 -4.9405 -5.4136 5.5923 -6.5668 -8.6627 31.5989
#
#
#
# Elastic Compliance Matrix: (Units=1/GPa)
#
#
# Indices 1 2 3 4 5 6 
#
# 1 0.022175 -0.003246 -0.008333 -0.004225 0.013102 0.007099
# 2 -0.003246 0.010611 -0.007478 0.006088 -0.004061 0.002786
# 3 -0.008333 -0.007478 0.030323 -0.003305 0.005666 -0.007084
# 4 -0.004225 0.006088 -0.003305 0.024402 -0.001654 0.005585
# 5 0.013102 -0.004061 0.005666 -0.001654 0.054325 0.014899
# 6 0.007099 0.002786 -0.007084 0.005585 0.014899 0.039733
#
#
# Mechanical properties :
#
#
# Convention : Reuss Voigt Hill
#
# Bulk Modulus (GPa) = 40.00642 56.57484 48.29063
# Shear Modulus (GPa) = 21.92862 32.95487 27.44174
#
# Velocity S-wave (km/s) = 3.11932 3.82396 3.48947
# Velocity P-wave (km/s) = 5.54302 6.67834 6.13699
#
# Compressibility (1/GPa) = 0.02499599
#
# Stress axis : x y z
#
# Youngs Moduli (GPa) = 45.09637 94.24154 32.97881
#
# Poissons Ratio (x) = 0.30587 0.27481
# Poissons Ratio (y) = 0.14636 0.24660
# Poissons Ratio (z) = 0.37579 0.70470
#
# Static dielectric constant tensor:
#      x y z
#    x 1.893780 -0.017490 0.047430 
#    y -0.017490 1.850400 -0.017750 
#    z 0.047430 -0.017750 1.867300 
# 
# From -- ./inp_files/159942.got.cif
#   From: 2010.05.17/outbox.cif.g08.bks.cpg/sg2_80_cif.got.tgz:159942.got - 2010.06.03 11:33:40.
