data_PCOD9043552
_publ_section_title
;
Structure prediction by ZEFSAII (Michael W. Deem and Ramdas Pophale) SiO2 
 PCOD9043552
Probable space group: P -1
;
_chemical_formula_sum "Si O2"
_cell_formula_units_Z 14
_cell_length_a 14.698199
_cell_length_b 11.541664
_cell_length_c 5.154132
_cell_angle_alpha 111.011781
_cell_angle_beta 67.868927
_cell_angle_gamma 140.734104
_cell_volume 509.278001
_symmetry_space_group_name_H-M "P -1"
_symmetry_group_IT_number 2
_symmetry_cell_setting 'triclinic'
loop_
_space_group_symop_operation_xyz
x,y,z
-x,-y,-z
loop_
_atom_site_type_symbol
_atom_site_label
_atom_site_fract_x
_atom_site_fract_y
_atom_site_fract_z
Si Si1 0.145617 0.180337 0.713814
Si Si2 0.156465 0.760215 0.149480
Si Si3 0.372843 0.848377 0.309231
Si Si4 0.145959 0.969973 0.958641
Si Si5 0.853066 0.481759 0.357211
Si Si6 0.599923 0.659989 0.806531
Si Si7 0.350903 0.572241 0.816425
O O1 0.261202 0.271038 0.430693
O O2 0.231256 0.372538 0.933016
O O3 0.984819 0.086274 0.778467
O O4 0.130029 0.034760 0.762473
O O5 0.314625 0.906289 0.234791
O O6 0.138542 0.823710 0.958674
O O7 0.017108 0.672863 0.399464
O O8 0.136845 0.597433 0.968949
O O9 0.225835 0.675433 0.477680
O O10 0.500000 0.000000 0.500000
O O11 0.399553 0.745492 0.041096
O O12 0.315012 0.154109 0.982739
O O13 0.735128 0.471549 0.386242
O O14 0.494061 0.622940 0.678981
O O15 0.500000 0.500000 0.000000
#
# Coordination Sequence:
#
# PCOD9043552 Si02
#       7
#     2   2   2   2   2   2   2
#     4  11  25  50  73 109 151 202 254 311 366 456
#     4  10  23  46  72 106 140 199 249 307 373 451
#     4  11  27  45  73 109 149 192 249 311 381 451
#     4  11  25  45  76 109 152 197 258 303 376 452
#     4  10  23  45  72 102 146 190 252 308 375 444
#     4  12  27  44  72 113 155 199 250 305 386 451
#     4  11  25  45  74 104 148 196 245 308 381 445
#
# _framework density 27.489896999999999
#
# number of rings (size 3 to 8) (size 9 to 14) (size 15 to 20)
#    0.000    1.143    2.857    1.286    6.000    2.286 
#    5.143    0.000    0.000    0.000    0.000    0.000 
#    0.000    0.000    0.000    0.000    0.000    0.000 
#
# Total GULP energy -78120.098698 kJ/mol
# GULP energy per Si atom -5580.007050 kJ/mol
# Density = 2.742733 g / cm^3
# Si number density = 27.489897 Si / 1000 Ang^3
#
#
#
# Elastic Constant Matrix: (Units=GPa)
#
#
# Indices 1 2 3 4 5 6 
#
# 1 222.6138 73.8610 57.3287 3.7034 6.2389 0.4207
# 2 73.8610 160.2486 42.9313 -26.5336 -0.3251 8.8922
# 3 57.3287 42.9313 97.7268 -28.8335 2.6262 0.0641
# 4 3.7034 -26.5336 -28.8335 38.8574 7.8838 3.9692
# 5 6.2389 -0.3251 2.6262 7.8838 33.5106 -4.1987
# 6 0.4207 8.8922 0.0641 3.9692 -4.1987 49.1068
#
#
#
# Elastic Compliance Matrix: (Units=1/GPa)
#
#
# Indices 1 2 3 4 5 6 
#
# 1 0.006726 -0.002989 -0.004500 -0.006267 0.000678 0.001054
# 2 -0.002989 0.008889 -0.000132 0.006731 -0.001210 -0.002231
# 3 -0.004500 -0.000132 0.017183 0.014047 -0.003995 -0.001437
# 4 -0.006267 0.006731 0.014047 0.044159 -0.010971 -0.005691
# 5 0.000678 -0.001210 -0.003995 -0.010971 0.033090 0.003935
# 6 0.001054 -0.002231 -0.001437 -0.005691 0.003935 0.021557
#
#
# Mechanical properties :
#
#
# Convention : Reuss Voigt Hill
#
# Bulk Modulus (GPa) = 56.96125 92.09235 74.52680
# Shear Modulus (GPa) = 32.74403 44.72615 38.73509
#
# Velocity S-wave (km/s) = 3.45502 4.03799 3.75783
# Velocity P-wave (km/s) = 6.05657 7.43731 6.78217
#
# Compressibility (1/GPa) = 0.01755580
#
# Stress axis : x y z
#
# Youngs Moduli (GPa) = 148.67369 112.49638 58.19628
#
# Poissons Ratio (x) = 0.33628 0.26191
# Poissons Ratio (y) = 0.44443 0.00766
# Poissons Ratio (z) = 0.66910 0.01481
#
# Static dielectric constant tensor:
#      x y z
#    x 2.179780 -0.035570 0.077620 
#    y -0.035570 2.251500 0.145320 
#    z 0.077620 0.145320 2.428800 
# 
# From -- ./inp_files/95124.got.cif
#   From: 2010.05.17/outbox.cif.g08.bks.cpg/sg2_48_cif.got.tgz:95124.got - 2010.06.03 11:33:40.
