data_PCOD9043303
_publ_section_title
;
Structure prediction by ZEFSAII (Michael W. Deem and Ramdas Pophale) SiO2 
 PCOD9043303
Probable space group: P -1
;
_chemical_formula_sum "Si O2"
_cell_formula_units_Z 13
_cell_length_a 5.216201
_cell_length_b 18.280042
_cell_length_c 9.319010
_cell_angle_alpha 128.586137
_cell_angle_beta 121.661952
_cell_angle_gamma 48.703944
_cell_volume 512.044502
_symmetry_space_group_name_H-M "P -1"
_symmetry_group_IT_number 2
_symmetry_cell_setting 'triclinic'
loop_
_space_group_symop_operation_xyz
x,y,z
-x,-y,-z
loop_
_atom_site_type_symbol
_atom_site_label
_atom_site_fract_x
_atom_site_fract_y
_atom_site_fract_z
Si Si1 0.828556 0.876817 0.844710
Si Si2 0.722814 0.796209 0.245571
Si Si3 0.584404 0.201702 0.538702
Si Si4 0.660779 0.575231 0.393057
Si Si5 0.443635 0.878536 0.971725
Si Si6 0.500000 0.500000 0.500000
Si Si7 0.942736 0.562447 0.909472
O O1 0.530723 0.876944 0.661857
O O2 0.802628 0.824339 0.922121
O O3 0.200913 0.826021 0.815544
O O4 0.741856 0.999432 0.991046
O O5 0.510674 0.794020 0.317460
O O6 0.026607 0.822624 0.401485
O O7 0.493124 0.878151 0.154883
O O8 0.888738 0.678835 0.075445
O O9 0.358083 0.317036 0.534360
O O10 0.375438 0.590422 0.442369
O O11 0.000000 0.500000 0.500000
O O12 0.734113 0.503945 0.185948
O O13 0.620737 0.568994 0.729620
O O14 0.000000 0.500000 0.000000
#
# Coordination Sequence:
#
# PCOD9043303 Si02
#       7
#     2   2   2   2   2   1   2
#     4  10  23  45  73  97 138 175 230 279 338 423
#     4  12  27  42  68 102 140 176 227 286 355 405
#     4  12  26  44  67 105 135 180 228 287 348 411
#     4  10  24  41  64  96 131 183 237 276 346 407
#     4  10  23  45  70 103 132 182 222 281 348 410
#     4  10  24  40  66  92 124 190 232 280 350 402
#     4  11  23  43  63  93 139 179 229 293 335 418
#
# _framework density 25.388418000000001
#
# number of rings (size 3 to 8) (size 9 to 14) (size 15 to 20)
#    0.000    1.231    1.538    2.769    8.615    4.923 
#    0.000    0.000    0.000    0.000    0.000    0.000 
#    0.000    0.000    0.000    0.000    0.000    0.000 
#
# Total GULP energy -72386.889785 kJ/mol
# GULP energy per Si atom -5568.222291 kJ/mol
# Density = 2.533063 g / cm^3
# Si number density = 25.388418 Si / 1000 Ang^3
#
#
#
# Elastic Constant Matrix: (Units=GPa)
#
#
# Indices 1 2 3 4 5 6 
#
# 1 106.7058 48.8427 20.2306 -14.5329 0.8075 48.9321
# 2 48.8427 79.2581 17.3146 -29.6748 -12.1174 26.5562
# 3 20.2306 17.3146 123.8647 -18.9404 1.3388 17.4692
# 4 -14.5329 -29.6748 -18.9404 43.6683 11.8531 -7.8166
# 5 0.8075 -12.1174 1.3388 11.8531 55.9236 -13.2096
# 6 48.9321 26.5562 17.4692 -7.8166 -13.2096 40.4613
#
#
#
# Elastic Compliance Matrix: (Units=1/GPa)
#
#
# Indices 1 2 3 4 5 6 
#
# 1 0.027344 -0.007416 0.001406 0.001676 -0.009881 -0.031710
# 2 -0.007416 0.023136 0.000326 0.012323 0.001692 -0.003424
# 3 0.001406 0.000326 0.009324 0.004352 -0.002492 -0.005913
# 4 0.001676 0.012323 0.004352 0.034130 -0.006467 -0.007512
# 5 -0.009881 0.001692 -0.002492 -0.006467 0.024207 0.018569
# 6 -0.031710 -0.003424 -0.005913 -0.007512 0.018569 0.072476
#
#
# Mechanical properties :
#
#
# Convention : Reuss Voigt Hill
#
# Bulk Modulus (GPa) = 20.64558 53.62269 37.13414
# Shear Modulus (GPa) = 22.92207 42.90669 32.91438
#
# Velocity S-wave (km/s) = 3.00801 4.11543 3.60451
# Velocity P-wave (km/s) = 4.49597 6.61432 5.65522
#
# Compressibility (1/GPa) = 0.04843651
#
# Stress axis : x y z
#
# Youngs Moduli (GPa) = 36.57090 43.22337 107.24524
#
# Poissons Ratio (x) = 0.32055 -0.15078
# Poissons Ratio (y) = 0.27121 -0.03498
# Poissons Ratio (z) = -0.05142 -0.01410
#
# Static dielectric constant tensor:
#      x y z
#    x 2.229790 -0.046370 0.029150 
#    y -0.046370 1.975360 -0.021020 
#    z 0.029150 -0.021020 1.993750 
# 
# From -- ./inp_files/134623.got.cif
#   From: 2010.05.17/outbox.cif.g08.bks.cpg/sg2_68_cif.got.tgz:134623.got - 2010.06.03 11:33:40.
