data_PCOD9043577
_publ_section_title
;
Structure prediction by ZEFSAII (Michael W. Deem and Ramdas Pophale) SiO2 
 PCOD9043577
Probable space group: P -1
;
_chemical_formula_sum "Si O2"
_cell_formula_units_Z 14
_cell_length_a 12.288554
_cell_length_b 11.062611
_cell_length_c 5.378362
_cell_angle_alpha 83.511911
_cell_angle_beta 93.861321
_cell_angle_gamma 133.848603
_cell_volume 523.849790
_symmetry_space_group_name_H-M "P -1"
_symmetry_group_IT_number 2
_symmetry_cell_setting 'triclinic'
loop_
_space_group_symop_operation_xyz
x,y,z
-x,-y,-z
loop_
_atom_site_type_symbol
_atom_site_label
_atom_site_fract_x
_atom_site_fract_y
_atom_site_fract_z
Si Si1 0.737643 0.404400 0.161155
Si Si2 0.751133 0.153801 0.448427
Si Si3 0.497291 0.131665 0.846112
Si Si4 0.764816 0.969417 0.866391
Si Si5 0.589608 0.535111 0.254509
Si Si6 0.169060 0.179145 0.470003
Si Si7 0.019060 0.255494 0.121354
O O1 0.742410 0.289412 0.361920
O O2 0.638281 0.432480 0.266960
O O3 0.658654 0.308370 0.907709
O O4 0.899624 0.585056 0.079307
O O5 0.779882 0.119610 0.728104
O O6 0.889655 0.212879 0.286565
O O7 0.590608 0.966445 0.397408
O O8 0.500000 0.000000 0.000000
O O9 0.379242 0.131977 0.958386
O O10 0.747263 0.857930 0.673177
O O11 0.925156 0.081114 0.998858
O O12 0.500000 0.500000 0.500000
O O13 0.746404 0.728700 0.281426
O O14 0.500000 0.500000 0.000000
O O15 0.149638 0.290629 0.292666
O O16 0.000000 0.000000 0.500000
#
# Coordination Sequence:
#
# PCOD9043577 Si02
#       7
#     2   2   2   2   2   2   2
#     4  11  24  45  72 106 151 190 244 312 378 457
#     4  10  23  45  72 108 143 192 246 303 380 445
#     4   9  22  43  66  99 139 194 239 295 365 448
#     4  11  23  44  74 104 144 191 253 306 367 452
#     4  12  29  52  74 112 154 204 253 318 387 448
#     4  12  25  47  78 106 144 198 254 311 372 458
#     4  11  24  46  71 112 146 192 248 310 386 440
#
# _framework density 26.725217000000001
#
# number of rings (size 3 to 8) (size 9 to 14) (size 15 to 20)
#    0.000    1.143    1.429    3.429    2.000    4.000 
#   18.000    0.000    0.000    0.000    0.000    0.000 
#    0.000    0.000    0.000    0.000    0.000    0.000 
#
# Total GULP energy -78461.834022 kJ/mol
# GULP energy per Si atom -5604.416716 kJ/mol
# Density = 2.666439 g / cm^3
# Si number density = 26.725217 Si / 1000 Ang^3
#
#
#
# Elastic Constant Matrix: (Units=GPa)
#
#
# Indices 1 2 3 4 5 6 
#
# 1 153.4996 32.2393 48.6355 7.0615 -2.6549 -26.8388
# 2 32.2393 137.6436 30.8540 22.4816 8.9453 -2.6403
# 3 48.6355 30.8540 109.9342 21.1015 17.6058 -4.3545
# 4 7.0615 22.4816 21.1015 44.5641 4.9726 8.8866
# 5 -2.6549 8.9453 17.6058 4.9726 53.6003 -3.9435
# 6 -26.8388 -2.6403 -4.3545 8.8866 -3.9435 49.7795
#
#
#
# Elastic Compliance Matrix: (Units=1/GPa)
#
#
# Indices 1 2 3 4 5 6 
#
# 1 0.008785 -0.001263 -0.003672 -0.000170 0.002203 0.004553
# 2 -0.001263 0.008417 -0.000987 -0.003539 -0.000796 0.000248
# 3 -0.003672 -0.000987 0.012397 -0.004279 -0.003728 -0.000479
# 4 -0.000170 -0.003539 -0.004279 0.027513 -0.000980 -0.005643
# 5 0.002203 -0.000796 -0.003728 -0.000980 0.020406 0.002611
# 6 0.004553 0.000248 -0.000479 -0.005643 0.002611 0.023729
#
#
# Mechanical properties :
#
#
# Convention : Reuss Voigt Hill
#
# Bulk Modulus (GPa) = 56.31888 69.39278 62.85583
# Shear Modulus (GPa) = 42.01364 48.87871 45.44617
#
# Velocity S-wave (km/s) = 3.96922 4.28125 4.12818
# Velocity P-wave (km/s) = 6.49041 7.10355 6.80389
#
# Compressibility (1/GPa) = 0.01775604
#
# Stress axis : x y z
#
# Youngs Moduli (GPa) = 113.82504 118.81151 80.66337
#
# Poissons Ratio (x) = 0.15002 0.29620
# Poissons Ratio (y) = 0.14372 0.07961
# Poissons Ratio (z) = 0.41798 0.11725
#
# Static dielectric constant tensor:
#      x y z
#    x 2.083580 0.027650 0.011440 
#    y 0.027650 2.110770 -0.018190 
#    z 0.011440 -0.018190 2.120840 
# 
# From -- ./inp_files/70740.got.cif
#   From: 2010.05.17/outbox.cif.g08.bks.cpg/sg2_36_cif.got.tgz:70740.got - 2010.06.03 11:33:40.
