data_PCOD9043218
_publ_section_title
;
Structure prediction by ZEFSAII (Michael W. Deem and Ramdas Pophale) SiO2 
 PCOD9043218
Probable space group: P -1
;
_chemical_formula_sum "Si O2"
_cell_formula_units_Z 14
_cell_length_a 19.913007
_cell_length_b 11.611781
_cell_length_c 14.656500
_cell_angle_alpha 149.321151
_cell_angle_beta 160.016959
_cell_angle_gamma 32.022924
_cell_volume 575.495526
_symmetry_space_group_name_H-M "P -1"
_symmetry_group_IT_number 2
_symmetry_cell_setting 'triclinic'
loop_
_space_group_symop_operation_xyz
x,y,z
-x,-y,-z
loop_
_atom_site_type_symbol
_atom_site_label
_atom_site_fract_x
_atom_site_fract_y
_atom_site_fract_z
Si Si1 0.747710 0.992842 0.932122
Si Si2 0.893116 0.114476 0.535156
Si Si3 0.316240 0.566351 0.240834
Si Si4 0.315663 0.221194 0.855145
Si Si5 0.365913 0.061843 0.618967
Si Si6 0.852681 0.444334 0.392001
Si Si7 0.866100 0.535508 0.677893
O O1 0.553577 0.995701 0.746615
O O2 0.768396 0.804901 0.751275
O O3 0.748285 0.255629 0.083782
O O4 0.941040 0.911620 0.190618
O O5 0.813547 0.380163 0.586426
O O6 0.729817 0.981652 0.275810
O O7 0.000000 0.000000 0.500000
O O8 0.500000 0.500000 0.500000
O O9 0.267908 0.841378 0.350904
O O10 0.380501 0.416264 0.130216
O O11 0.109196 0.504098 0.967052
O O12 0.432634 0.118924 0.844512
O O13 0.091052 0.350800 0.621974
O O14 0.222144 0.295470 0.558438
O O15 0.809853 0.445887 0.447224
#
# Coordination Sequence:
#
# PCOD9043218 Si02
#       7
#     2   2   2   2   2   2   2
#     4  11  24  41  65  97 130 172 218 266 323 388
#     4  11  19  44  71  90 125 173 223 262 317 388
#     4  11  24  42  64  98 131 162 218 274 330 379
#     4  10  24  43  67  95 131 172 212 273 328 379
#     4  12  26  41  64 101 135 168 213 271 328 386
#     4  10  23  45  69  90 128 177 225 261 314 391
#     4  11  23  43  70  95 127 175 221 263 322 388
#
# _framework density 24.326861000000001
#
# number of rings (size 3 to 8) (size 9 to 14) (size 15 to 20)
#    0.000    1.143    4.286    3.857    0.000    6.857 
#    2.571    0.000    0.000    0.000    0.000    0.000 
#    0.000    0.000    0.000    0.000    0.000    0.000 
#
# Total GULP energy -78477.290230 kJ/mol
# GULP energy per Si atom -5605.520731 kJ/mol
# Density = 2.427149 g / cm^3
# Si number density = 24.326861 Si / 1000 Ang^3
#
#
#
# Elastic Constant Matrix: (Units=GPa)
#
#
# Indices 1 2 3 4 5 6 
#
# 1 63.8494 21.0619 9.3191 2.9311 6.9705 -15.8288
# 2 21.0619 139.6181 24.9796 32.2969 8.7441 17.4164
# 3 9.3191 24.9796 47.9126 18.0738 7.6725 -0.5869
# 4 2.9311 32.2969 18.0738 37.0645 -7.7895 -4.1175
# 5 6.9705 8.7441 7.6725 -7.7895 27.6110 9.0046
# 6 -15.8288 17.4164 -0.5869 -4.1175 9.0046 54.9034
#
#
#
# Elastic Compliance Matrix: (Units=1/GPa)
#
#
# Indices 1 2 3 4 5 6 
#
# 1 0.019601 -0.003882 -0.001840 0.002542 -0.005061 0.007884
# 2 -0.003882 0.011089 -0.000562 -0.010402 -0.003742 -0.004809
# 3 -0.001840 -0.000562 0.029718 -0.016395 -0.012497 0.000785
# 4 0.002542 -0.010402 -0.016395 0.048406 0.019464 0.004296
# 5 -0.005061 -0.003742 -0.012497 0.019464 0.049973 -0.007142
# 6 0.007884 -0.004809 0.000785 0.004296 -0.007142 0.023514
#
#
# Mechanical properties :
#
#
# Convention : Reuss Voigt Hill
#
# Bulk Modulus (GPa) = 20.90343 40.23347 30.56845
# Shear Modulus (GPa) = 23.71728 36.98375 30.35051
#
# Velocity S-wave (km/s) = 3.12579 3.90331 3.53599
# Velocity P-wave (km/s) = 4.65176 6.07364 5.40962
#
# Compressibility (1/GPa) = 0.04783905
#
# Stress axis : x y z
#
# Youngs Moduli (GPa) = 51.01683 90.17804 33.64994
#
# Poissons Ratio (x) = 0.35009 0.06193
# Poissons Ratio (y) = 0.19806 0.01891
# Poissons Ratio (z) = 0.09389 0.05069
#
# Static dielectric constant tensor:
#      x y z
#    x 1.907180 0.001850 0.001380 
#    y 0.001850 1.973790 -0.021890 
#    z 0.001380 -0.021890 1.931000 
# 
# From -- ./inp_files/541198.got.cif
#   From: 2010.05.17/outbox.cif.g08.bks.cpg/sg2_271_cif.got.tgz:541198.got - 2010.06.03 11:33:40.
