data_PCOD9043930
_publ_section_title
;
Structure prediction by ZEFSAII (Michael W. Deem and Ramdas Pophale) SiO2 
 PCOD9043930
Probable space group: P -1
;
_chemical_formula_sum "Si O2"
_cell_formula_units_Z 16
_cell_length_a 13.981411
_cell_length_b 13.723370
_cell_length_c 6.055504
_cell_angle_alpha 127.395971
_cell_angle_beta 71.694918
_cell_angle_gamma 132.696091
_cell_volume 668.842379
_symmetry_space_group_name_H-M "P -1"
_symmetry_group_IT_number 2
_symmetry_cell_setting 'triclinic'
loop_
_space_group_symop_operation_xyz
x,y,z
-x,-y,-z
loop_
_atom_site_type_symbol
_atom_site_label
_atom_site_fract_x
_atom_site_fract_y
_atom_site_fract_z
Si Si1 0.221962 0.543253 0.963803
Si Si2 0.574005 0.811467 0.442344
Si Si3 0.123940 0.662315 0.525738
Si Si4 0.138402 0.993103 0.454729
Si Si5 0.970221 0.763103 0.622265
Si Si6 0.475749 0.228505 0.055021
Si Si7 0.864386 0.743957 0.092896
Si Si8 0.600793 0.099175 0.255833
O O1 0.365843 0.661338 0.917395
O O2 0.215462 0.436456 0.017180
O O3 0.112931 0.399748 0.684589
O O4 0.173138 0.631741 0.227309
O O5 0.726845 0.975162 0.578498
O O6 0.550780 0.750017 0.636119
O O7 0.463056 0.828187 0.498747
O O8 0.566317 0.736263 0.100271
O O9 0.080539 0.764640 0.651941
O O10 0.250597 0.756740 0.719739
O O11 0.000000 0.500000 0.500000
O O12 0.180929 0.167873 0.633685
O O13 0.052969 0.924426 0.645287
O O14 0.022100 0.858969 0.192486
O O15 0.865887 0.744974 0.831426
O O16 0.404158 0.038571 0.818296
O O17 0.500000 0.000000 0.000000
#
# Coordination Sequence:
#
# PCOD9043930 Si02
#       8
#     2   2   2   2   2   2   2   2
#     4  11  25  42  65 100 141 183 226 292 357 422
#     4  11  24  43  69  97 135 182 235 284 346 415
#     4  12  24  41  69 100 144 183 230 290 356 430
#     4  10  24  43  72  99 131 181 239 296 345 426
#     4  11  24  40  71  98 138 180 234 290 359 422
#     4  11  25  43  69  99 145 185 233 288 350 428
#     4  10  23  46  67 101 136 176 236 295 357 408
#     4  10  24  39  66 100 142 187 233 285 351 422
#
# _framework density 23.921928000000001
#
# number of rings (size 3 to 8) (size 9 to 14) (size 15 to 20)
#    0.000    1.250    2.500    1.875   12.250    0.000 
#    0.000    1.250    0.000    0.000    0.000    0.000 
#    0.000    0.000    0.000    0.000    0.000    0.000 
#
# Total GULP energy -89093.828019 kJ/mol
# GULP energy per Si atom -5568.364251 kJ/mol
# Density = 2.386748 g / cm^3
# Si number density = 23.921928 Si / 1000 Ang^3
#
#
#
# Elastic Constant Matrix: (Units=GPa)
#
#
# Indices 1 2 3 4 5 6 
#
# 1 48.4246 28.6417 17.3269 6.6973 12.4719 23.0298
# 2 28.6417 98.8573 26.6019 -14.0843 -6.6879 27.2998
# 3 17.3269 26.6019 92.2740 -21.1302 9.5933 -2.9933
# 4 6.6973 -14.0843 -21.1302 39.1004 -5.0664 3.9524
# 5 12.4719 -6.6879 9.5933 -5.0664 27.2472 8.6026
# 6 23.0298 27.2998 -2.9933 3.9524 8.6026 41.7298
#
#
#
# Elastic Compliance Matrix: (Units=1/GPa)
#
#
# Indices 1 2 3 4 5 6 
#
# 1 0.041834 -0.010779 -0.006824 -0.016057 -0.018869 -0.011114
# 2 -0.010779 0.020126 -0.003489 0.010600 0.016845 -0.011944
# 3 -0.006824 -0.003489 0.015388 0.006942 -0.004183 0.007357
# 4 -0.016057 0.010600 0.006942 0.038438 0.016085 -0.004532
# 5 -0.018869 0.016845 -0.004183 0.016085 0.058512 -0.014492
# 6 -0.011114 -0.011944 0.007357 -0.004532 -0.014492 0.041856
#
#
# Mechanical properties :
#
#
# Convention : Reuss Voigt Hill
#
# Bulk Modulus (GPa) = 28.43904 42.74411 35.59157
# Shear Modulus (GPa) = 18.51450 32.74785 25.63118
#
# Velocity S-wave (km/s) = 2.78502 3.70394 3.27685
# Velocity P-wave (km/s) = 4.71761 6.01658 5.40625
#
# Compressibility (1/GPa) = 0.03516294
#
# Stress axis : x y z
#
# Youngs Moduli (GPa) = 23.90397 49.68736 64.98650
#
# Poissons Ratio (x) = 0.53559 0.44345
# Poissons Ratio (y) = 0.25767 0.22676
# Poissons Ratio (z) = 0.16312 0.17338
#
# Static dielectric constant tensor:
#      x y z
#    x 2.025840 -0.117580 0.099400 
#    y -0.117580 1.918870 -0.148310 
#    z 0.099400 -0.148310 2.171940 
# 
# From -- ./inp_files/98587.got.cif
#   From: 2010.05.17/outbox.cif.g08.bks.cpg/sg2_50_cif.got.tgz:98587.got - 2010.06.03 11:33:40.
