data_PCOD9043615
_publ_section_title
;
Structure prediction by ZEFSAII (Michael W. Deem and Ramdas Pophale) SiO2 
 PCOD9043615
Probable space group: P -1
;
_chemical_formula_sum "Si O2"
_cell_formula_units_Z 13
_cell_length_a 9.894764
_cell_length_b 10.576121
_cell_length_c 5.296633
_cell_angle_alpha 97.538416
_cell_angle_beta 62.259207
_cell_angle_gamma 93.018412
_cell_volume 486.312948
_symmetry_space_group_name_H-M "P -1"
_symmetry_group_IT_number 2
_symmetry_cell_setting 'triclinic'
loop_
_space_group_symop_operation_xyz
x,y,z
-x,-y,-z
loop_
_atom_site_type_symbol
_atom_site_label
_atom_site_fract_x
_atom_site_fract_y
_atom_site_fract_z
Si Si1 0.652796 0.392326 0.064640
Si Si2 0.000000 0.500000 0.500000
Si Si3 0.842475 0.758985 0.562637
Si Si4 0.634150 0.911256 0.482569
Si Si5 0.086699 0.907119 0.709986
Si Si6 0.059874 0.661693 0.958231
Si Si7 0.480738 0.325227 0.707911
O O1 0.837253 0.378829 0.897621
O O2 0.579207 0.334160 0.366036
O O3 0.607265 0.540151 0.155901
O O4 0.589977 0.325483 0.854648
O O5 0.876797 0.627877 0.646479
O O6 0.930307 0.451563 0.277121
O O7 0.676081 0.820296 0.669293
O O8 0.965428 0.859520 0.594687
O O9 0.906021 0.720027 0.219550
O O10 0.626054 0.796821 0.254811
O O11 0.500000 0.000000 0.500000
O O12 0.762536 0.015545 0.460312
O O13 0.133909 0.781443 0.787995
O O14 0.000000 0.000000 0.000000
#
# Coordination Sequence:
#
# PCOD9043615 Si02
#       7
#     2   1   2   2   2   2   2
#     4  10  23  45  73 102 147 195 242 315 389 451
#     4  10  24  42  72 110 136 186 252 314 372 444
#     4  11  25  46  72 105 148 192 244 312 377 450
#     4  12  26  45  73 109 146 194 252 306 372 451
#     4  11  25  46  71 102 147 200 247 301 375 452
#     4  11  23  43  74 100 141 189 250 308 374 445
#     4  10  24  46  68 107 147 193 247 310 385 451
#
# _framework density 26.731756000000001
#
# number of rings (size 3 to 8) (size 9 to 14) (size 15 to 20)
#    0.000    1.231    1.538    2.769    6.462    1.231 
#    8.308    2.308    0.000    0.000    0.000    0.000 
#    0.000    0.000    0.000    0.000    0.000    0.000 
#
# Total GULP energy -72430.121092 kJ/mol
# GULP energy per Si atom -5571.547776 kJ/mol
# Density = 2.667091 g / cm^3
# Si number density = 26.731756 Si / 1000 Ang^3
#
#
#
# Elastic Constant Matrix: (Units=GPa)
#
#
# Indices 1 2 3 4 5 6 
#
# 1 222.1211 86.3873 37.9771 24.4999 25.5487 -30.4121
# 2 86.3873 136.3722 32.8351 24.0590 18.6114 2.7040
# 3 37.9771 32.8351 108.8965 19.9339 31.4969 11.8578
# 4 24.4999 24.0590 19.9339 36.6752 10.9509 8.7620
# 5 25.5487 18.6114 31.4969 10.9509 50.8364 10.3734
# 6 -30.4121 2.7040 11.8578 8.7620 10.3734 52.4326
#
#
#
# Elastic Compliance Matrix: (Units=1/GPa)
#
#
# Indices 1 2 3 4 5 6 
#
# 1 0.007494 -0.003854 -0.000895 -0.002630 -0.002389 0.005660
# 2 -0.003854 0.010673 -0.000976 -0.003357 -0.000244 -0.001956
# 3 -0.000895 -0.000976 0.012225 -0.003325 -0.005736 -0.001543
# 4 -0.002630 -0.003357 -0.003325 0.034995 -0.001680 -0.006116
# 5 -0.002389 -0.000244 -0.005736 -0.001680 0.025879 -0.004915
# 6 0.005660 -0.001956 -0.001543 -0.006116 -0.004915 0.024799
#
#
# Mechanical properties :
#
#
# Convention : Reuss Voigt Hill
#
# Bulk Modulus (GPa) = 52.79351 86.86543 69.82947
# Shear Modulus (GPa) = 37.36048 48.66819 43.01434
#
# Velocity S-wave (km/s) = 3.74251 4.27149 4.01572
# Velocity P-wave (km/s) = 6.20221 7.54277 6.90510
#
# Compressibility (1/GPa) = 0.01894172
#
# Stress axis : x y z
#
# Youngs Moduli (GPa) = 133.44563 93.69127 81.79682
#
# Poissons Ratio (x) = 0.36105 0.07323
# Poissons Ratio (y) = 0.51425 0.07987
# Poissons Ratio (z) = 0.11947 0.09149
#
# Static dielectric constant tensor:
#      x y z
#    x 2.087280 -0.012660 -0.023670 
#    y -0.012660 2.060660 0.054220 
#    z -0.023670 0.054220 1.817360 
# 
# From -- ./inp_files/25442.got.cif
#   From: 2010.05.17/outbox.cif.g08.bks.cpg/sg2_13_cif.got.tgz:25442.got - 2010.06.03 11:33:40.
