data_PCOD9043118
_publ_section_title
;
Structure prediction by ZEFSAII (Michael W. Deem and Ramdas Pophale) SiO2 
 PCOD9043118
Probable space group: P -1
;
_chemical_formula_sum "Si O2"
_cell_formula_units_Z 12
_cell_length_a 5.135432
_cell_length_b 8.081087
_cell_length_c 13.203623
_cell_angle_alpha 70.752587
_cell_angle_beta 109.264964
_cell_angle_gamma 99.630374
_cell_volume 487.297842
_symmetry_space_group_name_H-M "P -1"
_symmetry_group_IT_number 2
_symmetry_cell_setting 'triclinic'
loop_
_space_group_symop_operation_xyz
x,y,z
-x,-y,-z
loop_
_atom_site_type_symbol
_atom_site_label
_atom_site_fract_x
_atom_site_fract_y
_atom_site_fract_z
Si Si1 0.465329 0.666061 0.829698
Si Si2 0.047233 0.150584 0.563438
Si Si3 0.529628 0.187285 0.410177
Si Si4 0.681561 0.185957 0.694051
Si Si5 0.685477 0.955884 0.938419
Si Si6 0.146069 0.461689 0.249251
O O1 0.608463 0.760140 0.925021
O O2 0.650104 0.529324 0.823623
O O3 0.906220 0.100469 0.665510
O O4 0.158329 0.585271 0.820965
O O5 0.370116 0.207519 0.606330
O O6 0.812877 0.282022 0.471392
O O7 0.436733 0.814187 0.706873
O O8 0.000000 0.000000 0.500000
O O9 0.266965 0.302384 0.360939
O O10 0.500000 0.000000 0.500000
O O11 0.824702 0.371182 0.709926
O O12 0.634982 0.080203 0.812475
O O13 0.500000 0.000000 0.000000
O O14 0.000000 0.000000 0.000000
#
# Coordination Sequence:
#
# PCOD9043118 Si02
#       6
#     2   2   2   2   2   2
#     4  10  23  45  68  98 144 179 235 282 348 422
#     4  12  25  41  71 106 140 198 228 273 346 420
#     4  10  24  38  72  99 140 189 238 258 345 419
#     4  12  27  47  70 103 149 173 240 307 335 412
#     4  12  26  46  75 105 129 183 243 293 355 424
#     4  10  25  44  68 101 146 185 222 289 358 392
#
# _framework density 24.625596000000002
#
# number of rings (size 3 to 8) (size 9 to 14) (size 15 to 20)
#    1.000    0.000    0.000    6.500    7.000    1.333 
#    0.000    5.000    0.000    0.000    0.000    0.000 
#    0.000    0.000    0.000    0.000    0.000    0.000 
#
# Total GULP energy -66982.393714 kJ/mol
# GULP energy per Si atom -5581.866143 kJ/mol
# Density = 2.456955 g / cm^3
# Si number density = 24.625596 Si / 1000 Ang^3
#
#
#
# Elastic Constant Matrix: (Units=GPa)
#
#
# Indices 1 2 3 4 5 6 
#
# 1 204.0785 31.3461 48.3555 30.3180 12.9966 7.7188
# 2 31.3461 91.9887 34.1230 32.2629 6.7453 -5.7989
# 3 48.3555 34.1230 107.5979 40.0496 2.1738 1.7851
# 4 30.3180 32.2629 40.0496 41.5187 13.0984 2.5137
# 5 12.9966 6.7453 2.1738 13.0984 53.9438 22.3545
# 6 7.7188 -5.7989 1.7851 2.5137 22.3545 27.2244
#
#
#
# Elastic Compliance Matrix: (Units=1/GPa)
#
#
# Indices 1 2 3 4 5 6 
#
# 1 0.005744 -0.000763 -0.001602 -0.001911 -0.000204 -0.001342
# 2 -0.000763 0.015662 -0.000650 -0.010855 -0.001543 0.005864
# 3 -0.001602 -0.000650 0.015665 -0.014743 0.004769 -0.003266
# 4 -0.001911 -0.010855 -0.014743 0.051623 -0.011845 0.004157
# 5 -0.000204 -0.001543 0.004769 -0.011845 0.032214 -0.025942
# 6 -0.001342 0.005864 -0.003266 0.004157 -0.025942 0.059493
#
#
# Mechanical properties :
#
#
# Convention : Reuss Voigt Hill
#
# Bulk Modulus (GPa) = 32.21393 70.14605 51.17999
# Shear Modulus (GPa) = 25.40933 43.86006 34.63470
#
# Velocity S-wave (km/s) = 3.21569 4.22486 3.75434
# Velocity P-wave (km/s) = 5.18627 7.23506 6.29458
#
# Compressibility (1/GPa) = 0.03104247
#
# Stress axis : x y z
#
# Youngs Moduli (GPa) = 174.08012 63.85021 63.83503
#
# Poissons Ratio (x) = 0.04869 0.10226
# Poissons Ratio (y) = 0.13275 0.04149
# Poissons Ratio (z) = 0.27887 0.04150
#
# Static dielectric constant tensor:
#      x y z
#    x 2.123540 0.011990 0.001340 
#    y 0.011990 2.052450 -0.022600 
#    z 0.001340 -0.022600 2.033620 
# 
# From -- ./inp_files/479095.got.cif
#   From: 2010.05.17/outbox.cif.g08.bks.cpg/sg2_240_cif.got.tgz:479095.got - 2010.06.03 11:33:40.
