data_PCOD9043452
_publ_section_title
;
Structure prediction by ZEFSAII (Michael W. Deem and Ramdas Pophale) SiO2 
 PCOD9043452
Probable space group: P -1
;
_chemical_formula_sum "Si O2"
_cell_formula_units_Z 15
_cell_length_a 12.356700
_cell_length_b 5.301231
_cell_length_c 12.377712
_cell_angle_alpha 104.054132
_cell_angle_beta 106.067157
_cell_angle_gamma 48.076623
_cell_volume 577.804323
_symmetry_space_group_name_H-M "P -1"
_symmetry_group_IT_number 2
_symmetry_cell_setting 'triclinic'
loop_
_space_group_symop_operation_xyz
x,y,z
-x,-y,-z
loop_
_atom_site_type_symbol
_atom_site_label
_atom_site_fract_x
_atom_site_fract_y
_atom_site_fract_z
Si Si1 0.500000 0.000000 0.000000
Si Si2 0.339384 0.445255 0.596916
Si Si3 0.696511 0.656838 0.804982
Si Si4 0.881944 0.974385 0.550381
Si Si5 0.723466 0.067310 0.170740
Si Si6 0.354383 0.837492 0.335573
Si Si7 0.015458 0.183310 0.927382
Si Si8 0.852621 0.595148 0.336066
O O1 0.376912 0.189010 0.083321
O O2 0.583388 0.137454 0.088160
O O3 0.319945 0.686319 0.714312
O O4 0.500763 0.262256 0.579551
O O5 0.301533 0.243467 0.632255
O O6 0.224334 0.648451 0.488200
O O7 0.631195 0.487411 0.722325
O O8 0.872279 0.355390 0.831203
O O9 0.667888 0.949544 0.753068
O O10 0.914774 0.756570 0.429734
O O11 0.033054 0.797414 0.637057
O O12 0.785342 0.950267 0.603367
O O13 0.826354 0.065806 0.114450
O O14 0.825730 0.691494 0.214601
O O15 0.000000 0.500000 0.000000
O O16 0.000000 0.000000 0.000000
#
# Coordination Sequence:
#
# PCOD9043452 Si02
#       8
#     1   2   2   2   2   2   2   2
#     4  12  24  50  72 100 156 186 250 296 368 430
#     4  11  24  42  72 106 139 190 239 292 368 433
#     4  12  28  47  72 107 144 196 243 296 365 430
#     4  10  24  44  71 103 142 189 236 302 361 432
#     4  11  25  45  72 105 143 194 242 304 358 441
#     4  12  27  46  72 108 148 186 242 297 364 433
#     4  12  27  47  72 103 140 194 249 302 363 420
#     4  10  23  45  71 104 140 189 244 293 366 433
#
# _framework density 25.960343999999999
#
# number of rings (size 3 to 8) (size 9 to 14) (size 15 to 20)
#    0.000    0.800    2.667    3.200    7.467    2.133 
#    0.000    0.000    0.000    0.000    0.000    0.000 
#    0.000    0.000    0.000    0.000    0.000    0.000 
#
# Total GULP energy -83767.243080 kJ/mol
# GULP energy per Si atom -5584.482872 kJ/mol
# Density = 2.590126 g / cm^3
# Si number density = 25.960344 Si / 1000 Ang^3
#
#
#
# Elastic Constant Matrix: (Units=GPa)
#
#
# Indices 1 2 3 4 5 6 
#
# 1 168.5045 23.4841 30.6909 -7.9907 -20.9936 -10.8497
# 2 23.4841 39.6047 18.3598 1.5130 -11.6060 4.1220
# 3 30.6909 18.3598 45.8306 13.5883 -9.0641 8.4342
# 4 -7.9907 1.5130 13.5883 53.4383 4.3922 -5.3209
# 5 -20.9936 -11.6060 -9.0641 4.3922 45.5092 6.0722
# 6 -10.8497 4.1220 8.4342 -5.3209 6.0722 48.3674
#
#
#
# Elastic Compliance Matrix: (Units=1/GPa)
#
#
# Indices 1 2 3 4 5 6 
#
# 1 0.007702 -0.002089 -0.005452 0.002792 0.001264 0.003005
# 2 -0.002089 0.033259 -0.010678 0.000797 0.005589 -0.002055
# 3 -0.005452 -0.010678 0.035133 -0.010569 0.003858 -0.008086
# 4 0.002792 0.000797 -0.010569 0.022615 -0.003507 0.005330
# 5 0.001264 0.005589 0.003858 -0.003507 0.025686 -0.004476
# 6 0.003005 -0.002055 -0.008086 0.005330 -0.004476 0.024083
#
#
# Mechanical properties :
#
#
# Convention : Reuss Voigt Hill
#
# Bulk Modulus (GPa) = 25.21616 44.33436 34.77526
# Shear Modulus (GPa) = 25.23556 41.55666 33.39611
#
# Velocity S-wave (km/s) = 3.12120 4.00531 3.59057
# Velocity P-wave (km/s) = 4.76693 6.20522 5.53301
#
# Compressibility (1/GPa) = 0.03965710
#
# Stress axis : x y z
#
# Youngs Moduli (GPa) = 129.83571 30.06690 28.46349
#
# Poissons Ratio (x) = 0.06280 0.15518
# Poissons Ratio (y) = 0.27118 0.30393
# Poissons Ratio (z) = 0.70786 0.32105
#
# Static dielectric constant tensor:
#      x y z
#    x 1.962860 -0.011860 0.026360 
#    y -0.011860 2.149250 -0.000430 
#    z 0.026360 -0.000430 2.031270 
# 
# From -- ./inp_files/364409.got.cif
#   From: 2010.05.17/outbox.cif.g08.bks.cpg/sg2_183_cif.got.tgz:364409.got - 2010.06.03 11:33:40.
