data_PCOD9043457
_publ_section_title
;
Structure prediction by ZEFSAII (Michael W. Deem and Ramdas Pophale) SiO2 
 PCOD9043457
Probable space group: P -1
;
_chemical_formula_sum "Si O2"
_cell_formula_units_Z 16
_cell_length_a 24.140834
_cell_length_b 18.082756
_cell_length_c 5.285821
_cell_angle_alpha 85.320545
_cell_angle_beta 103.959642
_cell_angle_gamma 160.084074
_cell_volume 685.240944
_symmetry_space_group_name_H-M "P -1"
_symmetry_group_IT_number 2
_symmetry_cell_setting 'triclinic'
loop_
_space_group_symop_operation_xyz
x,y,z
-x,-y,-z
loop_
_atom_site_type_symbol
_atom_site_label
_atom_site_fract_x
_atom_site_fract_y
_atom_site_fract_z
Si Si1 0.209860 0.847171 0.789059
Si Si2 0.682901 0.186860 0.554806
Si Si3 0.975332 0.056225 0.507615
Si Si4 0.550704 0.520382 0.299214
Si Si5 0.501307 0.810456 0.341633
Si Si6 0.066338 0.260548 0.034502
Si Si7 0.277388 0.050739 0.219829
Si Si8 0.107216 0.553838 0.801789
O O1 0.108478 0.644996 0.805935
O O2 0.088580 0.717195 0.440841
O O3 0.423913 0.092062 0.892695
O O4 0.205282 0.908317 0.957806
O O5 0.750338 0.287361 0.316114
O O6 0.500000 0.000000 0.500000
O O7 0.626890 0.030545 0.545476
O O8 0.830996 0.394942 0.870122
O O9 0.008827 0.144271 0.259970
O O10 0.769192 0.795403 0.458925
O O11 0.000000 0.000000 0.500000
O O12 0.080322 0.225516 0.809889
O O13 0.500000 0.500000 0.500000
O O14 0.432134 0.299394 0.220533
O O15 0.500000 0.500000 0.000000
O O16 0.283529 0.554518 0.220785
O O17 0.582786 0.830688 0.499273
O O18 0.902467 0.120155 0.848604
#
# Coordination Sequence:
#
# PCOD9043457 Si02
#       8
#     2   2   2   2   2   2   2   2
#     4  10  25  43  75 105 146 190 250 304 368 439
#     4  11  24  45  70 107 149 194 245 303 366 443
#     4  12  26  51  73 106 144 193 240 307 369 443
#     4  12  25  47  73 105 142 188 250 298 360 445
#     4  11  28  46  73 112 148 194 247 309 373 439
#     4  12  29  47  74 111 147 188 248 302 374 439
#     4  12  26  48  76 106 150 196 245 312 371 438
#     4  10  23  45  71 104 142 194 248 296 370 438
#
# _framework density 23.349453
#
# number of rings (size 3 to 8) (size 9 to 14) (size 15 to 20)
#    0.000    0.750    3.750    1.500   10.500    1.500 
#    0.000    0.000    0.000    0.000    0.000    0.000 
#    0.000    0.000    0.000    0.000    0.000    0.000 
#
# Total GULP energy -89266.641112 kJ/mol
# GULP energy per Si atom -5579.165070 kJ/mol
# Density = 2.329631 g / cm^3
# Si number density = 23.349453 Si / 1000 Ang^3
#
#
#
# Elastic Constant Matrix: (Units=GPa)
#
#
# Indices 1 2 3 4 5 6 
#
# 1 68.5106 17.9010 11.9409 -22.6832 -15.4051 6.2110
# 2 17.9010 128.0445 13.1912 5.6118 0.4792 17.5127
# 3 11.9409 13.1912 85.1030 -3.5988 -31.4237 6.0013
# 4 -22.6832 5.6118 -3.5988 43.3219 3.4397 -5.6126
# 5 -15.4051 0.4792 -31.4237 3.4397 40.2916 0.4613
# 6 6.2110 17.5127 6.0013 -5.6126 0.4613 40.3826
#
#
#
# Elastic Compliance Matrix: (Units=1/GPa)
#
#
# Indices 1 2 3 4 5 6 
#
# 1 0.020641 -0.003424 0.001000 0.010656 0.007807 -0.000447
# 2 -0.003424 0.009118 -0.001717 -0.003392 -0.002426 -0.003616
# 3 0.001000 -0.001717 0.017110 0.000821 0.013700 -0.001994
# 4 0.010656 -0.003392 0.000821 0.029486 0.002194 0.003783
# 5 0.007807 -0.002426 0.013700 0.002194 0.038357 -0.002318
# 6 -0.000447 -0.003616 -0.001994 0.003783 -0.002318 0.027249
#
#
# Mechanical properties :
#
#
# Convention : Reuss Voigt Hill
#
# Bulk Modulus (GPa) = 25.91592 40.85827 33.38710
# Shear Modulus (GPa) = 30.65514 40.70757 35.68135
#
# Velocity S-wave (km/s) = 3.62731 4.17994 3.91339
# Velocity P-wave (km/s) = 5.35410 6.39003 5.89486
#
# Compressibility (1/GPa) = 0.03858632
#
# Stress axis : x y z
#
# Youngs Moduli (GPa) = 48.44741 109.67745 58.44466
#
# Poissons Ratio (x) = 0.37552 -0.05842
# Poissons Ratio (y) = 0.16588 0.10035
# Poissons Ratio (z) = -0.04842 0.18831
#
# Static dielectric constant tensor:
#      x y z
#    x 1.897680 -0.017350 0.050100 
#    y -0.017350 1.961130 -0.040240 
#    z 0.050100 -0.040240 1.943500 
# 
# From -- ./inp_files/124778.got.cif
#   From: 2010.05.17/outbox.cif.g08.bks.cpg/sg2_63_cif.got.tgz:124778.got - 2010.06.03 11:33:40.
