data_PCOD9043121
_publ_section_title
;
Structure prediction by ZEFSAII (Michael W. Deem and Ramdas Pophale) SiO2 
 PCOD9043121
Probable space group: P -1
;
_chemical_formula_sum "Si O2"
_cell_formula_units_Z 16
_cell_length_a 11.818995
_cell_length_b 14.848644
_cell_length_c 15.018355
_cell_angle_alpha 149.641429
_cell_angle_beta 37.927377
_cell_angle_gamma 119.669116
_cell_volume 656.512391
_symmetry_space_group_name_H-M "P -1"
_symmetry_group_IT_number 2
_symmetry_cell_setting 'triclinic'
loop_
_space_group_symop_operation_xyz
x,y,z
-x,-y,-z
loop_
_atom_site_type_symbol
_atom_site_label
_atom_site_fract_x
_atom_site_fract_y
_atom_site_fract_z
Si Si1 0.082230 0.772863 0.667195
Si Si2 0.689724 0.908114 0.929567
Si Si3 0.298740 0.200673 0.556058
Si Si4 0.168782 0.678776 0.092857
Si Si5 0.424538 0.749724 0.857125
Si Si6 0.744607 0.799282 0.213027
Si Si7 0.574215 0.516253 0.066315
Si Si8 0.852319 0.280002 0.222385
O O1 0.329750 0.698563 0.419794
O O2 0.113073 0.666784 0.653330
O O3 0.954655 0.723700 0.632928
O O4 0.908164 0.041095 0.003285
O O5 0.536843 0.014667 0.204538
O O6 0.662979 0.099638 0.047816
O O7 0.574870 0.813670 0.867325
O O8 0.276618 0.428104 0.775565
O O9 0.258193 0.155892 0.642767
O O10 0.092837 0.231494 0.653769
O O11 0.219667 0.793303 0.082731
O O12 0.293473 0.673477 0.101467
O O13 0.608358 0.482547 0.508784
O O14 0.739439 0.590860 0.023444
O O15 0.500000 0.000000 0.500000
O O16 0.955272 0.763446 0.001362
O O17 0.500000 0.500000 0.000000
#
# Coordination Sequence:
#
# PCOD9043121 Si02
#       8
#     2   2   2   2   2   2   2   2
#     4  11  24  45  67 100 133 177 228 279 333 404
#     4  11  27  43  66 101 139 176 230 278 337 410
#     4  10  24  43  69 101 133 176 228 287 330 409
#     4  10  23  45  68  99 132 179 231 272 348 400
#     4  11  26  44  66  99 136 184 222 276 347 402
#     4  11  23  42  65 102 132 174 230 273 340 400
#     4  11  25  42  67 101 138 176 220 282 340 406
#     4  11  24  43  69  93 134 177 225 280 330 402
#
# _framework density 24.371206999999998
#
# number of rings (size 3 to 8) (size 9 to 14) (size 15 to 20)
#    0.000    1.250    2.500    1.500   12.250    5.000 
#    0.000    0.000    0.000    0.000    0.000    0.000 
#    0.000    0.000    0.000    0.000    0.000    0.000 
#
# Total GULP energy -89478.081182 kJ/mol
# GULP energy per Si atom -5592.380074 kJ/mol
# Density = 2.431574 g / cm^3
# Si number density = 24.371207 Si / 1000 Ang^3
#
#
#
# Elastic Constant Matrix: (Units=GPa)
#
#
# Indices 1 2 3 4 5 6 
#
# 1 152.2218 37.7687 10.3966 -8.1987 -12.2892 -19.5855
# 2 37.7687 116.2491 16.9418 -14.7803 -1.9803 -19.4648
# 3 10.3966 16.9418 44.5328 -4.4913 -9.0593 -8.4346
# 4 -8.1987 -14.7803 -4.4913 32.7286 4.9123 0.7051
# 5 -12.2892 -1.9803 -9.0593 4.9123 30.8731 -5.6243
# 6 -19.5855 -19.4648 -8.4346 0.7051 -5.6243 39.2972
#
#
#
# Elastic Compliance Matrix: (Units=1/GPa)
#
#
# Indices 1 2 3 4 5 6 
#
# 1 0.007786 -0.001857 0.000357 0.000537 0.003646 0.003549
# 2 -0.001857 0.010705 -0.002720 0.004044 -0.000838 0.003601
# 3 0.000357 -0.002720 0.026333 0.001067 0.008561 0.005689
# 4 0.000537 0.004044 0.001067 0.033275 -0.004273 0.001291
# 5 0.003646 -0.000838 0.008561 -0.004273 0.038591 0.008839
# 6 0.003549 0.003601 0.005689 0.001291 0.008839 0.031463
#
#
# Mechanical properties :
#
#
# Convention : Reuss Voigt Hill
#
# Bulk Modulus (GPa) = 27.48408 49.24646 38.36527
# Shear Modulus (GPa) = 29.63502 37.10620 33.37061
#
# Velocity S-wave (km/s) = 3.49088 3.90621 3.70437
# Velocity P-wave (km/s) = 5.24882 6.37145 5.83718
#
# Compressibility (1/GPa) = 0.03638470
#
# Stress axis : x y z
#
# Youngs Moduli (GPa) = 128.44154 93.41764 37.97451
#
# Poissons Ratio (x) = 0.17346 -0.01355
# Poissons Ratio (y) = 0.23849 0.10327
# Poissons Ratio (z) = -0.04584 0.25405
#
# Static dielectric constant tensor:
#      x y z
#    x 2.051740 -0.000950 0.063430 
#    y -0.000950 1.943600 0.090830 
#    z 0.063430 0.090830 1.948350 
# 
# From -- ./inp_files/187472.got.cif
#   From: 2010.05.17/outbox.cif.g08.bks.cpg/sg2_94_cif.got.tgz:187472.got - 2010.06.03 11:33:40.
