data_PCOD9043821
_publ_section_title
;
Structure prediction by ZEFSAII (Michael W. Deem and Ramdas Pophale) SiO2 
 PCOD9043821
Probable space group: P -1
;
_chemical_formula_sum "Si O2"
_cell_formula_units_Z 16
_cell_length_a 17.206480
_cell_length_b 19.071927
_cell_length_c 4.825579
_cell_angle_alpha 108.799432
_cell_angle_beta 110.813522
_cell_angle_gamma 23.184203
_cell_volume 582.706305
_symmetry_space_group_name_H-M "P -1"
_symmetry_group_IT_number 2
_symmetry_cell_setting 'triclinic'
loop_
_space_group_symop_operation_xyz
x,y,z
-x,-y,-z
loop_
_atom_site_type_symbol
_atom_site_label
_atom_site_fract_x
_atom_site_fract_y
_atom_site_fract_z
Si Si1 0.694681 0.806262 0.634007
Si Si2 0.630587 0.128413 0.293585
Si Si3 0.071879 0.504837 0.317999
Si Si4 0.848458 0.168020 0.718529
Si Si5 0.892847 0.773162 0.129162
Si Si6 0.286322 0.498802 0.168782
Si Si7 0.343328 0.796900 0.063944
Si Si8 0.693911 0.376271 0.251298
O O1 0.897107 0.647494 0.506905
O O2 0.710830 0.705782 0.596067
O O3 0.500000 0.000000 0.500000
O O4 0.746217 0.822774 0.959199
O O5 0.406179 0.323560 0.145432
O O6 0.625710 0.160611 0.637720
O O7 0.743535 0.960399 0.226598
O O8 0.744137 0.094729 0.188638
O O9 0.053378 0.604032 0.320130
O O10 0.000000 0.500000 0.000000
O O11 0.719314 0.306829 0.478315
O O12 0.768192 0.171308 0.842343
O O13 0.867959 0.218499 0.039606
O O14 0.000000 0.000000 0.500000
O O15 0.060821 0.668665 0.999655
O O16 0.294190 0.551257 0.500278
O O17 0.558045 0.593571 0.972815
O O18 0.500000 0.500000 0.000000
#
# Coordination Sequence:
#
# PCOD9043821 Si02
#       8
#     2   2   2   2   2   2   2   2
#     4  10  23  45  76 116 158 204 256 328 387 471
#     4  10  25  47  73 109 160 204 264 330 401 479
#     4   9  22  43  72 113 157 197 267 314 385 484
#     4  12  28  50  80 117 150 208 274 341 409 486
#     4  11  25  48  76 113 152 218 258 323 404 482
#     4  10  28  49  74 112 156 209 270 339 398 483
#     4  10  25  51  73 107 159 204 265 339 399 477
#     4  12  28  50  80 111 154 211 270 337 417 475
#
# _framework density 27.458086000000002
#
# number of rings (size 3 to 8) (size 9 to 14) (size 15 to 20)
#    0.750    0.750    0.000    2.250    8.750    7.000 
#    2.250    0.000    0.000    0.000    0.000    0.000 
#    0.000    0.000    0.000    0.000    0.000    0.000 
#
# Total GULP energy -89089.106988 kJ/mol
# GULP energy per Si atom -5568.069187 kJ/mol
# Density = 2.739559 g / cm^3
# Si number density = 27.458086 Si / 1000 Ang^3
#
#
#
# Elastic Constant Matrix: (Units=GPa)
#
#
# Indices 1 2 3 4 5 6 
#
# 1 85.0231 57.6776 32.3143 13.3510 -6.2936 23.4035
# 2 57.6776 237.7523 44.4664 26.6938 10.0544 35.3410
# 3 32.3143 44.4664 156.0273 23.2467 -21.1068 11.5510
# 4 13.3510 26.6938 23.2467 46.9970 -3.4332 -4.0678
# 5 -6.2936 10.0544 -21.1068 -3.4332 39.8852 8.0285
# 6 23.4035 35.3410 11.5510 -4.0678 8.0285 43.6381
#
#
#
# Elastic Compliance Matrix: (Units=1/GPa)
#
#
# Indices 1 2 3 4 5 6 
#
# 1 0.016830 -0.002534 -0.001197 -0.003126 0.003936 -0.007672
# 2 -0.002534 0.005782 -0.000770 -0.002582 -0.001880 -0.003015
# 3 -0.001197 -0.000770 0.008076 -0.003066 0.004411 -0.001970
# 4 -0.003126 -0.002582 -0.003066 0.025714 -0.000681 0.007101
# 5 0.003936 -0.001880 0.004411 -0.000681 0.029917 -0.007324
# 6 -0.007672 -0.003015 -0.001970 0.007101 -0.007324 0.032003
#
#
# Mechanical properties :
#
#
# Convention : Reuss Voigt Hill
#
# Bulk Modulus (GPa) = 46.11169 83.07991 64.59580
# Shear Modulus (GPa) = 37.16050 49.06033 43.11042
#
# Velocity S-wave (km/s) = 3.68279 4.23156 3.96668
# Velocity P-wave (km/s) = 5.90879 7.36190 6.67500
#
# Compressibility (1/GPa) = 0.02168647
#
# Stress axis : x y z
#
# Youngs Moduli (GPa) = 59.41915 172.94236 123.82840
#
# Poissons Ratio (x) = 0.43821 0.14824
# Poissons Ratio (y) = 0.15056 0.09529
# Poissons Ratio (z) = 0.07113 0.13308
#
# Static dielectric constant tensor:
#      x y z
#    x 2.292450 -0.268350 -0.366870 
#    y -0.268350 2.274330 -0.270960 
#    z -0.366870 -0.270960 1.978480 
# 
# From -- ./inp_files/120465.got.cif
#   From: 2010.05.17/outbox.cif.g08.bks.cpg/sg2_61_cif.got.tgz:120465.got - 2010.06.03 11:33:40.
