data_PCOD9043727
_publ_section_title
;
Structure prediction by ZEFSAII (Michael W. Deem and Ramdas Pophale) SiO2 
 PCOD9043727
Probable space group: P -1
;
_chemical_formula_sum "Si O2"
_cell_formula_units_Z 12
_cell_length_a 14.455363
_cell_length_b 7.255231
_cell_length_c 5.379590
_cell_angle_alpha 100.657451
_cell_angle_beta 120.262792
_cell_angle_gamma 78.384984
_cell_volume 475.000720
_symmetry_space_group_name_H-M "P -1"
_symmetry_group_IT_number 2
_symmetry_cell_setting 'triclinic'
loop_
_space_group_symop_operation_xyz
x,y,z
-x,-y,-z
loop_
_atom_site_type_symbol
_atom_site_label
_atom_site_fract_x
_atom_site_fract_y
_atom_site_fract_z
Si Si1 0.138294 0.421676 0.555471
Si Si2 0.120359 0.639276 0.079154
Si Si3 0.528127 0.834885 0.695835
Si Si4 0.337903 0.537639 0.114283
Si Si5 0.098829 0.990226 0.437985
Si Si6 0.653532 0.139176 0.153438
O O1 0.086764 0.544090 0.754295
O O2 0.264678 0.440445 0.787026
O O3 0.076553 0.852156 0.145808
O O4 0.107397 0.513057 0.270800
O O5 0.247421 0.634137 0.201838
O O6 0.880036 0.796085 0.529712
O O7 0.419811 0.809207 0.692121
O O8 0.500000 0.000000 0.500000
O O9 0.587424 0.625197 0.681391
O O10 0.616496 0.935870 0.994167
O O11 0.385065 0.700504 0.064248
O O12 0.215633 0.887569 0.672361
O O13 0.000000 0.000000 0.500000
#
# Coordination Sequence:
#
# PCOD9043727 Si02
#       6
#     2   2   2   2   2   2
#     4  10  24  45  75 108 155 196 258 317 381 462
#     4  10  24  46  76 109 154 203 257 318 386 460
#     4  11  26  42  76 108 150 201 251 323 386 466
#     4  10  23  45  74 106 156 196 248 322 385 461
#     4  12  26  48  80 110 155 208 259 322 387 459
#     4  11  24  46  69 111 150 194 264 309 389 465
#
# _framework density 25.263121999999999
#
# number of rings (size 3 to 8) (size 9 to 14) (size 15 to 20)
#    1.000    0.333    3.333    0.500    4.667    4.667 
#    0.000    4.167    0.000    0.000    0.000    0.000 
#    0.000    0.000    0.000    0.000    0.000    0.000 
#
# Total GULP energy -67074.222993 kJ/mol
# GULP energy per Si atom -5589.518583 kJ/mol
# Density = 2.520562 g / cm^3
# Si number density = 25.263122 Si / 1000 Ang^3
#
#
#
# Elastic Constant Matrix: (Units=GPa)
#
#
# Indices 1 2 3 4 5 6 
#
# 1 163.8632 60.2710 64.0725 -21.4495 -18.9356 1.1533
# 2 60.2710 226.5797 78.4186 -16.6943 -12.9104 -1.3780
# 3 64.0725 78.4186 134.9954 -16.1583 -10.8700 -9.8513
# 4 -21.4495 -16.6943 -16.1583 64.1071 8.4800 10.5133
# 5 -18.9356 -12.9104 -10.8700 8.4800 54.6560 1.5692
# 6 1.1533 -1.3780 -9.8513 10.5133 1.5692 57.1196
#
#
#
# Elastic Compliance Matrix: (Units=1/GPa)
#
#
# Indices 1 2 3 4 5 6 
#
# 1 0.008039 -0.000868 -0.003052 0.001637 0.001750 -0.001059
# 2 -0.000868 0.005680 -0.002827 0.000493 0.000415 -0.000435
# 3 -0.003052 -0.002827 0.010720 0.000628 0.000260 0.001719
# 4 0.001637 0.000493 0.000628 0.017163 -0.001768 -0.003023
# 5 0.001750 0.000415 0.000260 -0.001768 0.019332 -0.000186
# 6 -0.001059 -0.000435 0.001719 -0.003023 -0.000186 0.018376
#
#
# Mechanical properties :
#
#
# Convention : Reuss Voigt Hill
#
# Bulk Modulus (GPa) = 91.36302 103.44028 97.40165
# Shear Modulus (GPa) = 51.83943 56.68829 54.26386
#
# Velocity S-wave (km/s) = 4.53479 4.74214 4.63962
# Velocity P-wave (km/s) = 7.97886 8.42721 8.20610
#
# Compressibility (1/GPa) = 0.01094535
#
# Stress axis : x y z
#
# Youngs Moduli (GPa) = 124.39087 176.05395 93.28588
#
# Poissons Ratio (x) = 0.15289 0.28467
# Poissons Ratio (y) = 0.10803 0.26370
# Poissons Ratio (z) = 0.37959 0.49766
#
# Static dielectric constant tensor:
#      x y z
#    x 1.987240 -0.004490 0.101820 
#    y -0.004490 1.961430 0.073140 
#    z 0.101820 0.073140 2.142620 
# 
# From -- ./inp_files/87260.got.cif
#   From: 2010.05.17/outbox.cif.g08.bks.cpg/sg2_44_cif.got.tgz:87260.got - 2010.06.03 11:33:40.
