data_PCOD9043890
_publ_section_title
;
Structure prediction by ZEFSAII (Michael W. Deem and Ramdas Pophale) SiO2 
 PCOD9043890
Probable space group: P -1
;
_chemical_formula_sum "Si O2"
_cell_formula_units_Z 16
_cell_length_a 19.190293
_cell_length_b 11.351931
_cell_length_c 16.249419
_cell_angle_alpha 23.242352
_cell_angle_beta 149.737658
_cell_angle_gamma 150.634499
_cell_volume 647.764780
_symmetry_space_group_name_H-M "P -1"
_symmetry_group_IT_number 2
_symmetry_cell_setting 'triclinic'
loop_
_space_group_symop_operation_xyz
x,y,z
-x,-y,-z
loop_
_atom_site_type_symbol
_atom_site_label
_atom_site_fract_x
_atom_site_fract_y
_atom_site_fract_z
Si Si1 0.203071 0.623181 0.545432
Si Si2 0.166327 0.246177 0.484914
Si Si3 0.411225 0.301650 0.907823
Si Si4 0.913324 0.268535 0.805806
Si Si5 0.248823 0.675746 0.915863
Si Si6 0.542717 0.679845 0.636146
Si Si7 0.255064 0.498772 0.851262
Si Si8 0.377214 0.611468 0.344455
O O1 0.271098 0.352731 0.772214
O O2 0.081368 0.610640 0.360990
O O3 0.179273 0.610948 0.626811
O O4 0.336268 0.969991 0.441485
O O5 0.178357 0.558957 0.348686
O O6 0.211238 0.354221 0.366267
O O7 0.260098 0.019861 0.739740
O O8 0.000000 0.000000 0.500000
O O9 0.452203 0.515133 0.730288
O O10 0.570471 0.431950 0.035338
O O11 0.369796 0.923064 0.093835
O O12 0.079823 0.406818 0.925170
O O13 0.834739 0.882510 0.978764
O O14 0.270417 0.691685 0.828463
O O15 0.366505 0.539852 0.157540
O O16 0.447349 0.715239 0.440438
O O17 0.500000 0.500000 0.500000
#
# Coordination Sequence:
#
# PCOD9043890 Si02
#       8
#     2   2   2   2   2   2   2   2
#     4  12  23  36  66  99 131 175 218 279 352 398
#     4  10  24  45  70  93 137 187 223 276 342 402
#     4  11  23  39  63  99 135 167 222 284 337 408
#     4  11  23  43  67  95 133 184 225 275 341 408
#     4  10  23  46  65  92 136 179 230 280 333 408
#     4  11  24  40  67  97 136 177 222 288 345 395
#     4  11  22  38  65  97 134 170 222 283 338 401
#     4  12  25  43  72 102 136 182 229 281 344 407
#
# _framework density 24.700323999999998
#
# number of rings (size 3 to 8) (size 9 to 14) (size 15 to 20)
#    0.000    1.000    3.750    4.125    1.750    3.500 
#    0.000    0.000    0.000    9.000    0.000    0.000 
#    0.000    0.000    0.000    0.000    0.000    0.000 
#
# Total GULP energy -89485.561847 kJ/mol
# GULP energy per Si atom -5592.847615 kJ/mol
# Density = 2.464410 g / cm^3
# Si number density = 24.700324 Si / 1000 Ang^3
#
#
#
# Elastic Constant Matrix: (Units=GPa)
#
#
# Indices 1 2 3 4 5 6 
#
# 1 114.7320 16.4351 37.6946 -9.5785 -2.5521 7.4170
# 2 16.4351 41.6104 5.5969 1.7947 -3.3919 8.0434
# 3 37.6946 5.5969 100.4945 -20.1842 0.3900 -0.4976
# 4 -9.5785 1.7947 -20.1842 42.3450 -4.9730 0.5595
# 5 -2.5521 -3.3919 0.3900 -4.9730 52.8951 0.3353
# 6 7.4170 8.0434 -0.4976 0.5595 0.3353 35.4082
#
#
#
# Elastic Compliance Matrix: (Units=1/GPa)
#
#
# Indices 1 2 3 4 5 6 
#
# 1 0.010569 -0.003402 -0.003606 0.000884 0.000411 -0.001510
# 2 -0.003402 0.026694 -0.000638 -0.001970 0.001401 -0.005342
# 3 -0.003606 -0.000638 0.012371 0.005115 0.000168 0.000992
# 4 0.000884 -0.001970 0.005115 0.026618 0.002382 -0.000109
# 5 0.000411 0.001401 0.000168 0.002382 0.019242 -0.000622
# 6 -0.001510 -0.005342 0.000992 -0.000109 -0.000622 0.029793
#
#
# Mechanical properties :
#
#
# Convention : Reuss Voigt Hill
#
# Bulk Modulus (GPa) = 29.12050 41.81002 35.46526
# Shear Modulus (GPa) = 32.88915 39.27034 36.07975
#
# Velocity S-wave (km/s) = 3.65297 3.99165 3.82606
# Velocity P-wave (km/s) = 5.44126 6.18126 5.82303
#
# Compressibility (1/GPa) = 0.03434006
#
# Stress axis : x y z
#
# Youngs Moduli (GPa) = 94.61937 37.46176 80.83740
#
# Poissons Ratio (x) = 0.12745 0.29152
# Poissons Ratio (y) = 0.32191 0.05159
# Poissons Ratio (z) = 0.34122 0.02391
#
# Static dielectric constant tensor:
#      x y z
#    x 2.019790 0.048650 0.000060 
#    y 0.048650 2.017130 0.011530 
#    z 0.000060 0.011530 1.940820 
# 
# From -- ./inp_files/577884.got.cif
#   From: 2010.05.17/outbox.cif.g08.bks.cpg/sg2_289_cif.got.tgz:577884.got - 2010.06.03 11:33:40.
