data_PCOD9043999
_publ_section_title
;
Structure prediction by ZEFSAII (Michael W. Deem and Ramdas Pophale) SiO2 
 PCOD9043999
Probable space group: P -1
;
_chemical_formula_sum "Si O2"
_cell_formula_units_Z 16
_cell_length_a 11.594891
_cell_length_b 9.074711
_cell_length_c 18.861041
_cell_angle_alpha 112.942697
_cell_angle_beta 139.439098
_cell_angle_gamma 38.014219
_cell_volume 678.246914
_symmetry_space_group_name_H-M "P -1"
_symmetry_group_IT_number 2
_symmetry_cell_setting 'triclinic'
loop_
_space_group_symop_operation_xyz
x,y,z
-x,-y,-z
loop_
_atom_site_type_symbol
_atom_site_label
_atom_site_fract_x
_atom_site_fract_y
_atom_site_fract_z
Si Si1 0.377294 0.005952 0.287018
Si Si2 0.110582 0.374955 0.666616
Si Si3 0.203466 0.088323 0.450479
Si Si4 0.697169 0.460878 0.404807
Si Si5 0.296612 0.678001 0.369253
Si Si6 0.390877 0.995738 0.056166
Si Si7 0.925636 0.242775 0.007941
Si Si8 0.396110 0.846851 0.882964
O O1 0.048266 0.228803 0.136789
O O2 0.609763 0.857171 0.301864
O O3 0.475428 0.079486 0.397933
O O4 0.493562 0.753463 0.329025
O O5 0.279221 0.265511 0.799074
O O6 0.942654 0.659014 0.614649
O O7 0.883242 0.397902 0.546890
O O8 0.960466 0.222966 0.425367
O O9 0.246311 0.906205 0.386761
O O10 0.470809 0.501091 0.344378
O O11 0.500000 0.500000 0.500000
O O12 0.951752 0.867993 0.252737
O O13 0.389358 0.171801 0.052492
O O14 0.368910 0.886838 0.961956
O O15 0.121303 0.167781 0.019586
O O16 0.565380 0.555352 0.889226
O O17 0.000000 0.000000 0.000000
#
# Coordination Sequence:
#
# PCOD9043999 Si02
#       8
#     2   2   2   2   2   2   2   2
#     4   8  18  37  64  97 122 161 215 264 326 380
#     4   8  16  37  68  94 121 164 214 263 319 379
#     4   9  20  39  65  93 128 166 210 276 321 375
#     4   9  19  38  62  91 127 161 209 266 316 377
#     4  12  27  40  60  94 129 169 220 263 321 391
#     4  10  23  46  68  94 136 176 220 268 327 401
#     4  11  25  42  72 102 129 173 223 276 327 384
#     4  11  27  44  65  96 136 179 219 265 330 399
#
# _framework density 23.590230999999999
#
# number of rings (size 3 to 8) (size 9 to 14) (size 15 to 20)
#    0.000    2.250    0.000    2.625    7.000    7.000 
#    0.000    1.250    0.000    0.000    0.000    0.000 
#    0.000    0.000    0.000    0.000    0.000    0.000 
#
# Total GULP energy -89414.027670 kJ/mol
# GULP energy per Si atom -5588.376729 kJ/mol
# Density = 2.353654 g / cm^3
# Si number density = 23.590231 Si / 1000 Ang^3
#
#
#
# Elastic Constant Matrix: (Units=GPa)
#
#
# Indices 1 2 3 4 5 6 
#
# 1 87.3464 12.5772 23.4737 -9.5626 7.1096 -29.3948
# 2 12.5772 47.3785 5.8605 -3.4989 4.9399 -15.3280
# 3 23.4737 5.8605 103.6371 -15.1155 -9.3851 -19.2711
# 4 -9.5626 -3.4989 -15.1155 27.8424 -7.3804 3.1124
# 5 7.1096 4.9399 -9.3851 -7.3804 32.2157 -0.5410
# 6 -29.3948 -15.3280 -19.2711 3.1124 -0.5410 21.0732
#
#
#
# Elastic Compliance Matrix: (Units=1/GPa)
#
#
# Indices 1 2 3 4 5 6 
#
# 1 0.024116 0.006942 0.001796 0.004611 -0.004143 0.039543
# 2 0.006942 0.030607 0.003147 0.003038 -0.004037 0.034271
# 3 0.001796 0.003147 0.013744 0.008040 0.005241 0.016310
# 4 0.004611 0.003038 0.008040 0.044105 0.011127 0.009766
# 5 -0.004143 -0.004037 0.005241 0.011127 0.036572 -0.004627
# 6 0.039543 0.034271 0.016310 0.009766 -0.004627 0.140894
#
#
# Mechanical properties :
#
#
# Convention : Reuss Voigt Hill
#
# Bulk Modulus (GPa) = 10.84172 35.79830 23.32001
# Shear Modulus (GPa) = 16.83413 29.32296 23.07855
#
# Velocity S-wave (km/s) = 2.67424 3.52946 3.13119
# Velocity P-wave (km/s) = 3.76048 5.64070 4.79368
#
# Compressibility (1/GPa) = 0.09223626
#
# Stress axis : x y z
#
# Youngs Moduli (GPa) = 41.46608 32.67185 72.75675
#
# Poissons Ratio (x) = -0.22679 -0.13063
# Poissons Ratio (y) = -0.28784 -0.22897
# Poissons Ratio (z) = -0.07445 -0.10282
#
# Static dielectric constant tensor:
#      x y z
#    x 1.922560 0.006340 0.045100 
#    y 0.006340 1.905030 -0.004010 
#    z 0.045100 -0.004010 1.956630 
# 
# From -- ./inp_files/594152.got.cif
#   From: 2010.05.17/outbox.cif.g08.bks.cpg/sg2_298_cif.got.tgz:594152.got - 2010.06.03 11:33:40.
