data_PCOD9043755
_publ_section_title
;
Structure prediction by ZEFSAII (Michael W. Deem and Ramdas Pophale) SiO2 
 PCOD9043755
Probable space group: P -1
;
_chemical_formula_sum "Si O2"
_cell_formula_units_Z 14
_cell_length_a 8.829551
_cell_length_b 14.164832
_cell_length_c 12.962971
_cell_angle_alpha 49.747825
_cell_angle_beta 118.363159
_cell_angle_gamma 150.295842
_cell_volume 597.006222
_symmetry_space_group_name_H-M "P -1"
_symmetry_group_IT_number 2
_symmetry_cell_setting 'triclinic'
loop_
_space_group_symop_operation_xyz
x,y,z
-x,-y,-z
loop_
_atom_site_type_symbol
_atom_site_label
_atom_site_fract_x
_atom_site_fract_y
_atom_site_fract_z
Si Si1 0.350044 0.652671 0.004427
Si Si2 0.617055 0.658265 0.264713
Si Si3 0.821765 0.821710 0.892821
Si Si4 0.117100 0.543742 0.620663
Si Si5 0.883909 0.653630 0.506622
Si Si6 0.748652 0.109284 0.916341
Si Si7 0.834378 0.923592 0.608903
O O1 0.400409 0.569902 0.161623
O O2 0.491718 0.679197 0.926110
O O3 0.000000 0.500000 0.000000
O O4 0.572126 0.901057 0.935993
O O5 0.763112 0.614591 0.379136
O O6 0.414460 0.565061 0.366978
O O7 0.919305 0.925030 0.162605
O O8 0.872195 0.848984 0.767226
O O9 0.939902 0.767811 0.021982
O O10 0.466888 0.707130 0.624526
O O11 0.000000 0.500000 0.500000
O O12 0.115158 0.678969 0.574195
O O13 0.869353 0.302921 0.761712
O O14 0.034945 0.868164 0.450926
O O15 0.500000 0.000000 0.000000
O O16 0.000000 0.000000 0.500000
#
# Coordination Sequence:
#
# PCOD9043755 Si02
#       7
#     2   2   2   2   2   2   2
#     4  11  25  44  77 106 141 192 247 303 370 431
#     4   9  20  41  77  99 135 185 243 285 375 419
#     4  10  24  46  75 100 146 188 247 301 372 430
#     4  12  29  43  73 106 152 191 245 297 370 438
#     4  10  23  45  75 100 145 192 240 300 362 436
#     4  11  26  48  74 109 150 191 245 299 371 449
#     4  11  28  47  73 107 143 193 250 307 365 436
#
# _framework density 23.450341000000002
#
# number of rings (size 3 to 8) (size 9 to 14) (size 15 to 20)
#    0.000    1.429    0.000    3.857   18.000    1.714 
#    0.000    0.000    0.000    0.000    0.000    0.000 
#    0.000    0.000    0.000    0.000    0.000    0.000 
#
# Total GULP energy -78243.196340 kJ/mol
# GULP energy per Si atom -5588.799739 kJ/mol
# Density = 2.339697 g / cm^3
# Si number density = 23.450341 Si / 1000 Ang^3
#
#
#
# Elastic Constant Matrix: (Units=GPa)
#
#
# Indices 1 2 3 4 5 6 
#
# 1 77.6869 40.2634 48.1126 1.8676 1.0592 -6.4007
# 2 40.2634 118.2502 40.5138 -0.8803 -2.3426 5.5692
# 3 48.1126 40.5138 174.3030 3.0394 4.1591 3.4789
# 4 1.8676 -0.8803 3.0394 32.1235 2.9792 2.9320
# 5 1.0592 -2.3426 4.1591 2.9792 30.3850 -5.5972
# 6 -6.4007 5.5692 3.4789 2.9320 -5.5972 39.7211
#
#
#
# Elastic Compliance Matrix: (Units=1/GPa)
#
#
# Indices 1 2 3 4 5 6 
#
# 1 0.018317 -0.005082 -0.003945 -0.001247 0.000398 0.004158
# 2 -0.005082 0.010674 -0.001065 0.000827 0.000661 -0.002190
# 3 -0.003945 -0.001065 0.007130 -0.000256 -0.001126 -0.001251
# 4 -0.001247 0.000827 -0.000256 0.031867 -0.003562 -0.003149
# 5 0.000398 0.000661 -0.001126 -0.003562 0.034406 0.005181
# 6 0.004158 -0.002190 -0.001251 -0.003149 0.005181 0.027225
#
#
# Mechanical properties :
#
#
# Convention : Reuss Voigt Hill
#
# Bulk Modulus (GPa) = 62.74973 69.77997 66.26485
# Shear Modulus (GPa) = 32.23405 36.53592 34.38499
#
# Velocity S-wave (km/s) = 3.71154 3.95145 3.83337
# Velocity P-wave (km/s) = 6.72190 7.11616 6.92184
#
# Compressibility (1/GPa) = 0.01593632
#
# Stress axis : x y z
#
# Youngs Moduli (GPa) = 54.59478 93.68293 140.25358
#
# Poissons Ratio (x) = 0.47612 0.55336
# Poissons Ratio (y) = 0.27746 0.14933
# Poissons Ratio (z) = 0.21540 0.09975
#
# Static dielectric constant tensor:
#      x y z
#    x 1.978670 -0.033900 0.018230 
#    y -0.033900 1.891740 0.028810 
#    z 0.018230 0.028810 1.897950 
# 
# From -- ./inp_files/398644.got.cif
#   From: 2010.05.17/outbox.cif.g08.bks.cpg/sg2_200_cif.got.tgz:398644.got - 2010.06.03 11:33:40.
