data_PCOD9043900
_publ_section_title
;
Structure prediction by ZEFSAII (Michael W. Deem and Ramdas Pophale) SiO2 
 PCOD9043900
Probable space group: P -1
;
_chemical_formula_sum "Si O2"
_cell_formula_units_Z 16
_cell_length_a 9.716722
_cell_length_b 22.353522
_cell_length_c 12.258480
_cell_angle_alpha 141.907095
_cell_angle_beta 47.391317
_cell_angle_gamma 153.184217
_cell_volume 737.946340
_symmetry_space_group_name_H-M "P -1"
_symmetry_group_IT_number 2
_symmetry_cell_setting 'triclinic'
loop_
_space_group_symop_operation_xyz
x,y,z
-x,-y,-z
loop_
_atom_site_type_symbol
_atom_site_label
_atom_site_fract_x
_atom_site_fract_y
_atom_site_fract_z
Si Si1 0.053699 0.106463 0.041664
Si Si2 0.108835 0.257244 0.685507
Si Si3 0.221613 0.827988 0.796537
Si Si4 0.597372 0.428846 0.334212
Si Si5 0.905749 0.358888 0.795198
Si Si6 0.256027 0.532992 0.457020
Si Si7 0.101132 0.881951 0.170943
Si Si8 0.205477 0.071005 0.690873
O O1 0.376350 0.286920 0.161050
O O2 0.809964 0.092311 0.150617
O O3 0.033556 0.048236 0.852397
O O4 0.000000 0.000000 0.000000
O O5 0.469054 0.382410 0.650829
O O6 0.023199 0.317038 0.745891
O O7 0.999794 0.221603 0.818451
O O8 0.928945 0.087362 0.497454
O O9 0.947311 0.643250 0.655202
O O10 0.561794 0.929189 0.736609
O O11 0.149663 0.834768 0.969135
O O12 0.500000 0.500000 0.500000
O O13 0.591575 0.373953 0.375833
O O14 0.931187 0.571016 0.308361
O O15 0.549046 0.202253 0.737496
O O16 0.000000 0.500000 0.000000
O O17 0.000000 0.500000 0.500000
O O18 0.852258 0.866431 0.274876
#
# Coordination Sequence:
#
# PCOD9043900 Si02
#       8
#     2   2   2   2   2   2   2   2
#     4  11  23  40  73 100 138 182 235 288 347 417
#     4  12  26  45  72 107 138 183 245 287 346 425
#     4  10  23  46  66 101 140 186 229 294 352 415
#     4  12  24  47  70 101 142 185 232 291 350 416
#     4  12  27  46  72 103 142 185 235 290 357 414
#     4  12  27  44  73 103 140 183 238 289 354 419
#     4  10  25  44  72  97 142 184 235 285 356 418
#     4  11  25  45  67 103 142 181 232 291 350 415
#
# _framework density 21.681792000000002
#
# number of rings (size 3 to 8) (size 9 to 14) (size 15 to 20)
#    0.000    0.750    3.750    2.250    7.000    3.500 
#    0.000    0.000    0.000    0.000    0.000    0.000 
#    0.000    0.000    0.000    0.000    0.000    0.000 
#
# Total GULP energy -89341.075846 kJ/mol
# GULP energy per Si atom -5583.817240 kJ/mol
# Density = 2.163244 g / cm^3
# Si number density = 21.681792 Si / 1000 Ang^3
#
#
#
# Elastic Constant Matrix: (Units=GPa)
#
#
# Indices 1 2 3 4 5 6 
#
# 1 120.5818 42.8264 22.1942 -8.0266 -11.7200 6.2552
# 2 42.8264 80.4371 5.8788 -11.0824 -11.7079 2.8388
# 3 22.1942 5.8788 57.0551 1.4494 -9.1002 -4.6500
# 4 -8.0266 -11.0824 1.4494 30.8862 -2.1291 1.3441
# 5 -11.7200 -11.7079 -9.1002 -2.1291 29.5609 -5.6679
# 6 6.2552 2.8388 -4.6500 1.3441 -5.6679 39.4242
#
#
#
# Elastic Compliance Matrix: (Units=1/GPa)
#
#
# Indices 1 2 3 4 5 6 
#
# 1 0.011137 -0.005274 -0.003820 0.001320 0.000910 -0.001752
# 2 -0.005274 0.016581 0.001082 0.004873 0.005228 0.000356
# 3 -0.003820 0.001082 0.020160 -0.001318 0.005750 0.003777
# 4 0.001320 0.004873 -0.001318 0.034884 0.004313 -0.001285
# 5 0.000910 0.005228 0.005750 0.004313 0.039429 0.005679
# 6 -0.001752 0.000356 0.003777 -0.001285 0.005679 0.026923
#
#
# Mechanical properties :
#
#
# Convention : Reuss Voigt Hill
#
# Bulk Modulus (GPa) = 31.39340 44.43032 37.91186
# Shear Modulus (GPa) = 28.44878 32.45257 30.45067
#
# Velocity S-wave (km/s) = 3.62623 3.87300 3.75165
# Velocity P-wave (km/s) = 5.66068 6.36684 6.02412
#
# Compressibility (1/GPa) = 0.03185383
#
# Stress axis : x y z
#
# Youngs Moduli (GPa) = 89.79452 60.31061 49.60386
#
# Poissons Ratio (x) = 0.31808 0.18948
# Poissons Ratio (y) = 0.47358 -0.05369
# Poissons Ratio (z) = 0.34300 -0.06527
#
# Static dielectric constant tensor:
#      x y z
#    x 2.152730 -0.103930 0.101570 
#    y -0.103930 1.747500 -0.047410 
#    z 0.101570 -0.047410 1.935730 
# 
# From -- ./inp_files/405563.got.cif
#   From: 2010.05.17/outbox.cif.g08.bks.cpg/sg2_203_cif.got.tgz:405563.got - 2010.06.03 11:33:40.
