data_PCOD9043767
_publ_section_title
;
Structure prediction by ZEFSAII (Michael W. Deem and Ramdas Pophale) SiO2 
 PCOD9043767
Probable space group: P -1
;
_chemical_formula_sum "Si O2"
_cell_formula_units_Z 16
_cell_length_a 8.023410
_cell_length_b 5.166997
_cell_length_c 18.119206
_cell_angle_alpha 78.505674
_cell_angle_beta 82.645140
_cell_angle_gamma 120.616392
_cell_volume 609.578268
_symmetry_space_group_name_H-M "P -1"
_symmetry_group_IT_number 2
_symmetry_cell_setting 'triclinic'
loop_
_space_group_symop_operation_xyz
x,y,z
-x,-y,-z
loop_
_atom_site_type_symbol
_atom_site_label
_atom_site_fract_x
_atom_site_fract_y
_atom_site_fract_z
Si Si1 0.149972 0.811864 0.048461
Si Si2 0.708837 0.594229 0.408487
Si Si3 0.820153 0.144608 0.473408
Si Si4 0.225500 0.176672 0.882523
Si Si5 0.840491 0.436782 0.685745
Si Si6 0.042280 0.924707 0.756278
Si Si7 0.671965 0.828523 0.645980
Si Si8 0.328009 0.391909 0.106268
O O1 0.245567 0.611428 0.074451
O O2 0.930648 0.716827 0.097208
O O3 0.303635 0.163194 0.054318
O O4 0.148956 0.873910 0.957775
O O5 0.734098 0.363792 0.472067
O O6 0.533132 0.358323 0.376884
O O7 0.690218 0.837215 0.446138
O O8 0.890247 0.826493 0.328602
O O9 0.020060 0.374570 0.402995
O O10 0.832202 0.025801 0.559414
O O11 0.454050 0.425413 0.879379
O O12 0.203118 0.070623 0.804700
O O13 0.700048 0.568897 0.693725
O O14 0.987612 0.596074 0.739312
O O15 0.700147 0.076760 0.690741
O O16 0.842199 0.845722 0.812849
#
# Coordination Sequence:
#
# PCOD9043767 Si02
#       8
#     2   2   2   2   2   2   2   2
#     4  10  24  44  72 113 140 177 246 300 336 422
#     4  11  24  42  66  96 140 171 229 292 339 424
#     4  11  22  43  66  96 131 174 227 295 351 404
#     4  10  23  45  75 103 146 193 228 292 365 406
#     4  11  24  41  64  95 139 169 232 289 337 425
#     4  10  26  45  64 102 143 184 232 282 343 430
#     4  12  23  41  70  97 125 185 228 284 361 405
#     4  11  24  45  74 103 146 186 240 287 355 420
#
# _framework density 26.247651000000001
#
# number of rings (size 3 to 8) (size 9 to 14) (size 15 to 20)
#    0.000    1.250    0.000    5.250    1.750   12.500 
#    0.000    0.000    0.000    0.000    0.000    0.000 
#    0.000    0.000    0.000    0.000    0.000    0.000 
#
# Total GULP energy -89599.007284 kJ/mol
# GULP energy per Si atom -5599.937955 kJ/mol
# Density = 2.618791 g / cm^3
# Si number density = 26.247651 Si / 1000 Ang^3
#
#
#
# Elastic Constant Matrix: (Units=GPa)
#
#
# Indices 1 2 3 4 5 6 
#
# 1 109.9772 74.8281 24.6997 8.9237 23.8312 14.3133
# 2 74.8281 205.4560 45.3205 38.0871 18.5086 -10.4121
# 3 24.6997 45.3205 136.2704 18.7713 16.4815 -4.4528
# 4 8.9237 38.0871 18.7713 46.8024 7.4426 7.6537
# 5 23.8312 18.5086 16.4815 7.4426 39.7703 -2.3908
# 6 14.3133 -10.4121 -4.4528 7.6537 -2.3908 49.5043
#
#
#
# Elastic Compliance Matrix: (Units=1/GPa)
#
#
# Indices 1 2 3 4 5 6 
#
# 1 0.015471 -0.005984 -0.000764 0.004529 -0.007429 -0.006860
# 2 -0.005984 0.008530 -0.000899 -0.006409 0.001459 0.004505
# 3 -0.000764 -0.000899 0.008384 -0.002322 -0.002101 0.001043
# 4 0.004529 -0.006409 -0.002322 0.028605 -0.004574 -0.007510
# 5 -0.007429 0.001459 -0.002101 -0.004574 0.030912 0.004466
# 6 -0.006860 0.004505 0.001043 -0.007510 0.004466 0.024602
#
#
# Mechanical properties :
#
#
# Convention : Reuss Voigt Hill
#
# Bulk Modulus (GPa) = 58.50737 82.37780 70.44259
# Shear Modulus (GPa) = 36.36533 47.67241 42.01887
#
# Velocity S-wave (km/s) = 3.72623 4.26638 4.00542
# Velocity P-wave (km/s) = 6.39155 7.46473 6.94889
#
# Compressibility (1/GPa) = 0.01709187
#
# Stress axis : x y z
#
# Youngs Moduli (GPa) = 64.63710 117.23549 119.27893
#
# Poissons Ratio (x) = 0.70156 0.09107
# Poissons Ratio (y) = 0.38680 0.10718
# Poissons Ratio (z) = 0.04935 0.10535
#
# Static dielectric constant tensor:
#      x y z
#    x 2.115580 0.021220 -0.006580 
#    y 0.021220 2.111640 -0.005180 
#    z -0.006580 -0.005180 2.089190 
# 
# From -- ./inp_files/552586.got.cif
#   From: 2010.05.17/outbox.cif.g08.bks.cpg/sg2_277_cif.got.tgz:552586.got - 2010.06.03 11:33:40.
