data_PCOD9043349
_publ_section_title
;
Structure prediction by ZEFSAII (Michael W. Deem and Ramdas Pophale) SiO2 
 PCOD9043349
Probable space group: P -1
;
_chemical_formula_sum "Si O2"
_cell_formula_units_Z 11
_cell_length_a 6.372326
_cell_length_b 6.557642
_cell_length_c 12.608408
_cell_angle_alpha 87.242511
_cell_angle_beta 114.964374
_cell_angle_gamma 108.313657
_cell_volume 451.263606
_symmetry_space_group_name_H-M "P -1"
_symmetry_group_IT_number 2
_symmetry_cell_setting 'triclinic'
loop_
_space_group_symop_operation_xyz
x,y,z
-x,-y,-z
loop_
_atom_site_type_symbol
_atom_site_label
_atom_site_fract_x
_atom_site_fract_y
_atom_site_fract_z
Si Si1 0.315149 0.756368 0.969406
Si Si2 0.980124 0.893907 0.612364
Si Si3 0.500000 0.500000 0.500000
Si Si4 0.325732 0.647285 0.737677
Si Si5 0.768051 0.521556 0.833796
Si Si6 0.849727 0.274377 0.654973
O O1 0.362203 0.653050 0.872022
O O2 0.020784 0.713773 0.905243
O O3 0.335520 0.621879 0.081091
O O4 0.500000 0.000000 0.000000
O O5 0.774148 0.664177 0.569382
O O6 0.235152 0.850567 0.691663
O O7 0.897872 0.047699 0.670377
O O8 0.000000 0.000000 0.500000
O O9 0.614945 0.292954 0.542488
O O10 0.566319 0.616713 0.740628
O O11 0.106556 0.436833 0.661437
O O12 0.822907 0.361746 0.764339
#
# Coordination Sequence:
#
# PCOD9043349 Si02
#       6
#     2   2   1   2   2   2
#     4  10  23  45  70 108 134 183 234 282 350 417
#     4  11  26  46  71 101 142 187 228 291 348 409
#     4  10  24  46  68 102 136 178 240 282 342 414
#     4  10  24  45  69 105 142 179 239 282 344 422
#     4  10  23  47  71  98 147 181 223 300 338 408
#     4  10  24  44  70 104 139 183 237 282 349 412
#
# _framework density 24.375997000000002
#
# number of rings (size 3 to 8) (size 9 to 14) (size 15 to 20)
#    0.000    1.818    0.000    1.091    7.636    2.182 
#   13.091    0.000    0.000    0.000    0.000    0.000 
#    0.000    0.000    0.000    0.000    0.000    0.000 
#
# Total GULP energy -61301.523429 kJ/mol
# GULP energy per Si atom -5572.865766 kJ/mol
# Density = 2.432052 g / cm^3
# Si number density = 24.375997 Si / 1000 Ang^3
#
#
#
# Elastic Constant Matrix: (Units=GPa)
#
#
# Indices 1 2 3 4 5 6 
#
# 1 129.9193 77.4738 52.8979 -13.7454 18.8604 -15.3441
# 2 77.4738 132.9925 41.8348 -3.0902 19.6022 -6.5010
# 3 52.8979 41.8348 77.4895 -16.5641 6.3114 -1.6610
# 4 -13.7454 -3.0902 -16.5641 37.0699 4.2960 5.2718
# 5 18.8604 19.6022 6.3114 4.2960 52.2522 -6.0153
# 6 -15.3441 -6.5010 -1.6610 5.2718 -6.0153 47.7343
#
#
#
# Elastic Compliance Matrix: (Units=1/GPa)
#
#
# Indices 1 2 3 4 5 6 
#
# 1 0.014736 -0.006170 -0.006058 0.002028 -0.002071 0.003201
# 2 -0.006170 0.012162 -0.002679 -0.002194 -0.001879 -0.000415
# 3 -0.006058 -0.002679 0.019883 0.006757 -0.000039 -0.002371
# 4 0.002028 -0.002194 0.006757 0.031470 -0.003698 -0.003353
# 5 -0.002071 -0.001879 -0.000039 -0.003698 0.021147 0.002150
# 6 0.003201 -0.000415 -0.002371 -0.003353 0.002150 0.022481
#
#
# Mechanical properties :
#
#
# Convention : Reuss Voigt Hill
#
# Bulk Modulus (GPa) = 58.93497 76.09050 67.51273
# Shear Modulus (GPa) = 31.77685 38.62428 35.20056
#
# Velocity S-wave (km/s) = 3.61447 3.98492 3.80421
# Velocity P-wave (km/s) = 6.45362 7.24265 6.85949
#
# Compressibility (1/GPa) = 0.01696786
#
# Stress axis : x y z
#
# Youngs Moduli (GPa) = 67.86064 82.22384 50.29380
#
# Poissons Ratio (x) = 0.50732 0.30467
# Poissons Ratio (y) = 0.41870 0.13473
# Poissons Ratio (z) = 0.41108 0.22027
#
# Static dielectric constant tensor:
#      x y z
#    x 1.955890 -0.003390 -0.078040 
#    y -0.003390 1.872310 0.041430 
#    z -0.078040 0.041430 2.052910 
# 
# From -- ./inp_files/2219.got.cif
#   From: 2010.05.17/outbox.cif.g08.bks.cpg/sg2_2_cif.got.tgz:2219.got - 2010.06.03 11:33:40.
