data_PCOD9043194
_publ_section_title
;
Structure prediction by ZEFSAII (Michael W. Deem and Ramdas Pophale) SiO2 
 PCOD9043194
Probable space group: P -1
;
_chemical_formula_sum "Si O2"
_cell_formula_units_Z 14
_cell_length_a 8.107833
_cell_length_b 5.395513
_cell_length_c 15.878121
_cell_angle_alpha 92.946947
_cell_angle_beta 113.163692
_cell_angle_gamma 60.835058
_cell_volume 549.065823
_symmetry_space_group_name_H-M "P -1"
_symmetry_group_IT_number 2
_symmetry_cell_setting 'triclinic'
loop_
_space_group_symop_operation_xyz
x,y,z
-x,-y,-z
loop_
_atom_site_type_symbol
_atom_site_label
_atom_site_fract_x
_atom_site_fract_y
_atom_site_fract_z
Si Si1 0.242186 0.991987 0.933459
Si Si2 0.864462 0.644552 0.258074
Si Si3 0.555167 0.587872 0.113621
Si Si4 0.190348 0.593615 0.124691
Si Si5 0.487893 0.795785 0.426449
Si Si6 0.222998 0.093580 0.235568
Si Si7 0.878538 0.238225 0.551614
O O1 0.265943 0.686537 0.904955
O O2 0.191366 0.163876 0.836748
O O3 0.437298 0.863926 0.034818
O O4 0.043615 0.213291 0.952905
O O5 0.653854 0.631931 0.217963
O O6 0.045592 0.320441 0.267232
O O7 0.952399 0.743323 0.354149
O O8 0.380715 0.510000 0.100111
O O9 0.223592 0.306257 0.169246
O O10 0.196689 0.831816 0.192322
O O11 0.713779 0.514425 0.469431
O O12 0.289322 0.769644 0.416986
O O13 0.500000 0.000000 0.500000
O O14 0.430829 0.952761 0.329381
O O15 0.000000 0.000000 0.500000
#
# Coordination Sequence:
#
# PCOD9043194 Si02
#       7
#     2   2   2   2   2   2   2
#     4  10  23  45  69 105 147 189 246 304 371 444
#     4  11  23  46  71 101 152 193 239 310 379 437
#     4  11  24  43  72 105 141 197 243 304 372 444
#     4  11  25  45  73 107 146 194 250 305 367 442
#     4  11  24  48  75 101 147 196 244 312 380 441
#     4  11  24  47  73 105 148 198 242 310 373 449
#     4  11  27  47  76 112 148 193 257 310 372 453
#
# _framework density 25.497855999999999
#
# number of rings (size 3 to 8) (size 9 to 14) (size 15 to 20)
#    0.000    1.143    2.857    2.571    4.000    2.857 
#    0.000    2.143    0.000    0.000    0.000    0.000 
#    0.000    0.000    0.000    0.000    0.000    0.000 
#
# Total GULP energy -78204.781303 kJ/mol
# GULP energy per Si atom -5586.055807 kJ/mol
# Density = 2.543982 g / cm^3
# Si number density = 25.497856 Si / 1000 Ang^3
#
#
#
# Elastic Constant Matrix: (Units=GPa)
#
#
# Indices 1 2 3 4 5 6 
#
# 1 31.6681 35.9975 20.4525 -14.9041 4.8159 -23.8190
# 2 35.9975 146.3213 103.1135 -7.1629 17.9049 -8.6510
# 3 20.4525 103.1135 190.3546 -14.8329 27.9806 -17.4497
# 4 -14.9041 -7.1629 -14.8329 61.3140 -3.2772 -5.9112
# 5 4.8159 17.9049 27.9806 -3.2772 23.5620 -6.2971
# 6 -23.8190 -8.6510 -17.4497 -5.9112 -6.2971 25.8276
#
#
#
# Elastic Compliance Matrix: (Units=1/GPa)
#
#
# Indices 1 2 3 4 5 6 
#
# 1 -0.190052 0.055744 -0.028562 -0.067523 -0.032228 -0.199208
# 2 0.055744 -0.005235 0.002522 0.019526 0.007729 0.057713
# 3 -0.028562 0.002522 0.005467 -0.008444 -0.010792 -0.026366
# 4 -0.067523 0.019526 -0.008444 -0.006656 -0.009372 -0.065245
# 5 -0.032228 0.007729 -0.010792 -0.009372 0.048024 -0.024861
# 6 -0.199208 0.057713 -0.026366 -0.065245 -0.024861 -0.164474
#
#
# Mechanical properties :
#
#
# Convention : Reuss Voigt Hill
#
# Bulk Modulus (GPa) = -7.66809 76.38566 34.35879
# Shear Modulus (GPa) = -12.02487 36.05942 12.01728
#
# Velocity S-wave (km/s) = -2.17400 3.76468 2.17331
# Velocity P-wave (km/s) = 3.05214 6.99427 4.44996
#
# Compressibility (1/GPa) = -0.13041057
#
# Stress axis : x y z
#
# Youngs Moduli (GPa) = -5.26172 -191.02725 182.90447
#
# Poissons Ratio (x) = 10.64861 5.22406
# Poissons Ratio (y) = 0.29331 -0.46133
# Poissons Ratio (z) = -0.15028 0.48181
#
# Static dielectric constant tensor:
#      x y z
#    x 2.468420 -0.288360 0.173660 
#    y -0.288360 2.308780 -0.189370 
#    z 0.173660 -0.189370 2.072780 
# 
# From -- ./inp_files/141554.got.cif
#   From: 2010.05.17/outbox.cif.g08.bks.cpg/sg2_71_cif.got.tgz:141554.got - 2010.06.03 11:33:40.
