data_PCOD9043426
_publ_section_title
;
Structure prediction by ZEFSAII (Michael W. Deem and Ramdas Pophale) SiO2 
 PCOD9043426
Probable space group: P -1
;
_chemical_formula_sum "Si O2"
_cell_formula_units_Z 14
_cell_length_a 11.387620
_cell_length_b 7.779368
_cell_length_c 8.971915
_cell_angle_alpha 69.849850
_cell_angle_beta 122.207147
_cell_angle_gamma 74.793115
_cell_volume 522.485500
_symmetry_space_group_name_H-M "P -1"
_symmetry_group_IT_number 2
_symmetry_cell_setting 'triclinic'
loop_
_space_group_symop_operation_xyz
x,y,z
-x,-y,-z
loop_
_atom_site_type_symbol
_atom_site_label
_atom_site_fract_x
_atom_site_fract_y
_atom_site_fract_z
Si Si1 0.500000 0.500000 0.000000
Si Si2 0.447187 0.198805 0.569531
Si Si3 0.048439 0.045557 0.180771
Si Si4 0.692300 0.991955 0.241995
Si Si5 0.219797 0.263793 0.143195
Si Si6 0.828991 0.587843 0.264086
Si Si7 0.359527 0.575022 0.621215
Si Si8 0.000000 0.000000 0.500000
O O1 0.585003 0.250082 0.061712
O O2 0.511823 0.403619 0.203506
O O3 0.312218 0.320186 0.309985
O O4 0.433759 0.386470 0.607600
O O5 0.379441 0.082130 0.656624
O O6 0.631622 0.996183 0.711703
O O7 0.220829 0.808679 0.396037
O O8 0.951199 0.066510 0.261782
O O9 0.073855 0.243449 0.116973
O O10 0.000000 0.000000 0.000000
O O11 0.711437 0.841487 0.161199
O O12 0.871380 0.927864 0.441164
O O13 0.162511 0.400888 0.909908
O O14 0.742470 0.457733 0.297580
O O15 0.000000 0.500000 0.500000
#
# Coordination Sequence:
#
# PCOD9043426 Si02
#       8
#     1   2   2   2   2   2   2   1
#     4  12  22  40  72 106 142 186 246 304 358 442
#     4  10  23  45  71 101 145 189 246 310 370 442
#     4  12  26  47  72 107 151 195 250 310 374 449
#     4  11  23  43  71 105 142 193 244 301 373 442
#     4  11  22  45  71 103 144 193 242 307 375 440
#     4  11  24  44  71 104 146 193 243 302 366 451
#     4  11  24  45  69 106 143 192 250 303 371 445
#     4  12  22  46  72 102 148 194 238 302 372 438
#
# _framework density 26.795002
#
# number of rings (size 3 to 8) (size 9 to 14) (size 15 to 20)
#    0.000    0.857    2.857    4.286    0.000    4.000 
#    5.143    6.429    0.000    0.000    0.000    0.000 
#    0.000    0.000    0.000    0.000    0.000    0.000 
#
# Total GULP energy -77976.263858 kJ/mol
# GULP energy per Si atom -5569.733133 kJ/mol
# Density = 2.673402 g / cm^3
# Si number density = 26.795002 Si / 1000 Ang^3
#
#
#
# Elastic Constant Matrix: (Units=GPa)
#
#
# Indices 1 2 3 4 5 6 
#
# 1 111.2999 16.3973 11.1804 15.2316 -16.3456 -10.1848
# 2 16.3973 122.8936 32.4385 19.6001 -21.7192 -4.7306
# 3 11.1804 32.4385 163.6134 37.5935 -35.6511 -19.9620
# 4 15.2316 19.6001 37.5935 45.5515 -12.6021 -12.3624
# 5 -16.3456 -21.7192 -35.6511 -12.6021 23.6933 4.7456
# 6 -10.1848 -4.7306 -19.9620 -12.3624 4.7456 22.0494
#
#
#
# Elastic Compliance Matrix: (Units=1/GPa)
#
#
# Indices 1 2 3 4 5 6 
#
# 1 0.010661 0.000013 0.002060 -0.001795 0.008730 0.003907
# 2 0.000013 0.009896 0.000346 -0.002402 0.008469 -0.000727
# 3 0.002060 0.000346 0.010666 -0.004218 0.014503 0.005196
# 4 -0.001795 -0.002402 -0.004218 0.031471 0.004652 0.011480
# 5 0.008730 0.008469 0.014503 0.004652 0.079387 0.004501
# 6 0.003907 -0.000727 0.005196 0.011480 0.004501 0.057173
#
#
# Mechanical properties :
#
#
# Convention : Reuss Voigt Hill
#
# Bulk Modulus (GPa) = 27.73077 57.53770 42.63423
# Shear Modulus (GPa) = 24.22061 40.77820 32.49941
#
# Velocity S-wave (km/s) = 3.00979 3.90533 3.48644
# Velocity P-wave (km/s) = 4.73816 6.46958 5.67034
#
# Compressibility (1/GPa) = 0.03606103
#
# Stress axis : x y z
#
# Youngs Moduli (GPa) = 93.79910 101.05176 93.75712
#
# Poissons Ratio (x) = -0.00134 -0.19316
# Poissons Ratio (y) = -0.00124 -0.03240
# Poissons Ratio (z) = -0.19325 -0.03492
#
# Static dielectric constant tensor:
#      x y z
#    x 2.031980 -0.150300 -0.070380 
#    y -0.150300 2.040420 -0.041980 
#    z -0.070380 -0.041980 1.848100 
# 
# From -- ./inp_files/159272.got.cif
#   From: 2010.05.17/outbox.cif.g08.bks.cpg/sg2_80_cif.got.tgz:159272.got - 2010.06.03 11:33:40.
