data_PCOD9043096
_publ_section_title
;
Structure prediction by ZEFSAII (Michael W. Deem and Ramdas Pophale) SiO2 
 PCOD9043096
Probable space group: P -1
;
_chemical_formula_sum "Si O2"
_cell_formula_units_Z 16
_cell_length_a 15.233757
_cell_length_b 14.824314
_cell_length_c 11.897202
_cell_angle_alpha 151.678845
_cell_angle_beta 123.722599
_cell_angle_gamma 38.828543
_cell_volume 718.023074
_symmetry_space_group_name_H-M "P -1"
_symmetry_group_IT_number 2
_symmetry_cell_setting 'triclinic'
loop_
_space_group_symop_operation_xyz
x,y,z
-x,-y,-z
loop_
_atom_site_type_symbol
_atom_site_label
_atom_site_fract_x
_atom_site_fract_y
_atom_site_fract_z
Si Si1 0.319439 0.238218 0.799264
Si Si2 0.404179 0.882597 0.134782
Si Si3 0.829132 0.340358 0.437269
Si Si4 0.117337 0.739790 0.050061
Si Si5 0.499520 0.574026 0.453986
Si Si6 0.654310 0.848712 0.017149
Si Si7 0.869502 0.515960 0.446235
Si Si8 0.671832 0.181826 0.765499
O O1 0.469241 0.146072 0.752346
O O2 0.342580 0.230755 0.940798
O O3 0.321015 0.016000 0.522175
O O4 0.170219 0.544318 0.978917
O O5 0.299791 0.924755 0.203336
O O6 0.289089 0.160486 0.281682
O O7 0.497214 0.601576 0.823515
O O8 0.662280 0.468213 0.430969
O O9 0.905003 0.322254 0.358360
O O10 0.795289 0.563711 0.739259
O O11 0.937968 0.039442 0.242034
O O12 0.213365 0.808544 0.185904
O O13 0.157283 0.563548 0.774617
O O14 0.500000 0.500000 0.500000
O O15 0.357710 0.908977 0.712644
O O16 0.500000 0.000000 0.000000
O O17 0.000000 0.500000 0.500000
O O18 0.500000 0.500000 0.000000
#
# Coordination Sequence:
#
# PCOD9043096 Si02
#       8
#     2   2   2   2   2   2   2   2
#     4  12  25  44  68 103 140 179 237 291 348 419
#     4  12  21  39  68  99 138 181 232 292 352 411
#     4  11  24  45  68 100 140 185 234 288 353 411
#     4  12  26  44  69 102 145 184 231 284 355 424
#     4  11  22  42  71 103 133 182 238 293 348 413
#     4  10  23  45  68  96 133 174 234 292 338 412
#     4  12  24  43  71 104 143 183 233 290 351 420
#     4  12  23  42  65 101 141 184 232 285 350 416
#
# _framework density 22.283405999999999
#
# number of rings (size 3 to 8) (size 9 to 14) (size 15 to 20)
#    0.000    0.500    2.500    8.250    0.000    0.500 
#    0.000    0.625    0.000    0.000    0.000    0.000 
#    0.000    0.000    0.000    0.000    0.000    0.000 
#
# Total GULP energy -89531.669495 kJ/mol
# GULP energy per Si atom -5595.729343 kJ/mol
# Density = 2.223269 g / cm^3
# Si number density = 22.283406 Si / 1000 Ang^3
#
#
#
# Elastic Constant Matrix: (Units=GPa)
#
#
# Indices 1 2 3 4 5 6 
#
# 1 77.4577 20.9758 14.0923 -18.5580 17.5137 10.0393
# 2 20.9758 86.4550 39.7380 -0.8392 9.5509 32.4390
# 3 14.0923 39.7380 120.7926 -11.9137 25.0213 8.5058
# 4 -18.5580 -0.8392 -11.9137 48.9100 3.6534 5.5815
# 5 17.5137 9.5509 25.0213 3.6534 33.2796 -8.5484
# 6 10.0393 32.4390 8.5058 5.5815 -8.5484 43.8102
#
#
#
# Elastic Compliance Matrix: (Units=1/GPa)
#
#
# Indices 1 2 3 4 5 6 
#
# 1 0.019838 -0.001043 0.002926 0.010394 -0.015725 -0.008735
# 2 -0.001043 0.020065 -0.004000 0.001176 -0.006238 -0.015209
# 3 0.002926 -0.004000 0.012216 0.005156 -0.010877 -0.002860
# 4 0.010394 0.001176 0.005156 0.028067 -0.015556 -0.010864
# 5 -0.015725 -0.006238 -0.010877 -0.015556 0.055969 0.023237
# 6 -0.008735 -0.015209 -0.002860 -0.010864 0.023237 0.042562
#
#
# Mechanical properties :
#
#
# Convention : Reuss Voigt Hill
#
# Bulk Modulus (GPa) = 20.88285 48.25749 34.57017
# Shear Modulus (GPa) = 25.13653 39.19325 32.16489
#
# Velocity S-wave (km/s) = 3.36227 4.19842 3.80339
# Velocity P-wave (km/s) = 4.94621 6.72351 5.90214
#
# Compressibility (1/GPa) = 0.04788618
#
# Stress axis : x y z
#
# Youngs Moduli (GPa) = 50.40792 49.83705 81.85723
#
# Poissons Ratio (x) = 0.05196 -0.23953
# Poissons Ratio (y) = 0.05256 0.32746
# Poissons Ratio (z) = -0.14750 0.19937
#
# Static dielectric constant tensor:
#      x y z
#    x 1.838260 0.024070 0.025190 
#    y 0.024070 1.861980 0.022910 
#    z 0.025190 0.022910 1.836410 
# 
# From -- ./inp_files/456040.got.cif
#   From: 2010.05.17/outbox.cif.g08.bks.cpg/sg2_229_cif.got.tgz:456040.got - 2010.06.03 11:33:40.
