data_PCOD9043307
_publ_section_title
;
Structure prediction by ZEFSAII (Michael W. Deem and Ramdas Pophale) SiO2 
 PCOD9043307
Probable space group: P -1
;
_chemical_formula_sum "Si O2"
_cell_formula_units_Z 10
_cell_length_a 13.182963
_cell_length_b 5.094343
_cell_length_c 7.898141
_cell_angle_alpha 55.161443
_cell_angle_beta 61.445335
_cell_angle_gamma 67.330128
_cell_volume 377.727548
_symmetry_space_group_name_H-M "P -1"
_symmetry_group_IT_number 2
_symmetry_cell_setting 'triclinic'
loop_
_space_group_symop_operation_xyz
x,y,z
-x,-y,-z
loop_
_atom_site_type_symbol
_atom_site_label
_atom_site_fract_x
_atom_site_fract_y
_atom_site_fract_z
Si Si1 0.678409 0.567723 0.217926
Si Si2 0.116865 0.841430 0.616737
Si Si3 0.255029 0.750268 0.185874
Si Si4 0.973376 0.318665 0.786925
Si Si5 0.460055 0.372789 0.350870
O O1 0.796603 0.320581 0.245286
O O2 0.580381 0.513456 0.180253
O O3 0.611378 0.509288 0.466755
O O4 0.705928 0.927488 0.040713
O O5 0.187863 0.846369 0.382713
O O6 0.022333 0.605568 0.739542
O O7 0.053354 0.184411 0.609575
O O8 0.365320 0.478388 0.242676
O O9 0.161484 0.634430 0.177383
O O10 0.000000 0.000000 0.000000
O O11 0.500000 0.000000 0.500000
#
# Coordination Sequence:
#
# PCOD9043307 Si02
#       5
#     2   2   2   2   2
#     4  10  23  45  70 103 141 190 238 298 362 425
#     4  11  26  47  73 107 153 185 241 298 357 434
#     4  11  24  45  74 104 144 194 239 293 365 431
#     4  12  25  48  72 110 149 192 236 297 361 432
#     4  10  24  46  69 103 142 183 245 305 355 425
#
# _framework density 26.47411
#
# number of rings (size 3 to 8) (size 9 to 14) (size 15 to 20)
#    0.000    1.200    2.000    2.400    5.600    0.800 
#   10.800    0.000    0.000    0.000    0.000    0.000 
#    0.000    0.000    0.000    0.000    0.000    0.000 
#
# Total GULP energy -56072.646108 kJ/mol
# GULP energy per Si atom -5607.264611 kJ/mol
# Density = 2.641385 g / cm^3
# Si number density = 26.474110 Si / 1000 Ang^3
#
#
#
# Elastic Constant Matrix: (Units=GPa)
#
#
# Indices 1 2 3 4 5 6 
#
# 1 277.1561 89.3596 79.8536 -15.3771 -10.5343 -48.3195
# 2 89.3596 133.0787 10.8814 -17.7999 -6.7071 -14.2360
# 3 79.8536 10.8814 116.2758 -9.6023 -7.2885 13.4628
# 4 -15.3771 -17.7999 -9.6023 47.5744 18.9439 12.8342
# 5 -10.5343 -6.7071 -7.2885 18.9439 51.7107 -11.5008
# 6 -48.3195 -14.2360 13.4628 12.8342 -11.5008 49.2167
#
#
#
# Elastic Compliance Matrix: (Units=1/GPa)
#
#
# Indices 1 2 3 4 5 6 
#
# 1 0.009505 -0.004906 -0.007700 -0.005820 0.005182 0.012747
# 2 -0.004906 0.010652 0.003168 0.005005 -0.001977 -0.004369
# 3 -0.007700 0.003168 0.015530 0.007530 -0.004838 -0.013986
# 4 -0.005820 0.005005 0.007530 0.034108 -0.016197 -0.019005
# 5 0.005182 -0.001977 -0.004838 -0.016197 0.029142 0.016873
# 6 0.012747 -0.004369 -0.013986 -0.019005 0.016873 0.044294
#
#
# Mechanical properties :
#
#
# Convention : Reuss Voigt Hill
#
# Bulk Modulus (GPa) = 59.48897 98.52220 79.00558
# Shear Modulus (GPa) = 29.81302 52.79475 41.30388
#
# Velocity S-wave (km/s) = 3.35941 4.47049 3.95417
# Velocity P-wave (km/s) = 6.12919 7.99640 7.12423
#
# Compressibility (1/GPa) = 0.01680984
#
# Stress axis : x y z
#
# Youngs Moduli (GPa) = 105.20738 93.87663 64.39162
#
# Poissons Ratio (x) = 0.46060 0.49583
# Poissons Ratio (y) = 0.51619 -0.20399
# Poissons Ratio (z) = 0.81013 -0.29740
#
# Static dielectric constant tensor:
#      x y z
#    x 2.089870 -0.014170 0.037910 
#    y -0.014170 2.109020 0.102900 
#    z 0.037910 0.102900 2.154880 
# 
# From -- ./inp_files/19410.got.cif
#   From: 2010.05.17/outbox.cif.g08.bks.cpg/sg2_10_cif.got.tgz:19410.got - 2010.06.03 11:33:40.
