data_PCOD9043701
_publ_section_title
;
Structure prediction by ZEFSAII (Michael W. Deem and Ramdas Pophale) SiO2 
 PCOD9043701
Probable space group: P -1
;
_chemical_formula_sum "Si O2"
_cell_formula_units_Z 14
_cell_length_a 14.327588
_cell_length_b 11.734724
_cell_length_c 9.865673
_cell_angle_alpha 50.233681
_cell_angle_beta 117.126975
_cell_angle_gamma 148.638503
_cell_volume 646.447416
_symmetry_space_group_name_H-M "P -1"
_symmetry_group_IT_number 2
_symmetry_cell_setting 'triclinic'
loop_
_space_group_symop_operation_xyz
x,y,z
-x,-y,-z
loop_
_atom_site_type_symbol
_atom_site_label
_atom_site_fract_x
_atom_site_fract_y
_atom_site_fract_z
Si Si1 0.158089 0.347322 0.480096
Si Si2 0.714263 0.373691 0.144217
Si Si3 0.993825 0.667938 0.867335
Si Si4 0.581074 0.761193 0.858781
Si Si5 0.001186 0.836668 0.186722
Si Si6 0.705682 0.799748 0.418339
Si Si7 0.435617 0.131123 0.531832
O O1 0.074753 0.359206 0.304620
O O2 0.177408 0.212093 0.519793
O O3 0.364033 0.631526 0.446198
O O4 0.040477 0.202822 0.650416
O O5 0.539940 0.281226 0.086683
O O6 0.838094 0.559256 0.215285
O O7 0.650286 0.129628 0.301408
O O8 0.848052 0.550674 0.970894
O O9 0.196081 0.973151 0.793736
O O10 0.000000 0.500000 0.000000
O O11 0.547055 0.806808 0.660320
O O12 0.800241 0.003524 0.836188
O O13 0.500000 0.500000 0.000000
O O14 0.000000 0.000000 0.000000
O O15 0.500000 0.500000 0.500000
O O16 0.688855 0.882375 0.476995
#
# Coordination Sequence:
#
# PCOD9043701 Si02
#       7
#     2   2   2   2   2   2   2
#     4  11  25  46  78 104 152 197 252 308 371 452
#     4  12  27  48  74 109 158 188 250 312 376 451
#     4  12  26  48  74 114 151 196 252 311 379 446
#     4  12  26  45  77 107 149 194 249 313 372 443
#     4  12  25  48  78 112 143 194 257 306 376 450
#     4  10  23  45  74 103 145 196 245 305 370 441
#     4  11  24  49  71 111 147 195 251 310 377 440
#
# _framework density 21.656828000000001
#
# number of rings (size 3 to 8) (size 9 to 14) (size 15 to 20)
#    0.000    0.571    4.286    2.571    2.000    3.429 
#    5.143    0.000    0.000    0.000    0.000    0.000 
#    0.000    0.000    0.000    0.000    0.000    0.000 
#
# Total GULP energy -78239.481674 kJ/mol
# GULP energy per Si atom -5588.534405 kJ/mol
# Density = 2.160754 g / cm^3
# Si number density = 21.656828 Si / 1000 Ang^3
#
#
#
# Elastic Constant Matrix: (Units=GPa)
#
#
# Indices 1 2 3 4 5 6 
#
# 1 139.6901 68.8937 56.2292 -0.5072 -22.8985 18.4753
# 2 68.8937 131.9938 42.2302 -26.6165 13.5030 21.6115
# 3 56.2292 42.2302 135.5512 -13.9953 -6.0656 5.2245
# 4 -0.5072 -26.6165 -13.9953 39.1709 0.8104 3.2752
# 5 -22.8985 13.5030 -6.0656 0.8104 42.9080 -16.4304
# 6 18.4753 21.6115 5.2245 3.2752 -16.4304 34.4750
#
#
#
# Elastic Compliance Matrix: (Units=1/GPa)
#
#
# Indices 1 2 3 4 5 6 
#
# 1 0.015852 -0.011922 -0.003532 -0.010092 0.014781 0.007517
# 2 -0.011922 0.022947 -0.000617 0.017324 -0.021595 -0.019840
# 3 -0.003532 -0.000617 0.009296 0.002821 -0.000244 0.000486
# 4 -0.010092 0.017324 0.002821 0.040091 -0.018233 -0.018377
# 5 0.014781 -0.021595 -0.000244 -0.018233 0.050309 0.031362
# 6 0.007517 -0.019840 0.000486 -0.018377 0.031362 0.054035
#
#
# Mechanical properties :
#
#
# Convention : Reuss Voigt Hill
#
# Bulk Modulus (GPa) = 62.67829 82.43793 72.55811
# Shear Modulus (GPa) = 21.74005 39.30291 30.52148
#
# Velocity S-wave (km/s) = 3.17179 4.26467 3.75817
# Velocity P-wave (km/s) = 6.51291 7.89925 7.23934
#
# Compressibility (1/GPa) = 0.01595449
#
# Stress axis : x y z
#
# Youngs Moduli (GPa) = 63.08170 43.57854 107.57214
#
# Poissons Ratio (x) = 0.51955 0.37993
# Poissons Ratio (y) = 0.75207 0.06632
# Poissons Ratio (z) = 0.22280 0.02687
#
# Static dielectric constant tensor:
#      x y z
#    x 1.812480 0.026740 -0.032870 
#    y 0.026740 1.822090 -0.029340 
#    z -0.032870 -0.029340 1.733190 
# 
# From -- ./inp_files/306562.got.cif
#   From: 2010.05.17/outbox.cif.g08.bks.cpg/sg2_154_cif.got.tgz:306562.got - 2010.06.03 11:33:40.
