data_PCOD9043414
_publ_section_title
;
Structure prediction by ZEFSAII (Michael W. Deem and Ramdas Pophale) SiO2 
 PCOD9043414
Probable space group: P -1
;
_chemical_formula_sum "Si O2"
_cell_formula_units_Z 16
_cell_length_a 21.273144
_cell_length_b 13.787765
_cell_length_c 19.124594
_cell_angle_alpha 30.881432
_cell_angle_beta 159.313819
_cell_angle_gamma 161.901910
_cell_volume 590.454149
_symmetry_space_group_name_H-M "P -1"
_symmetry_group_IT_number 2
_symmetry_cell_setting 'triclinic'
loop_
_space_group_symop_operation_xyz
x,y,z
-x,-y,-z
loop_
_atom_site_type_symbol
_atom_site_label
_atom_site_fract_x
_atom_site_fract_y
_atom_site_fract_z
Si Si1 0.395203 0.949116 0.750022
Si Si2 0.557863 0.387956 0.049104
Si Si3 0.045541 0.743774 0.117599
Si Si4 0.475740 0.723846 0.445133
Si Si5 0.676995 0.267155 0.392527
Si Si6 0.580924 0.612390 0.282977
Si Si7 0.971529 0.025873 0.159910
Si Si8 0.904822 0.186491 0.349001
O O1 0.461081 0.780694 0.926994
O O2 0.356484 0.033469 0.727302
O O3 0.030405 0.617191 0.556310
O O4 0.617139 0.227902 0.748396
O O5 0.609012 0.316284 0.219133
O O6 0.807186 0.766182 0.085171
O O7 0.223722 0.173075 0.851337
O O8 0.985803 0.475790 0.241387
O O9 0.419818 0.087173 0.295383
O O10 0.785742 0.656535 0.936950
O O11 0.996008 0.741186 0.984609
O O12 0.348033 0.461663 0.529319
O O13 0.632443 0.010406 0.483660
O O14 0.713242 0.797241 0.607178
O O15 0.788120 0.675502 0.404067
O O16 0.734373 0.943221 0.257056
#
# Coordination Sequence:
#
# PCOD9043414 Si02
#       8
#     2   2   2   2   2   2   2   2
#     4  11  21  34  59  93 129 150 184 251 308 348
#     4   9  16  30  52  86 122 157 186 228 290 359
#     4  10  21  38  63  85 112 159 204 240 285 358
#     4  10  17  36  63  86 115 156 200 237 292 353
#     4  10  17  33  60  91 119 153 186 237 299 365
#     4  10  23  44  67  78 110 166 217 240 284 354
#     4   9  16  29  57  86 112 155 200 226 275 360
#     4  11  24  43  60  86 119 159 201 253 295 342
#
# _framework density 27.097784000000001
#
# number of rings (size 3 to 8) (size 9 to 14) (size 15 to 20)
#    0.000    2.000    3.750    1.125    0.000    1.000 
#    2.250    1.250    0.000    7.500    0.000    0.000 
#    0.000    0.000    0.000    0.000    0.000    0.000 
#
# Total GULP energy -89110.420487 kJ/mol
# GULP energy per Si atom -5569.401280 kJ/mol
# Density = 2.703611 g / cm^3
# Si number density = 27.097784 Si / 1000 Ang^3
#
#
#
# Elastic Constant Matrix: (Units=GPa)
#
#
# Indices 1 2 3 4 5 6 
#
# 1 94.0395 24.7051 43.5546 -6.2246 11.7869 -5.4908
# 2 24.7051 47.2133 9.3219 -1.5648 -7.9283 2.7651
# 3 43.5546 9.3219 68.8856 -4.4772 30.7727 -6.2325
# 4 -6.2246 -1.5648 -4.4772 35.6676 5.3716 3.1925
# 5 11.7869 -7.9283 30.7727 5.3716 35.8074 -8.5187
# 6 -5.4908 2.7651 -6.2325 3.1925 -8.5187 26.5079
#
#
#
# Elastic Compliance Matrix: (Units=1/GPa)
#
#
# Indices 1 2 3 4 5 6 
#
# 1 0.017303 -0.006511 -0.011069 0.000689 0.002866 0.002499
# 2 -0.006511 0.028068 -0.006088 -0.002654 0.013758 -0.000967
# 3 -0.011069 -0.006088 0.036275 0.007366 -0.030924 -0.003954
# 4 0.000689 -0.002654 0.007366 0.031493 -0.013275 -0.005907
# 5 0.002866 0.013758 -0.030924 -0.013275 0.061771 0.013337
# 6 0.002499 -0.000967 -0.003954 -0.005907 0.013337 0.042411
#
#
# Mechanical properties :
#
#
# Convention : Reuss Voigt Hill
#
# Bulk Modulus (GPa) = 29.14458 40.58908 34.86683
# Shear Modulus (GPa) = 18.10989 28.43369 23.27179
#
# Velocity S-wave (km/s) = 2.58799 3.24280 2.93372
# Velocity P-wave (km/s) = 4.43947 5.38816 4.93666
#
# Compressibility (1/GPa) = 0.03431170
#
# Stress axis : x y z
#
# Youngs Moduli (GPa) = 57.79309 35.62735 27.56748
#
# Poissons Ratio (x) = 0.23197 0.30514
# Poissons Ratio (y) = 0.37629 0.16782
# Poissons Ratio (z) = 0.63969 0.21688
#
# Static dielectric constant tensor:
#      x y z
#    x 2.280950 0.039430 0.066360 
#    y 0.039430 2.217040 0.018580 
#    z 0.066360 0.018580 2.246150 
# 
# From -- ./inp_files/614159.got.cif
#   From: 2010.05.17/outbox.cif.g08.bks.cpg/sg2_308_cif.got.tgz:614159.got - 2010.06.03 11:33:40.
