data_PCOD9043977
_publ_section_title
;
Structure prediction by ZEFSAII (Michael W. Deem and Ramdas Pophale) SiO2 
 PCOD9043977
Probable space group: P -1
;
_chemical_formula_sum "Si O2"
_cell_formula_units_Z 16
_cell_length_a 10.593636
_cell_length_b 12.073740
_cell_length_c 11.818689
_cell_angle_alpha 108.389248
_cell_angle_beta 137.283831
_cell_angle_gamma 105.710590
_cell_volume 608.086544
_symmetry_space_group_name_H-M "P -1"
_symmetry_group_IT_number 2
_symmetry_cell_setting 'triclinic'
loop_
_space_group_symop_operation_xyz
x,y,z
-x,-y,-z
loop_
_atom_site_type_symbol
_atom_site_label
_atom_site_fract_x
_atom_site_fract_y
_atom_site_fract_z
Si Si1 0.332776 0.239002 0.321008
Si Si2 0.398588 0.146761 0.094836
Si Si3 0.007895 0.454215 0.129598
Si Si4 0.100205 0.792652 0.849737
Si Si5 0.551335 0.894196 0.470525
Si Si6 0.854027 0.914891 0.497303
Si Si7 0.737671 0.533884 0.066707
Si Si8 0.689934 0.492035 0.284995
O O1 0.668034 0.442504 0.638095
O O2 0.098615 0.218101 0.205223
O O3 0.294068 0.104042 0.328374
O O4 0.355556 0.209128 0.196358
O O5 0.642709 0.334348 0.241045
O O6 0.402438 0.013605 0.094532
O O7 0.107912 0.996402 0.775927
O O8 0.863146 0.308440 0.090082
O O9 0.771140 0.320758 0.832254
O O10 0.001522 0.585627 0.206621
O O11 0.905258 0.659479 0.569906
O O12 0.733510 0.969538 0.499459
O O13 0.500000 0.000000 0.500000
O O14 0.567010 0.690503 0.226550
O O15 0.000000 0.000000 0.500000
O O16 0.639422 0.607026 0.967725
O O17 0.789811 0.562475 0.244580
#
# Coordination Sequence:
#
# PCOD9043977 Si02
#       8
#     2   2   2   2   2   2   2   2
#     4  12  25  45  68 103 141 186 234 283 362 421
#     4  12  24  41  74 103 134 181 241 283 347 426
#     4  11  25  44  68  99 145 179 235 293 350 420
#     4  12  24  45  68 102 140 183 232 289 345 426
#     4  11  25  44  69 104 145 184 234 301 351 415
#     4  11  22  43  71 100 143 182 238 290 342 427
#     4  10  23  46  68 102 139 184 238 290 349 417
#     4  11  23  43  74  98 134 190 230 284 357 414
#
# _framework density 26.312044
#
# number of rings (size 3 to 8) (size 9 to 14) (size 15 to 20)
#    0.000    0.750    5.000    2.625    1.750    1.500 
#    0.000    0.625    0.000    0.000    0.000    0.000 
#    0.000    0.000    0.000    0.000    0.000    0.000 
#
# Total GULP energy -89594.628040 kJ/mol
# GULP energy per Si atom -5599.664253 kJ/mol
# Density = 2.625216 g / cm^3
# Si number density = 26.312044 Si / 1000 Ang^3
#
#
#
# Elastic Constant Matrix: (Units=GPa)
#
#
# Indices 1 2 3 4 5 6 
#
# 1 113.7055 22.7053 7.2586 -10.1046 -15.9055 13.2296
# 2 22.7053 98.3201 -1.1361 -2.5134 -1.1374 4.2091
# 3 7.2586 -1.1361 87.8478 3.0733 -18.0223 18.0212
# 4 -10.1046 -2.5134 3.0733 50.4878 11.3666 -5.5137
# 5 -15.9055 -1.1374 -18.0223 11.3666 43.0299 -7.4325
# 6 13.2296 4.2091 18.0212 -5.5137 -7.4325 36.1773
#
#
#
# Elastic Compliance Matrix: (Units=1/GPa)
#
#
# Indices 1 2 3 4 5 6 
#
# 1 0.010036 -0.002135 0.000319 0.000885 0.003067 -0.002816
# 2 -0.002135 0.010696 0.000354 0.000120 -0.000516 -0.000728
# 3 0.000319 0.000354 0.013902 -0.002712 0.005569 -0.006352
# 4 0.000885 0.000120 -0.002712 0.021854 -0.006043 0.003103
# 5 0.003067 -0.000516 0.005569 -0.006043 0.028477 0.001094
# 6 -0.002816 -0.000728 -0.006352 0.003103 0.001094 0.032618
#
#
# Mechanical properties :
#
#
# Convention : Reuss Voigt Hill
#
# Bulk Modulus (GPa) = 31.53627 39.72544 35.63085
# Shear Modulus (GPa) = 38.14520 44.00871 41.07696
#
# Velocity S-wave (km/s) = 3.81165 4.09414 3.95542
# Velocity P-wave (km/s) = 5.60206 6.12208 5.86784
#
# Compressibility (1/GPa) = 0.03170953
#
# Stress axis : x y z
#
# Youngs Moduli (GPa) = 99.64250 93.49010 71.93181
#
# Poissons Ratio (x) = 0.19963 -0.02294
# Poissons Ratio (y) = 0.21277 -0.02547
# Poissons Ratio (z) = -0.03178 -0.03310
#
# Static dielectric constant tensor:
#      x y z
#    x 2.061130 0.053700 0.042460 
#    y 0.053700 2.234390 0.047430 
#    z 0.042460 0.047430 2.055270 
# 
# From -- ./inp_files/428486.got.cif
#   From: 2010.05.17/outbox.cif.g08.bks.cpg/sg2_215_cif.got.tgz:428486.got - 2010.06.03 11:33:40.
