data_PCOD9043856
_publ_section_title
;
Structure prediction by ZEFSAII (Michael W. Deem and Ramdas Pophale) SiO2 
 PCOD9043856
Probable space group: P -1
;
_chemical_formula_sum "Si O2"
_cell_formula_units_Z 10
_cell_length_a 5.478701
_cell_length_b 13.761851
_cell_length_c 9.202113
_cell_angle_alpha 143.862289
_cell_angle_beta 74.059822
_cell_angle_gamma 100.041609
_cell_volume 392.049199
_symmetry_space_group_name_H-M "P -1"
_symmetry_group_IT_number 2
_symmetry_cell_setting 'triclinic'
loop_
_space_group_symop_operation_xyz
x,y,z
-x,-y,-z
loop_
_atom_site_type_symbol
_atom_site_label
_atom_site_fract_x
_atom_site_fract_y
_atom_site_fract_z
Si Si1 0.680865 0.642931 0.107509
Si Si2 0.917072 0.407012 0.254556
Si Si3 0.131613 0.064390 0.701871
Si Si4 0.362326 0.336882 0.534745
Si Si5 0.099735 0.842658 0.704542
O O1 0.642771 0.820965 0.246793
O O2 0.750068 0.681099 0.306889
O O3 0.500000 0.500000 0.000000
O O4 0.888539 0.552569 0.858379
O O5 0.652246 0.480726 0.313602
O O6 0.000000 0.500000 0.500000
O O7 0.951047 0.206975 0.992102
O O8 0.183548 0.912476 0.618866
O O9 0.000000 0.000000 0.500000
O O10 0.648177 0.254727 0.388668
O O11 0.157040 0.249642 0.370358
O O12 0.000000 0.000000 0.000000
#
# Coordination Sequence:
#
# PCOD9043856 Si02
#       5
#     2   2   2   2   2
#     4  10  23  45  78 111 156 206 269 317 398 474
#     4  10  23  46  77 112 155 206 268 321 391 476
#     4  10  23  48  75 113 158 199 270 323 394 464
#     4  12  25  48  78 108 160 212 264 319 404 484
#     4  12  26  49  76 116 161 207 259 337 406 467
#
# _framework density 25.507003999999998
#
# number of rings (size 3 to 8) (size 9 to 14) (size 15 to 20)
#    1.200    0.000    2.000    3.600    0.000    2.400 
#    3.600    7.000    0.000    0.000    0.000    0.000 
#    0.000    0.000    0.000    0.000    0.000    0.000 
#
# Total GULP energy -55737.480324 kJ/mol
# GULP energy per Si atom -5573.748032 kJ/mol
# Density = 2.544895 g / cm^3
# Si number density = 25.507004 Si / 1000 Ang^3
#
#
#
# Elastic Constant Matrix: (Units=GPa)
#
#
# Indices 1 2 3 4 5 6 
#
# 1 133.0545 48.9331 49.1036 18.4266 -9.8649 -11.5034
# 2 48.9331 118.3234 -10.3349 14.5757 -14.7125 -4.7568
# 3 49.1036 -10.3349 132.6066 -14.7317 -4.3738 -15.9534
# 4 18.4266 14.5757 -14.7317 57.1881 10.2345 -4.4998
# 5 -9.8649 -14.7125 -4.3738 10.2345 32.3596 7.6994
# 6 -11.5034 -4.7568 -15.9534 -4.4998 7.6994 53.6230
#
#
#
# Elastic Compliance Matrix: (Units=1/GPa)
#
#
# Indices 1 2 3 4 5 6 
#
# 1 0.011865 -0.004536 -0.005174 -0.004414 0.002274 -0.000093
# 2 -0.004536 0.011319 0.002535 -0.001597 0.004614 -0.000011
# 3 -0.005174 0.002535 0.010400 0.004081 -0.000949 0.002688
# 4 -0.004414 -0.001597 0.004081 0.022307 -0.009370 0.003343
# 5 0.002274 0.004614 -0.000949 -0.009370 0.037863 -0.005608
# 6 -0.000093 -0.000011 0.002688 0.003343 -0.005608 0.020513
#
#
# Mechanical properties :
#
#
# Convention : Reuss Voigt Hill
#
# Bulk Modulus (GPa) = 51.98929 62.15424 57.07176
# Shear Modulus (GPa) = 37.02959 48.38631 42.70795
#
# Velocity S-wave (km/s) = 3.81431 4.36016 4.09634
# Velocity P-wave (km/s) = 6.31072 7.05467 6.69304
#
# Compressibility (1/GPa) = 0.01923473
#
# Stress axis : x y z
#
# Youngs Moduli (GPa) = 84.28113 88.34969 96.15448
#
# Poissons Ratio (x) = 0.40076 0.49747
# Poissons Ratio (y) = 0.38230 -0.24378
# Poissons Ratio (z) = 0.43604 -0.22399
#
# Static dielectric constant tensor:
#      x y z
#    x 2.116390 0.044720 0.046890 
#    y 0.044720 2.214270 0.121430 
#    z 0.046890 0.121430 2.278540 
# 
# From -- ./inp_files/59632.got.cif
#   From: 2010.05.17/outbox.cif.g08.bks.cpg/sg2_30_cif.got.tgz:59632.got - 2010.06.03 11:33:40.
