data_PCOD9043578
_publ_section_title
;
Structure prediction by ZEFSAII (Michael W. Deem and Ramdas Pophale) SiO2 
 PCOD9043578
Probable space group: P -1
;
_chemical_formula_sum "Si O2"
_cell_formula_units_Z 14
_cell_length_a 8.740070
_cell_length_b 7.653364
_cell_length_c 11.120568
_cell_angle_alpha 97.699483
_cell_angle_beta 97.353593
_cell_angle_gamma 128.259662
_cell_volume 557.149432
_symmetry_space_group_name_H-M "P -1"
_symmetry_group_IT_number 2
_symmetry_cell_setting 'triclinic'
loop_
_space_group_symop_operation_xyz
x,y,z
-x,-y,-z
loop_
_atom_site_type_symbol
_atom_site_label
_atom_site_fract_x
_atom_site_fract_y
_atom_site_fract_z
Si Si1 0.768238 0.864055 0.505008
Si Si2 0.729924 0.475948 0.353394
Si Si3 0.463516 0.031730 0.674573
Si Si4 0.542747 0.646892 0.900259
Si Si5 0.149610 0.210905 0.254878
Si Si6 0.081463 0.541360 0.288447
Si Si7 0.769834 0.064682 0.114575
O O1 0.672105 0.608522 0.429701
O O2 0.783117 0.882387 0.651684
O O3 0.000000 0.000000 0.500000
O O4 0.650700 0.929301 0.429745
O O5 0.616430 0.224747 0.373975
O O6 0.961676 0.584218 0.367477
O O7 0.349377 0.545704 0.791487
O O8 0.379311 0.023201 0.796407
O O9 0.704130 0.229869 0.711485
O O10 0.696729 0.662193 0.827623
O O11 0.500000 0.500000 0.000000
O O12 0.647500 0.908907 0.973742
O O13 0.129650 0.384875 0.337182
O O14 0.926166 0.022344 0.160800
O O15 0.919466 0.345685 0.154394
#
# Coordination Sequence:
#
# PCOD9043578 Si02
#       7
#     2   2   2   2   2   2   2
#     4  12  24  47  79 105 155 197 238 305 373 438
#     4  11  27  47  73 115 145 191 252 303 361 451
#     4  11  23  49  76 111 152 193 241 303 377 434
#     4  12  25  46  76 105 149 196 248 311 369 429
#     4  10  23  45  72 108 143 194 250 295 365 445
#     4   9  22  44  69 105 149 190 241 297 368 431
#     4   9  21  45  70 104 146 187 249 301 352 445
#
# _framework density 25.127908000000001
#
# number of rings (size 3 to 8) (size 9 to 14) (size 15 to 20)
#    0.857    0.571    1.429    3.000    0.000    8.000 
#    2.571    4.286    0.000    0.000    0.000    0.000 
#    0.000    0.000    0.000    0.000    0.000    0.000 
#
# Total GULP energy -78344.747237 kJ/mol
# GULP energy per Si atom -5596.053374 kJ/mol
# Density = 2.507072 g / cm^3
# Si number density = 25.127908 Si / 1000 Ang^3
#
#
#
# Elastic Constant Matrix: (Units=GPa)
#
#
# Indices 1 2 3 4 5 6 
#
# 1 125.8502 39.7712 35.2709 -29.1511 -15.7944 13.9252
# 2 39.7712 103.1406 14.8631 -17.4760 -5.4987 15.2196
# 3 35.2709 14.8631 88.5966 -13.8243 7.0865 2.3255
# 4 -29.1511 -17.4760 -13.8243 33.0324 0.0713 -3.9019
# 5 -15.7944 -5.4987 7.0865 0.0713 25.4082 -6.8220
# 6 13.9252 15.2196 2.3255 -3.9019 -6.8220 60.6298
#
#
#
# Elastic Compliance Matrix: (Units=1/GPa)
#
#
# Indices 1 2 3 4 5 6 
#
# 1 0.012923 -0.002431 -0.004098 0.008301 0.008434 -0.000718
# 2 -0.002431 0.011634 -0.000414 0.003593 0.000561 -0.002052
# 3 -0.004098 -0.000414 0.013816 0.001950 -0.006521 -0.000093
# 4 0.008301 0.003593 0.001950 0.040342 0.005366 0.000317
# 5 0.008434 0.000561 -0.006521 0.005366 0.047564 0.003869
# 6 -0.000718 -0.002052 -0.000093 0.000317 0.003869 0.017633
#
#
# Mechanical properties :
#
#
# Convention : Reuss Voigt Hill
#
# Bulk Modulus (GPa) = 40.83656 55.26640 48.05148
# Shear Modulus (GPa) = 30.12774 38.99289 34.56031
#
# Velocity S-wave (km/s) = 3.46638 3.94353 3.71263
# Velocity P-wave (km/s) = 5.68399 6.54042 6.12719
#
# Compressibility (1/GPa) = 0.02448786
#
# Stress axis : x y z
#
# Youngs Moduli (GPa) = 77.38041 85.95502 72.37897
#
# Poissons Ratio (x) = 0.20893 0.29658
# Poissons Ratio (y) = 0.18809 0.03000
# Poissons Ratio (z) = 0.31707 0.03563
#
# Static dielectric constant tensor:
#      x y z
#    x 1.999570 0.018960 -0.003470 
#    y 0.018960 2.075650 0.085020 
#    z -0.003470 0.085020 2.004560 
# 
# From -- ./inp_files/417578.got.cif
#   From: 2010.05.17/outbox.cif.g08.bks.cpg/sg2_209_cif.got.tgz:417578.got - 2010.06.03 11:33:40.
