data_PCOD9043684
_publ_section_title
;
Structure prediction by ZEFSAII (Michael W. Deem and Ramdas Pophale) SiO2 
 PCOD9043684
Probable space group: P -1
;
_chemical_formula_sum "Si O2"
_cell_formula_units_Z 12
_cell_length_a 10.782986
_cell_length_b 8.071977
_cell_length_c 10.099682
_cell_angle_alpha 125.325661
_cell_angle_beta 125.317763
_cell_angle_gamma 44.131482
_cell_volume 478.382689
_symmetry_space_group_name_H-M "P -1"
_symmetry_group_IT_number 2
_symmetry_cell_setting 'triclinic'
loop_
_space_group_symop_operation_xyz
x,y,z
-x,-y,-z
loop_
_atom_site_type_symbol
_atom_site_label
_atom_site_fract_x
_atom_site_fract_y
_atom_site_fract_z
Si Si1 0.471215 0.454254 0.310694
Si Si2 0.786980 0.341686 0.132276
Si Si3 0.820866 0.998152 0.368480
Si Si4 0.137889 0.202191 0.414223
Si Si5 0.585088 0.177977 0.772753
Si Si6 0.177484 0.411905 0.983653
O O1 0.500000 0.500000 0.500000
O O2 0.399475 0.681254 0.275924
O O3 0.682156 0.242993 0.310988
O O4 0.343332 0.357558 0.157984
O O5 0.632626 0.619669 0.227347
O O6 0.842736 0.400955 0.054186
O O7 0.979796 0.169997 0.248167
O O8 0.689631 0.202613 0.972445
O O9 0.778026 0.950357 0.468640
O O10 0.806098 0.804756 0.188685
O O11 0.000000 0.000000 0.500000
O O12 0.000000 0.500000 0.500000
O O13 0.297321 0.100255 0.349114
O O14 0.000000 0.500000 0.000000
#
# Coordination Sequence:
#
# PCOD9043684 Si02
#       6
#     2   2   2   2   2   2
#     4  11  22  45  73 105 141 189 241 298 363 426
#     4  10  23  46  69 107 137 189 244 295 371 422
#     4  12  25  45  71 105 145 192 243 293 365 436
#     4  12  24  45  70 105 143 185 238 296 366 433
#     4  10  23  45  74 100 144 187 240 303 358 441
#     4  11  25  46  69 105 146 188 245 302 359 436
#
# _framework density 25.084517000000002
#
# number of rings (size 3 to 8) (size 9 to 14) (size 15 to 20)
#    0.000    1.000    3.333    3.000    2.333    0.667 
#   12.000    0.000    0.000    0.000    0.000    0.000 
#    0.000    0.000    0.000    0.000    0.000    0.000 
#
# Total GULP energy -66921.233244 kJ/mol
# GULP energy per Si atom -5576.769437 kJ/mol
# Density = 2.502742 g / cm^3
# Si number density = 25.084517 Si / 1000 Ang^3
#
#
#
# Elastic Constant Matrix: (Units=GPa)
#
#
# Indices 1 2 3 4 5 6 
#
# 1 80.8789 6.2265 38.3560 11.3057 5.2941 -30.4295
# 2 6.2265 79.3573 37.8119 1.6251 -0.3231 -21.4244
# 3 38.3560 37.8119 175.8154 -6.9001 9.3655 -18.7640
# 4 11.3057 1.6251 -6.9001 26.7232 -16.1162 6.2828
# 5 5.2941 -0.3231 9.3655 -16.1162 54.4529 -0.1391
# 6 -30.4295 -21.4244 -18.7640 6.2828 -0.1391 40.5752
#
#
#
# Elastic Compliance Matrix: (Units=1/GPa)
#
#
# Indices 1 2 3 4 5 6 
#
# 1 0.029362 0.008515 -0.005791 -0.026849 -0.009683 0.027963
# 2 0.008515 0.018570 -0.004429 -0.011650 -0.003363 0.015936
# 3 -0.005791 -0.004429 0.007655 0.006313 0.001078 -0.004115
# 4 -0.026849 -0.011650 0.006313 0.073134 0.023012 -0.034613
# 5 -0.009683 -0.003363 0.001078 0.023012 0.025881 -0.012014
# 6 0.027963 0.015936 -0.004115 -0.034613 -0.012014 0.057446
#
#
# Mechanical properties :
#
#
# Convention : Reuss Voigt Hill
#
# Bulk Modulus (GPa) = 19.16495 55.64892 37.40694
# Shear Modulus (GPa) = 21.47302 41.26074 31.36688
#
# Velocity S-wave (km/s) = 2.92897 4.06010 3.54000
# Velocity P-wave (km/s) = 4.36981 6.64921 5.62615
#
# Compressibility (1/GPa) = 0.05217858
#
# Stress axis : x y z
#
# Youngs Moduli (GPa) = 34.05719 53.84903 130.63883
#
# Poissons Ratio (x) = -0.45852 0.75647
# Poissons Ratio (y) = -0.28999 0.57857
# Poissons Ratio (z) = 0.19721 0.23849
#
# Static dielectric constant tensor:
#      x y z
#    x 2.034290 -0.094490 -0.054210 
#    y -0.094490 2.074400 0.092960 
#    z -0.054210 0.092960 1.973530 
# 
# From -- ./inp_files/28766.got.cif
#   From: 2010.05.17/outbox.cif.g08.bks.cpg/sg2_15_cif.got.tgz:28766.got - 2010.06.03 11:33:40.
