data_PCOD9043847
_publ_section_title
;
Structure prediction by ZEFSAII (Michael W. Deem and Ramdas Pophale) SiO2 
 PCOD9043847
Probable space group: P -1
;
_chemical_formula_sum "Si O2"
_cell_formula_units_Z 12
_cell_length_a 11.491522
_cell_length_b 8.428039
_cell_length_c 17.538543
_cell_angle_alpha 125.737864
_cell_angle_beta 156.848970
_cell_angle_gamma 52.009599
_cell_volume 525.421884
_symmetry_space_group_name_H-M "P -1"
_symmetry_group_IT_number 2
_symmetry_cell_setting 'triclinic'
loop_
_space_group_symop_operation_xyz
x,y,z
-x,-y,-z
loop_
_atom_site_type_symbol
_atom_site_label
_atom_site_fract_x
_atom_site_fract_y
_atom_site_fract_z
Si Si1 0.242599 0.588228 0.478264
Si Si2 0.364073 0.938611 0.706531
Si Si3 0.765926 0.516517 0.292543
Si Si4 0.637931 0.174118 0.538726
Si Si5 0.661020 0.104138 0.798287
Si Si6 0.713999 0.074856 0.090800
O O1 0.436626 0.696485 0.682878
O O2 0.418274 0.361935 0.501847
O O3 0.241905 0.713428 0.432835
O O4 0.930307 0.590065 0.337644
O O5 0.447749 0.011958 0.697638
O O6 0.000000 0.000000 0.500000
O O7 0.555674 0.037356 0.906838
O O8 0.456642 0.662423 0.183036
O O9 0.716177 0.302530 0.176916
O O10 0.000000 0.500000 0.500000
O O11 0.439382 0.001573 0.366100
O O12 0.948176 0.064598 0.736392
O O13 0.000000 0.000000 0.000000
O O14 0.500000 0.000000 0.000000
#
# Coordination Sequence:
#
# PCOD9043847 Si02
#       6
#     2   2   2   2   2   2
#     4  10  23  45  77  96 145 189 239 293 359 429
#     4  11  23  45  70 100 141 189 231 295 354 425
#     4  12  25  45  75 107 140 193 243 296 353 437
#     4  10  24  47  70 105 142 190 237 302 355 427
#     4  11  25  43  71 106 148 182 239 297 359 422
#     4  12  26  42  73 103 142 186 241 295 362 420
#
# _framework density 22.838792999999999
#
# number of rings (size 3 to 8) (size 9 to 14) (size 15 to 20)
#    0.000    1.000    3.333    3.000    2.333    8.667 
#    0.000    0.000    0.000    0.000    0.000    0.000 
#    0.000    0.000    0.000    0.000    0.000    0.000 
#
# Total GULP energy -66809.238703 kJ/mol
# GULP energy per Si atom -5567.436559 kJ/mol
# Density = 2.278681 g / cm^3
# Si number density = 22.838793 Si / 1000 Ang^3
#
#
#
# Elastic Constant Matrix: (Units=GPa)
#
#
# Indices 1 2 3 4 5 6 
#
# 1 45.8388 41.1514 8.0335 2.6888 2.7440 -12.9928
# 2 41.1514 167.9796 71.3835 13.6783 -15.0098 -29.6601
# 3 8.0335 71.3835 137.3230 -3.3682 -9.5243 -20.4835
# 4 2.6888 13.6783 -3.3682 57.3012 -7.4084 9.1021
# 5 2.7440 -15.0098 -9.5243 -7.4084 22.9402 1.6200
# 6 -12.9928 -29.6601 -20.4835 9.1021 1.6200 34.6084
#
#
#
# Elastic Compliance Matrix: (Units=1/GPa)
#
#
# Indices 1 2 3 4 5 6 
#
# 1 0.031492 -0.008349 0.002909 -0.001636 -0.009062 0.007244
# 2 -0.008349 0.011360 -0.004447 -0.002575 0.005443 0.004392
# 3 0.002909 -0.004447 0.009945 0.001202 0.001061 0.002801
# 4 -0.001636 -0.002575 0.001202 0.020226 0.006086 -0.007714
# 5 -0.009062 0.005443 0.001061 0.006086 0.050790 -0.002087
# 6 0.007244 0.004392 0.002801 -0.007714 -0.002087 0.039162
#
#
# Mechanical properties :
#
#
# Convention : Reuss Voigt Hill
#
# Bulk Modulus (GPa) = 30.28112 65.80870 48.04491
# Shear Modulus (GPa) = 25.80561 38.34151 32.07356
#
# Velocity S-wave (km/s) = 3.36505 4.10175 3.75153
# Velocity P-wave (km/s) = 5.32780 7.16306 6.31248
#
# Compressibility (1/GPa) = 0.03302388
#
# Stress axis : x y z
#
# Youngs Moduli (GPa) = 31.75365 88.03076 100.55774
#
# Poissons Ratio (x) = 0.73494 -0.29257
# Poissons Ratio (y) = 0.26510 0.44720
# Poissons Ratio (z) = -0.09239 0.39149
#
# Static dielectric constant tensor:
#      x y z
#    x 1.818700 0.002990 0.072150 
#    y 0.002990 1.946930 -0.029670 
#    z 0.072150 -0.029670 1.687560 
# 
# From -- ./inp_files/156565.got.cif
#   From: 2010.05.17/outbox.cif.g08.bks.cpg/sg2_79_cif.got.tgz:156565.got - 2010.06.03 11:33:40.
