data_PCOD9043347
_publ_section_title
;
Structure prediction by ZEFSAII (Michael W. Deem and Ramdas Pophale) SiO2 
 PCOD9043347
Probable space group: P -1
;
_chemical_formula_sum "Si O2"
_cell_formula_units_Z 16
_cell_length_a 11.588704
_cell_length_b 22.105863
_cell_length_c 18.017995
_cell_angle_alpha 16.773775
_cell_angle_beta 150.192074
_cell_angle_gamma 142.442876
_cell_volume 638.483643
_symmetry_space_group_name_H-M "P -1"
_symmetry_group_IT_number 2
_symmetry_cell_setting 'triclinic'
loop_
_space_group_symop_operation_xyz
x,y,z
-x,-y,-z
loop_
_atom_site_type_symbol
_atom_site_label
_atom_site_fract_x
_atom_site_fract_y
_atom_site_fract_z
Si Si1 0.855317 0.823835 0.765284
Si Si2 0.536402 0.747570 0.795717
Si Si3 0.633282 0.273487 0.877786
Si Si4 0.267647 0.092030 0.816933
Si Si5 0.343031 0.701074 0.971364
Si Si6 0.874340 0.679098 0.280088
Si Si7 0.904349 0.109704 0.713063
Si Si8 0.195705 0.550477 0.928500
O O1 0.783446 0.715691 0.926551
O O2 0.724704 0.068695 0.380449
O O3 0.803175 0.671567 0.849844
O O4 0.132771 0.823522 0.927257
O O5 0.438596 0.621370 0.954404
O O6 0.336919 0.739735 0.632577
O O7 0.500000 0.000000 0.500000
O O8 0.500000 0.500000 0.500000
O O9 0.425261 0.153707 0.899678
O O10 0.735842 0.277396 0.012765
O O11 0.085961 0.001378 0.874378
O O12 0.059885 0.281603 0.436863
O O13 0.500000 0.000000 0.000000
O O14 0.228447 0.546639 0.039364
O O15 0.629222 0.621425 0.230929
O O16 0.005130 0.736753 0.358918
O O17 0.000000 0.500000 0.500000
O O18 0.829195 0.912708 0.940933
#
# Coordination Sequence:
#
# PCOD9043347 Si02
#       8
#     2   2   2   2   2   2   2   2
#     4  12  25  47  78 105 151 196 245 303 369 443
#     4  11  22  45  73 107 150 192 243 303 364 441
#     4  12  27  52  72 105 146 193 249 306 368 449
#     4  11  24  47  73 104 151 196 243 301 368 441
#     4  12  26  50  72 110 151 189 249 308 374 437
#     4  11  24  44  72 107 149 192 242 307 375 434
#     4  10  23  45  70 107 146 191 248 300 367 440
#     4  11  25  46  76 114 140 193 252 300 368 444
#
# _framework density 25.059373000000001
#
# number of rings (size 3 to 8) (size 9 to 14) (size 15 to 20)
#    0.000    0.750    5.000    1.500    3.500    1.500 
#    9.000    0.000    0.000    0.000    0.000    0.000 
#    0.000    0.000    0.000    0.000    0.000    0.000 
#
# Total GULP energy -89283.857847 kJ/mol
# GULP energy per Si atom -5580.241115 kJ/mol
# Density = 2.500234 g / cm^3
# Si number density = 25.059373 Si / 1000 Ang^3
#
#
#
# Elastic Constant Matrix: (Units=GPa)
#
#
# Indices 1 2 3 4 5 6 
#
# 1 116.3452 11.7011 5.7996 14.8514 20.9501 13.7922
# 2 11.7011 108.3024 -4.4274 6.3160 11.6285 -6.6610
# 3 5.7996 -4.4274 44.6168 -2.3183 12.6986 -4.5800
# 4 14.8514 6.3160 -2.3183 38.6564 0.4720 6.4765
# 5 20.9501 11.6285 12.6986 0.4720 37.7516 8.9968
# 6 13.7922 -6.6610 -4.5800 6.4765 8.9968 51.0071
#
#
#
# Elastic Compliance Matrix: (Units=1/GPa)
#
#
# Indices 1 2 3 4 5 6 
#
# 1 0.010189 -0.000460 -0.000281 -0.003543 -0.005015 -0.001506
# 2 -0.000460 0.010108 0.002468 -0.001717 -0.004296 0.002642
# 3 -0.000281 0.002468 0.026179 0.000646 -0.010494 0.004518
# 4 -0.003543 -0.001717 0.000646 0.028060 0.002701 -0.003248
# 5 -0.005015 -0.004296 -0.010494 0.002701 0.035710 -0.006789
# 6 -0.001506 0.002642 0.004518 -0.003248 -0.006789 0.022373
#
#
# Mechanical properties :
#
#
# Convention : Reuss Voigt Hill
#
# Bulk Modulus (GPa) = 20.02875 32.82343 26.42609
# Shear Modulus (GPa) = 34.29145 42.56242 38.42694
#
# Velocity S-wave (km/s) = 3.70321 4.12571 3.92016
# Velocity P-wave (km/s) = 5.12786 5.98515 5.57301
#
# Compressibility (1/GPa) = 0.04992823
#
# Stress axis : x y z
#
# Youngs Moduli (GPa) = 98.14321 98.93263 38.19891
#
# Poissons Ratio (x) = 0.04550 0.01075
# Poissons Ratio (y) = 0.04514 -0.09426
# Poissons Ratio (z) = 0.02762 -0.24413
#
# Static dielectric constant tensor:
#      x y z
#    x 1.985700 -0.015440 -0.044480 
#    y -0.015440 1.671240 0.360730 
#    z -0.044480 0.360730 1.493570 
# 
# From -- ./inp_files/570708.got.cif
#   From: 2010.05.17/outbox.cif.g08.bks.cpg/sg2_286_cif.got.tgz:570708.got - 2010.06.03 11:33:40.
