data_PCOD9043604
_publ_section_title
;
Structure prediction by ZEFSAII (Michael W. Deem and Ramdas Pophale) SiO2 
 PCOD9043604
Probable space group: P -1
;
_chemical_formula_sum "Si O2"
_cell_formula_units_Z 12
_cell_length_a 20.167382
_cell_length_b 16.871843
_cell_length_c 6.164800
_cell_angle_alpha 48.767883
_cell_angle_beta 46.617916
_cell_angle_gamma 20.064063
_cell_volume 522.208247
_symmetry_space_group_name_H-M "P -1"
_symmetry_group_IT_number 2
_symmetry_cell_setting 'triclinic'
loop_
_space_group_symop_operation_xyz
x,y,z
-x,-y,-z
loop_
_atom_site_type_symbol
_atom_site_label
_atom_site_fract_x
_atom_site_fract_y
_atom_site_fract_z
Si Si1 0.166582 0.672070 0.214532
Si Si2 0.426939 0.679404 0.962691
Si Si3 0.923378 0.652438 0.199932
Si Si4 0.705084 0.814385 0.002029
Si Si5 0.871215 0.849924 0.331239
Si Si6 0.865493 0.091171 0.444099
O O1 0.090894 0.654274 0.270779
O O2 0.388032 0.431074 0.242134
O O3 0.180237 0.765334 0.873235
O O4 0.003733 0.864644 0.418171
O O5 0.331845 0.750008 0.282237
O O6 0.500000 0.500000 0.000000
O O7 0.253174 0.915059 0.794083
O O8 0.868934 0.815443 0.149405
O O9 0.000000 0.500000 0.500000
O O10 0.122031 0.448376 0.973636
O O11 0.737861 0.796944 0.218226
O O12 0.776828 0.853860 0.676094
O O13 0.500000 0.000000 0.000000
O O14 0.000000 0.000000 0.500000
#
# Coordination Sequence:
#
# PCOD9043604 Si02
#       6
#     2   2   2   2   2   2
#     4  11  24  41  65  94 135 184 232 289 341 406
#     4  12  24  43  66  98 138 192 232 279 350 404
#     4   9  22  45  68  94 136 171 217 290 352 409
#     4  10  23  45  73 100 132 176 227 286 357 424
#     4  11  25  41  64 103 134 173 234 282 347 420
#     4  11  21  44  65  87 138 183 236 292 336 396
#
# _framework density 22.979337999999998
#
# number of rings (size 3 to 8) (size 9 to 14) (size 15 to 20)
#    0.000    1.333    3.333    1.500    2.333    8.000 
#    3.000    0.000    0.000    0.000    0.000    0.000 
#    0.000    0.000    0.000    0.000    0.000    0.000 
#
# Total GULP energy -67054.800315 kJ/mol
# GULP energy per Si atom -5587.900026 kJ/mol
# Density = 2.292704 g / cm^3
# Si number density = 22.979338 Si / 1000 Ang^3
#
#
#
# Elastic Constant Matrix: (Units=GPa)
#
#
# Indices 1 2 3 4 5 6 
#
# 1 153.1821 46.6123 14.8899 11.9955 19.3162 -31.9093
# 2 46.6123 89.4607 20.3338 10.0020 3.0340 -15.6168
# 3 14.8899 20.3338 87.4778 6.5925 0.8711 1.3769
# 4 11.9955 10.0020 6.5925 35.6805 -2.0289 -0.2192
# 5 19.3162 3.0340 0.8711 -2.0289 38.6223 0.6772
# 6 -31.9093 -15.6168 1.3769 -0.2192 0.6772 54.7115
#
#
#
# Elastic Compliance Matrix: (Units=1/GPa)
#
#
# Indices 1 2 3 4 5 6 
#
# 1 0.009363 -0.003538 -0.000625 -0.002273 -0.004589 0.004514
# 2 -0.003538 0.014195 -0.002564 -0.002272 0.000557 0.002037
# 3 -0.000625 -0.002564 0.012255 -0.001333 0.000192 -0.001413
# 4 -0.002273 -0.002272 -0.001333 0.029830 0.002945 -0.001858
# 5 -0.004589 0.000557 0.000192 0.002945 0.028344 -0.002861
# 6 0.004514 0.002037 -0.001413 -0.001858 -0.002861 0.021555
#
#
# Mechanical properties :
#
#
# Convention : Reuss Voigt Hill
#
# Bulk Modulus (GPa) = 44.72719 54.86585 49.79652
# Shear Modulus (GPa) = 36.64387 42.35515 39.49951
#
# Velocity S-wave (km/s) = 3.99763 4.29789 4.15048
# Velocity P-wave (km/s) = 6.38862 6.96830 6.68474
#
# Compressibility (1/GPa) = 0.02235777
#
# Stress axis : x y z
#
# Youngs Moduli (GPa) = 106.80698 70.44708 81.60209
#
# Poissons Ratio (x) = 0.24927 0.05102
# Poissons Ratio (y) = 0.37792 0.20920
# Poissons Ratio (z) = 0.06677 0.18061
#
# Static dielectric constant tensor:
#      x y z
#    x 1.909850 0.014660 0.033880 
#    y 0.014660 1.880670 -0.002610 
#    z 0.033880 -0.002610 1.907780 
# 
# From -- ./inp_files/96788.got.cif
#   From: 2010.05.17/outbox.cif.g08.bks.cpg/sg2_49_cif.got.tgz:96788.got - 2010.06.03 11:33:40.
