data_PCOD9043805
_publ_section_title
;
Structure prediction by ZEFSAII (Michael W. Deem and Ramdas Pophale) SiO2 
 PCOD9043805
Probable space group: P -1
;
_chemical_formula_sum "Si O2"
_cell_formula_units_Z 16
_cell_length_a 9.232992
_cell_length_b 5.735069
_cell_length_c 15.830992
_cell_angle_alpha 84.778997
_cell_angle_beta 83.872283
_cell_angle_gamma 127.346938
_cell_volume 649.614593
_symmetry_space_group_name_H-M "P -1"
_symmetry_group_IT_number 2
_symmetry_cell_setting 'triclinic'
loop_
_space_group_symop_operation_xyz
x,y,z
-x,-y,-z
loop_
_atom_site_type_symbol
_atom_site_label
_atom_site_fract_x
_atom_site_fract_y
_atom_site_fract_z
Si Si1 0.805490 0.846177 0.119443
Si Si2 0.521417 0.016059 0.705950
Si Si3 0.849997 0.543891 0.985130
Si Si4 0.435885 0.711789 0.130523
Si Si5 0.774910 0.877373 0.733256
Si Si6 0.068840 0.013817 0.588458
Si Si7 0.161372 0.393551 0.716355
Si Si8 0.551646 0.812355 0.453574
O O1 0.652369 0.875116 0.095606
O O2 0.780444 0.766875 0.222222
O O3 0.775568 0.584609 0.074205
O O4 0.016548 0.134365 0.081018
O O5 0.571731 0.128428 0.794037
O O6 0.544105 0.243936 0.629680
O O7 0.645642 0.911716 0.682263
O O8 0.304654 0.732641 0.722177
O O9 0.683315 0.321626 0.939617
O O10 0.000000 0.500000 0.000000
O O11 0.346410 0.379436 0.182242
O O12 0.895627 0.816755 0.670379
O O13 0.941278 0.203072 0.751819
O O14 0.171581 0.333126 0.619681
O O15 0.223493 0.970134 0.575665
O O16 0.000000 0.000000 0.500000
O O17 0.500000 0.500000 0.500000
O O18 0.500000 0.000000 0.500000
#
# Coordination Sequence:
#
# PCOD9043805 Si02
#       8
#     2   2   2   2   2   2   2   2
#     4  11  24  47  74 103 152 192 250 317 382 465
#     4  12  27  45  79 110 149 202 257 321 387 471
#     4  11  27  45  73 110 150 196 247 315 390 465
#     4  12  26  45  77 109 149 196 258 311 389 468
#     4  10  25  47  76 109 150 195 265 310 391 461
#     4  10  23  45  76 106 152 198 258 315 383 456
#     4  10  23  47  76 107 153 198 255 317 393 450
#     4  12  28  49  76 111 159 205 264 329 401 466
#
# _framework density 24.629989999999999
#
# number of rings (size 3 to 8) (size 9 to 14) (size 15 to 20)
#    0.750    0.250    2.500    2.625    7.000    1.500 
#    0.000    1.875    0.000    0.000    0.000    0.000 
#    0.000    0.000    0.000    0.000    0.000    0.000 
#
# Total GULP energy -89432.951651 kJ/mol
# GULP energy per Si atom -5589.559478 kJ/mol
# Density = 2.457393 g / cm^3
# Si number density = 24.629990 Si / 1000 Ang^3
#
#
#
# Elastic Constant Matrix: (Units=GPa)
#
#
# Indices 1 2 3 4 5 6 
#
# 1 151.0864 26.3846 52.8943 7.4301 5.1046 10.5980
# 2 26.3846 104.8058 36.9923 7.5915 10.9365 15.0783
# 3 52.8943 36.9923 101.2659 27.6610 25.9899 1.5624
# 4 7.4301 7.5915 27.6610 46.8528 1.3451 4.8663
# 5 5.1046 10.9365 25.9899 1.3451 50.7107 3.0693
# 6 10.5980 15.0783 1.5624 4.8663 3.0693 42.5145
#
#
#
# Elastic Compliance Matrix: (Units=1/GPa)
#
#
# Indices 1 2 3 4 5 6 
#
# 1 0.008550 -0.000285 -0.005418 0.002060 0.002057 -0.002215
# 2 -0.000285 0.011648 -0.004345 0.001143 -0.000043 -0.004028
# 3 -0.005418 -0.004345 0.019039 -0.009847 -0.008251 0.003915
# 4 0.002060 0.001143 -0.009847 0.026936 0.004117 -0.003937
# 5 0.002057 -0.000043 -0.008251 0.004117 0.023786 -0.002383
# 6 -0.002215 -0.004028 0.003915 -0.003937 -0.002383 0.025981
#
#
# Mechanical properties :
#
#
# Convention : Reuss Voigt Hill
#
# Bulk Modulus (GPa) = 52.24546 65.52227 58.88386
# Shear Modulus (GPa) = 35.10806 44.07471 39.59138
#
# Velocity S-wave (km/s) = 3.77957 4.23481 4.01365
# Velocity P-wave (km/s) = 6.34862 7.11139 6.74080
#
# Compressibility (1/GPa) = 0.01914042
#
# Stress axis : x y z
#
# Youngs Moduli (GPa) = 116.95862 85.85081 52.52266
#
# Poissons Ratio (x) = 0.02448 0.28459
# Poissons Ratio (y) = 0.03335 0.22821
# Poissons Ratio (z) = 0.63372 0.37303
#
# Static dielectric constant tensor:
#      x y z
#    x 1.952300 -0.035200 -0.020450 
#    y -0.035200 2.087130 -0.015380 
#    z -0.020450 -0.015380 1.970700 
# 
# From -- ./inp_files/553538.got.cif
#   From: 2010.05.17/outbox.cif.g08.bks.cpg/sg2_277_cif.got.tgz:553538.got - 2010.06.03 11:33:40.
