data_PCOD9043387
_publ_section_title
;
Structure prediction by ZEFSAII (Michael W. Deem and Ramdas Pophale) SiO2 
 PCOD9043387
Probable space group: P -1
;
_chemical_formula_sum "Si O2"
_cell_formula_units_Z 16
_cell_length_a 5.015862
_cell_length_b 14.282733
_cell_length_c 14.556745
_cell_angle_alpha 128.838860
_cell_angle_beta 122.192212
_cell_angle_gamma 86.048947
_cell_volume 629.319245
_symmetry_space_group_name_H-M "P -1"
_symmetry_group_IT_number 2
_symmetry_cell_setting 'triclinic'
loop_
_space_group_symop_operation_xyz
x,y,z
-x,-y,-z
loop_
_atom_site_type_symbol
_atom_site_label
_atom_site_fract_x
_atom_site_fract_y
_atom_site_fract_z
Si Si1 0.164252 0.608016 0.433909
Si Si2 0.567908 0.893681 0.623998
Si Si3 0.461548 0.554215 0.170394
Si Si4 0.987003 0.994150 0.384699
Si Si5 0.133625 0.397837 0.168962
Si Si6 0.901240 0.097549 0.137971
Si Si7 0.554303 0.702298 0.094940
Si Si8 0.441968 0.727518 0.749830
O O1 0.437915 0.738530 0.517129
O O2 0.173278 0.474170 0.317636
O O3 0.257348 0.634388 0.573268
O O4 0.803659 0.603013 0.325189
O O5 0.919808 0.955664 0.784092
O O6 0.291745 0.942722 0.646433
O O7 0.662164 0.927447 0.556430
O O8 0.168257 0.507566 0.165137
O O9 0.480102 0.658619 0.161242
O O10 0.399070 0.417337 0.022379
O O11 0.858643 0.843938 0.236544
O O12 0.000000 0.000000 0.500000
O O13 0.426264 0.342878 0.191295
O O14 0.768236 0.286359 0.008872
O O15 0.841335 0.224757 0.236952
O O16 0.200757 0.153458 0.148823
O O17 0.500000 0.000000 0.000000
#
# Coordination Sequence:
#
# PCOD9043387 Si02
#       8
#     2   2   2   2   2   2   2   2
#     4  10  24  44  68 102 138 183 236 286 357 419
#     4  11  26  46  71 102 139 187 231 287 352 416
#     4  10  23  45  70  97 140 188 226 294 355 423
#     4  12  27  45  73 105 140 183 236 294 341 417
#     4  11  25  41  73  98 141 183 230 299 345 422
#     4  11  26  45  71  99 145 191 229 285 351 424
#     4  10  25  43  67 104 137 181 240 283 359 415
#     4  11  26  43  71 109 137 180 243 290 350 414
#
# _framework density 25.424298
#
# number of rings (size 3 to 8) (size 9 to 14) (size 15 to 20)
#    0.000    1.250    0.000    3.750   15.750    0.500 
#    0.000    0.000    0.000    0.000    0.000    0.000 
#    0.000    0.000    0.000    0.000    0.000    0.000 
#
# Total GULP energy -89524.873284 kJ/mol
# GULP energy per Si atom -5595.304580 kJ/mol
# Density = 2.536643 g / cm^3
# Si number density = 25.424298 Si / 1000 Ang^3
#
#
#
# Elastic Constant Matrix: (Units=GPa)
#
#
# Indices 1 2 3 4 5 6 
#
# 1 93.1229 15.0341 1.6547 10.9454 2.3599 2.1614
# 2 15.0341 82.9680 13.7794 -9.0826 -2.4831 8.3771
# 3 1.6547 13.7794 89.0625 -1.1315 20.4716 7.5413
# 4 10.9454 -9.0826 -1.1315 22.0920 -3.9722 11.3990
# 5 2.3599 -2.4831 20.4716 -3.9722 29.4486 -5.2103
# 6 2.1614 8.3771 7.5413 11.3990 -5.2103 49.2386
#
#
#
# Elastic Compliance Matrix: (Units=1/GPa)
#
#
# Indices 1 2 3 4 5 6 
#
# 1 0.012388 -0.003596 0.000676 -0.008968 -0.002664 0.001759
# 2 -0.003596 0.014829 -0.002712 0.010521 0.004145 -0.003947
# 3 0.000676 -0.002712 0.014344 -0.001327 -0.010895 -0.002611
# 4 -0.008968 0.010521 -0.001327 0.063181 0.008409 -0.014930
# 5 -0.002664 0.004145 -0.010895 0.008409 0.043897 0.003779
# 6 0.001759 -0.003947 -0.002611 -0.014930 0.003779 0.025160
#
#
# Mechanical properties :
#
#
# Convention : Reuss Voigt Hill
#
# Bulk Modulus (GPa) = 33.00835 36.23219 34.62027
# Shear Modulus (GPa) = 25.61973 35.80154 30.71064
#
# Velocity S-wave (km/s) = 3.17785 3.75662 3.47929
# Velocity P-wave (km/s) = 5.14550 5.75310 5.45776
#
# Compressibility (1/GPa) = 0.03029536
#
# Stress axis : x y z
#
# Youngs Moduli (GPa) = 80.72496 67.43450 69.71726
#
# Poissons Ratio (x) = 0.24249 -0.04711
# Poissons Ratio (y) = 0.29028 0.18910
# Poissons Ratio (z) = -0.05455 0.18291
#
# Static dielectric constant tensor:
#      x y z
#    x 2.031670 0.051410 0.021960 
#    y 0.051410 2.024230 0.005470 
#    z 0.021960 0.005470 2.030230 
# 
# From -- ./inp_files/484409.got.cif
#   From: 2010.05.17/outbox.cif.g08.bks.cpg/sg2_243_cif.got.tgz:484409.got - 2010.06.03 11:33:40.
