data_PCOD9043853
_publ_section_title
;
Structure prediction by ZEFSAII (Michael W. Deem and Ramdas Pophale) SiO2 
 PCOD9043853
Probable space group: P -1
;
_chemical_formula_sum "Si O2"
_cell_formula_units_Z 16
_cell_length_a 10.019122
_cell_length_b 9.117061
_cell_length_c 8.945969
_cell_angle_alpha 70.609348
_cell_angle_beta 56.437828
_cell_angle_gamma 92.116987
_cell_volume 616.522735
_symmetry_space_group_name_H-M "P -1"
_symmetry_group_IT_number 2
_symmetry_cell_setting 'triclinic'
loop_
_space_group_symop_operation_xyz
x,y,z
-x,-y,-z
loop_
_atom_site_type_symbol
_atom_site_label
_atom_site_fract_x
_atom_site_fract_y
_atom_site_fract_z
Si Si1 0.528524 0.688680 0.371872
Si Si2 0.491718 0.362342 0.170528
Si Si3 0.038048 0.653030 0.649342
Si Si4 0.598711 0.867987 0.964355
Si Si5 0.966053 0.095079 0.659008
Si Si6 0.827457 0.574895 0.544475
Si Si7 0.171337 0.031948 0.792086
Si Si8 0.259596 0.726184 0.749726
O O1 0.500000 0.500000 0.500000
O O2 0.339788 0.372792 0.366788
O O3 0.536640 0.728812 0.175757
O O4 0.394591 0.759668 0.519700
O O5 0.659106 0.377277 0.154895
O O6 0.500000 0.500000 0.000000
O O7 0.435766 0.202513 0.156923
O O8 0.169183 0.575510 0.508144
O O9 0.084992 0.653767 0.793159
O O10 0.038858 0.831587 0.528369
O O11 0.870602 0.552059 0.700409
O O12 0.792466 0.963709 0.837758
O O13 0.500000 0.000000 0.000000
O O14 0.117375 0.038980 0.651075
O O15 0.015465 0.272481 0.652677
O O16 0.000000 0.000000 0.000000
O O17 0.705252 0.805265 0.277419
O O18 0.249753 0.882251 0.795941
#
# Coordination Sequence:
#
# PCOD9043853 Si02
#       8
#     2   2   2   2   2   2   2   2
#     4  12  28  50  81 117 162 216 267 332 409 490
#     4  12  29  48  75 116 159 207 262 337 409 479
#     4   9  23  44  78 113 149 209 263 330 399 478
#     4  12  27  47  78 113 157 207 268 332 400 484
#     4  10  23  45  78 107 154 209 261 328 402 472
#     4   9  23  46  76 111 156 205 263 327 409 480
#     4  12  27  50  77 117 164 209 272 342 397 472
#     4  12  28  49  81 116 159 209 277 324 406 493
#
# _framework density 25.952003999999999
#
# number of rings (size 3 to 8) (size 9 to 14) (size 15 to 20)
#    0.750    0.250    1.250    3.375    8.750    4.000 
#    0.000    1.250    0.000    0.000    0.000    0.000 
#    0.000    0.000    0.000    0.000    0.000    0.000 
#
# Total GULP energy -89348.066474 kJ/mol
# GULP energy per Si atom -5584.254155 kJ/mol
# Density = 2.589294 g / cm^3
# Si number density = 25.952004 Si / 1000 Ang^3
#
#
#
# Elastic Constant Matrix: (Units=GPa)
#
#
# Indices 1 2 3 4 5 6 
#
# 1 106.9004 42.7621 36.2282 3.1596 29.6085 8.2445
# 2 42.7621 97.4570 43.6616 9.0059 11.9727 -6.5964
# 3 36.2282 43.6616 114.7690 -4.5223 19.5622 4.6774
# 4 3.1596 9.0059 -4.5223 40.7245 -1.8537 8.9467
# 5 29.6085 11.9727 19.5622 -1.8537 56.2832 -0.2617
# 6 8.2445 -6.5964 4.6774 8.9467 -0.2617 50.7029
#
#
#
# Elastic Compliance Matrix: (Units=1/GPa)
#
#
# Indices 1 2 3 4 5 6 
#
# 1 0.013510 -0.004845 -0.001342 0.000228 -0.005615 -0.002773
# 2 -0.004845 0.015036 -0.004665 -0.004293 0.000849 0.003936
# 3 -0.001342 -0.004665 0.011475 0.002736 -0.002209 -0.001941
# 4 0.000228 -0.004293 0.002736 0.027057 0.000708 -0.005619
# 5 -0.005615 0.000849 -0.002209 0.000708 0.021337 0.001213
# 6 -0.002773 0.003936 -0.001941 -0.005619 0.001213 0.021862
#
#
# Mechanical properties :
#
#
# Convention : Reuss Voigt Hill
#
# Bulk Modulus (GPa) = 54.59764 62.71446 58.65605
# Shear Modulus (GPa) = 36.20877 42.64041 39.42459
#
# Velocity S-wave (km/s) = 3.73932 4.05785 3.90184
# Velocity P-wave (km/s) = 6.30293 6.79506 6.55362
#
# Compressibility (1/GPa) = 0.01831581
#
# Stress axis : x y z
#
# Youngs Moduli (GPa) = 74.01917 66.50796 87.14693
#
# Poissons Ratio (x) = 0.32226 0.11696
# Poissons Ratio (y) = 0.35866 0.40652
# Poissons Ratio (z) = 0.09934 0.31025
#
# Static dielectric constant tensor:
#      x y z
#    x 2.102480 0.011260 0.052000 
#    y 0.011260 2.049850 -0.039680 
#    z 0.052000 -0.039680 2.123660 
# 
# From -- ./inp_files/234730.got.cif
#   From: 2010.05.17/outbox.cif.g08.bks.cpg/sg2_118_cif.got.tgz:234730.got - 2010.06.03 11:33:40.
