data_PCOD9043037
_publ_section_title
;
Structure prediction by ZEFSAII (Michael W. Deem and Ramdas Pophale) SiO2 
 PCOD9043037
Probable space group: P -1
;
_chemical_formula_sum "Si O2"
_cell_formula_units_Z 16
_cell_length_a 8.531676
_cell_length_b 6.609449
_cell_length_c 14.349627
_cell_angle_alpha 107.954536
_cell_angle_beta 97.225856
_cell_angle_gamma 72.705017
_cell_volume 734.442565
_symmetry_space_group_name_H-M "P -1"
_symmetry_group_IT_number 2
_symmetry_cell_setting 'triclinic'
loop_
_space_group_symop_operation_xyz
x,y,z
-x,-y,-z
loop_
_atom_site_type_symbol
_atom_site_label
_atom_site_fract_x
_atom_site_fract_y
_atom_site_fract_z
Si Si1 0.090974 0.289252 0.415077
Si Si2 0.153154 0.537838 0.962300
Si Si3 0.898257 0.490028 0.253512
Si Si4 0.422135 0.624135 0.770417
Si Si5 0.892108 0.182739 0.663546
Si Si6 0.576216 0.932216 0.097531
Si Si7 0.378161 0.441785 0.409287
Si Si8 0.677029 0.248783 0.843813
O O1 0.282385 0.278422 0.423241
O O2 0.000000 0.500000 0.500000
O O3 0.020433 0.333888 0.311943
O O4 0.059942 0.060736 0.409898
O O5 0.094589 0.606590 0.863247
O O6 0.292326 0.305113 0.929891
O O7 0.226757 0.701938 0.051562
O O8 0.000000 0.500000 0.000000
O O9 0.714916 0.504456 0.275453
O O10 0.956698 0.713471 0.290467
O O11 0.518208 0.643818 0.686906
O O12 0.549911 0.480240 0.834049
O O13 0.348297 0.871713 0.836785
O O14 0.765583 0.347653 0.608230
O O15 0.795770 0.177456 0.753524
O O16 0.432049 0.910116 0.154149
O O17 0.500000 0.000000 0.000000
O O18 0.500000 0.500000 0.500000
#
# Coordination Sequence:
#
# PCOD9043037 Si02
#       8
#     2   2   2   2   2   2   2   2
#     4  11  25  46  68  98 136 171 218 277 338 407
#     4  12  24  42  63  98 138 178 223 276 329 398
#     4  11  24  42  66  96 135 172 223 273 330 401
#     4  11  23  42  67  95 135 173 226 277 326 397
#     4  10  24  44  69  96 132 177 215 272 345 393
#     4  12  24  40  67  96 130 185 225 273 339 387
#     4  10  23  45  68 101 128 166 223 279 329 402
#     4  11  22  43  65  93 138 174 226 278 323 397
#
# _framework density 21.785229000000001
#
# number of rings (size 3 to 8) (size 9 to 14) (size 15 to 20)
#    0.000    1.000    3.750    2.625    1.750    3.500 
#    2.250    1.875    0.000    0.000    0.000    0.000 
#    0.000    0.000    0.000    0.000    0.000    0.000 
#
# Total GULP energy -89482.576462 kJ/mol
# GULP energy per Si atom -5592.661029 kJ/mol
# Density = 2.173564 g / cm^3
# Si number density = 21.785229 Si / 1000 Ang^3
#
#
#
# Elastic Constant Matrix: (Units=GPa)
#
#
# Indices 1 2 3 4 5 6 
#
# 1 125.2318 22.1335 34.2356 12.7923 6.8263 35.9115
# 2 22.1335 66.0705 43.3936 16.9656 -1.9845 22.0084
# 3 34.2356 43.3936 97.3097 -2.9954 23.5753 3.1499
# 4 12.7923 16.9656 -2.9954 34.5835 1.7340 2.4510
# 5 6.8263 -1.9845 23.5753 1.7340 40.4318 -2.9218
# 6 35.9115 22.0084 3.1499 2.4510 -2.9218 34.5451
#
#
#
# Elastic Compliance Matrix: (Units=1/GPa)
#
#
# Indices 1 2 3 4 5 6 
#
# 1 0.017237 0.014738 -0.013292 -0.013218 0.004339 -0.024792
# 2 0.014738 0.057598 -0.035100 -0.034531 0.019052 -0.044755
# 3 -0.013292 -0.035100 0.034918 0.023993 -0.018721 0.029710
# 4 -0.013218 -0.034531 0.023993 0.051466 -0.013583 0.028752
# 5 0.004339 0.019052 -0.018721 -0.013583 0.035642 -0.010963
# 6 -0.024792 -0.044755 0.029710 0.028752 -0.010963 0.077556
#
#
# Mechanical properties :
#
#
# Convention : Reuss Voigt Hill
#
# Bulk Modulus (GPa) = 23.56009 54.23750 38.89880
# Shear Modulus (GPa) = 14.04992 34.50203 24.27598
#
# Velocity S-wave (km/s) = 2.54230 3.98393 3.34178
# Velocity P-wave (km/s) = 4.41088 6.79064 5.72576
#
# Compressibility (1/GPa) = 0.04244465
#
# Stress axis : x y z
#
# Youngs Moduli (GPa) = 58.01446 17.36163 28.63879
#
# Poissons Ratio (x) = -0.25588 0.38068
# Poissons Ratio (y) = -0.85504 1.00523
# Poissons Ratio (z) = 0.77114 0.60940
#
# Static dielectric constant tensor:
#      x y z
#    x 1.812430 0.022260 -0.007660 
#    y 0.022260 1.787880 -0.000770 
#    z -0.007660 -0.000770 1.797930 
# 
# From -- ./inp_files/37236.got.cif
#   From: 2010.05.17/outbox.cif.g08.bks.cpg/sg2_19_cif.got.tgz:37236.got - 2010.06.03 11:33:40.
