data_PCOD9043546
_publ_section_title
;
Structure prediction by ZEFSAII (Michael W. Deem and Ramdas Pophale) SiO2 
 PCOD9043546
Probable space group: P -1
;
_chemical_formula_sum "Si O2"
_cell_formula_units_Z 12
_cell_length_a 4.952192
_cell_length_b 8.678904
_cell_length_c 19.601272
_cell_angle_alpha 32.836126
_cell_angle_beta 106.779119
_cell_angle_gamma 94.682163
_cell_volume 415.818169
_symmetry_space_group_name_H-M "P -1"
_symmetry_group_IT_number 2
_symmetry_cell_setting 'triclinic'
loop_
_space_group_symop_operation_xyz
x,y,z
-x,-y,-z
loop_
_atom_site_type_symbol
_atom_site_label
_atom_site_fract_x
_atom_site_fract_y
_atom_site_fract_z
Si Si1 0.587344 0.403139 0.172077
Si Si2 0.100666 0.224898 0.035425
Si Si3 0.084702 0.538898 0.373609
Si Si4 0.239605 0.023496 0.275334
Si Si5 0.312008 0.870109 0.482038
Si Si6 0.560718 0.775393 0.151266
O O1 0.659995 0.461935 0.233867
O O2 0.564774 0.073973 0.277839
O O3 0.733236 0.548091 0.069142
O O4 0.239007 0.608269 0.068082
O O5 0.133459 0.170458 0.138755
O O6 0.263269 0.916600 0.121216
O O7 0.143916 0.723830 0.373559
O O8 0.419372 0.413219 0.418350
O O9 0.946129 0.266627 0.466074
O O10 0.830451 0.765597 0.224307
O O11 0.183120 0.092852 0.326565
O O12 0.500000 0.000000 0.500000
O O13 0.500000 0.000000 0.000000
#
# Coordination Sequence:
#
# PCOD9043546 Si02
#       6
#     2   2   2   2   2   2
#     4  11  25  43  71 107 144 185 235 285 344 416
#     4  11  24  43  69 108 144 185 234 288 345 411
#     4  12  27  48  72 106 141 180 234 291 349 417
#     4  12  26  46  73 103 144 188 230 291 353 413
#     4  12  29  51  75 102 136 185 240 291 347 416
#     4  10  23  45  72 102 140 185 229 284 345 409
#
# _framework density 28.858768000000001
#
# number of rings (size 3 to 8) (size 9 to 14) (size 15 to 20)
#    0.000    0.667    0.000    7.000    0.000   13.333 
#    0.000    0.000    0.000    0.000    0.000    0.000 
#    0.000    0.000    0.000    0.000    0.000    0.000 
#
# Total GULP energy -67006.809429 kJ/mol
# GULP energy per Si atom -5583.900786 kJ/mol
# Density = 2.879308 g / cm^3
# Si number density = 28.858768 Si / 1000 Ang^3
#
#
#
# Elastic Constant Matrix: (Units=GPa)
#
#
# Indices 1 2 3 4 5 6 
#
# 1 158.5330 33.7502 28.6688 -2.2407 -6.3519 11.4522
# 2 33.7502 221.1823 22.7879 21.8333 -7.5080 22.7186
# 3 28.6688 22.7879 148.7863 28.4942 -17.6010 4.4407
# 4 -2.2407 21.8333 28.4942 45.7568 7.9641 6.1255
# 5 -6.3519 -7.5080 -17.6010 7.9641 60.6918 -14.8742
# 6 11.4522 22.7186 4.4407 6.1255 -14.8742 71.3556
#
#
#
# Elastic Compliance Matrix: (Units=1/GPa)
#
#
# Indices 1 2 3 4 5 6 
#
# 1 0.006885 -0.001000 -0.001564 0.001973 -0.000344 -0.000930
# 2 -0.001000 0.005046 -0.000024 -0.002387 0.000550 -0.001125
# 3 -0.001564 -0.000024 0.008564 -0.006108 0.003351 0.000949
# 4 0.001973 -0.002387 -0.006108 0.028383 -0.006302 -0.002927
# 5 -0.000344 0.000550 0.003351 -0.006302 0.019348 0.004246
# 6 -0.000930 -0.001125 0.000949 -0.002927 0.004246 0.015599
#
#
# Mechanical properties :
#
#
# Convention : Reuss Voigt Hill
#
# Bulk Modulus (GPa) = 65.28470 77.65727 71.47099
# Shear Modulus (GPa) = 53.13026 65.11382 59.12204
#
# Velocity S-wave (km/s) = 4.29539 4.75520 4.53113
# Velocity P-wave (km/s) = 6.87545 7.55758 7.22457
#
# Compressibility (1/GPa) = 0.01531752
#
# Stress axis : x y z
#
# Youngs Moduli (GPa) = 145.24428 198.17181 116.76678
#
# Poissons Ratio (x) = 0.19823 0.18264
# Poissons Ratio (y) = 0.14529 0.00285
# Poissons Ratio (z) = 0.22718 0.00484
#
# Static dielectric constant tensor:
#      x y z
#    x 2.385460 0.031600 -0.136000 
#    y 0.031600 2.464940 -0.302210 
#    z -0.136000 -0.302210 2.486750 
# 
# From -- ./inp_files/581299.got.cif
#   From: 2010.05.17/outbox.cif.g08.bks.cpg/sg2_291_cif.got.tgz:581299.got - 2010.06.03 11:33:40.
