data_PCOD9043555
_publ_section_title
;
Structure prediction by ZEFSAII (Michael W. Deem and Ramdas Pophale) SiO2 
 PCOD9043555
Probable space group: P -1
;
_chemical_formula_sum "Si O2"
_cell_formula_units_Z 12
_cell_length_a 7.362215
_cell_length_b 21.199071
_cell_length_c 9.187761
_cell_angle_alpha 27.199192
_cell_angle_beta 131.404762
_cell_angle_gamma 133.117110
_cell_volume 472.261581
_symmetry_space_group_name_H-M "P -1"
_symmetry_group_IT_number 2
_symmetry_cell_setting 'triclinic'
loop_
_space_group_symop_operation_xyz
x,y,z
-x,-y,-z
loop_
_atom_site_type_symbol
_atom_site_label
_atom_site_fract_x
_atom_site_fract_y
_atom_site_fract_z
Si Si1 0.138853 0.379649 0.560055
Si Si2 0.381647 0.333613 0.320294
Si Si3 0.344470 0.819424 0.397374
Si Si4 0.987842 0.929679 0.793892
Si Si5 0.611117 0.352214 0.702125
Si Si6 0.185853 0.843314 0.583320
O O1 0.368108 0.402827 0.520683
O O2 0.163793 0.510533 0.413251
O O3 0.881199 0.330037 0.436104
O O4 0.154144 0.239018 0.945116
O O5 0.414938 0.229623 0.420817
O O6 0.559413 0.310050 0.595039
O O7 0.090043 0.273997 0.334900
O O8 0.500000 0.500000 0.000000
O O9 0.322205 0.869607 0.445977
O O10 0.248837 0.920152 0.026126
O O11 0.000000 0.000000 0.500000
O O12 0.862544 0.013937 0.669063
O O13 0.656712 0.222897 0.084258
#
# Coordination Sequence:
#
# PCOD9043555 Si02
#       6
#     2   2   2   2   2   2
#     4   9  23  44  71  99 143 181 235 281 357 405
#     4  12  27  42  72 107 139 183 236 288 354 413
#     4  10  24  46  68 104 143 179 235 294 340 423
#     4  10  23  45  72 103 142 187 236 284 352 423
#     4  11  24  45  73 101 143 182 232 296 343 420
#     4  12  26  45  75 104 140 188 234 289 355 416
#
# _framework density 25.409645999999999
#
# number of rings (size 3 to 8) (size 9 to 14) (size 15 to 20)
#    1.000    0.333    1.667    2.500    7.000    4.000 
#    0.000    0.000    0.000    0.000    0.000    0.000 
#    0.000    0.000    0.000    0.000    0.000    0.000 
#
# Total GULP energy -67170.932904 kJ/mol
# GULP energy per Si atom -5597.577742 kJ/mol
# Density = 2.535181 g / cm^3
# Si number density = 25.409646 Si / 1000 Ang^3
#
#
#
# Elastic Constant Matrix: (Units=GPa)
#
#
# Indices 1 2 3 4 5 6 
#
# 1 124.6652 11.0790 28.4595 11.4837 2.6035 -33.0001
# 2 11.0790 87.4174 21.5959 3.2946 -2.6764 -8.9860
# 3 28.4595 21.5959 116.2520 4.4123 -6.0609 -28.4480
# 4 11.4837 3.2946 4.4123 46.7779 -7.4243 -6.6278
# 5 2.6035 -2.6764 -6.0609 -7.4243 35.2746 6.1449
# 6 -33.0001 -8.9860 -28.4480 -6.6278 6.1449 40.2406
#
#
#
# Elastic Compliance Matrix: (Units=1/GPa)
#
#
# Indices 1 2 3 4 5 6 
#
# 1 0.010613 -0.000365 -0.000562 -0.001778 -0.002736 0.008350
# 2 -0.000365 0.012075 -0.001890 -0.000390 0.000372 0.000940
# 3 -0.000562 -0.001890 0.010743 0.000305 0.000647 0.006663
# 4 -0.001778 -0.000390 0.000305 0.022794 0.004653 0.001714
# 5 -0.002736 0.000372 0.000647 0.004653 0.030648 -0.005617
# 6 0.008350 0.000940 0.006663 0.001714 -0.005617 0.037758
#
#
# Mechanical properties :
#
#
# Convention : Reuss Voigt Hill
#
# Bulk Modulus (GPa) = 35.97267 50.06706 43.01986
# Shear Modulus (GPa) = 35.83394 42.27198 39.05296
#
# Velocity S-wave (km/s) = 3.75940 4.08317 3.92463
# Velocity P-wave (km/s) = 5.74734 6.47893 6.12407
#
# Compressibility (1/GPa) = 0.02779888
#
# Stress axis : x y z
#
# Youngs Moduli (GPa) = 94.21967 82.81458 93.07993
#
# Poissons Ratio (x) = 0.03020 0.05235
# Poissons Ratio (y) = 0.03436 0.17588
# Poissons Ratio (z) = 0.05299 0.15648
#
# Static dielectric constant tensor:
#      x y z
#    x 2.059490 0.100430 -0.028060 
#    y 0.100430 2.071680 -0.033360 
#    z -0.028060 -0.033360 1.946180 
# 
# From -- ./inp_files/407479.got.cif
#   From: 2010.05.17/outbox.cif.g08.bks.cpg/sg2_204_cif.got.tgz:407479.got - 2010.06.03 11:33:40.
