data_PCOD9043382
_publ_section_title
;
Structure prediction by ZEFSAII (Michael W. Deem and Ramdas Pophale) SiO2 
 PCOD9043382
Probable space group: P -1
;
_chemical_formula_sum "Si O2"
_cell_formula_units_Z 16
_cell_length_a 5.983096
_cell_length_b 17.075502
_cell_length_c 9.988089
_cell_angle_alpha 104.206985
_cell_angle_beta 78.710280
_cell_angle_gamma 132.013833
_cell_volume 734.268612
_symmetry_space_group_name_H-M "P -1"
_symmetry_group_IT_number 2
_symmetry_cell_setting 'triclinic'
loop_
_space_group_symop_operation_xyz
x,y,z
-x,-y,-z
loop_
_atom_site_type_symbol
_atom_site_label
_atom_site_fract_x
_atom_site_fract_y
_atom_site_fract_z
Si Si1 0.190157 0.621465 0.489090
Si Si2 0.831318 0.288010 0.217378
Si Si3 0.816157 0.284899 0.734826
Si Si4 0.833480 0.113515 0.014935
Si Si5 0.118037 0.112403 0.739056
Si Si6 0.879033 0.888075 0.772178
Si Si7 0.104662 0.203429 0.515050
Si Si8 0.858106 0.556407 0.995832
O O1 0.089967 0.670826 0.621730
O O2 0.155126 0.637183 0.345495
O O3 0.546913 0.690075 0.496668
O O4 0.000000 0.500000 0.500000
O O5 0.884336 0.210872 0.121716
O O6 0.472139 0.211816 0.221978
O O7 0.994784 0.387800 0.140797
O O8 0.467334 0.191385 0.771932
O O9 0.924475 0.231976 0.619456
O O10 0.008342 0.352892 0.869101
O O11 0.003498 0.091897 0.084055
O O12 0.963526 0.144167 0.863389
O O13 0.500000 0.000000 0.000000
O O14 0.103684 0.130162 0.592107
O O15 0.950201 0.991515 0.745782
O O16 0.018564 0.856435 0.637078
O O17 0.500000 0.500000 0.000000
O O18 0.000000 0.500000 0.000000
#
# Coordination Sequence:
#
# PCOD9043382 Si02
#       8
#     2   2   2   2   2   2   2   2
#     4  10  23  45  70  97 133 176 239 295 361 414
#     4  11  25  45  71 101 141 181 236 298 351 435
#     4  11  25  44  70  99 137 180 232 292 357 430
#     4  12  25  41  68 100 139 184 229 281 358 426
#     4  11  24  41  68  98 139 178 227 284 354 429
#     4  11  24  43  67 101 137 179 232 284 356 424
#     4  10  24  43  68  97 132 178 231 290 349 432
#     4  12  30  49  75 105 145 193 245 303 366 426
#
# _framework density 21.790391
#
# number of rings (size 3 to 8) (size 9 to 14) (size 15 to 20)
#    0.000    1.000    1.250    3.750   12.250    1.000 
#    0.000    0.000    0.000    0.000    0.000    0.000 
#    0.000    0.000    0.000    0.000    0.000    0.000 
#
# Total GULP energy -89386.170983 kJ/mol
# GULP energy per Si atom -5586.635686 kJ/mol
# Density = 2.174079 g / cm^3
# Si number density = 21.790391 Si / 1000 Ang^3
#
#
#
# Elastic Constant Matrix: (Units=GPa)
#
#
# Indices 1 2 3 4 5 6 
#
# 1 60.4703 34.1284 8.3706 -5.4928 -12.9027 2.3179
# 2 34.1284 84.0924 21.8310 -28.6102 -6.7205 9.4196
# 3 8.3706 21.8310 97.9487 2.4862 -12.5419 17.9612
# 4 -5.4928 -28.6102 2.4862 34.8509 -3.4391 -11.7582
# 5 -12.9027 -6.7205 -12.5419 -3.4391 45.5152 7.7179
# 6 2.3179 9.4196 17.9612 -11.7582 7.7179 26.3378
#
#
#
# Elastic Compliance Matrix: (Units=1/GPa)
#
#
# Indices 1 2 3 4 5 6 
#
# 1 0.023479 -0.011456 0.002220 -0.006698 0.005777 -0.004166
# 2 -0.011456 0.024429 -0.006174 0.020607 -0.000787 0.005911
# 3 0.002220 -0.006174 0.014983 -0.010074 0.005513 -0.014318
# 4 -0.006698 0.020607 -0.010074 0.053338 -0.001741 0.024412
# 5 0.005777 -0.000787 0.005513 -0.001741 0.027031 -0.012685
# 6 -0.004166 0.005911 -0.014318 0.024412 -0.012685 0.060600
#
#
# Mechanical properties :
#
#
# Convention : Reuss Voigt Hill
#
# Bulk Modulus (GPa) = 31.17852 41.24128 36.20990
# Shear Modulus (GPa) = 20.37748 33.21952 26.79850
#
# Velocity S-wave (km/s) = 3.06135 3.90872 3.51070
# Velocity P-wave (km/s) = 5.18028 6.27202 5.75211
#
# Compressibility (1/GPa) = 0.03207337
#
# Stress axis : x y z
#
# Youngs Moduli (GPa) = 42.59144 40.93426 66.74303
#
# Poissons Ratio (x) = 0.46893 -0.14820
# Poissons Ratio (y) = 0.48791 0.41205
# Poissons Ratio (z) = -0.09457 0.25272
#
# Static dielectric constant tensor:
#      x y z
#    x 1.846480 -0.047860 -0.021780 
#    y -0.047860 1.760300 0.017630 
#    z -0.021780 0.017630 1.779860 
# 
# From -- ./inp_files/107299.got.cif
#   From: 2010.05.17/outbox.cif.g08.bks.cpg/sg2_54_cif.got.tgz:107299.got - 2010.06.03 11:33:40.
