data_PCOD9043557
_publ_section_title
;
Structure prediction by ZEFSAII (Michael W. Deem and Ramdas Pophale) SiO2 
 PCOD9043557
Probable space group: P -1
;
_chemical_formula_sum "Si O2"
_cell_formula_units_Z 16
_cell_length_a 12.553738
_cell_length_b 17.958112
_cell_length_c 8.506819
_cell_angle_alpha 65.737768
_cell_angle_beta 119.700859
_cell_angle_gamma 151.338372
_cell_volume 797.685927
_symmetry_space_group_name_H-M "P -1"
_symmetry_group_IT_number 2
_symmetry_cell_setting 'triclinic'
loop_
_space_group_symop_operation_xyz
x,y,z
-x,-y,-z
loop_
_atom_site_type_symbol
_atom_site_label
_atom_site_fract_x
_atom_site_fract_y
_atom_site_fract_z
Si Si1 0.580341 0.151995 0.081450
Si Si2 0.281240 0.332595 0.399315
Si Si3 0.248710 0.571914 0.983716
Si Si4 0.636820 0.402282 0.590537
Si Si5 0.208937 0.849793 0.276624
Si Si6 0.704969 0.568766 0.004506
Si Si7 0.058762 0.761583 0.580184
Si Si8 0.711864 0.265056 0.745032
O O1 0.786092 0.203121 0.217171
O O2 0.360289 0.994542 0.152406
O O3 0.656561 0.283108 0.091689
O O4 0.550509 0.146482 0.877066
O O5 0.500000 0.500000 0.500000
O O6 0.383634 0.300412 0.477404
O O7 0.246457 0.359489 0.187660
O O8 0.058016 0.225598 0.436430
O O9 0.304653 0.578915 0.198349
O O10 0.351683 0.558106 0.963551
O O11 0.972313 0.416564 0.880296
O O12 0.650677 0.320947 0.595548
O O13 0.841523 0.579226 0.529463
O O14 0.215379 0.868320 0.450611
O O15 0.283188 0.799968 0.328352
O O16 0.940049 0.706110 0.156069
O O17 0.500000 0.500000 0.000000
#
# Coordination Sequence:
#
# PCOD9043557 Si02
#       8
#     2   2   2   2   2   2   2   2
#     4  11  20  39  59  81 115 153 190 227 283 345
#     4  10  19  33  59  86 108 150 189 231 276 335
#     4  10  18  35  62  85 107 148 196 229 276 338
#     4  10  17  33  61  87 104 149 195 232 269 333
#     4  11  25  34  57  90 115 150 180 240 295 322
#     4  11  21  39  58  88 115 142 193 241 282 325
#     4  11  19  36  57  81 119 147 194 224 276 351
#     4  10  19  37  58  87 114 141 192 243 280 320
#
# _framework density 20.058019000000002
#
# number of rings (size 3 to 8) (size 9 to 14) (size 15 to 20)
#    0.000    1.500    5.000    3.750    0.000    0.500 
#    2.250    0.625    0.000    3.750    0.000    0.000 
#    0.000    0.000    0.000    0.000    0.000    0.000 
#
# Total GULP energy -89386.259722 kJ/mol
# GULP energy per Si atom -5586.641233 kJ/mol
# Density = 2.001237 g / cm^3
# Si number density = 20.058019 Si / 1000 Ang^3
#
#
#
# Elastic Constant Matrix: (Units=GPa)
#
#
# Indices 1 2 3 4 5 6 
#
# 1 141.6379 40.6469 20.7944 -12.6349 19.3969 15.4652
# 2 40.6469 58.9527 1.9349 -9.3607 4.6555 6.1342
# 3 20.7944 1.9349 41.7576 3.2344 12.4221 2.2424
# 4 -12.6349 -9.3607 3.2344 22.0449 3.7062 -5.3259
# 5 19.3969 4.6555 12.4221 3.7062 31.4367 -4.1749
# 6 15.4652 6.1342 2.2424 -5.3259 -4.1749 17.3988
#
#
#
# Elastic Compliance Matrix: (Units=1/GPa)
#
#
# Indices 1 2 3 4 5 6 
#
# 1 0.011244 -0.005749 -0.003328 0.003627 -0.006252 -0.007929
# 2 -0.005749 0.022019 0.001877 0.005642 -0.001318 -0.001484
# 3 -0.003328 0.001877 0.029126 -0.005022 -0.009853 -0.005359
# 4 0.003627 0.005642 -0.005022 0.054143 -0.006071 0.010550
# 5 -0.006252 -0.001318 -0.009853 -0.006071 0.042549 0.015643
# 6 -0.007929 -0.001484 -0.005359 0.010550 0.015643 0.072720
#
#
# Mechanical properties :
#
#
# Convention : Reuss Voigt Hill
#
# Bulk Modulus (GPa) = 20.83786 41.01118 30.92452
# Shear Modulus (GPa) = 19.06956 26.10755 22.58855
#
# Velocity S-wave (km/s) = 3.08672 3.61169 3.35947
# Velocity P-wave (km/s) = 4.80782 6.15492 5.52260
#
# Compressibility (1/GPa) = 0.04798958
#
# Stress axis : x y z
#
# Youngs Moduli (GPa) = 88.93546 45.41487 34.33357
#
# Poissons Ratio (x) = 0.26108 0.11427
# Poissons Ratio (y) = 0.51127 -0.06445
# Poissons Ratio (z) = 0.29601 -0.08525
#
# Static dielectric constant tensor:
#      x y z
#    x 1.740310 0.002630 0.007870 
#    y 0.002630 1.716460 0.008550 
#    z 0.007870 0.008550 1.722840 
# 
# From -- ./inp_files/244172.got.cif
#   From: 2010.05.17/outbox.cif.g08.bks.cpg/sg2_123_cif.got.tgz:244172.got - 2010.06.03 11:33:40.
