data_PCOD9043542
_publ_section_title
;
Structure prediction by ZEFSAII (Michael W. Deem and Ramdas Pophale) SiO2 
 PCOD9043542
Probable space group: P -1
;
_chemical_formula_sum "Si O2"
_cell_formula_units_Z 13
_cell_length_a 9.531646
_cell_length_b 10.918676
_cell_length_c 7.528369
_cell_angle_alpha 137.675783
_cell_angle_beta 106.557624
_cell_angle_gamma 75.279719
_cell_volume 504.529660
_symmetry_space_group_name_H-M "P -1"
_symmetry_group_IT_number 2
_symmetry_cell_setting 'triclinic'
loop_
_space_group_symop_operation_xyz
x,y,z
-x,-y,-z
loop_
_atom_site_type_symbol
_atom_site_label
_atom_site_fract_x
_atom_site_fract_y
_atom_site_fract_z
Si Si1 0.076523 0.786356 0.303761
Si Si2 0.170492 0.417282 0.153721
Si Si3 0.000000 0.500000 0.500000
Si Si4 0.361269 0.905391 0.067196
Si Si5 0.374738 0.850956 0.609547
Si Si6 0.478979 0.450687 0.146536
Si Si7 0.921216 0.882578 0.699064
O O1 0.122139 0.588786 0.197594
O O2 0.240676 0.851550 0.423991
O O3 0.986747 0.900191 0.545174
O O4 0.958451 0.726004 0.052102
O O5 0.329441 0.362104 0.069062
O O6 0.156066 0.479791 0.418013
O O7 0.942121 0.673251 0.539889
O O8 0.509979 0.006276 0.243613
O O9 0.242334 0.031571 0.262518
O O10 0.315380 0.899874 0.837391
O O11 0.391706 0.699351 0.922381
O O12 0.460073 0.650993 0.442870
O O13 0.500000 0.500000 0.000000
O O14 0.000000 0.000000 0.000000
#
# Coordination Sequence:
#
# PCOD9043542 Si02
#       7
#     2   2   1   2   2   2   2
#     4   9  19  44  67 102 144 181 238 300 363 430
#     4   9  21  43  74 103 138 189 247 294 363 440
#     4  10  24  44  76 102 142 186 242 310 366 428
#     4  11  25  44  73 104 144 192 249 297 356 446
#     4  10  23  45  72 101 145 186 245 304 366 427
#     4  11  26  47  70 103 151 196 238 297 375 435
#     4  11  23  43  68 107 142 184 245 294 365 437
#
# _framework density 25.766570999999999
#
# number of rings (size 3 to 8) (size 9 to 14) (size 15 to 20)
#    0.000    1.846    1.538    0.462    6.462    1.846 
#    8.308    1.538    0.000    0.000    0.000    0.000 
#    0.000    0.000    0.000    0.000    0.000    0.000 
#
# Total GULP energy -72444.099898 kJ/mol
# GULP energy per Si atom -5572.623069 kJ/mol
# Density = 2.570793 g / cm^3
# Si number density = 25.766571 Si / 1000 Ang^3
#
#
#
# Elastic Constant Matrix: (Units=GPa)
#
#
# Indices 1 2 3 4 5 6 
#
# 1 120.2278 65.5705 44.8844 -5.3406 -25.3704 -0.5266
# 2 65.5705 101.5448 29.9603 13.9732 -1.7886 4.2867
# 3 44.8844 29.9603 72.0345 20.5271 12.6269 -12.3017
# 4 -5.3406 13.9732 20.5271 32.3910 -7.2691 -15.1649
# 5 -25.3704 -1.7886 12.6269 -7.2691 51.5183 7.4114
# 6 -0.5266 4.2867 -12.3017 -15.1649 7.4114 30.7621
#
#
#
# Elastic Compliance Matrix: (Units=1/GPa)
#
#
# Indices 1 2 3 4 5 6 
#
# 1 0.055142 -0.030251 -0.047329 0.066062 0.045913 0.007738
# 2 -0.030251 0.028961 0.020649 -0.040844 -0.023155 -0.010853
# 3 -0.047329 0.020649 0.062006 -0.066805 -0.047147 -0.000466
# 4 0.066062 -0.040844 -0.066805 0.129065 0.061540 0.028907
# 5 0.045913 -0.023155 -0.047147 0.061540 0.061352 0.000715
# 6 0.007738 -0.010853 -0.000466 0.028907 0.000715 0.048044
#
#
# Mechanical properties :
#
#
# Convention : Reuss Voigt Hill
#
# Bulk Modulus (GPa) = 31.01123 63.84862 47.42993
# Shear Modulus (GPa) = 9.81969 33.16042 21.49005
#
# Velocity S-wave (km/s) = 1.95430 3.59131 2.89109
# Velocity P-wave (km/s) = 4.14174 6.48306 5.43986
#
# Compressibility (1/GPa) = 0.03224638
#
# Stress axis : x y z
#
# Youngs Moduli (GPa) = 18.13491 34.52978 16.12752
#
# Poissons Ratio (x) = 1.04458 0.76329
# Poissons Ratio (y) = 0.54861 -0.33302
# Poissons Ratio (z) = 0.85830 -0.71300
#
# Static dielectric constant tensor:
#      x y z
#    x 2.061510 -0.019140 -0.005890 
#    y -0.019140 2.133160 -0.018250 
#    z -0.005890 -0.018250 2.164910 
# 
# From -- ./inp_files/183607.got.cif
#   From: 2010.05.17/outbox.cif.g08.bks.cpg/sg2_92_cif.got.tgz:183607.got - 2010.06.03 11:33:40.
