data_PCOD9043397
_publ_section_title
;
Structure prediction by ZEFSAII (Michael W. Deem and Ramdas Pophale) SiO2 
 PCOD9043397
Probable space group: P -1
;
_chemical_formula_sum "Si O2"
_cell_formula_units_Z 16
_cell_length_a 7.646016
_cell_length_b 18.237557
_cell_length_c 11.732750
_cell_angle_alpha 46.038164
_cell_angle_beta 138.354946
_cell_angle_gamma 102.225856
_cell_volume 600.135837
_symmetry_space_group_name_H-M "P -1"
_symmetry_group_IT_number 2
_symmetry_cell_setting 'triclinic'
loop_
_space_group_symop_operation_xyz
x,y,z
-x,-y,-z
loop_
_atom_site_type_symbol
_atom_site_label
_atom_site_fract_x
_atom_site_fract_y
_atom_site_fract_z
Si Si1 0.333224 0.188998 0.335299
Si Si2 0.685093 0.206569 0.282187
Si Si3 0.601407 0.657174 0.616113
Si Si4 0.787324 0.688811 0.261402
Si Si5 0.558934 0.467684 0.930429
Si Si6 0.428071 0.636130 0.309693
Si Si7 0.654124 0.060321 0.069486
Si Si8 0.035011 0.077476 0.029517
O O1 0.571160 0.203352 0.357150
O O2 0.282665 0.269614 0.338372
O O3 0.559001 0.030092 0.633108
O O4 0.981570 0.251801 0.030953
O O5 0.366877 0.254941 0.997530
O O6 0.738781 0.313744 0.178779
O O7 0.024481 0.060930 0.571076
O O8 0.715122 0.527814 0.879302
O O9 0.629512 0.634250 0.518406
O O10 0.177231 0.774835 0.282823
O O11 0.589692 0.641328 0.269772
O O12 0.179335 0.561199 0.592995
O O13 0.643436 0.812000 0.142381
O O14 0.500000 0.500000 0.000000
O O15 0.500000 0.500000 0.500000
O O16 0.822820 0.090990 0.022139
O O17 0.500000 0.000000 0.000000
O O18 0.000000 0.000000 0.000000
#
# Coordination Sequence:
#
# PCOD9043397 Si02
#       8
#     2   2   2   2   2   2   2   2
#     4  10  23  45  70  99 136 185 236 281 341 429
#     4  11  23  46  68 101 139 186 240 280 349 428
#     4  11  23  46  71 100 136 185 240 283 347 425
#     4  12  26  45  68 106 144 177 234 297 358 413
#     4  12  24  44  74  98 134 189 241 285 347 428
#     4  12  26  45  67 104 148 181 228 295 354 412
#     4  11  24  44  70 105 144 177 231 298 351 414
#     4   9  21  42  69  98 133 180 235 278 344 425
#
# _framework density 26.660629
#
# number of rings (size 3 to 8) (size 9 to 14) (size 15 to 20)
#    0.000    1.000    2.500    3.750    3.500    3.000 
#    4.500    0.000    0.000    0.000    0.000    0.000 
#    0.000    0.000    0.000    0.000    0.000    0.000 
#
# Total GULP energy -89640.224979 kJ/mol
# GULP energy per Si atom -5602.514061 kJ/mol
# Density = 2.659995 g / cm^3
# Si number density = 26.660629 Si / 1000 Ang^3
#
#
#
# Elastic Constant Matrix: (Units=GPa)
#
#
# Indices 1 2 3 4 5 6 
#
# 1 102.8179 22.8509 14.8176 -0.7961 2.5278 -2.7201
# 2 22.8509 110.1070 21.2407 -1.4321 -16.4895 -13.5008
# 3 14.8176 21.2407 139.4953 5.1810 -12.9336 3.0923
# 4 -0.7961 -1.4321 5.1810 56.5850 3.6693 -7.2868
# 5 2.5278 -16.4895 -12.9336 3.6693 36.5999 4.8367
# 6 -2.7201 -13.5008 3.0923 -7.2868 4.8367 42.9664
#
#
#
# Elastic Compliance Matrix: (Units=1/GPa)
#
#
# Indices 1 2 3 4 5 6 
#
# 1 0.010434 -0.002254 -0.000987 0.000363 -0.002165 0.000328
# 2 -0.002254 0.010750 -0.001091 0.000445 0.004183 0.002918
# 3 -0.000987 -0.001091 0.007756 -0.001108 0.002620 -0.001446
# 4 0.000363 0.000445 -0.001108 0.018426 -0.002546 0.003654
# 5 -0.002165 0.004183 0.002620 -0.002546 0.030924 -0.002924
# 6 0.000328 0.002918 -0.001446 0.003654 -0.002924 0.025265
#
#
# Mechanical properties :
#
#
# Convention : Reuss Voigt Hill
#
# Bulk Modulus (GPa) = 49.31757 52.24874 50.78316
# Shear Modulus (GPa) = 42.02498 46.79764 44.41131
#
# Velocity S-wave (km/s) = 3.97456 4.19419 4.08585
# Velocity P-wave (km/s) = 6.29296 6.56469 6.43026
#
# Compressibility (1/GPa) = 0.02027675
#
# Stress axis : x y z
#
# Youngs Moduli (GPa) = 95.84227 93.01933 128.93805
#
# Poissons Ratio (x) = 0.20969 0.12720
# Poissons Ratio (y) = 0.21605 0.14065
# Poissons Ratio (z) = 0.09455 0.10147
#
# Static dielectric constant tensor:
#      x y z
#    x 2.073460 0.011680 0.059540 
#    y 0.011680 2.049300 -0.030250 
#    z 0.059540 -0.030250 2.130030 
# 
# From -- ./inp_files/214458.got.cif
#   From: 2010.05.17/outbox.cif.g08.bks.cpg/sg2_108_cif.got.tgz:214458.got - 2010.06.03 11:33:40.
