data_PCOD9043360
_publ_section_title
;
Structure prediction by ZEFSAII (Michael W. Deem and Ramdas Pophale) SiO2 
 PCOD9043360
Probable space group: P -1
;
_chemical_formula_sum "Si O2"
_cell_formula_units_Z 12
_cell_length_a 12.795663
_cell_length_b 11.423314
_cell_length_c 5.398244
_cell_angle_alpha 110.383604
_cell_angle_beta 81.338414
_cell_angle_gamma 49.639750
_cell_volume 479.114900
_symmetry_space_group_name_H-M "P -1"
_symmetry_group_IT_number 2
_symmetry_cell_setting 'triclinic'
loop_
_space_group_symop_operation_xyz
x,y,z
-x,-y,-z
loop_
_atom_site_type_symbol
_atom_site_label
_atom_site_fract_x
_atom_site_fract_y
_atom_site_fract_z
Si Si1 0.395985 0.079431 0.346155
Si Si2 0.149218 0.120885 0.661545
Si Si3 0.713382 0.199790 0.281945
Si Si4 0.386882 0.532046 0.869505
Si Si5 0.135774 0.698981 0.422978
Si Si6 0.913594 0.483165 0.325412
O O1 0.300254 0.034050 0.384039
O O2 0.252612 0.307914 0.548448
O O3 0.500000 0.000000 0.500000
O O4 0.500000 0.000000 0.000000
O O5 0.031799 0.146787 0.547731
O O6 0.207607 0.996669 0.794509
O O7 0.039045 0.332991 0.955775
O O8 0.519260 0.358181 0.507978
O O9 0.720033 0.264018 0.065984
O O10 0.801546 0.226124 0.438807
O O11 0.500000 0.500000 0.000000
O O12 0.271589 0.540011 0.056036
O O13 0.125511 0.608405 0.577529
O O14 0.000000 0.500000 0.500000
#
# Coordination Sequence:
#
# PCOD9043360 Si02
#       6
#     2   2   2   2   2   2
#     4  12  30  52  81 116 154 210 268 328 395 472
#     4  12  27  46  80 108 155 197 259 329 388 474
#     4  10  23  45  70 115 148 197 251 312 402 454
#     4   9  21  42  69 106 155 195 246 311 384 470
#     4  11  24  43  77 105 153 196 251 322 385 473
#     4  12  27  51  76 110 154 204 265 324 395 463
#
# _framework density 25.046182999999999
#
# number of rings (size 3 to 8) (size 9 to 14) (size 15 to 20)
#    0.000    1.000    1.667    3.000    4.667    9.333 
#    0.000    0.000    0.000    0.000    0.000    0.000 
#    0.000    0.000    0.000    0.000    0.000    0.000 
#
# Total GULP energy -67203.681215 kJ/mol
# GULP energy per Si atom -5600.306768 kJ/mol
# Density = 2.498918 g / cm^3
# Si number density = 25.046183 Si / 1000 Ang^3
#
#
#
# Elastic Constant Matrix: (Units=GPa)
#
#
# Indices 1 2 3 4 5 6 
#
# 1 110.1592 28.3060 51.3625 0.5368 -30.0176 -19.9050
# 2 28.3060 191.7141 57.6172 3.6050 -3.2831 -19.6717
# 3 51.3625 57.6172 124.7380 -8.7767 -27.6336 -3.6898
# 4 0.5368 3.6050 -8.7767 44.2534 5.2888 4.3701
# 5 -30.0176 -3.2831 -27.6336 5.2888 41.8335 -4.1858
# 6 -19.9050 -19.6717 -3.6898 4.3701 -4.1858 46.0261
#
#
#
# Elastic Compliance Matrix: (Units=1/GPa)
#
#
# Indices 1 2 3 4 5 6 
#
# 1 0.014700 -0.000021 -0.004048 -0.002747 0.008929 0.007097
# 2 -0.000021 0.006460 -0.003270 -0.001271 -0.001257 0.002496
# 3 -0.004048 -0.003270 0.012292 0.002417 0.004454 -0.001987
# 4 -0.002747 -0.001271 0.002417 0.024097 -0.003940 -0.004184
# 5 0.008929 -0.001257 0.004454 -0.003940 0.034371 0.007181
# 6 0.007097 0.002496 -0.001987 -0.004184 0.007181 0.026754
#
#
# Mechanical properties :
#
#
# Convention : Reuss Voigt Hill
#
# Bulk Modulus (GPa) = 53.26465 77.90917 65.58691
# Shear Modulus (GPa) = 35.81407 45.71098 40.76253
#
# Velocity S-wave (km/s) = 3.78553 4.27672 4.03860
# Velocity P-wave (km/s) = 6.35765 7.45391 6.92750
#
# Compressibility (1/GPa) = 0.01877418
#
# Stress axis : x y z
#
# Youngs Moduli (GPa) = 68.02918 154.79119 81.35435
#
# Poissons Ratio (x) = 0.00324 0.32935
# Poissons Ratio (y) = 0.00142 0.26599
# Poissons Ratio (z) = 0.27541 0.50610
#
# Static dielectric constant tensor:
#      x y z
#    x 1.971920 0.021410 0.026450 
#    y 0.021410 1.930810 0.011930 
#    z 0.026450 0.011930 2.095630 
# 
# From -- ./inp_files/71752.got.cif
#   From: 2010.05.17/outbox.cif.g08.bks.cpg/sg2_36_cif.got.tgz:71752.got - 2010.06.03 11:33:40.
