data_PCOD9043042
_publ_section_title
;
Structure prediction by ZEFSAII (Michael W. Deem and Ramdas Pophale) SiO2 
 PCOD9043042
Probable space group: P -1
;
_chemical_formula_sum "Si O2"
_cell_formula_units_Z 16
_cell_length_a 12.192003
_cell_length_b 8.946212
_cell_length_c 14.798057
_cell_angle_alpha 76.047955
_cell_angle_beta 59.478894
_cell_angle_gamma 125.640660
_cell_volume 724.903314
_symmetry_space_group_name_H-M "P -1"
_symmetry_group_IT_number 2
_symmetry_cell_setting 'triclinic'
loop_
_space_group_symop_operation_xyz
x,y,z
-x,-y,-z
loop_
_atom_site_type_symbol
_atom_site_label
_atom_site_fract_x
_atom_site_fract_y
_atom_site_fract_z
Si Si1 0.180013 0.769778 0.452463
Si Si2 0.390486 0.059429 0.025937
Si Si3 0.417938 0.243212 0.558524
Si Si4 0.900345 0.009583 0.438399
Si Si5 0.164667 0.561544 0.669169
Si Si6 0.414929 0.652123 0.909593
Si Si7 0.080553 0.689912 0.856085
Si Si8 0.609384 0.547459 0.769815
O O1 0.074250 0.822031 0.527072
O O2 0.225718 0.715397 0.529768
O O3 0.000000 0.500000 0.500000
O O4 0.418908 0.062872 0.259192
O O5 0.471741 0.233597 0.055436
O O6 0.497529 0.265556 0.868237
O O7 0.108528 0.766863 0.179543
O O8 0.500000 0.000000 0.000000
O O9 0.500000 0.500000 0.500000
O O10 0.644568 0.378278 0.411267
O O11 0.216884 0.046677 0.594096
O O12 0.293063 0.030587 0.726617
O O13 0.162311 0.208506 0.294115
O O14 0.721777 0.706006 0.603280
O O15 0.167569 0.670783 0.740421
O O16 0.430341 0.500168 0.879901
O O17 0.154686 0.456163 0.050668
O O18 0.000000 0.500000 0.000000
#
# Coordination Sequence:
#
# PCOD9043042 Si02
#       8
#     2   2   2   2   2   2   2   2
#     4  11  22  42  75 107 140 180 237 294 364 432
#     4  12  23  42  66 106 139 175 229 300 359 418
#     4  12  29  47  72 100 147 200 246 291 357 436
#     4  10  23  45  68 101 142 190 233 291 357 436
#     4  12  26  45  72 101 146 188 238 294 356 435
#     4  11  24  41  71 103 138 183 230 297 368 423
#     4  12  27  48  74 102 144 192 246 298 361 426
#     4  10  24  40  71  98 141 178 230 297 366 418
#
# _framework density 22.071909000000002
#
# number of rings (size 3 to 8) (size 9 to 14) (size 15 to 20)
#    0.000    0.750    3.750    3.000    7.000    2.000 
#    0.000    1.250    0.000    0.000    0.000    0.000 
#    0.000    0.000    0.000    0.000    0.000    0.000 
#
# Total GULP energy -89531.019703 kJ/mol
# GULP energy per Si atom -5595.688731 kJ/mol
# Density = 2.202167 g / cm^3
# Si number density = 22.071909 Si / 1000 Ang^3
#
#
#
# Elastic Constant Matrix: (Units=GPa)
#
#
# Indices 1 2 3 4 5 6 
#
# 1 121.0296 25.1099 63.9031 -3.8556 -1.8284 -17.5900
# 2 25.1099 67.9550 42.4066 -5.7706 6.3291 -17.4992
# 3 63.9031 42.4066 140.2012 -18.7413 11.4805 -20.7987
# 4 -3.8556 -5.7706 -18.7413 32.2771 -4.6205 4.4089
# 5 -1.8284 6.3291 11.4805 -4.6205 55.0297 -0.0099
# 6 -17.5900 -17.4992 -20.7987 4.4089 -0.0099 33.9297
#
#
#
# Elastic Compliance Matrix: (Units=1/GPa)
#
#
# Indices 1 2 3 4 5 6 
#
# 1 0.011363 -0.000704 -0.004908 -0.001804 0.001331 0.002754
# 2 -0.000704 0.019723 -0.004529 -0.000351 -0.001375 0.007076
# 3 -0.004908 -0.004529 0.011796 0.004979 -0.001685 0.001703
# 4 -0.001804 -0.000351 0.004979 0.034197 0.001813 -0.002507
# 5 0.001331 -0.001375 -0.001685 0.001813 0.018878 -0.001282
# 6 0.002754 0.007076 0.001703 -0.002507 -0.001282 0.035919
#
#
# Mechanical properties :
#
#
# Convention : Reuss Voigt Hill
#
# Bulk Modulus (GPa) = 44.24993 65.78055 55.01524
# Shear Modulus (GPa) = 31.31083 37.43170 34.37126
#
# Velocity S-wave (km/s) = 3.77049 4.12260 3.95047
# Velocity P-wave (km/s) = 6.24877 7.24766 6.76667
#
# Compressibility (1/GPa) = 0.02259891
#
# Stress axis : x y z
#
# Youngs Moduli (GPa) = 88.00769 50.70342 84.77695
#
# Poissons Ratio (x) = 0.03569 0.41606
# Poissons Ratio (y) = 0.06195 0.38398
# Poissons Ratio (z) = 0.43192 0.22965
#
# Static dielectric constant tensor:
#      x y z
#    x 1.817140 -0.010340 0.039430 
#    y -0.010340 1.815630 -0.016350 
#    z 0.039430 -0.016350 1.840970 
# 
# From -- ./inp_files/206315.got.cif
#   From: 2010.05.17/outbox.cif.g08.bks.cpg/sg2_104_cif.got.tgz:206315.got - 2010.06.03 11:33:40.
