data_PCOD9043974
_publ_section_title
;
Structure prediction by ZEFSAII (Michael W. Deem and Ramdas Pophale) SiO2 
 PCOD9043974
Probable space group: P -1
;
_chemical_formula_sum "Si O2"
_cell_formula_units_Z 13
_cell_length_a 5.323037
_cell_length_b 8.197810
_cell_length_c 12.920818
_cell_angle_alpha 78.258749
_cell_angle_beta 86.578795
_cell_angle_gamma 119.660558
_cell_volume 471.100551
_symmetry_space_group_name_H-M "P -1"
_symmetry_group_IT_number 2
_symmetry_cell_setting 'triclinic'
loop_
_space_group_symop_operation_xyz
x,y,z
-x,-y,-z
loop_
_atom_site_type_symbol
_atom_site_label
_atom_site_fract_x
_atom_site_fract_y
_atom_site_fract_z
Si Si1 0.985021 0.282946 0.354868
Si Si2 0.729921 0.728008 0.447718
Si Si3 0.309456 0.898126 0.117701
Si Si4 0.475922 0.301919 0.750188
Si Si5 0.500000 0.000000 0.500000
Si Si6 0.226473 0.217991 0.147992
Si Si7 0.214959 0.427728 0.919118
O O1 0.007780 0.208627 0.482846
O O2 0.209663 0.514917 0.321438
O O3 0.102894 0.217719 0.263743
O O4 0.635785 0.174325 0.379432
O O5 0.500000 0.500000 0.500000
O O6 0.770030 0.730976 0.323627
O O7 0.596579 0.864381 0.450584
O O8 0.494492 0.883571 0.207516
O O9 0.089981 0.675462 0.118229
O O10 0.142779 0.010312 0.133427
O O11 0.500000 0.000000 0.000000
O O12 0.401728 0.362999 0.852772
O O13 0.585354 0.341584 0.121621
O O14 0.165266 0.335777 0.045918
#
# Coordination Sequence:
#
# PCOD9043974 Si02
#       7
#     2   2   2   2   1   2   2
#     4  10  25  48  69 105 141 188 243 302 363 428
#     4  10  25  47  71  99 143 185 242 308 355 424
#     4  12  25  41  71 110 142 190 242 286 365 447
#     4  10  24  46  70 102 138 189 238 292 367 432
#     4  12  26  44  74 104 138 190 252 288 370 438
#     4  10  23  46  71  99 150 188 233 304 362 431
#     4  10  23  46  68 101 148 186 232 302 362 432
#
# _framework density 27.594957999999998
#
# number of rings (size 3 to 8) (size 9 to 14) (size 15 to 20)
#    0.000    1.538    1.538    0.923    4.308    8.000 
#    0.000    0.000    0.000    0.000    0.000    0.000 
#    0.000    0.000    0.000    0.000    0.000    0.000 
#
# Total GULP energy -72526.381513 kJ/mol
# GULP energy per Si atom -5578.952424 kJ/mol
# Density = 2.753215 g / cm^3
# Si number density = 27.594958 Si / 1000 Ang^3
#
#
#
# Elastic Constant Matrix: (Units=GPa)
#
#
# Indices 1 2 3 4 5 6 
#
# 1 47.2703 -5.0229 41.0106 3.4768 -0.6305 -2.1910
# 2 -5.0229 104.7637 28.9444 0.4651 0.4278 6.5613
# 3 41.0106 28.9444 196.5165 -2.3043 3.2466 4.9356
# 4 3.4768 0.4651 -2.3043 46.8353 7.6693 -6.3195
# 5 -0.6305 0.4278 3.2466 7.6693 46.2981 -1.8328
# 6 -2.1910 6.5613 4.9356 -6.3195 -1.8328 28.4852
#
#
#
# Elastic Compliance Matrix: (Units=1/GPa)
#
#
# Indices 1 2 3 4 5 6 
#
# 1 0.027101 0.002882 -0.006179 -0.002267 0.001233 0.002068
# 2 0.002882 0.010387 -0.002093 -0.000705 0.000129 -0.001956
# 3 -0.006179 -0.002093 0.006733 0.000788 -0.000708 -0.001031
# 4 -0.002267 -0.000705 0.000788 0.022797 -0.003671 0.004673
# 5 0.001233 0.000129 -0.000708 -0.003671 0.022305 0.000808
# 6 0.002068 -0.001956 -0.001031 0.004673 0.000808 0.036983
#
#
# Mechanical properties :
#
#
# Convention : Reuss Voigt Hill
#
# Bulk Modulus (GPa) = 29.90264 53.15718 41.52991
# Shear Modulus (GPa) = 33.73095 43.23162 38.48129
#
# Velocity S-wave (km/s) = 3.50002 3.96239 3.73836
# Velocity P-wave (km/s) = 5.21472 6.34344 5.80657
#
# Compressibility (1/GPa) = 0.03344187
#
# Stress axis : x y z
#
# Youngs Moduli (GPa) = 36.89899 96.27661 148.51898
#
# Poissons Ratio (x) = -0.27748 0.91770
# Poissons Ratio (y) = -0.10635 0.31078
# Poissons Ratio (z) = 0.22800 0.20146
#
# Static dielectric constant tensor:
#      x y z
#    x 1.626620 -0.142270 0.072660 
#    y -0.142270 2.102570 0.022320 
#    z 0.072660 0.022320 2.127120 
# 
# From -- ./inp_files/322267.got.cif
#   From: 2010.05.17/outbox.cif.g08.bks.cpg/sg2_162_cif.got.tgz:322267.got - 2010.06.03 11:33:40.
