data_PCOD9043666
_publ_section_title
;
Structure prediction by ZEFSAII (Michael W. Deem and Ramdas Pophale) SiO2 
 PCOD9043666
Probable space group: P -1
;
_chemical_formula_sum "Si O2"
_cell_formula_units_Z 16
_cell_length_a 15.140889
_cell_length_b 11.091118
_cell_length_c 15.749562
_cell_angle_alpha 126.644685
_cell_angle_beta 142.671534
_cell_angle_gamma 26.994215
_cell_volume 665.323741
_symmetry_space_group_name_H-M "P -1"
_symmetry_group_IT_number 2
_symmetry_cell_setting 'triclinic'
loop_
_space_group_symop_operation_xyz
x,y,z
-x,-y,-z
loop_
_atom_site_type_symbol
_atom_site_label
_atom_site_fract_x
_atom_site_fract_y
_atom_site_fract_z
Si Si1 0.193155 0.200247 0.327083
Si Si2 0.271170 0.853836 0.673594
Si Si3 0.437546 0.876121 0.657029
Si Si4 0.030108 0.597469 0.241363
Si Si5 0.905559 0.336572 0.333464
Si Si6 0.272235 0.928331 0.120021
Si Si7 0.302308 0.058813 0.037726
Si Si8 0.467964 0.599386 0.895674
O O1 0.036122 0.457808 0.254223
O O2 0.045389 0.283566 0.335730
O O3 0.500000 0.000000 0.500000
O O4 0.196170 0.052453 0.206243
O O5 0.135654 0.123356 0.722823
O O6 0.451480 0.735495 0.679598
O O7 0.442780 0.630034 0.787823
O O8 0.000000 0.000000 0.500000
O O9 0.647376 0.657917 0.647563
O O10 0.522588 0.957169 0.799323
O O11 0.120932 0.164797 0.502552
O O12 0.878014 0.716898 0.083906
O O13 0.605555 0.678764 0.264299
O O14 0.810920 0.244571 0.219691
O O15 0.136064 0.137698 0.025503
O O16 0.287095 0.736309 0.038044
O O17 0.467194 0.765269 0.004846
#
# Coordination Sequence:
#
# PCOD9043666 Si02
#       8
#     2   2   2   2   2   2   2   2
#     4  12  24  40  69 106 133 175 227 284 333 396
#     4  11  24  45  69 100 137 177 226 281 341 403
#     4  12  24  44  76  97 137 184 222 285 346 387
#     4  11  27  43  67 104 143 172 232 282 331 416
#     4  10  24  43  69 103 130 180 227 283 337 396
#     4  10  23  45  73  91 143 177 224 281 338 398
#     4  11  23  47  69 100 139 185 220 283 339 403
#     4   9  23  45  66  98 140 173 227 278 330 408
#
# _framework density 24.048439999999999
#
# number of rings (size 3 to 8) (size 9 to 14) (size 15 to 20)
#    0.750    0.500    3.750    0.750    5.250    3.500 
#    4.500    0.625    0.000    0.000    0.000    0.000 
#    0.000    0.000    0.000    0.000    0.000    0.000 
#
# Total GULP energy -89493.078242 kJ/mol
# GULP energy per Si atom -5593.317390 kJ/mol
# Density = 2.399371 g / cm^3
# Si number density = 24.048440 Si / 1000 Ang^3
#
#
#
# Elastic Constant Matrix: (Units=GPa)
#
#
# Indices 1 2 3 4 5 6 
#
# 1 175.9468 20.1824 30.7231 -6.8697 -8.0187 7.7802
# 2 20.1824 43.2616 7.8949 -2.8678 -3.0849 10.4400
# 3 30.7231 7.8949 84.9231 -3.7813 -15.3170 14.1394
# 4 -6.8697 -2.8678 -3.7813 22.5638 1.5729 -5.5929
# 5 -8.0187 -3.0849 -15.3170 1.5729 42.3169 -6.8914
# 6 7.7802 10.4400 14.1394 -5.5929 -6.8914 37.6321
#
#
#
# Elastic Compliance Matrix: (Units=1/GPa)
#
#
# Indices 1 2 3 4 5 6 
#
# 1 0.006383 -0.002598 -0.002022 0.001357 0.000306 0.000418
# 2 -0.002598 0.026001 -0.000339 0.000860 0.000209 -0.006383
# 3 -0.002022 -0.000339 0.013929 0.000424 0.003978 -0.003930
# 4 0.001357 0.000860 0.000424 0.046462 -0.000247 0.006181
# 5 0.000306 0.000209 0.003978 -0.000247 0.025649 0.003044
# 6 0.000418 -0.006383 -0.003930 0.006181 0.003044 0.031210
#
#
# Mechanical properties :
#
#
# Convention : Reuss Voigt Hill
#
# Bulk Modulus (GPa) = 27.47512 46.85916 37.16714
# Shear Modulus (GPa) = 29.12339 36.85796 32.99067
#
# Velocity S-wave (km/s) = 3.48376 3.91916 3.70786
# Velocity P-wave (km/s) = 5.25660 6.32514 5.81546
#
# Compressibility (1/GPa) = 0.03639657
#
# Stress axis : x y z
#
# Youngs Moduli (GPa) = 156.66616 38.45965 71.79271
#
# Poissons Ratio (x) = 0.09992 0.14515
# Poissons Ratio (y) = 0.40703 0.02431
# Poissons Ratio (z) = 0.31674 0.01302
#
# Static dielectric constant tensor:
#      x y z
#    x 1.939460 -0.006630 0.008100 
#    y -0.006630 1.955430 0.002050 
#    z 0.008100 0.002050 1.958780 
# 
# From -- ./inp_files/532624.got.cif
#   From: 2010.05.17/outbox.cif.g08.bks.cpg/sg2_267_cif.got.tgz:532624.got - 2010.06.03 11:33:40.
