data_PCOD9043198
_publ_section_title
;
Structure prediction by ZEFSAII (Michael W. Deem and Ramdas Pophale) SiO2 
 PCOD9043198
Probable space group: P -1
;
_chemical_formula_sum "Si O2"
_cell_formula_units_Z 15
_cell_length_a 11.740087
_cell_length_b 8.875380
_cell_length_c 10.816827
_cell_angle_alpha 57.741299
_cell_angle_beta 39.439254
_cell_angle_gamma 67.798780
_cell_volume 604.239271
_symmetry_space_group_name_H-M "P -1"
_symmetry_group_IT_number 2
_symmetry_cell_setting 'triclinic'
loop_
_space_group_symop_operation_xyz
x,y,z
-x,-y,-z
loop_
_atom_site_type_symbol
_atom_site_label
_atom_site_fract_x
_atom_site_fract_y
_atom_site_fract_z
Si Si1 0.239881 0.822916 0.599475
Si Si2 0.317933 0.442094 0.810615
Si Si3 0.000000 0.000000 0.000000
Si Si4 0.883073 0.818450 0.466242
Si Si5 0.378950 0.155326 0.686273
Si Si6 0.137353 0.676210 0.140539
Si Si7 0.467837 0.342964 0.281762
Si Si8 0.955988 0.715311 0.699813
O O1 0.249297 0.639210 0.749998
O O2 0.440351 0.911817 0.376126
O O3 0.148477 0.764931 0.573839
O O4 0.134484 0.988082 0.672932
O O5 0.359335 0.339687 0.696135
O O6 0.479861 0.481198 0.756121
O O7 0.170332 0.316491 0.060777
O O8 0.199676 0.032743 0.886659
O O9 0.981475 0.214934 0.903223
O O10 0.714471 0.682860 0.631580
O O11 0.889038 0.847483 0.594434
O O12 0.067898 0.744020 0.299642
O O13 0.566238 0.804861 0.518383
O O14 0.064579 0.473201 0.269280
O O15 0.350484 0.682600 0.935436
#
# Coordination Sequence:
#
# PCOD9043198 Si02
#       8
#     2   2   1   2   2   2   2   2
#     4  11  24  44  72 103 143 183 241 294 347 415
#     4  10  24  43  74 104 140 187 235 294 353 414
#     4  12  24  40  72 104 138 174 238 290 356 402
#     4  12  26  46  71 105 147 189 232 295 347 421
#     4  11  24  42  72 109 142 181 235 304 353 413
#     4  11  26  41  71 105 140 186 232 290 353 415
#     4  10  23  45  69 106 138 184 238 285 352 419
#     4  11  26  47  68 103 145 192 235 282 357 427
#
# _framework density 24.824604999999998
#
# number of rings (size 3 to 8) (size 9 to 14) (size 15 to 20)
#    0.000    1.067    1.333    4.400    9.333    4.800 
#    2.400    0.667    0.000    0.000    0.000    0.000 
#    0.000    0.000    0.000    0.000    0.000    0.000 
#
# Total GULP energy -83672.668504 kJ/mol
# GULP energy per Si atom -5578.177900 kJ/mol
# Density = 2.476810 g / cm^3
# Si number density = 24.824605 Si / 1000 Ang^3
#
#
#
# Elastic Constant Matrix: (Units=GPa)
#
#
# Indices 1 2 3 4 5 6 
#
# 1 149.9407 -0.4443 62.6674 -7.3086 -32.0022 23.8627
# 2 -0.4443 88.6863 37.9193 12.4906 -4.2587 20.3652
# 3 62.6674 37.9193 132.0401 15.6115 -24.4875 6.0080
# 4 -7.3086 12.4906 15.6115 28.1389 0.7054 -2.4174
# 5 -32.0022 -4.2587 -24.4875 0.7054 46.6780 -13.7020
# 6 23.8627 20.3652 6.0080 -2.4174 -13.7020 23.1703
#
#
#
# Elastic Compliance Matrix: (Units=1/GPa)
#
#
# Indices 1 2 3 4 5 6 
#
# 1 0.012619 0.006522 -0.007382 0.003076 0.000588 -0.016146
# 2 0.006522 0.021877 -0.008601 -0.005491 -0.006160 -0.027931
# 3 -0.007382 -0.008601 0.014637 -0.005132 0.006159 0.014474
# 4 0.003076 -0.005491 -0.005132 0.042271 0.000543 0.007720
# 5 0.000588 -0.006160 0.006159 0.000543 0.030792 0.021478
# 6 -0.016146 -0.027931 0.014474 0.007720 0.021478 0.094091
#
#
# Mechanical properties :
#
#
# Convention : Reuss Voigt Hill
#
# Bulk Modulus (GPa) = 33.09899 63.43910 48.26904
# Shear Modulus (GPa) = 20.38498 37.63242 29.00870
#
# Velocity S-wave (km/s) = 2.86870 3.89772 3.42211
# Velocity P-wave (km/s) = 4.93302 6.77250 5.92458
#
# Compressibility (1/GPa) = 0.03021241
#
# Stress axis : x y z
#
# Youngs Moduli (GPa) = 79.24575 45.70991 68.31814
#
# Poissons Ratio (x) = -0.29813 0.50433
# Poissons Ratio (y) = -0.51685 0.58757
# Poissons Ratio (z) = 0.58500 0.39313
#
# Static dielectric constant tensor:
#      x y z
#    x 1.860330 -0.079110 -0.078660 
#    y -0.079110 2.002180 -0.050140 
#    z -0.078660 -0.050140 1.904570 
# 
# From -- ./inp_files/354454.got.cif
#   From: 2010.05.17/outbox.cif.g08.bks.cpg/sg2_178_cif.got.tgz:354454.got - 2010.06.03 11:33:40.
