data_PCOD9043883
_publ_section_title
;
Structure prediction by ZEFSAII (Michael W. Deem and Ramdas Pophale) SiO2 
 PCOD9043883
Probable space group: P -1
;
_chemical_formula_sum "Si O2"
_cell_formula_units_Z 15
_cell_length_a 8.493222
_cell_length_b 14.424759
_cell_length_c 19.312944
_cell_angle_alpha 19.288906
_cell_angle_beta 65.232117
_cell_angle_gamma 73.323825
_cell_volume 661.668863
_symmetry_space_group_name_H-M "P -1"
_symmetry_group_IT_number 2
_symmetry_cell_setting 'triclinic'
loop_
_space_group_symop_operation_xyz
x,y,z
-x,-y,-z
loop_
_atom_site_type_symbol
_atom_site_label
_atom_site_fract_x
_atom_site_fract_y
_atom_site_fract_z
Si Si1 0.352859 0.863959 0.518109
Si Si2 0.195797 0.243523 0.909149
Si Si3 0.186680 0.489770 0.343547
Si Si4 0.545032 0.867163 0.839112
Si Si5 0.224807 0.139221 0.717517
Si Si6 0.500000 0.000000 0.000000
Si Si7 0.224591 0.555040 0.541564
Si Si8 0.665202 0.772611 0.614443
O O1 0.249508 0.518498 0.758977
O O2 0.550244 0.888138 0.498345
O O3 0.382973 0.056624 0.306414
O O4 0.254503 0.984435 0.511505
O O5 0.311670 0.029731 0.048646
O O6 0.268078 0.396231 0.713586
O O7 0.976138 0.072864 0.069346
O O8 0.200544 0.262955 0.560174
O O9 0.193184 0.340225 0.373959
O O10 0.997230 0.545189 0.350786
O O11 0.368067 0.784116 0.114898
O O12 0.367700 0.969732 0.807139
O O13 0.694266 0.093144 0.703972
O O14 0.482947 0.521580 0.114378
O O15 0.296218 0.430095 0.549748
#
# Coordination Sequence:
#
# PCOD9043883 Si02
#       8
#     2   2   2   2   2   1   2   2
#     4  10  23  46  65 100 130 173 226 277 319 393
#     4  11  24  43  66  96 135 172 220 272 330 392
#     4  12  25  41  64 101 132 172 226 265 328 405
#     4  11  24  43  69  98 130 175 224 270 333 388
#     4  12  24  41  63  99 140 170 216 271 330 400
#     4  12  24  40  66  90 136 170 210 270 332 384
#     4  11  25  41  63  99 136 171 219 268 333 400
#     4  11  23  43  72  92 133 178 221 274 330 380
#
# _framework density 22.66995
#
# number of rings (size 3 to 8) (size 9 to 14) (size 15 to 20)
#    0.000    0.800    4.000    3.200    5.600    0.000 
#    0.000    8.000    0.000    0.000    0.000    0.000 
#    0.000    0.000    0.000    0.000    0.000    0.000 
#
# Total GULP energy -83745.187314 kJ/mol
# GULP energy per Si atom -5583.012488 kJ/mol
# Density = 2.261835 g / cm^3
# Si number density = 22.669950 Si / 1000 Ang^3
#
#
#
# Elastic Constant Matrix: (Units=GPa)
#
#
# Indices 1 2 3 4 5 6 
#
# 1 45.1238 16.1033 -0.1933 8.0890 -16.1748 -1.6567
# 2 16.1033 145.2290 21.4608 -19.0256 6.1608 7.8410
# 3 -0.1933 21.4608 50.2861 -9.2201 1.6142 15.0325
# 4 8.0890 -19.0256 -9.2201 24.1255 2.9188 2.2569
# 5 -16.1748 6.1608 1.6142 2.9188 31.5713 13.1763
# 6 -1.6567 7.8410 15.0325 2.2569 13.1763 28.1439
#
#
#
# Elastic Compliance Matrix: (Units=1/GPa)
#
#
# Indices 1 2 3 4 5 6 
#
# 1 0.037438 -0.007715 0.000614 -0.020873 0.025113 -0.006058
# 2 -0.007715 0.009664 -0.002195 0.010157 -0.006837 0.000413
# 3 0.000614 -0.002195 0.027659 0.009580 0.005791 -0.017605
# 4 -0.020873 0.010157 0.009580 0.062699 -0.016200 -0.006619
# 5 0.025113 -0.006837 0.005791 -0.016200 0.057684 -0.025417
# 6 -0.006058 0.000413 -0.017605 -0.006619 -0.025417 0.056894
#
#
# Mechanical properties :
#
#
# Convention : Reuss Voigt Hill
#
# Bulk Modulus (GPa) = 17.80351 35.04228 26.42290
# Shear Modulus (GPa) = 17.27997 30.31933 23.79965
#
# Velocity S-wave (km/s) = 2.76387 3.66105 3.24363
# Velocity P-wave (km/s) = 4.24920 5.77600 5.07040
#
# Compressibility (1/GPa) = 0.05616869
#
# Stress axis : x y z
#
# Youngs Moduli (GPa) = 26.71077 103.47744 36.15470
#
# Poissons Ratio (x) = 0.79829 -0.02220
# Poissons Ratio (y) = 0.20606 0.07938
# Poissons Ratio (z) = -0.01640 0.22718
#
# Static dielectric constant tensor:
#      x y z
#    x 1.826660 0.022560 0.042410 
#    y 0.022560 1.827580 0.004450 
#    z 0.042410 0.004450 1.866410 
# 
# From -- ./inp_files/170914.got.cif
#   From: 2010.05.17/outbox.cif.g08.bks.cpg/sg2_86_cif.got.tgz:170914.got - 2010.06.03 11:33:40.
