data_PCOD9043889
_publ_section_title
;
Structure prediction by ZEFSAII (Michael W. Deem and Ramdas Pophale) SiO2 
 PCOD9043889
Probable space group: P -1
;
_chemical_formula_sum "Si O2"
_cell_formula_units_Z 16
_cell_length_a 18.414698
_cell_length_b 5.342158
_cell_length_c 8.835640
_cell_angle_alpha 119.462259
_cell_angle_beta 66.407247
_cell_angle_gamma 124.322111
_cell_volume 615.824409
_symmetry_space_group_name_H-M "P -1"
_symmetry_group_IT_number 2
_symmetry_cell_setting 'triclinic'
loop_
_space_group_symop_operation_xyz
x,y,z
-x,-y,-z
loop_
_atom_site_type_symbol
_atom_site_label
_atom_site_fract_x
_atom_site_fract_y
_atom_site_fract_z
Si Si1 0.329442 0.740613 0.888129
Si Si2 0.141666 0.335928 0.010925
Si Si3 0.160792 0.897509 0.344709
Si Si4 0.649651 0.691085 0.760907
Si Si5 0.007341 0.202618 0.835457
Si Si6 0.465922 0.504077 0.697890
Si Si7 0.306948 0.795225 0.587360
Si Si8 0.880938 0.508567 0.454304
O O1 0.423765 0.744948 0.835220
O O2 0.303169 0.631803 0.704209
O O3 0.247101 0.455941 0.962565
O O4 0.336857 0.090226 0.034528
O O5 0.140755 0.673898 0.148729
O O6 0.080729 0.103235 0.124103
O O7 0.090592 0.190949 0.852884
O O8 0.108345 0.672563 0.462441
O O9 0.267555 0.047912 0.331431
O O10 0.145048 0.201948 0.412285
O O11 0.549997 0.584368 0.757377
O O12 0.663837 0.371913 0.623431
O O13 0.035972 0.311684 0.672724
O O14 0.000000 0.500000 0.000000
O O15 0.500000 0.500000 0.500000
O O16 0.382959 0.149756 0.666328
O O17 0.208364 0.755620 0.631873
#
# Coordination Sequence:
#
# PCOD9043889 Si02
#       8
#     2   2   2   2   2   2   2   2
#     4  11  24  45  70  97 140 187 234 295 364 428
#     4  10  25  47  66 103 139 183 235 294 362 428
#     4  10  25  47  73 102 144 188 237 294 356 429
#     4  10  23  46  65 105 141 182 243 291 354 426
#     4  11  26  41  72 100 142 183 236 295 350 444
#     4  12  24  41  70  98 138 185 237 298 354 428
#     4  11  24  43  69  97 141 187 234 298 357 431
#     4  11  25  45  74 102 140 191 236 294 362 420
#
# _framework density 25.981435999999999
#
# number of rings (size 3 to 8) (size 9 to 14) (size 15 to 20)
#    0.000    1.250    2.500    1.500    8.750    1.500 
#   13.500    0.000    0.000    0.000    0.000    0.000 
#    0.000    0.000    0.000    0.000    0.000    0.000 
#
# Total GULP energy -89423.880326 kJ/mol
# GULP energy per Si atom -5588.992520 kJ/mol
# Density = 2.592230 g / cm^3
# Si number density = 25.981436 Si / 1000 Ang^3
#
#
#
# Elastic Constant Matrix: (Units=GPa)
#
#
# Indices 1 2 3 4 5 6 
#
# 1 99.1322 15.8229 19.6144 -7.1246 5.2402 21.6413
# 2 15.8229 100.6457 33.1393 4.3934 12.1396 15.4574
# 3 19.6144 33.1393 101.6626 19.0056 -9.0480 3.3719
# 4 -7.1246 4.3934 19.0056 45.0260 -3.6665 -5.5409
# 5 5.2402 12.1396 -9.0480 -3.6665 37.2894 0.8774
# 6 21.6413 15.4574 3.3719 -5.5409 0.8774 42.0390
#
#
#
# Elastic Compliance Matrix: (Units=1/GPa)
#
#
# Indices 1 2 3 4 5 6 
#
# 1 0.012141 0.000023 -0.002755 0.002215 -0.002030 -0.005703
# 2 0.000023 0.012661 -0.004386 -0.000320 -0.005121 -0.004251
# 3 -0.002755 -0.004386 0.013094 -0.005020 0.004470 0.001226
# 4 0.002215 -0.000320 -0.005020 0.025119 0.000982 0.002671
# 5 -0.002030 -0.005121 0.004470 0.000982 0.029902 0.002075
# 6 -0.005703 -0.004251 0.001226 0.002671 0.002075 0.028496
#
#
# Mechanical properties :
#
#
# Convention : Reuss Voigt Hill
#
# Bulk Modulus (GPa) = 42.27091 48.73265 45.50178
# Shear Modulus (GPa) = 34.83445 40.39511 37.61478
#
# Velocity S-wave (km/s) = 3.66559 3.94733 3.80907
# Velocity P-wave (km/s) = 5.84982 6.29068 6.07425
#
# Compressibility (1/GPa) = 0.02365693
#
# Stress axis : x y z
#
# Youngs Moduli (GPa) = 82.36842 78.98249 76.37368
#
# Poissons Ratio (x) = -0.00178 0.21043
# Poissons Ratio (y) = -0.00186 0.33501
# Poissons Ratio (z) = 0.22695 0.34645
#
# Static dielectric constant tensor:
#      x y z
#    x 2.109940 0.022830 0.003720 
#    y 0.022830 2.146660 -0.034790 
#    z 0.003720 -0.034790 2.071560 
# 
# From -- ./inp_files/340650.got.cif
#   From: 2010.05.17/outbox.cif.g08.bks.cpg/sg2_171_cif.got.tgz:340650.got - 2010.06.03 11:33:40.
