data_PCOD9043596
_publ_section_title
;
Structure prediction by ZEFSAII (Michael W. Deem and Ramdas Pophale) SiO2 
 PCOD9043596
Probable space group: P -1
;
_chemical_formula_sum "Si O2"
_cell_formula_units_Z 14
_cell_length_a 9.127592
_cell_length_b 10.426323
_cell_length_c 10.219687
_cell_angle_alpha 139.949406
_cell_angle_beta 116.310961
_cell_angle_gamma 60.154487
_cell_volume 539.425717
_symmetry_space_group_name_H-M "P -1"
_symmetry_group_IT_number 2
_symmetry_cell_setting 'triclinic'
loop_
_space_group_symop_operation_xyz
x,y,z
-x,-y,-z
loop_
_atom_site_type_symbol
_atom_site_label
_atom_site_fract_x
_atom_site_fract_y
_atom_site_fract_z
Si Si1 0.391213 0.278904 0.708608
Si Si2 0.757373 0.269671 0.093135
Si Si3 0.227913 0.301163 0.917074
Si Si4 0.879941 0.275169 0.669925
Si Si5 0.309244 0.096130 0.050133
Si Si6 0.220655 0.954618 0.327780
Si Si7 0.301673 0.536137 0.495781
O O1 0.344854 0.524205 0.864322
O O2 0.377060 0.219086 0.808993
O O3 0.584279 0.176665 0.667201
O O4 0.255306 0.179493 0.503814
O O5 0.764650 0.392245 0.329571
O O6 0.852642 0.138358 0.900052
O O7 0.717951 0.074891 0.996841
O O8 0.056750 0.333885 0.792415
O O9 0.243511 0.518446 0.148517
O O10 0.215093 0.159261 0.923738
O O11 0.876612 0.083016 0.610071
O O12 0.807106 0.288196 0.506985
O O13 0.273930 0.313462 0.280759
O O14 0.500000 0.000000 0.000000
O O15 0.500000 0.500000 0.500000
#
# Coordination Sequence:
#
# PCOD9043596 Si02
#       7
#     2   2   2   2   2   2   2
#     4  11  24  41  69 101 136 177 228 278 338 402
#     4  12  23  40  64  96 134 172 216 284 336 386
#     4  10  23  45  72  98 134 184 231 273 332 412
#     4  10  23  45  72  98 134 184 231 273 332 412
#     4  11  23  40  67 100 136 174 226 280 335 397
#     4  11  24  41  69 101 136 177 228 278 338 402
#     4  11  23  40  67 100 136 174 226 280 335 397
#
# _framework density 25.953529
#
# number of rings (size 3 to 8) (size 9 to 14) (size 15 to 20)
#    0.000    1.143    2.857    3.000    6.000    2.857 
#    0.000    1.429    0.000    0.000    0.000    0.000 
#    0.000    0.000    0.000    0.000    0.000    0.000 
#
# Total GULP energy -78096.337410 kJ/mol
# GULP energy per Si atom -5578.309815 kJ/mol
# Density = 2.589446 g / cm^3
# Si number density = 25.953529 Si / 1000 Ang^3
#
#
#
# Elastic Constant Matrix: (Units=GPa)
#
#
# Indices 1 2 3 4 5 6 
#
# 1 66.7341 30.4018 15.2751 -15.0123 -11.0348 20.5176
# 2 30.4018 155.3081 47.6842 0.8720 7.6868 30.3939
# 3 15.2751 47.6842 155.1788 -3.4331 -20.3093 10.5531
# 4 -15.0123 0.8720 -3.4331 65.8431 10.6214 0.0492
# 5 -11.0348 7.6868 -20.3093 10.6214 32.4407 -7.5752
# 6 20.5176 30.3939 10.5531 0.0492 -7.5752 32.9985
#
#
#
# Elastic Compliance Matrix: (Units=1/GPa)
#
#
# Indices 1 2 3 4 5 6 
#
# 1 0.020634 -0.002327 -0.000048 0.004109 0.003911 -0.009779
# 2 -0.002327 0.009824 -0.003155 0.000330 -0.007124 -0.008229
# 3 -0.000048 -0.003155 0.008124 -0.000585 0.006433 0.001816
# 4 0.004109 0.000330 -0.000585 0.016985 -0.005534 -0.003968
# 5 0.003911 -0.007124 0.006433 -0.005534 0.042444 0.011825
# 6 -0.009779 -0.008229 0.001816 -0.003968 0.011825 0.046104
#
#
# Mechanical properties :
#
#
# Convention : Reuss Voigt Hill
#
# Bulk Modulus (GPa) = 36.33635 62.66034 49.49835
# Shear Modulus (GPa) = 30.42287 45.18046 37.80167
#
# Velocity S-wave (km/s) = 3.42746 4.17684 3.82057
# Velocity P-wave (km/s) = 5.44925 6.88891 6.21093
#
# Compressibility (1/GPa) = 0.02752065
#
# Stress axis : x y z
#
# Youngs Moduli (GPa) = 48.46432 101.78890 123.09268
#
# Poissons Ratio (x) = 0.23688 0.00593
# Poissons Ratio (y) = 0.11279 0.38839
# Poissons Ratio (z) = 0.00233 0.32117
#
# Static dielectric constant tensor:
#      x y z
#    x 2.097110 -0.065200 0.039640 
#    y -0.065200 2.021890 -0.026580 
#    z 0.039640 -0.026580 2.106010 
# 
# From -- ./inp_files/241567.got.cif
#   From: 2010.05.17/outbox.cif.g08.bks.cpg/sg2_121_cif.got.tgz:241567.got - 2010.06.03 11:33:40.
