data_PCOD9043246
_publ_section_title
;
Structure prediction by ZEFSAII (Michael W. Deem and Ramdas Pophale) SiO2 
 PCOD9043246
Probable space group: P -1
;
_chemical_formula_sum "Si O2"
_cell_formula_units_Z 16
_cell_length_a 8.581053
_cell_length_b 9.847565
_cell_length_c 14.478698
_cell_angle_alpha 95.779155
_cell_angle_beta 41.787661
_cell_angle_gamma 103.351703
_cell_volume 788.422939
_symmetry_space_group_name_H-M "P -1"
_symmetry_group_IT_number 2
_symmetry_cell_setting 'triclinic'
loop_
_space_group_symop_operation_xyz
x,y,z
-x,-y,-z
loop_
_atom_site_type_symbol
_atom_site_label
_atom_site_fract_x
_atom_site_fract_y
_atom_site_fract_z
Si Si1 0.521188 0.609560 0.580772
Si Si2 0.388177 0.918189 0.327512
Si Si3 0.210057 0.432989 0.866469
Si Si4 0.469215 0.606396 0.101264
Si Si5 0.356444 0.097468 0.516057
Si Si6 0.115402 0.125571 0.807404
Si Si7 0.950606 0.377149 0.588621
Si Si8 0.595285 0.937875 0.043821
O O1 0.500000 0.500000 0.500000
O O2 0.361256 0.535976 0.730558
O O3 0.469237 0.752975 0.575402
O O4 0.797311 0.649960 0.493742
O O5 0.647000 0.906975 0.253292
O O6 0.218528 0.763004 0.388683
O O7 0.446350 0.968448 0.200839
O O8 0.278857 0.018144 0.448977
O O9 0.377423 0.414579 0.877649
O O10 0.109888 0.281147 0.853643
O O11 0.000000 0.500000 0.000000
O O12 0.195518 0.582483 0.256863
O O13 0.554354 0.769342 0.044971
O O14 0.500000 0.500000 0.000000
O O15 0.156120 0.121408 0.678429
O O16 0.500000 0.000000 0.500000
O O17 0.875787 0.013723 0.934580
O O18 0.000000 0.500000 0.500000
O O19 0.500000 0.000000 0.000000
#
# Coordination Sequence:
#
# PCOD9043246 Si02
#       8
#     2   2   2   2   2   2   2   2
#     4  12  26  45  73 104 138 190 232 288 354 416
#     4  10  23  45  69  98 139 182 231 284 350 409
#     4  12  27  44  73 104 140 183 238 289 351 422
#     4  11  27  47  67 106 142 183 235 290 350 414
#     4  10  25  42  71 102 139 175 235 282 347 416
#     4  11  22  47  68  99 141 182 233 284 349 417
#     4  11  23  46  73  97 142 184 232 292 348 411
#     4  11  26  42  70  98 141 186 226 283 349 411
#
# _framework density 20.293675
#
# number of rings (size 3 to 8) (size 9 to 14) (size 15 to 20)
#    0.000    1.000    5.000    0.375   10.500    2.500 
#    0.000    0.000    0.000    0.000    0.000    0.000 
#    0.000    0.000    0.000    0.000    0.000    0.000 
#
# Total GULP energy -89477.901627 kJ/mol
# GULP energy per Si atom -5592.368852 kJ/mol
# Density = 2.024749 g / cm^3
# Si number density = 20.293675 Si / 1000 Ang^3
#
#
#
# Elastic Constant Matrix: (Units=GPa)
#
#
# Indices 1 2 3 4 5 6 
#
# 1 85.8131 45.2885 53.1488 -10.9688 12.7039 -0.6236
# 2 45.2885 142.7648 88.2133 -5.1785 28.8911 5.7976
# 3 53.1488 88.2133 163.3480 -5.3070 23.5076 15.7521
# 4 -10.9688 -5.1785 -5.3070 50.3919 5.3083 9.6331
# 5 12.7039 28.8911 23.5076 5.3083 46.3618 2.0176
# 6 -0.6236 5.7976 15.7521 9.6331 2.0176 40.5323
#
#
#
# Elastic Compliance Matrix: (Units=1/GPa)
#
#
# Indices 1 2 3 4 5 6 
#
# 1 0.015756 -0.002419 -0.003686 0.002652 -0.001308 0.001456
# 2 -0.002419 0.011668 -0.004922 0.000541 -0.004187 0.000286
# 3 -0.003686 -0.004922 0.010505 0.000593 -0.001164 -0.003519
# 4 0.002652 0.000541 0.000593 0.021937 -0.003646 -0.005299
# 5 -0.001308 -0.004187 -0.001164 -0.003646 0.025518 0.000628
# 6 0.001456 0.000286 -0.003519 -0.005299 0.000628 0.027249
#
#
# Mechanical properties :
#
#
# Convention : Reuss Voigt Hill
#
# Bulk Modulus (GPa) = 62.98729 85.02522 74.00626
# Shear Modulus (GPa) = 35.71965 41.14221 38.43093
#
# Velocity S-wave (km/s) = 4.19995 4.50749 4.35643
# Velocity P-wave (km/s) = 7.39085 8.31133 7.86457
#
# Compressibility (1/GPa) = 0.01587622
#
# Stress axis : x y z
#
# Youngs Moduli (GPa) = 63.46733 85.70275 95.18903
#
# Poissons Ratio (x) = 0.20728 0.35091
# Poissons Ratio (y) = 0.15350 0.46850
# Poissons Ratio (z) = 0.23397 0.42181
#
# Static dielectric constant tensor:
#      x y z
#    x 1.752230 -0.012720 0.005580 
#    y -0.012720 1.729170 0.016500 
#    z 0.005580 0.016500 1.708360 
# 
# From -- ./inp_files/495036.got.cif
#   From: 2010.05.17/outbox.cif.g08.bks.cpg/sg2_248_cif.got.tgz:495036.got - 2010.06.03 11:33:40.
