data_PCOD9043547
_publ_section_title
;
Structure prediction by ZEFSAII (Michael W. Deem and Ramdas Pophale) SiO2 
 PCOD9043547
Probable space group: P -1
;
_chemical_formula_sum "Si O2"
_cell_formula_units_Z 16
_cell_length_a 11.112717
_cell_length_b 7.858937
_cell_length_c 14.804910
_cell_angle_alpha 62.407795
_cell_angle_beta 69.049652
_cell_angle_gamma 119.466424
_cell_volume 649.978224
_symmetry_space_group_name_H-M "P -1"
_symmetry_group_IT_number 2
_symmetry_cell_setting 'triclinic'
loop_
_space_group_symop_operation_xyz
x,y,z
-x,-y,-z
loop_
_atom_site_type_symbol
_atom_site_label
_atom_site_fract_x
_atom_site_fract_y
_atom_site_fract_z
Si Si1 0.243134 0.752492 0.575648
Si Si2 0.982220 0.762922 0.102212
Si Si3 0.436597 0.193141 0.825530
Si Si4 0.375243 0.293358 0.493575
Si Si5 0.411408 0.245003 0.153831
Si Si6 0.807629 0.386488 0.702632
Si Si7 0.993909 0.912466 0.421735
Si Si8 0.620790 0.188559 0.221974
O O1 0.153767 0.449519 0.718880
O O2 0.029208 0.609794 0.636778
O O3 0.349453 0.036387 0.544784
O O4 0.417620 0.930850 0.406904
O O5 0.846597 0.473367 0.139726
O O6 0.000000 0.000000 0.000000
O O7 0.223745 0.977404 0.991184
O O8 0.516149 0.476505 0.680130
O O9 0.623139 0.312431 0.804318
O O10 0.384326 0.981530 0.810503
O O11 0.500000 0.500000 0.500000
O O12 0.139232 0.107636 0.602303
O O13 0.583606 0.349936 0.144775
O O14 0.300492 0.941333 0.205622
O O15 0.500000 0.500000 0.000000
O O16 0.229677 0.139182 0.280941
O O17 0.869606 0.563735 0.548196
O O18 0.000000 0.000000 0.500000
#
# Coordination Sequence:
#
# PCOD9043547 Si02
#       8
#     2   2   2   2   2   2   2   2
#     4  12  25  47  75 104 142 197 246 296 361 448
#     4  12  28  46  67 104 148 188 237 308 369 429
#     4  10  25  45  72 102 145 187 239 310 363 425
#     4  11  24  42  72 109 143 190 244 297 365 442
#     4  11  25  42  69 106 144 187 238 304 360 421
#     4  10  23  45  72 102 141 192 244 292 360 431
#     4  11  21  44  72 104 144 190 244 297 352 436
#     4  11  24  48  71 102 143 192 249 289 364 443
#
# _framework density 24.616211
#
# number of rings (size 3 to 8) (size 9 to 14) (size 15 to 20)
#    0.000    1.000    2.500    2.625    5.250    5.500 
#    0.000    0.000    0.000    0.000    0.000    0.000 
#    0.000    0.000    0.000    0.000    0.000    0.000 
#
# Total GULP energy -89541.852821 kJ/mol
# GULP energy per Si atom -5596.365801 kJ/mol
# Density = 2.456018 g / cm^3
# Si number density = 24.616211 Si / 1000 Ang^3
#
#
#
# Elastic Constant Matrix: (Units=GPa)
#
#
# Indices 1 2 3 4 5 6 
#
# 1 96.9854 17.4524 21.5858 8.4293 -1.1492 0.0510
# 2 17.4524 95.3408 6.3082 -19.4390 6.5959 -8.3451
# 3 21.5858 6.3082 95.2665 1.1653 11.2367 -38.6750
# 4 8.4293 -19.4390 1.1653 11.6584 3.0022 5.0453
# 5 -1.1492 6.5959 11.2367 3.0022 49.4310 -16.4560
# 6 0.0510 -8.3451 -38.6750 5.0453 -16.4560 44.1001
#
#
#
# Elastic Compliance Matrix: (Units=1/GPa)
#
#
# Indices 1 2 3 4 5 6 
#
# 1 0.014362 -0.007440 -0.002880 -0.023373 0.003398 -0.000008
# 2 -0.007440 0.021114 -0.001471 0.044723 -0.007048 -0.005033
# 3 -0.002880 -0.001471 0.018402 -0.010698 0.002608 0.018060
# 4 -0.023373 0.044723 -0.010698 0.200167 -0.027584 -0.034085
# 5 0.003398 -0.007048 0.002608 -0.027584 0.027060 0.014203
# 6 -0.000008 -0.005033 0.018060 -0.034085 0.014203 0.046761
#
#
# Mechanical properties :
#
#
# Convention : Reuss Voigt Hill
#
# Bulk Modulus (GPa) = 33.00754 42.03173 37.51964
# Shear Modulus (GPa) = 13.82949 37.18766 25.50857
#
# Velocity S-wave (km/s) = 2.37281 3.89099 3.22258
# Velocity P-wave (km/s) = 4.57657 6.10723 5.39644
#
# Compressibility (1/GPa) = 0.03029610
#
# Stress axis : x y z
#
# Youngs Moduli (GPa) = 69.62699 47.36304 54.34249
#
# Poissons Ratio (x) = 0.35237 0.15649
# Poissons Ratio (y) = 0.51801 0.07995
# Poissons Ratio (z) = 0.20051 0.06968
#
# Static dielectric constant tensor:
#      x y z
#    x 1.987240 0.008890 0.029450 
#    y 0.008890 1.973340 -0.025310 
#    z 0.029450 -0.025310 1.884210 
# 
# From -- ./inp_files/515199.got.cif
#   From: 2010.05.17/outbox.cif.g08.bks.cpg/sg2_258_cif.got.tgz:515199.got - 2010.06.03 11:33:40.
