data_PCOD9043479
_publ_section_title
;
Structure prediction by ZEFSAII (Michael W. Deem and Ramdas Pophale) SiO2 
 PCOD9043479
Probable space group: P -1
;
_chemical_formula_sum "Si O2"
_cell_formula_units_Z 16
_cell_length_a 21.372117
_cell_length_b 12.187456
_cell_length_c 8.823776
_cell_angle_alpha 32.100941
_cell_angle_beta 60.150745
_cell_angle_gamma 39.346115
_cell_volume 684.680375
_symmetry_space_group_name_H-M "P -1"
_symmetry_group_IT_number 2
_symmetry_cell_setting 'triclinic'
loop_
_space_group_symop_operation_xyz
x,y,z
-x,-y,-z
loop_
_atom_site_type_symbol
_atom_site_label
_atom_site_fract_x
_atom_site_fract_y
_atom_site_fract_z
Si Si1 0.594637 0.157618 0.443988
Si Si2 0.588790 0.637594 0.866118
Si Si3 0.343350 0.700259 0.536994
Si Si4 0.803031 0.477009 0.452501
Si Si5 0.413722 0.309442 0.635332
Si Si6 0.881852 0.666254 0.905520
Si Si7 0.220213 0.494052 0.210969
Si Si8 0.026070 0.843555 0.818310
O O1 0.424858 0.571136 0.913706
O O2 0.631233 0.138784 0.596465
O O3 0.485189 0.259671 0.476426
O O4 0.690633 0.832812 0.613838
O O5 0.711687 0.447244 0.900576
O O6 0.500000 0.000000 0.500000
O O7 0.589070 0.612139 0.078997
O O8 0.368860 0.600396 0.450387
O O9 0.212548 0.954691 0.424481
O O10 0.687581 0.617128 0.380284
O O11 0.802034 0.549145 0.544714
O O12 0.835520 0.599160 0.161584
O O13 0.905704 0.093665 0.749083
O O14 0.500000 0.000000 0.000000
O O15 0.905261 0.509205 0.899882
O O16 0.000000 0.500000 0.000000
O O17 0.109739 0.769917 0.921582
O O18 0.000000 0.000000 0.500000
#
# Coordination Sequence:
#
# PCOD9043479 Si02
#       8
#     2   2   2   2   2   2   2   2
#     4  10  25  45  75 104 151 209 245 309 379 443
#     4  10  26  44  70 107 148 204 249 305 381 440
#     4  10  23  45  71 108 146 193 263 313 371 443
#     4  11  28  43  76 111 151 201 244 317 389 443
#     4  12  25  44  75 109 153 196 265 310 371 455
#     4  11  23  45  76 111 142 193 257 315 382 459
#     4  12  25  50  71 110 159 194 255 309 385 466
#     4  10  23  46  76 102 141 195 253 310 378 447
#
# _framework density 23.368569000000001
#
# number of rings (size 3 to 8) (size 9 to 14) (size 15 to 20)
#    0.750    0.500    1.250    3.000   12.250    1.500 
#    4.500    0.625    0.000    0.000    0.000    0.000 
#    0.000    0.000    0.000    0.000    0.000    0.000 
#
# Total GULP energy -89283.038311 kJ/mol
# GULP energy per Si atom -5580.189894 kJ/mol
# Density = 2.331538 g / cm^3
# Si number density = 23.368569 Si / 1000 Ang^3
#
#
#
# Elastic Constant Matrix: (Units=GPa)
#
#
# Indices 1 2 3 4 5 6 
#
# 1 147.8296 65.0532 52.7574 -2.5838 28.3792 -22.5129
# 2 65.0532 130.3860 57.3142 -18.1461 8.6196 -1.3314
# 3 52.7574 57.3142 112.2248 -8.6524 18.0142 -16.3570
# 4 -2.5838 -18.1461 -8.6524 36.9380 -4.3932 -1.0224
# 5 28.3792 8.6196 18.0142 -4.3932 41.2723 -7.7110
# 6 -22.5129 -1.3314 -16.3570 -1.0224 -7.7110 50.2890
#
#
#
# Elastic Compliance Matrix: (Units=1/GPa)
#
#
# Indices 1 2 3 4 5 6 
#
# 1 0.010910 -0.004713 -0.001542 -0.002472 -0.005478 0.003367
# 2 -0.004713 0.012551 -0.004641 0.004988 0.002657 -0.002778
# 3 -0.001542 -0.004641 0.012950 0.000366 -0.003034 0.002941
# 4 -0.002472 0.004988 0.000366 0.029890 0.003741 0.000326
# 5 -0.005478 0.002657 -0.003034 0.003741 0.029391 0.001214
# 6 0.003367 -0.002778 0.002941 0.000326 0.001214 0.022468
#
#
# Mechanical properties :
#
#
# Convention : Reuss Voigt Hill
#
# Bulk Modulus (GPa) = 68.40744 82.29889 75.35317
# Shear Modulus (GPa) = 34.52408 40.05422 37.28915
#
# Velocity S-wave (km/s) = 3.84783 4.14457 3.99895
# Velocity P-wave (km/s) = 7.00556 7.62873 7.32377
#
# Compressibility (1/GPa) = 0.01461829
#
# Stress axis : x y z
#
# Youngs Moduli (GPa) = 91.65679 79.67267 77.21962
#
# Poissons Ratio (x) = 0.37549 0.11911
# Poissons Ratio (y) = 0.43197 0.35841
# Poissons Ratio (z) = 0.14137 0.36979
#
# Static dielectric constant tensor:
#      x y z
#    x 1.972810 0.037000 0.033810 
#    y 0.037000 1.892070 0.028260 
#    z 0.033810 0.028260 1.981310 
# 
# From -- ./inp_files/345856.got.cif
#   From: 2010.05.17/outbox.cif.g08.bks.cpg/sg2_173_cif.got.tgz:345856.got - 2010.06.03 11:33:40.
