data_PCOD9043416
_publ_section_title
;
Structure prediction by ZEFSAII (Michael W. Deem and Ramdas Pophale) SiO2 
 PCOD9043416
Probable space group: P -1
;
_chemical_formula_sum "Si O2"
_cell_formula_units_Z 16
_cell_length_a 7.983776
_cell_length_b 11.816038
_cell_length_c 14.071091
_cell_angle_alpha 111.627438
_cell_angle_beta 65.695586
_cell_angle_gamma 56.126525
_cell_volume 615.502813
_symmetry_space_group_name_H-M "P -1"
_symmetry_group_IT_number 2
_symmetry_cell_setting 'triclinic'
loop_
_space_group_symop_operation_xyz
x,y,z
-x,-y,-z
loop_
_atom_site_type_symbol
_atom_site_label
_atom_site_fract_x
_atom_site_fract_y
_atom_site_fract_z
Si Si1 0.289656 0.986492 0.440773
Si Si2 0.606793 0.862007 0.023119
Si Si3 0.400333 0.723586 0.018267
Si Si4 0.032189 0.228275 0.773892
Si Si5 0.361558 0.430508 0.697762
Si Si6 0.246801 0.175183 0.356018
Si Si7 0.325439 0.735899 0.831319
Si Si8 0.326330 0.388249 0.483491
O O1 0.636863 0.873543 0.319838
O O2 0.405794 0.782443 0.356390
O O3 0.093553 0.132783 0.626830
O O4 0.108408 0.137144 0.435702
O O5 0.352020 0.891136 0.105115
O O6 0.583871 0.953031 0.152748
O O7 0.973712 0.600826 0.844342
O O8 0.500000 0.000000 0.000000
O O9 0.073428 0.822509 0.146050
O O10 0.513512 0.658353 0.861672
O O11 0.706841 0.495298 0.934028
O O12 0.310800 0.598683 0.787391
O O13 0.469168 0.349479 0.538477
O O14 0.262409 0.279493 0.457309
O O15 0.013892 0.349542 0.378109
O O16 0.472236 0.693570 0.683676
O O17 0.000000 0.000000 0.000000
#
# Coordination Sequence:
#
# PCOD9043416 Si02
#       8
#     2   2   2   2   2   2   2   2
#     4  11  24  43  74 105 143 183 243 298 356 424
#     4  12  24  46  69 102 140 190 237 288 357 423
#     4  11  25  45  70 100 145 188 234 289 358 427
#     4  10  23  45  71 100 143 191 226 293 365 419
#     4  12  26  45  73 105 141 187 241 295 356 430
#     4  11  25  42  76 105 139 189 238 293 354 430
#     4  12  28  44  71 105 143 185 239 300 353 425
#     4  11  24  46  71 103 145 188 239 294 357 426
#
# _framework density 25.995009
#
# number of rings (size 3 to 8) (size 9 to 14) (size 15 to 20)
#    0.000    0.750    2.500    4.875    7.000    3.500 
#    0.000    1.875    0.000    0.000    0.000    0.000 
#    0.000    0.000    0.000    0.000    0.000    0.000 
#
# Total GULP energy -89639.229198 kJ/mol
# GULP energy per Si atom -5602.451825 kJ/mol
# Density = 2.593584 g / cm^3
# Si number density = 25.995009 Si / 1000 Ang^3
#
#
#
# Elastic Constant Matrix: (Units=GPa)
#
#
# Indices 1 2 3 4 5 6 
#
# 1 87.3184 41.6161 19.0741 1.6078 15.2864 20.3628
# 2 41.6161 160.2705 27.8896 12.8899 17.8501 39.3682
# 3 19.0741 27.8896 128.4895 -15.2803 12.3818 15.3683
# 4 1.6078 12.8899 -15.2803 27.7356 -0.4191 5.3041
# 5 15.2864 17.8501 12.3818 -0.4191 39.1147 -2.8497
# 6 20.3628 39.3682 15.3683 5.3041 -2.8497 42.9193
#
#
#
# Elastic Compliance Matrix: (Units=1/GPa)
#
#
# Indices 1 2 3 4 5 6 
#
# 1 0.014601 -0.001843 -0.000543 0.000679 -0.005084 -0.005464
# 2 -0.001843 0.009349 -0.000937 -0.003436 -0.003811 -0.007194
# 3 -0.000543 -0.000937 0.009433 0.006237 -0.002513 -0.003199
# 4 0.000679 -0.003436 0.006237 0.041924 -0.000559 -0.004622
# 5 -0.005084 -0.003811 -0.002513 -0.000559 0.030731 0.008916
# 6 -0.005464 -0.007194 -0.003199 -0.004622 0.008916 0.034799
#
#
# Mechanical properties :
#
#
# Convention : Reuss Voigt Hill
#
# Bulk Modulus (GPa) = 37.40117 61.47087 49.43602
# Shear Modulus (GPa) = 31.97032 41.12050 36.54541
#
# Velocity S-wave (km/s) = 3.51075 3.98158 3.75355
# Velocity P-wave (km/s) = 5.55453 6.69595 6.15177
#
# Compressibility (1/GPa) = 0.02673713
#
# Stress axis : x y z
#
# Youngs Moduli (GPa) = 68.48790 106.96542 106.00913
#
# Poissons Ratio (x) = 0.19715 0.05760
# Poissons Ratio (y) = 0.12623 0.09929
# Poissons Ratio (z) = 0.03721 0.10018
#
# Static dielectric constant tensor:
#      x y z
#    x 2.113680 0.018270 -0.079930 
#    y 0.018270 2.069800 0.047500 
#    z -0.079930 0.047500 2.037220 
# 
# From -- ./inp_files/500541.got.cif
#   From: 2010.05.17/outbox.cif.g08.bks.cpg/sg2_251_cif.got.tgz:500541.got - 2010.06.03 11:33:40.
