data_PCOD9043633
_publ_section_title
;
Structure prediction by ZEFSAII (Michael W. Deem and Ramdas Pophale) SiO2 
 PCOD9043633
Probable space group: P -1
;
_chemical_formula_sum "Si O2"
_cell_formula_units_Z 10
_cell_length_a 15.879712
_cell_length_b 6.468935
_cell_length_c 5.426503
_cell_angle_alpha 103.400875
_cell_angle_beta 118.454467
_cell_angle_gamma 116.718340
_cell_volume 360.326230
_symmetry_space_group_name_H-M "P -1"
_symmetry_group_IT_number 2
_symmetry_cell_setting 'triclinic'
loop_
_space_group_symop_operation_xyz
x,y,z
-x,-y,-z
loop_
_atom_site_type_symbol
_atom_site_label
_atom_site_fract_x
_atom_site_fract_y
_atom_site_fract_z
Si Si1 0.794901 0.224721 0.209122
Si Si2 0.358782 0.722864 0.297071
Si Si3 0.418754 0.382267 0.099850
Si Si4 0.182386 0.332672 0.324743
Si Si5 0.959911 0.217730 0.746559
O O1 0.854718 0.946067 0.690795
O O2 0.901400 0.202385 0.398047
O O3 0.674444 0.952679 0.110167
O O4 0.733554 0.211530 0.864799
O O5 0.341185 0.490350 0.036487
O O6 0.320245 0.573349 0.466581
O O7 0.500000 0.000000 0.500000
O O8 0.500000 0.500000 0.500000
O O9 0.500000 0.500000 0.000000
O O10 0.160862 0.491382 0.530622
O O11 0.079796 0.235762 0.937522
O O12 0.000000 0.500000 0.000000
#
# Coordination Sequence:
#
# PCOD9043633 Si02
#       5
#     2   2   2   2   2
#     4  11  24  42  71 102 148 193 244 311 372 450
#     4  12  26  43  69 107 145 196 246 307 372 454
#     4  12  28  46  72 108 154 203 254 312 381 455
#     4  10  23  45  73 104 148 190 250 307 376 453
#     4   9  21  44  73 106 144 193 247 311 377 447
#
# _framework density 27.752628000000001
#
# number of rings (size 3 to 8) (size 9 to 14) (size 15 to 20)
#    0.000    1.200    2.000    2.400    5.600    4.000 
#    0.000   14.000    0.000    0.000    0.000    0.000 
#    0.000    0.000    0.000    0.000    0.000    0.000 
#
# Total GULP energy -55990.239973 kJ/mol
# GULP energy per Si atom -5599.023997 kJ/mol
# Density = 2.768946 g / cm^3
# Si number density = 27.752628 Si / 1000 Ang^3
#
#
#
# Elastic Constant Matrix: (Units=GPa)
#
#
# Indices 1 2 3 4 5 6 
#
# 1 91.1643 52.9102 26.7686 -11.2092 -5.0217 -4.7428
# 2 52.9102 267.6261 49.8179 1.2989 -3.3360 17.9096
# 3 26.7686 49.8179 134.5360 -23.3534 24.3331 -10.6904
# 4 -11.2092 1.2989 -23.3534 54.2990 -13.2875 3.8511
# 5 -5.0217 -3.3360 24.3331 -13.2875 33.6414 -10.2773
# 6 -4.7428 17.9096 -10.6904 3.8511 -10.2773 65.7561
#
#
#
# Elastic Compliance Matrix: (Units=1/GPa)
#
#
# Indices 1 2 3 4 5 6 
#
# 1 0.013746 -0.002411 -0.002076 0.003123 0.005137 0.001931
# 2 -0.002411 0.004629 -0.001615 -0.001106 0.000348 -0.001578
# 3 -0.002076 -0.001615 0.010101 0.002274 -0.006646 0.000760
# 4 0.003123 -0.001106 0.002274 0.021867 0.007594 0.000802
# 5 0.005137 0.000348 -0.006646 0.007594 0.039854 0.004980
# 6 0.001931 -0.001578 0.000760 0.000802 0.004980 0.016632
#
#
# Mechanical properties :
#
#
# Convention : Reuss Voigt Hill
#
# Bulk Modulus (GPa) = 61.45462 83.59108 72.52285
# Shear Modulus (GPa) = 40.17474 54.99464 47.58469
#
# Velocity S-wave (km/s) = 3.80886 4.45635 4.14527
# Velocity P-wave (km/s) = 6.44477 7.52756 7.00711
#
# Compressibility (1/GPa) = 0.01627217
#
# Stress axis : x y z
#
# Youngs Moduli (GPa) = 72.75014 216.02048 98.99993
#
# Poissons Ratio (x) = 0.52093 0.20549
# Poissons Ratio (y) = 0.17544 0.15985
# Poissons Ratio (z) = 0.15101 0.34880
#
# Static dielectric constant tensor:
#      x y z
#    x 2.130290 0.015580 0.076830 
#    y 0.015580 2.081710 -0.030570 
#    z 0.076830 -0.030570 2.338030 
# 
# From -- ./inp_files/101931.got.cif
#   From: 2010.05.17/outbox.cif.g08.bks.cpg/sg2_51_cif.got.tgz:101931.got - 2010.06.03 11:33:40.
