data_PCOD9043050
_publ_section_title
;
Structure prediction by ZEFSAII (Michael W. Deem and Ramdas Pophale) SiO2 
 PCOD9043050
Probable space group: P -1
;
_chemical_formula_sum "Si O2"
_cell_formula_units_Z 14
_cell_length_a 18.466343
_cell_length_b 23.800770
_cell_length_c 8.587405
_cell_angle_alpha 30.182054
_cell_angle_beta 35.259883
_cell_angle_gamma 18.260553
_cell_volume 594.337335
_symmetry_space_group_name_H-M "P -1"
_symmetry_group_IT_number 2
_symmetry_cell_setting 'triclinic'
loop_
_space_group_symop_operation_xyz
x,y,z
-x,-y,-z
loop_
_atom_site_type_symbol
_atom_site_label
_atom_site_fract_x
_atom_site_fract_y
_atom_site_fract_z
Si Si1 0.568017 0.496778 0.556145
Si Si2 0.850385 0.025581 0.799990
Si Si3 0.839662 0.132150 0.114881
Si Si4 0.171878 0.492445 0.877209
Si Si5 0.187775 0.086707 0.140696
Si Si6 0.194370 0.447937 0.281750
Si Si7 0.688479 0.725193 0.176028
O O1 0.500000 0.500000 0.500000
O O2 0.378526 0.731739 0.358003
O O3 0.798855 0.396698 0.418865
O O4 0.598187 0.369279 0.922711
O O5 0.807518 0.946276 0.971202
O O6 0.000000 0.000000 0.500000
O O7 0.010269 0.895692 0.978218
O O8 0.811051 0.033353 0.484064
O O9 0.000000 0.000000 0.000000
O O10 0.268938 0.377860 0.813020
O O11 0.299270 0.355446 0.144142
O O12 0.906151 0.647621 0.982050
O O13 0.427937 0.969081 0.039168
O O14 0.950030 0.328949 0.003611
O O15 0.311849 0.342988 0.495576
O O16 0.000000 0.500000 0.500000
#
# Coordination Sequence:
#
# PCOD9043050 Si02
#       7
#     2   2   2   2   2   2   2
#     4  12  24  42  71  99 142 186 228 286 359 415
#     4  10  24  41  60  98 138 173 230 280 336 415
#     4  11  24  41  67 106 135 184 229 288 349 410
#     4  10  23  45  68 102 139 178 238 287 343 426
#     4  11  24  43  69 100 139 178 240 282 351 429
#     4  10  24  44  69 100 136 183 232 291 347 411
#     4  10  23  46  71  98 139 186 232 291 356 404
#
# _framework density 23.555647
#
# number of rings (size 3 to 8) (size 9 to 14) (size 15 to 20)
#    0.000    1.429    2.857    0.857    6.000    4.571 
#    0.000    9.286    0.000    0.000    0.000    0.000 
#    0.000    0.000    0.000    0.000    0.000    0.000 
#
# Total GULP energy -78030.242344 kJ/mol
# GULP energy per Si atom -5573.588739 kJ/mol
# Density = 2.350203 g / cm^3
# Si number density = 23.555647 Si / 1000 Ang^3
#
#
#
# Elastic Constant Matrix: (Units=GPa)
#
#
# Indices 1 2 3 4 5 6 
#
# 1 164.8093 37.3621 38.0348 -1.2274 23.6349 -0.6510
# 2 37.3621 60.3663 0.8543 1.3352 10.2874 -11.2713
# 3 38.0348 0.8543 77.2829 1.4177 19.9853 -9.9133
# 4 -1.2274 1.3352 1.4177 34.9576 -4.4189 1.9873
# 5 23.6349 10.2874 19.9853 -4.4189 45.8262 6.4255
# 6 -0.6510 -11.2713 -9.9133 1.9873 6.4255 39.0504
#
#
#
# Elastic Compliance Matrix: (Units=1/GPa)
#
#
# Indices 1 2 3 4 5 6 
#
# 1 0.008381 -0.005434 -0.004151 0.000692 -0.000894 -0.002371
# 2 -0.005434 0.022588 0.005159 -0.002525 -0.006003 0.008855
# 3 -0.004151 0.005159 0.018046 -0.002534 -0.008180 0.007476
# 4 0.000692 -0.002525 -0.002534 0.029628 0.004682 -0.003639
# 5 -0.000894 -0.006003 -0.008180 0.004682 0.028885 -0.008815
# 6 -0.002371 0.008855 0.007476 -0.003639 -0.008815 0.031658
#
#
# Mechanical properties :
#
#
# Convention : Reuss Voigt Hill
#
# Bulk Modulus (GPa) = 24.89743 50.55120 37.72432
# Shear Modulus (GPa) = 30.97393 39.04732 35.01063
#
# Velocity S-wave (km/s) = 3.63012 4.07586 3.85943
# Velocity P-wave (km/s) = 5.30688 6.60735 5.99250
#
# Compressibility (1/GPa) = 0.04016479
#
# Stress axis : x y z
#
# Youngs Moduli (GPa) = 119.31214 44.27076 55.41394
#
# Poissons Ratio (x) = 0.24058 0.23000
# Poissons Ratio (y) = 0.64839 -0.28591
# Poissons Ratio (z) = 0.49521 -0.22841
#
# Static dielectric constant tensor:
#      x y z
#    x 1.880210 -0.167930 -0.036170 
#    y -0.167930 1.610490 -0.115370 
#    z -0.036170 -0.115370 1.917880 
# 
# From -- ./inp_files/242165.got.cif
#   From: 2010.05.17/outbox.cif.g08.bks.cpg/sg2_122_cif.got.tgz:242165.got - 2010.06.03 11:33:40.
