data_PCOD9043849
_publ_section_title
;
Structure prediction by ZEFSAII (Michael W. Deem and Ramdas Pophale) SiO2 
 PCOD9043849
Probable space group: P -1
;
_chemical_formula_sum "Si O2"
_cell_formula_units_Z 14
_cell_length_a 9.291827
_cell_length_b 5.413298
_cell_length_c 18.649106
_cell_angle_alpha 66.837515
_cell_angle_beta 39.186550
_cell_angle_gamma 61.394964
_cell_volume 519.934833
_symmetry_space_group_name_H-M "P -1"
_symmetry_group_IT_number 2
_symmetry_cell_setting 'triclinic'
loop_
_space_group_symop_operation_xyz
x,y,z
-x,-y,-z
loop_
_atom_site_type_symbol
_atom_site_label
_atom_site_fract_x
_atom_site_fract_y
_atom_site_fract_z
Si Si1 0.954174 0.381858 0.653406
Si Si2 0.114606 0.586675 0.162397
Si Si3 0.411430 0.922596 0.951555
Si Si4 0.717853 0.516134 0.235164
Si Si5 0.401966 0.565753 0.857809
Si Si6 0.697374 0.154713 0.423638
Si Si7 0.762003 0.251315 0.548760
O O1 0.006976 0.416594 0.713172
O O2 0.676851 0.531546 0.734120
O O3 0.130140 0.487887 0.523127
O O4 0.032661 0.052037 0.648628
O O5 0.325818 0.292297 0.108838
O O6 0.929463 0.633308 0.163929
O O7 0.239455 0.833780 0.084694
O O8 0.345963 0.796512 0.915786
O O9 0.395054 0.250017 0.918207
O O10 0.752623 0.367486 0.162177
O O11 0.706783 0.316707 0.328450
O O12 0.451855 0.737559 0.315570
O O13 0.651803 0.263309 0.510103
O O14 0.500000 0.000000 0.500000
O O15 0.000000 0.000000 0.500000
#
# Coordination Sequence:
#
# PCOD9043849 Si02
#       7
#     2   2   2   2   2   2   2
#     4  11  24  45  69 101 138 194 232 294 355 436
#     4  10  23  45  77  99 142 184 242 297 361 421
#     4  10  25  50  72 107 139 191 241 301 358 434
#     4  12  25  43  69 107 140 191 231 300 355 426
#     4  11  27  44  73 104 145 188 242 291 367 423
#     4  12  24  41  66  99 142 182 239 289 350 418
#     4  12  27  44  68 101 147 185 237 286 355 434
#
# _framework density 26.926449999999999
#
# number of rings (size 3 to 8) (size 9 to 14) (size 15 to 20)
#    0.000    0.857    2.857    3.000    8.000    9.714 
#    0.000    0.000    0.000    0.000    0.000    0.000 
#    0.000    0.000    0.000    0.000    0.000    0.000 
#
# Total GULP energy -78428.044092 kJ/mol
# GULP energy per Si atom -5602.003149 kJ/mol
# Density = 2.686516 g / cm^3
# Si number density = 26.926450 Si / 1000 Ang^3
#
#
#
# Elastic Constant Matrix: (Units=GPa)
#
#
# Indices 1 2 3 4 5 6 
#
# 1 196.5583 16.4084 21.1176 2.2049 19.5292 19.6568
# 2 16.4084 71.1132 9.6557 -16.2022 7.2683 -2.7656
# 3 21.1176 9.6557 96.3905 -6.0976 -16.2654 8.4554
# 4 2.2049 -16.2022 -6.0976 30.7705 6.3324 -5.7782
# 5 19.5292 7.2683 -16.2654 6.3324 40.4436 6.5231
# 6 19.6568 -2.7656 8.4554 -5.7782 6.5231 42.6658
#
#
#
# Elastic Compliance Matrix: (Units=1/GPa)
#
#
# Indices 1 2 3 4 5 6 
#
# 1 0.005853 -0.001252 -0.001484 -0.001252 -0.002639 -0.002250
# 2 -0.001252 0.018016 -0.002246 0.011246 -0.006045 0.004637
# 3 -0.001484 -0.002246 0.012268 -0.000569 0.006624 -0.002983
# 4 -0.001252 0.011246 -0.000569 0.041983 -0.009601 0.008572
# 5 -0.002639 -0.006045 0.006624 -0.009601 0.032340 -0.006733
# 6 -0.002250 0.004637 -0.002983 0.008572 -0.006733 0.027556
#
#
# Mechanical properties :
#
#
# Convention : Reuss Voigt Hill
#
# Bulk Modulus (GPa) = 38.20672 50.93614 44.57143
# Shear Modulus (GPa) = 31.90712 43.90132 37.90422
#
# Velocity S-wave (km/s) = 3.44608 4.04222 3.75600
# Velocity P-wave (km/s) = 5.48216 6.38310 5.94970
#
# Compressibility (1/GPa) = 0.02617341
#
# Stress axis : x y z
#
# Youngs Moduli (GPa) = 170.86071 55.50506 81.51231
#
# Poissons Ratio (x) = 0.06949 0.12097
# Poissons Ratio (y) = 0.21390 0.18307
# Poissons Ratio (z) = 0.25356 0.12466
#
# Static dielectric constant tensor:
#      x y z
#    x 2.122960 -0.025710 -0.008790 
#    y -0.025710 2.223730 0.014430 
#    z -0.008790 0.014430 2.096340 
# 
# From -- ./inp_files/38178.got.cif
#   From: 2010.05.17/outbox.cif.g08.bks.cpg/sg2_20_cif.got.tgz:38178.got - 2010.06.03 11:33:40.
