data_PCOD9043795
_publ_section_title
;
Structure prediction by ZEFSAII (Michael W. Deem and Ramdas Pophale) SiO2 
 PCOD9043795
Probable space group: P -1
;
_chemical_formula_sum "Si O2"
_cell_formula_units_Z 14
_cell_length_a 12.927525
_cell_length_b 9.494781
_cell_length_c 8.865402
_cell_angle_alpha 103.159486
_cell_angle_beta 47.404708
_cell_angle_gamma 69.966729
_cell_volume 562.461849
_symmetry_space_group_name_H-M "P -1"
_symmetry_group_IT_number 2
_symmetry_cell_setting 'triclinic'
loop_
_space_group_symop_operation_xyz
x,y,z
-x,-y,-z
loop_
_atom_site_type_symbol
_atom_site_label
_atom_site_fract_x
_atom_site_fract_y
_atom_site_fract_z
Si Si1 0.726893 0.572212 0.639577
Si Si2 0.951943 0.489625 0.872924
Si Si3 0.015471 0.867655 0.233849
Si Si4 0.688330 0.073794 0.404575
Si Si5 0.617358 0.846220 0.090657
Si Si6 0.687128 0.303779 0.683753
Si Si7 0.354840 0.858853 0.884492
O O1 0.817459 0.351737 0.534817
O O2 0.500000 0.500000 0.000000
O O3 0.761259 0.706059 0.051774
O O4 0.642251 0.706301 0.905373
O O5 0.918938 0.917063 0.173503
O O6 0.930623 0.333341 0.826692
O O7 0.000000 0.500000 0.000000
O O8 0.831341 0.076899 0.551787
O O9 0.191437 0.853756 0.060752
O O10 0.877107 0.571907 0.415429
O O11 0.595174 0.016412 0.589089
O O12 0.613936 0.277520 0.598866
O O13 0.670563 0.959074 0.986181
O O14 0.629694 0.115283 0.301485
O O15 0.553293 0.665330 0.717021
#
# Coordination Sequence:
#
# PCOD9043795 Si02
#       7
#     2   2   2   2   2   2   2
#     4  12  26  46  69 103 148 196 236 292 357 428
#     4  12  27  47  74 106 146 188 242 295 360 427
#     4  10  25  44  72 108 142 183 241 293 356 419
#     4  10  23  45  75  99 148 181 242 290 361 412
#     4  12  25  47  70 103 148 192 238 293 359 424
#     4  10  23  46  73 100 148 181 237 293 359 413
#     4  12  25  43  76 109 143 188 242 294 355 426
#
# _framework density 24.890574000000001
#
# number of rings (size 3 to 8) (size 9 to 14) (size 15 to 20)
#    0.857    0.000    1.429    5.143    4.000    1.714 
#    0.000    4.286    0.000    0.000    0.000    0.000 
#    0.000    0.000    0.000    0.000    0.000    0.000 
#
# Total GULP energy -78303.432739 kJ/mol
# GULP energy per Si atom -5593.102339 kJ/mol
# Density = 2.483392 g / cm^3
# Si number density = 24.890574 Si / 1000 Ang^3
#
#
#
# Elastic Constant Matrix: (Units=GPa)
#
#
# Indices 1 2 3 4 5 6 
#
# 1 96.0859 20.0643 14.4911 -14.0447 -20.5902 14.4169
# 2 20.0643 158.2759 13.1082 -7.3324 -20.6841 39.0027
# 3 14.4911 13.1082 69.3266 -12.4666 -11.3720 20.8120
# 4 -14.0447 -7.3324 -12.4666 32.5484 6.0737 -6.0476
# 5 -20.5902 -20.6841 -11.3720 6.0737 47.5258 -10.8817
# 6 14.4169 39.0027 20.8120 -6.0476 -10.8817 48.0511
#
#
#
# Elastic Compliance Matrix: (Units=1/GPa)
#
#
# Indices 1 2 3 4 5 6 
#
# 1 0.012286 -0.000368 -0.000611 0.003899 0.004130 -0.001697
# 2 -0.000368 0.008151 0.000864 0.000439 0.002084 -0.006353
# 3 -0.000611 0.000864 0.017770 0.005026 0.002094 -0.007108
# 4 0.003899 0.000439 0.005026 0.034737 -0.001269 0.000382
# 5 0.004130 0.002084 0.002094 -0.001269 0.024770 0.001612
# 6 -0.001697 -0.006353 -0.007108 0.000382 0.001612 0.029968
#
#
# Mechanical properties :
#
#
# Convention : Reuss Voigt Hill
#
# Bulk Modulus (GPa) = 26.33235 46.55728 36.44481
# Shear Modulus (GPa) = 35.56903 44.02671 39.79787
#
# Velocity S-wave (km/s) = 3.78433 4.21029 4.00298
# Velocity P-wave (km/s) = 5.44951 6.51005 6.00324
#
# Compressibility (1/GPa) = 0.03797611
#
# Stress axis : x y z
#
# Youngs Moduli (GPa) = 81.39527 122.67813 56.27544
#
# Poissons Ratio (x) = 0.04521 0.03436
# Poissons Ratio (y) = 0.02999 -0.04860
# Poissons Ratio (z) = 0.04970 -0.10595
#
# Static dielectric constant tensor:
#      x y z
#    x 1.987450 0.027130 -0.007490 
#    y 0.027130 2.007820 -0.011640 
#    z -0.007490 -0.011640 2.005790 
# 
# From -- ./inp_files/234537.got.cif
#   From: 2010.05.17/outbox.cif.g08.bks.cpg/sg2_118_cif.got.tgz:234537.got - 2010.06.03 11:33:40.
