data_PCOD9043721
_publ_section_title
;
Structure prediction by ZEFSAII (Michael W. Deem and Ramdas Pophale) SiO2 
 PCOD9043721
Probable space group: P -1
;
_chemical_formula_sum "Si O2"
_cell_formula_units_Z 16
_cell_length_a 21.852712
_cell_length_b 27.056128
_cell_length_c 4.958390
_cell_angle_alpha 93.507999
_cell_angle_beta 96.365003
_cell_angle_gamma 12.531886
_cell_volume 616.976571
_symmetry_space_group_name_H-M "P -1"
_symmetry_group_IT_number 2
_symmetry_cell_setting 'triclinic'
loop_
_space_group_symop_operation_xyz
x,y,z
-x,-y,-z
loop_
_atom_site_type_symbol
_atom_site_label
_atom_site_fract_x
_atom_site_fract_y
_atom_site_fract_z
Si Si1 0.215661 0.886418 0.033202
Si Si2 0.139240 0.362366 0.766947
Si Si3 0.793186 0.480622 0.922835
Si Si4 0.477045 0.442309 0.168847
Si Si5 0.943882 0.140735 0.497076
Si Si6 0.892492 0.288023 0.433427
Si Si7 0.696390 0.981425 0.793484
Si Si8 0.780799 0.557472 0.430271
O O1 0.505780 0.685803 0.998378
O O2 0.278114 0.782017 0.934959
O O3 0.963044 0.104869 0.792245
O O4 0.159750 0.944081 0.331229
O O5 0.000000 0.500000 0.500000
O O6 0.020429 0.401189 0.661296
O O7 0.475336 0.111104 0.804794
O O8 0.000000 0.500000 0.000000
O O9 0.715951 0.566574 0.628605
O O10 0.900029 0.437748 0.179122
O O11 0.032743 0.248339 0.960659
O O12 0.629500 0.373591 0.300553
O O13 0.370252 0.500109 0.413566
O O14 0.222650 0.640609 0.891246
O O15 0.034035 0.126841 0.560769
O O16 0.115369 0.156405 0.431479
O O17 0.480661 0.200079 0.729379
#
# Coordination Sequence:
#
# PCOD9043721 Si02
#       8
#     2   2   2   2   2   2   2   2
#     4  12  24  44  66  99 139 180 239 291 359 427
#     4  10  23  45  74 106 146 190 240 292 356 435
#     4  12  26  44  73 107 147 186 247 296 355 435
#     4  12  25  44  67 100 138 179 236 295 357 436
#     4  12  25  44  70  97 136 189 230 298 362 427
#     4  12  25  43  69 101 137 179 239 291 362 434
#     4  11  26  47  75 104 148 192 232 303 369 414
#     4  11  26  47  72 109 144 191 242 294 353 440
#
# _framework density 25.932915999999999
#
# number of rings (size 3 to 8) (size 9 to 14) (size 15 to 20)
#    0.000    0.500    1.250    7.500    1.750    7.000 
#    0.000    0.000    0.000    0.000    0.000    0.000 
#    0.000    0.000    0.000    0.000    0.000    0.000 
#
# Total GULP energy -89278.905506 kJ/mol
# GULP energy per Si atom -5579.931594 kJ/mol
# Density = 2.587389 g / cm^3
# Si number density = 25.932916 Si / 1000 Ang^3
#
#
#
# Elastic Constant Matrix: (Units=GPa)
#
#
# Indices 1 2 3 4 5 6 
#
# 1 95.2975 34.4517 38.8845 7.6454 -11.7549 -5.2316
# 2 34.4517 123.6998 41.7315 5.5667 -7.5911 -3.0516
# 3 38.8845 41.7315 152.9424 24.5854 2.1535 4.5400
# 4 7.6454 5.5667 24.5854 43.9683 5.3330 -5.4024
# 5 -11.7549 -7.5911 2.1535 5.3330 37.9574 -2.7055
# 6 -5.2316 -3.0516 4.5400 -5.4024 -2.7055 55.6417
#
#
#
# Elastic Compliance Matrix: (Units=1/GPa)
#
#
# Indices 1 2 3 4 5 6 
#
# 1 0.013075 -0.002444 -0.002627 -0.000796 0.003923 0.001423
# 2 -0.002444 0.009539 -0.002061 0.000284 0.001267 0.000551
# 3 -0.002627 -0.002061 0.008484 -0.004060 -0.001244 -0.001507
# 4 -0.000796 0.000284 -0.004060 0.025851 -0.003405 0.002616
# 5 0.003923 0.001267 -0.001244 -0.003405 0.028476 0.001594
# 6 0.001423 0.000551 -0.001507 0.002616 0.001594 0.018591
#
#
# Mechanical properties :
#
#
# Convention : Reuss Voigt Hill
#
# Bulk Modulus (GPa) = 59.40534 66.89723 63.15128
# Shear Modulus (GPa) = 40.35873 44.63828 42.49851
#
# Velocity S-wave (km/s) = 3.94924 4.15335 4.05258
# Velocity P-wave (km/s) = 6.61456 6.98947 6.80460
#
# Compressibility (1/GPa) = 0.01683350
#
# Stress axis : x y z
#
# Youngs Moduli (GPa) = 76.48456 104.83715 117.87416
#
# Poissons Ratio (x) = 0.25617 0.30964
# Poissons Ratio (y) = 0.18689 0.24297
# Poissons Ratio (z) = 0.20091 0.21609
#
# Static dielectric constant tensor:
#      x y z
#    x 2.342390 -0.108360 0.090760 
#    y -0.108360 2.129070 -0.048100 
#    z 0.090760 -0.048100 2.004980 
# 
# From -- ./inp_files/125348.got.cif
#   From: 2010.05.17/outbox.cif.g08.bks.cpg/sg2_63_cif.got.tgz:125348.got - 2010.06.03 11:33:40.
