data_PCOD9043480
_publ_section_title
;
Structure prediction by ZEFSAII (Michael W. Deem and Ramdas Pophale) SiO2 
 PCOD9043480
Probable space group: P -1
;
_chemical_formula_sum "Si O2"
_cell_formula_units_Z 14
_cell_length_a 4.962123
_cell_length_b 10.542713
_cell_length_c 17.715549
_cell_angle_alpha 37.106619
_cell_angle_beta 79.545821
_cell_angle_gamma 96.386418
_cell_volume 496.047091
_symmetry_space_group_name_H-M "P -1"
_symmetry_group_IT_number 2
_symmetry_cell_setting 'triclinic'
loop_
_space_group_symop_operation_xyz
x,y,z
-x,-y,-z
loop_
_atom_site_type_symbol
_atom_site_label
_atom_site_fract_x
_atom_site_fract_y
_atom_site_fract_z
Si Si1 0.389880 0.791613 0.438497
Si Si2 0.176477 0.661923 0.311158
Si Si3 0.693378 0.580093 0.727254
Si Si4 0.494220 0.224956 0.146600
Si Si5 0.053846 0.425889 0.130018
Si Si6 0.500000 0.000000 0.500000
Si Si7 0.500000 0.500000 0.500000
Si Si8 0.257158 0.073201 0.015520
O O1 0.388891 0.882750 0.477612
O O2 0.680927 0.751852 0.421800
O O3 0.168101 0.515890 0.560994
O O4 0.346785 0.961352 0.302381
O O5 0.208438 0.528985 0.296811
O O6 0.425739 0.651747 0.358768
O O7 0.172909 0.906151 0.172074
O O8 0.949053 0.650737 0.747099
O O9 0.627730 0.796957 0.607520
O O10 0.401405 0.353471 0.882282
O O11 0.235424 0.313119 0.124935
O O12 0.730404 0.341365 0.149100
O O13 0.718709 0.303963 0.025358
O O14 0.500000 0.000000 0.000000
O O15 0.000000 0.000000 0.000000
#
# Coordination Sequence:
#
# PCOD9043480 Si02
#       8
#     2   2   2   2   2   1   1   2
#     4  12  27  47  77 112 152 208 252 335 391 480
#     4  11  27  49  77 111 159 210 275 321 401 479
#     4  11  24  46  77 116 151 205 257 338 392 469
#     4  10  24  45  70 106 152 197 249 310 391 470
#     4  10  23  45  71 108 151 196 248 313 391 470
#     4  12  24  44  78 114 158 188 266 322 408 460
#     4  12  28  50  70 112 160 212 260 322 402 478
#     4  10  24  47  74 107 153 205 264 324 387 469
#
# _framework density 28.223129
#
# number of rings (size 3 to 8) (size 9 to 14) (size 15 to 20)
#    0.000    1.143    2.857    1.286    8.000    2.857 
#    0.000    0.000    0.000    0.000    0.000    0.000 
#    0.000    0.000    0.000    0.000    0.000    0.000 
#
# Total GULP energy -78042.907858 kJ/mol
# GULP energy per Si atom -5574.493418 kJ/mol
# Density = 2.815889 g / cm^3
# Si number density = 28.223129 Si / 1000 Ang^3
#
#
#
# Elastic Constant Matrix: (Units=GPa)
#
#
# Indices 1 2 3 4 5 6 
#
# 1 135.1728 14.6870 56.6075 -11.7978 20.2616 14.8514
# 2 14.6870 98.0943 17.8925 1.3555 10.4411 -18.5347
# 3 56.6075 17.8925 167.8312 -1.2343 31.4056 3.5997
# 4 -11.7978 1.3555 -1.2343 64.1995 5.6496 8.2600
# 5 20.2616 10.4411 31.4056 5.6496 50.3892 12.4614
# 6 14.8514 -18.5347 3.5997 8.2600 12.4614 41.0033
#
#
#
# Elastic Compliance Matrix: (Units=1/GPa)
#
#
# Indices 1 2 3 4 5 6 
#
# 1 0.009535 -0.001626 -0.002744 0.002353 -0.001036 -0.004107
# 2 -0.001626 0.012278 -0.000291 -0.001221 -0.003414 0.007448
# 3 -0.002744 -0.000291 0.007615 -0.000190 -0.003913 0.001421
# 4 0.002353 -0.001221 -0.000190 0.016710 -0.001376 -0.004336
# 5 -0.001036 -0.003414 -0.003913 -0.001376 0.025624 -0.008335
# 6 -0.004107 0.007448 0.001421 -0.004336 -0.008335 0.032524
#
#
# Mechanical properties :
#
#
# Convention : Reuss Voigt Hill
#
# Bulk Modulus (GPa) = 49.72831 64.38579 57.05705
# Shear Modulus (GPa) = 41.55945 51.91249 46.73597
#
# Velocity S-wave (km/s) = 3.84152 4.29343 4.07375
# Velocity P-wave (km/s) = 6.11018 6.88772 6.51057
#
# Compressibility (1/GPa) = 0.02010927
#
# Stress axis : x y z
#
# Youngs Moduli (GPa) = 104.87207 81.44472 131.31829
#
# Poissons Ratio (x) = 0.13239 0.36030
# Poissons Ratio (y) = 0.17047 0.03815
# Poissons Ratio (z) = 0.28774 0.02366
#
# Static dielectric constant tensor:
#      x y z
#    x 2.433610 0.076460 -0.475310 
#    y 0.076460 2.340480 -0.242170 
#    z -0.475310 -0.242170 3.006320 
# 
# From -- ./inp_files/582957.got.cif
#   From: 2010.05.17/outbox.cif.g08.bks.cpg/sg2_292_cif.got.tgz:582957.got - 2010.06.03 11:33:40.
