data_PCOD9043501
_publ_section_title
;
Structure prediction by ZEFSAII (Michael W. Deem and Ramdas Pophale) SiO2 
 PCOD9043501
Probable space group: P -1
;
_chemical_formula_sum "Si O2"
_cell_formula_units_Z 16
_cell_length_a 8.108129
_cell_length_b 7.060058
_cell_length_c 20.822931
_cell_angle_alpha 49.216426
_cell_angle_beta 124.334304
_cell_angle_gamma 106.292912
_cell_volume 737.893446
_symmetry_space_group_name_H-M "P -1"
_symmetry_group_IT_number 2
_symmetry_cell_setting 'triclinic'
loop_
_space_group_symop_operation_xyz
x,y,z
-x,-y,-z
loop_
_atom_site_type_symbol
_atom_site_label
_atom_site_fract_x
_atom_site_fract_y
_atom_site_fract_z
Si Si1 0.836136 0.361451 0.959674
Si Si2 0.499764 0.962569 0.583975
Si Si3 0.893419 0.677954 0.538554
Si Si4 0.639836 0.422578 0.774303
Si Si5 0.980112 0.837281 0.158189
Si Si6 0.129818 0.905242 0.654136
Si Si7 0.598170 0.564469 0.165097
Si Si8 0.918588 0.084557 0.693676
O O1 0.795440 0.471464 0.854738
O O2 0.607388 0.389775 0.931553
O O3 0.000000 0.500000 0.000000
O O4 0.916040 0.064900 0.044621
O O5 0.504942 0.664589 0.661277
O O6 0.500000 0.000000 0.500000
O O7 0.319217 0.160734 0.526066
O O8 0.694746 0.022713 0.650496
O O9 0.907811 0.380568 0.608333
O O10 0.033302 0.750296 0.611425
O O11 0.924747 0.810437 0.448220
O O12 0.478583 0.306362 0.811239
O O13 0.794782 0.292646 0.783885
O O14 0.797714 0.666577 0.160252
O O15 0.997753 0.947521 0.209171
O O16 0.348788 0.738959 0.745348
O O17 0.040327 0.916570 0.702922
#
# Coordination Sequence:
#
# PCOD9043501 Si02
#       8
#     2   2   2   2   2   2   2   2
#     4  10  23  46  71 104 138 179 231 287 357 415
#     4  12  22  42  64  97 138 184 226 289 349 400
#     4  11  22  41  64  91 136 179 230 282 342 406
#     4  10  24  44  73  98 142 182 228 292 345 408
#     4  12  23  46  70 103 138 180 240 285 347 420
#     4  11  22  44  63  93 137 176 227 291 337 409
#     4  10  23  45  71  97 136 182 228 287 355 403
#     4  12  25  39  66 101 134 183 238 278 345 419
#
# _framework density 21.683347000000001
#
# number of rings (size 3 to 8) (size 9 to 14) (size 15 to 20)
#    0.750    0.250    3.750    3.750    0.000    0.000 
#    6.750    1.250    0.000    0.000    0.000    0.000 
#    0.000    0.000    0.000    0.000    0.000    0.000 
#
# Total GULP energy -89116.220466 kJ/mol
# GULP energy per Si atom -5569.763779 kJ/mol
# Density = 2.163399 g / cm^3
# Si number density = 21.683347 Si / 1000 Ang^3
#
#
#
# Elastic Constant Matrix: (Units=GPa)
#
#
# Indices 1 2 3 4 5 6 
#
# 1 88.3040 19.0700 16.1262 -3.2842 10.2788 -18.0599
# 2 19.0700 26.0323 18.9855 -7.1765 0.9924 -2.9536
# 3 16.1262 18.9855 82.1174 -3.3003 -0.9355 -10.1887
# 4 -3.2842 -7.1765 -3.3003 35.4179 -4.7609 -6.4925
# 5 10.2788 0.9924 -0.9355 -4.7609 32.4015 -6.5331
# 6 -18.0599 -2.9536 -10.1887 -6.4925 -6.5331 26.7031
#
#
#
# Elastic Compliance Matrix: (Units=1/GPa)
#
#
# Indices 1 2 3 4 5 6 
#
# 1 0.015726 -0.010541 0.000482 0.000682 -0.002705 0.009158
# 2 -0.010541 0.056248 -0.010811 0.009304 0.002227 -0.002226
# 3 0.000482 -0.010811 0.015314 0.000543 0.001819 0.005550
# 4 0.000682 0.009304 0.000543 0.033226 0.006698 0.011415
# 5 -0.002705 0.002227 0.001819 0.006698 0.034543 0.009190
# 6 0.009158 -0.002226 0.005550 0.011415 0.009190 0.050538
#
#
# Mechanical properties :
#
#
# Convention : Reuss Voigt Hill
#
# Bulk Modulus (GPa) = 21.95575 33.86855 27.91215
# Shear Modulus (GPa) = 19.04630 28.38930 23.71780
#
# Velocity S-wave (km/s) = 2.96697 3.62231 3.31089
# Velocity P-wave (km/s) = 4.67812 5.75746 5.24562
#
# Compressibility (1/GPa) = 0.04554616
#
# Stress axis : x y z
#
# Youngs Moduli (GPa) = 63.58792 17.77846 65.30038
#
# Poissons Ratio (x) = 0.18741 -0.03145
# Poissons Ratio (y) = 0.67030 0.70598
# Poissons Ratio (z) = -0.03063 0.19221
#
# Static dielectric constant tensor:
#      x y z
#    x 2.939810 -0.552770 -0.588330 
#    y -0.552770 2.067480 0.309010 
#    z -0.588330 0.309010 2.074250 
# 
# From -- ./inp_files/585561.got.cif
#   From: 2010.05.17/outbox.cif.g08.bks.cpg/sg2_293_cif.got.tgz:585561.got - 2010.06.03 11:33:40.
