data_PCOD9043579
_publ_section_title
;
Structure prediction by ZEFSAII (Michael W. Deem and Ramdas Pophale) SiO2 
 PCOD9043579
Probable space group: P -1
;
_chemical_formula_sum "Si O2"
_cell_formula_units_Z 12
_cell_length_a 8.810171
_cell_length_b 16.520035
_cell_length_c 11.822817
_cell_angle_alpha 147.791574
_cell_angle_beta 146.802943
_cell_angle_gamma 34.846353
_cell_volume 463.230645
_symmetry_space_group_name_H-M "P -1"
_symmetry_group_IT_number 2
_symmetry_cell_setting 'triclinic'
loop_
_space_group_symop_operation_xyz
x,y,z
-x,-y,-z
loop_
_atom_site_type_symbol
_atom_site_label
_atom_site_fract_x
_atom_site_fract_y
_atom_site_fract_z
Si Si1 0.388036 0.771118 0.934710
Si Si2 0.197504 0.567381 0.285141
Si Si3 0.146605 0.117212 0.423384
Si Si4 0.275741 0.609864 0.892667
Si Si5 0.748164 0.007381 0.437923
Si Si6 0.368318 0.313876 0.435865
O O1 0.525396 0.611382 0.745826
O O2 0.358849 0.729828 0.000413
O O3 0.056354 0.870192 0.796157
O O4 0.916849 0.985798 0.636433
O O5 0.069479 0.313673 0.188755
O O6 0.969504 0.689907 0.379225
O O7 0.000000 0.500000 0.000000
O O8 0.500000 0.000000 0.500000
O O9 0.392184 0.130844 0.823071
O O10 0.284512 0.480054 0.648983
O O11 0.500000 0.500000 0.000000
O O12 0.361174 0.679666 0.464760
O O13 0.477415 0.175637 0.437105
O O14 0.000000 0.000000 0.500000
#
# Coordination Sequence:
#
# PCOD9043579 Si02
#       6
#     2   2   2   2   2   2
#     4  11  26  47  81 113 154 210 264 316 398 473
#     4  11  22  52  77 108 153 214 262 315 389 473
#     4  12  27  47  79 119 157 202 262 331 388 458
#     4  10  24  48  75 111 157 203 262 326 394 462
#     4  12  25  49  75 111 160 202 258 317 390 468
#     4  10  23  45  72 109 153 202 263 317 381 474
#
# _framework density 25.905021999999999
#
# number of rings (size 3 to 8) (size 9 to 14) (size 15 to 20)
#    0.000    1.000    3.333    1.500    0.000   10.000 
#   12.000    0.000    0.000    0.000    0.000    0.000 
#    0.000    0.000    0.000    0.000    0.000    0.000 
#
# Total GULP energy -66888.362888 kJ/mol
# GULP energy per Si atom -5574.030241 kJ/mol
# Density = 2.584606 g / cm^3
# Si number density = 25.905022 Si / 1000 Ang^3
#
#
#
# Elastic Constant Matrix: (Units=GPa)
#
#
# Indices 1 2 3 4 5 6 
#
# 1 165.3073 50.2254 63.3412 -9.2710 23.2547 0.9484
# 2 50.2254 134.8347 57.1954 -10.9919 28.6520 -7.0075
# 3 63.3412 57.1954 113.9084 -2.7300 14.9466 -9.5652
# 4 -9.2710 -10.9919 -2.7300 69.2419 -7.6331 4.1741
# 5 23.2547 28.6520 14.9466 -7.6331 42.2289 2.2880
# 6 0.9484 -7.0075 -9.5652 4.1741 2.2880 57.0510
#
#
#
# Elastic Compliance Matrix: (Units=1/GPa)
#
#
# Indices 1 2 3 4 5 6 
#
# 1 0.008164 -0.000908 -0.003828 0.000587 -0.002373 -0.000837
# 2 -0.000908 0.010709 -0.004102 0.000794 -0.005213 0.000794
# 3 -0.003828 -0.004102 0.013099 -0.000754 0.000021 0.001810
# 4 0.000587 0.000794 -0.000754 0.014930 0.002170 -0.001218
# 5 -0.002373 -0.005213 0.000021 0.002170 0.029013 -0.001920
# 6 -0.000837 0.000794 0.001810 -0.001218 -0.001920 0.018109
#
#
# Mechanical properties :
#
#
# Convention : Reuss Voigt Hill
#
# Bulk Modulus (GPa) = 69.96267 83.95272 76.95769
# Shear Modulus (GPa) = 42.93121 49.92360 46.42741
#
# Velocity S-wave (km/s) = 4.07536 4.39473 4.23805
# Velocity P-wave (km/s) = 7.01503 7.63084 7.32941
#
# Compressibility (1/GPa) = 0.01429334
#
# Stress axis : x y z
#
# Youngs Moduli (GPa) = 122.49215 93.38192 76.34303
#
# Poissons Ratio (x) = 0.08484 0.29227
# Poissons Ratio (y) = 0.11128 0.31317
# Poissons Ratio (z) = 0.46894 0.38307
#
# Static dielectric constant tensor:
#      x y z
#    x 2.373530 -0.082750 -0.043760 
#    y -0.082750 2.247990 -0.028410 
#    z -0.043760 -0.028410 2.132250 
# 
# From -- ./inp_files/204535.got.cif
#   From: 2010.05.17/outbox.cif.g08.bks.cpg/sg2_103_cif.got.tgz:204535.got - 2010.06.03 11:33:40.
