data_PCOD9043843
_publ_section_title
;
Structure prediction by ZEFSAII (Michael W. Deem and Ramdas Pophale) SiO2 
 PCOD9043843
Probable space group: P -1
;
_chemical_formula_sum "Si O2"
_cell_formula_units_Z 14
_cell_length_a 7.422157
_cell_length_b 8.609203
_cell_length_c 20.017541
_cell_angle_alpha 31.850396
_cell_angle_beta 128.450696
_cell_angle_gamma 127.904721
_cell_volume 516.998796
_symmetry_space_group_name_H-M "P -1"
_symmetry_group_IT_number 2
_symmetry_cell_setting 'triclinic'
loop_
_space_group_symop_operation_xyz
x,y,z
-x,-y,-z
loop_
_atom_site_type_symbol
_atom_site_label
_atom_site_fract_x
_atom_site_fract_y
_atom_site_fract_z
Si Si1 0.591283 0.308201 0.714686
Si Si2 0.255414 0.789090 0.992845
Si Si3 0.097434 0.174968 0.711698
Si Si4 0.031631 0.837872 0.463340
Si Si5 0.988007 0.644843 0.117088
Si Si6 0.620043 0.907998 0.441647
Si Si7 0.467261 0.290139 0.161969
O O1 0.380394 0.251145 0.739218
O O2 0.841875 0.443676 0.754937
O O3 0.520809 0.555489 0.559043
O O4 0.605916 0.990811 0.801573
O O5 0.083788 0.969112 0.848679
O O6 0.111974 0.625382 0.082162
O O7 0.328228 0.553517 0.044321
O O8 0.500000 0.000000 0.000000
O O9 0.006377 0.478297 0.592296
O O10 0.996723 0.068055 0.654124
O O11 0.830623 0.925873 0.430467
O O12 0.276482 0.966228 0.509532
O O13 0.725832 0.461917 0.134452
O O14 0.000000 0.000000 0.000000
O O15 0.468071 0.123212 0.294871
#
# Coordination Sequence:
#
# PCOD9043843 Si02
#       7
#     2   2   2   2   2   2   2
#     4  12  27  48  76 116 153 209 262 322 392 463
#     4  12  25  51  80 117 154 211 258 318 397 472
#     4  11  24  46  74 114 158 189 272 319 376 479
#     4  10  23  45  77 110 152 203 258 326 385 463
#     4  12  27  50  84 111 160 211 254 322 398 457
#     4  11  24  48  77 109 152 207 258 316 402 448
#     4  12  27  54  78 119 162 197 265 329 382 477
#
# _framework density 27.079364000000002
#
# number of rings (size 3 to 8) (size 9 to 14) (size 15 to 20)
#    0.000    0.571    4.286    3.000    2.000    2.857 
#    5.143    1.429    3.143    0.000    0.000    0.000 
#    0.000    0.000    0.000    0.000    0.000    0.000 
#
# Total GULP energy -78625.640486 kJ/mol
# GULP energy per Si atom -5616.117178 kJ/mol
# Density = 2.701773 g / cm^3
# Si number density = 27.079364 Si / 1000 Ang^3
#
#
#
# Elastic Constant Matrix: (Units=GPa)
#
#
# Indices 1 2 3 4 5 6 
#
# 1 125.0936 37.7259 23.9157 -13.7843 -2.6713 8.9714
# 2 37.7259 144.2626 52.2995 13.2026 -7.3963 9.2197
# 3 23.9157 52.2995 179.8114 2.8465 -8.5070 -5.7618
# 4 -13.7843 13.2026 2.8465 46.8115 3.9573 2.4298
# 5 -2.6713 -7.3963 -8.5070 3.9573 46.4124 -9.4672
# 6 8.9714 9.2197 -5.7618 2.4298 -9.4672 21.2444
#
#
#
# Elastic Compliance Matrix: (Units=1/GPa)
#
#
# Indices 1 2 3 4 5 6 
#
# 1 0.009560 -0.002337 -0.000843 0.003842 -0.001163 -0.004209
# 2 -0.002337 0.008853 -0.002287 -0.002938 0.000514 -0.002910
# 3 -0.000843 -0.002287 0.006544 -0.000338 0.001606 0.003878
# 4 0.003842 -0.002938 -0.000338 0.023862 -0.003289 -0.004634
# 5 -0.001163 0.000514 0.001606 -0.003289 0.024591 0.012039
# 6 -0.004209 -0.002910 0.003878 -0.004634 0.012039 0.057058
#
#
# Mechanical properties :
#
#
# Convention : Reuss Voigt Hill
#
# Bulk Modulus (GPa) = 71.29903 75.22777 73.26340
# Shear Modulus (GPa) = 34.22872 45.24208 39.73540
#
# Velocity S-wave (km/s) = 3.55916 4.09188 3.83478
# Velocity P-wave (km/s) = 6.57852 7.08276 6.83529
#
# Compressibility (1/GPa) = 0.01402544
#
# Stress axis : x y z
#
# Youngs Moduli (GPa) = 104.59929 112.95423 152.80867
#
# Poissons Ratio (x) = 0.26396 0.12875
# Poissons Ratio (y) = 0.24444 0.34941
# Poissons Ratio (z) = 0.08813 0.25828
#
# Static dielectric constant tensor:
#      x y z
#    x 2.058710 0.043740 -0.016620 
#    y 0.043740 2.141490 0.041110 
#    z -0.016620 0.041110 2.091770 
# 
# From -- ./inp_files/502764.got.cif
#   From: 2010.05.17/outbox.cif.g08.bks.cpg/sg2_252_cif.got.tgz:502764.got - 2010.06.03 11:33:40.
