data_PCOD9043137
_publ_section_title
;
Structure prediction by ZEFSAII (Michael W. Deem and Ramdas Pophale) SiO2 
 PCOD9043137
Probable space group: P -1
;
_chemical_formula_sum "Si O2"
_cell_formula_units_Z 16
_cell_length_a 9.365730
_cell_length_b 9.162291
_cell_length_c 20.234030
_cell_angle_alpha 151.528788
_cell_angle_beta 134.307459
_cell_angle_gamma 46.213025
_cell_volume 576.654672
_symmetry_space_group_name_H-M "P -1"
_symmetry_group_IT_number 2
_symmetry_cell_setting 'triclinic'
loop_
_space_group_symop_operation_xyz
x,y,z
-x,-y,-z
loop_
_atom_site_type_symbol
_atom_site_label
_atom_site_fract_x
_atom_site_fract_y
_atom_site_fract_z
Si Si1 0.872493 0.013872 0.896246
Si Si2 0.761856 0.713371 0.179910
Si Si3 0.887201 0.900016 0.556353
Si Si4 0.240283 0.285180 0.413072
Si Si5 0.384862 0.213425 0.690988
Si Si6 0.137884 0.168751 0.935762
Si Si7 0.441942 0.334689 0.313106
Si Si8 0.478278 0.703303 0.815224
O O1 0.001229 0.982423 0.858093
O O2 0.769706 0.714551 0.748030
O O3 0.765946 0.388081 0.014273
O O4 0.000000 0.000000 0.000000
O O5 0.730103 0.689529 0.239343
O O6 0.557318 0.968595 0.195775
O O7 0.964131 0.855674 0.291892
O O8 0.779613 0.857628 0.575413
O O9 0.739747 0.967624 0.471043
O O10 0.028927 0.550736 0.447622
O O11 0.396607 0.512257 0.537635
O O12 0.381257 0.982616 0.300812
O O13 0.414800 0.502746 0.772753
O O14 0.268921 0.965764 0.839823
O O15 0.321385 0.193285 0.054016
O O16 0.000000 0.500000 0.000000
O O17 0.443805 0.478197 0.298040
#
# Coordination Sequence:
#
# PCOD9043137 Si02
#       8
#     2   2   2   2   2   2   2   2
#     4  12  25  44  69 100 135 180 223 278 349 406
#     4  11  27  44  67 103 135 178 226 285 340 404
#     4  10  23  45  69 100 138 176 236 275 332 416
#     4  10  24  45  71 102 132 188 225 277 343 400
#     4  12  25  43  71 102 140 177 224 288 339 398
#     4  11  26  45  70  99 137 185 229 281 337 403
#     4  11  24  47  67  95 141 176 225 281 333 413
#     4  11  25  45  67 104 136 176 234 281 335 406
#
# _framework density 27.746243
#
# number of rings (size 3 to 8) (size 9 to 14) (size 15 to 20)
#    0.000    1.000    2.500    2.625    7.000    3.000 
#    4.500    0.000    0.000    0.000    0.000    0.000 
#    0.000    0.000    0.000    0.000    0.000    0.000 
#
# Total GULP energy -89522.057394 kJ/mol
# GULP energy per Si atom -5595.128587 kJ/mol
# Density = 2.768309 g / cm^3
# Si number density = 27.746243 Si / 1000 Ang^3
#
#
#
# Elastic Constant Matrix: (Units=GPa)
#
#
# Indices 1 2 3 4 5 6 
#
# 1 176.4460 25.0103 43.6323 6.2930 15.0734 6.6966
# 2 25.0103 76.2828 -5.1901 10.9830 1.8124 -17.4504
# 3 43.6323 -5.1901 111.6672 8.6824 13.9436 -15.8327
# 4 6.2930 10.9830 8.6824 42.7678 -9.4384 2.1028
# 5 15.0734 1.8124 13.9436 -9.4384 62.1453 1.3933
# 6 6.6966 -17.4504 -15.8327 2.1028 1.3933 47.7323
#
#
#
# Elastic Compliance Matrix: (Units=1/GPa)
#
#
# Indices 1 2 3 4 5 6 
#
# 1 0.007158 -0.003406 -0.003383 0.000514 -0.000724 -0.003373
# 2 -0.003406 0.017238 0.003944 -0.005487 -0.001583 0.008376
# 3 -0.003383 0.003944 0.011966 -0.003842 -0.002700 0.006133
# 4 0.000514 -0.005487 -0.003842 0.026847 0.005080 -0.004684
# 5 -0.000724 -0.001583 -0.002700 0.005080 0.017738 -0.002114
# 6 -0.003373 0.008376 0.006133 -0.004684 -0.002114 0.026788
#
#
# Mechanical properties :
#
#
# Convention : Reuss Voigt Hill
#
# Bulk Modulus (GPa) = 32.60301 54.58901 43.59601
# Shear Modulus (GPa) = 40.43726 50.59197 45.51461
#
# Velocity S-wave (km/s) = 3.82173 4.27474 4.05456
# Velocity P-wave (km/s) = 5.59018 6.63940 6.13725
#
# Compressibility (1/GPa) = 0.03067202
#
# Stress axis : x y z
#
# Youngs Moduli (GPa) = 139.69811 58.01244 83.57106
#
# Poissons Ratio (x) = 0.19756 0.28273
# Poissons Ratio (y) = 0.47575 -0.32958
# Poissons Ratio (z) = 0.47261 -0.22878
#
# Static dielectric constant tensor:
#      x y z
#    x 2.095630 0.013610 -0.037330 
#    y 0.013610 2.263010 -0.004170 
#    z -0.037330 -0.004170 2.366450 
# 
# From -- ./inp_files/606943.got.cif
#   From: 2010.05.17/outbox.cif.g08.bks.cpg/sg2_304_cif.got.tgz:606943.got - 2010.06.03 11:33:40.
