data_PCOD9043141
_publ_section_title
;
Structure prediction by ZEFSAII (Michael W. Deem and Ramdas Pophale) SiO2 
 PCOD9043141
Probable space group: P -1
;
_chemical_formula_sum "Si O2"
_cell_formula_units_Z 14
_cell_length_a 6.418043
_cell_length_b 18.331351
_cell_length_c 20.728215
_cell_angle_alpha 162.397493
_cell_angle_beta 125.979880
_cell_angle_gamma 54.278762
_cell_volume 593.955057
_symmetry_space_group_name_H-M "P -1"
_symmetry_group_IT_number 2
_symmetry_cell_setting 'triclinic'
loop_
_space_group_symop_operation_xyz
x,y,z
-x,-y,-z
loop_
_atom_site_type_symbol
_atom_site_label
_atom_site_fract_x
_atom_site_fract_y
_atom_site_fract_z
Si Si1 0.226639 0.027686 0.745113
Si Si2 0.193635 0.532355 0.767021
Si Si3 0.567054 0.613644 0.014171
Si Si4 0.750630 0.188460 0.110149
Si Si5 0.798683 0.912884 0.058542
Si Si6 0.315706 0.878784 0.314834
Si Si7 0.224088 0.271869 0.427412
O O1 0.165750 0.096300 0.865665
O O2 0.487647 0.843892 0.634889
O O3 0.283674 0.248254 0.895494
O O4 0.955382 0.958811 0.608005
O O5 0.309597 0.729216 0.905804
O O6 0.214814 0.306979 0.533228
O O7 0.337582 0.519414 0.849746
O O8 0.906276 0.655403 0.830759
O O9 0.456397 0.800378 0.206770
O O10 0.720575 0.383647 0.881530
O O11 0.800176 0.451267 0.369370
O O12 0.507984 0.062299 0.985878
O O13 0.000000 0.000000 0.000000
O O14 0.982852 0.114486 0.237285
O O15 0.500000 0.000000 0.500000
#
# Coordination Sequence:
#
# PCOD9043141 Si02
#       7
#     2   2   2   2   2   2   2
#     4  12  22  46  69  99 137 184 234 283 348 412
#     4  10  23  45  69 100 140 183 233 282 347 424
#     4  11  23  46  64  99 138 181 234 284 345 415
#     4  10  25  46  72 108 140 179 234 290 349 418
#     4  12  22  45  74  99 140 189 227 289 349 418
#     4  11  27  42  67 101 140 181 231 294 346 399
#     4  10  25  42  71 106 132 185 238 276 353 419
#
# _framework density 23.570806000000001
#
# number of rings (size 3 to 8) (size 9 to 14) (size 15 to 20)
#    0.857    0.286    4.286    0.429    6.000    1.714 
#    5.143    2.857    0.000    0.000    0.000    0.000 
#    0.000    0.000    0.000    0.000    0.000    0.000 
#
# Total GULP energy -78139.915724 kJ/mol
# GULP energy per Si atom -5581.422552 kJ/mol
# Density = 2.351716 g / cm^3
# Si number density = 23.570806 Si / 1000 Ang^3
#
#
#
# Elastic Constant Matrix: (Units=GPa)
#
#
# Indices 1 2 3 4 5 6 
#
# 1 114.4431 49.4187 49.8212 0.5431 4.0295 -15.9282
# 2 49.4187 88.7707 26.0427 10.3044 6.7709 4.7986
# 3 49.8212 26.0427 98.7515 2.4481 3.1412 -5.7443
# 4 0.5431 10.3044 2.4481 45.6340 -0.1037 -5.0334
# 5 4.0295 6.7709 3.1412 -0.1037 43.9784 -5.4320
# 6 -15.9282 4.7986 -5.7443 -5.0334 -5.4320 58.9779
#
#
#
# Elastic Compliance Matrix: (Units=1/GPa)
#
#
# Indices 1 2 3 4 5 6 
#
# 1 0.014733 -0.007165 -0.005370 0.002205 0.000672 0.004289
# 2 -0.007165 0.016321 -0.000743 -0.003994 -0.002293 -0.003887
# 3 -0.005370 -0.000743 0.013044 -0.000490 -0.000350 -0.000193
# 4 0.002205 -0.003994 -0.000490 0.023140 0.000864 0.002927
# 5 0.000672 -0.002293 -0.000350 0.000864 0.023373 0.002560
# 6 0.004289 -0.003887 -0.000193 0.002927 0.002560 0.018897
#
#
# Mechanical properties :
#
#
# Convention : Reuss Voigt Hill
#
# Bulk Modulus (GPa) = 57.01197 61.39228 59.20213
# Shear Modulus (GPa) = 35.23355 41.49690 38.36523
#
# Velocity S-wave (km/s) = 3.87045 4.20041 4.03880
# Velocity P-wave (km/s) = 6.64936 7.04464 6.84985
#
# Compressibility (1/GPa) = 0.01754017
#
# Stress axis : x y z
#
# Youngs Moduli (GPa) = 67.87712 61.27214 76.66640
#
# Poissons Ratio (x) = 0.43904 0.41167
# Poissons Ratio (y) = 0.48636 0.05698
# Poissons Ratio (z) = 0.36447 0.04554
#
# Static dielectric constant tensor:
#      x y z
#    x 1.886590 -0.000920 0.056810 
#    y -0.000920 1.908060 -0.011430 
#    z 0.056810 -0.011430 1.960030 
# 
# From -- ./inp_files/583921.got.cif
#   From: 2010.05.17/outbox.cif.g08.bks.cpg/sg2_292_cif.got.tgz:583921.got - 2010.06.03 11:33:40.
