data_PCOD9043300
_publ_section_title
;
Structure prediction by ZEFSAII (Michael W. Deem and Ramdas Pophale) SiO2 
 PCOD9043300
Probable space group: P -1
;
_chemical_formula_sum "Si O2"
_cell_formula_units_Z 12
_cell_length_a 8.698959
_cell_length_b 9.912105
_cell_length_c 13.497542
_cell_angle_alpha 149.165023
_cell_angle_beta 47.107562
_cell_angle_gamma 121.642537
_cell_volume 431.467136
_symmetry_space_group_name_H-M "P -1"
_symmetry_group_IT_number 2
_symmetry_cell_setting 'triclinic'
loop_
_space_group_symop_operation_xyz
x,y,z
-x,-y,-z
loop_
_atom_site_type_symbol
_atom_site_label
_atom_site_fract_x
_atom_site_fract_y
_atom_site_fract_z
Si Si1 0.224476 0.475693 0.945990
Si Si2 0.864578 0.982857 0.766787
Si Si3 0.931618 0.717083 0.377004
Si Si4 0.692825 0.307863 0.593824
Si Si5 0.805791 0.873035 0.952540
Si Si6 0.482599 0.702140 0.544565
O O1 0.457620 0.298686 0.733503
O O2 0.000000 0.500000 0.000000
O O3 0.125903 0.503636 0.118300
O O4 0.272319 0.760051 0.060779
O O5 0.125630 0.951603 0.635307
O O6 0.850759 0.749501 0.545825
O O7 0.799492 0.963385 0.896609
O O8 0.720336 0.687859 0.391230
O O9 0.000000 0.000000 0.500000
O O10 0.786558 0.562371 0.755024
O O11 0.662201 0.349974 0.516465
O O12 0.607529 0.014256 0.191374
O O13 0.000000 0.000000 0.000000
O O14 0.500000 0.500000 0.500000
#
# Coordination Sequence:
#
# PCOD9043300 Si02
#       6
#     2   2   2   2   2   2
#     4  11  24  46  72 104 144 188 242 297 359 431
#     4  11  25  45  73 103 145 189 242 298 359 429
#     4  10  23  45  70 102 144 188 240 299 357 431
#     4  12  26  47  73 107 143 188 248 294 364 438
#     4  12  26  44  70 108 145 183 241 302 361 434
#     4  12  25  44  77 105 145 193 241 302 372 428
#
# _framework density 27.812085
#
# number of rings (size 3 to 8) (size 9 to 14) (size 15 to 20)
#    0.000    0.667    3.333    4.500    2.333    3.333 
#    0.000    0.000    0.000    0.000    0.000    0.000 
#    0.000    0.000    0.000    0.000    0.000    0.000 
#
# Total GULP energy -67070.959707 kJ/mol
# GULP energy per Si atom -5589.246642 kJ/mol
# Density = 2.774878 g / cm^3
# Si number density = 27.812085 Si / 1000 Ang^3
#
#
#
# Elastic Constant Matrix: (Units=GPa)
#
#
# Indices 1 2 3 4 5 6 
#
# 1 147.5675 37.0048 29.5237 2.6499 16.2595 -3.2167
# 2 37.0048 70.5623 18.4527 -16.6240 2.8273 11.6932
# 3 29.5237 18.4527 157.7931 -22.9326 -15.0549 -2.1633
# 4 2.6499 -16.6240 -22.9326 48.3452 -3.8242 7.7563
# 5 16.2595 2.8273 -15.0549 -3.8242 68.0239 -13.8354
# 6 -3.2167 11.6932 -2.1633 7.7563 -13.8354 52.5142
#
#
#
# Elastic Compliance Matrix: (Units=1/GPa)
#
#
# Indices 1 2 3 4 5 6 
#
# 1 0.008738 -0.005123 -0.001724 -0.003477 -0.002136 0.001556
# 2 -0.005123 0.019817 -0.000342 0.007862 -0.000458 -0.006022
# 3 -0.001724 -0.000342 0.007459 0.003643 0.002355 0.000360
# 4 -0.003477 0.007862 0.003643 0.026284 0.001722 -0.005242
# 5 -0.002136 -0.000458 0.002355 0.001722 0.016706 0.004215
# 6 0.001556 -0.006022 0.000360 -0.005242 0.004215 0.022378
#
#
# Mechanical properties :
#
#
# Convention : Reuss Voigt Hill
#
# Bulk Modulus (GPa) = 46.21969 60.65394 53.43682
# Shear Modulus (GPa) = 40.65994 53.17280 46.91637
#
# Velocity S-wave (km/s) = 3.82770 4.37723 4.11165
# Velocity P-wave (km/s) = 6.01578 6.88496 6.46499
#
# Compressibility (1/GPa) = 0.02163580
#
# Stress axis : x y z
#
# Youngs Moduli (GPa) = 114.44641 50.46264 134.06459
#
# Poissons Ratio (x) = 0.25851 0.23106
# Poissons Ratio (y) = 0.58629 0.04591
# Poissons Ratio (z) = 0.19725 0.01728
#
# Static dielectric constant tensor:
#      x y z
#    x 2.256520 0.086940 0.064820 
#    y 0.086940 2.291420 0.134000 
#    z 0.064820 0.134000 2.415340 
# 
# From -- ./inp_files/501064.got.cif
#   From: 2010.05.17/outbox.cif.g08.bks.cpg/sg2_251_cif.got.tgz:501064.got - 2010.06.03 11:33:40.
