data_PCOD9043431
_publ_section_title
;
Structure prediction by ZEFSAII (Michael W. Deem and Ramdas Pophale) SiO2 
 PCOD9043431
Probable space group: P -1
;
_chemical_formula_sum "Si O2"
_cell_formula_units_Z 14
_cell_length_a 10.396229
_cell_length_b 8.799398
_cell_length_c 23.961855
_cell_angle_alpha 136.493345
_cell_angle_beta 155.440953
_cell_angle_gamma 42.498056
_cell_volume 603.704333
_symmetry_space_group_name_H-M "P -1"
_symmetry_group_IT_number 2
_symmetry_cell_setting 'triclinic'
loop_
_space_group_symop_operation_xyz
x,y,z
-x,-y,-z
loop_
_atom_site_type_symbol
_atom_site_label
_atom_site_fract_x
_atom_site_fract_y
_atom_site_fract_z
Si Si1 0.171540 0.529769 0.690555
Si Si2 0.137029 0.036066 0.389560
Si Si3 0.520350 0.755903 0.968427
Si Si4 0.102594 0.553594 0.198757
Si Si5 0.256088 0.795251 0.994215
Si Si6 0.403114 0.869582 0.192571
Si Si7 0.764197 0.232967 0.402660
O O1 0.237153 0.662030 0.806556
O O2 0.487942 0.312938 0.763656
O O3 0.087459 0.735908 0.668103
O O4 0.898348 0.397784 0.540085
O O5 0.042259 0.095320 0.432918
O O6 0.500000 0.000000 0.500000
O O7 0.082473 0.795709 0.284479
O O8 0.464290 0.768841 0.015131
O O9 0.889554 0.600628 0.070509
O O10 0.500000 0.000000 0.000000
O O11 0.472081 0.405492 0.298997
O O12 0.946519 0.388736 0.129690
O O13 0.462542 0.781645 0.128255
O O14 0.979159 0.029415 0.936727
O O15 0.604764 0.057875 0.325491
#
# Coordination Sequence:
#
# PCOD9043431 Si02
#       7
#     2   2   2   2   2   2   2
#     4  12  25  43  68 105 141 179 235 291 346 412
#     4  12  26  46  73 102 141 189 231 285 359 412
#     4  12  25  42  70 108 141 178 237 290 347 415
#     4  11  23  46  72 101 134 191 231 278 358 409
#     4  10  23  45  72 100 142 186 230 292 348 414
#     4  10  23  45  71 102 137 187 237 285 352 405
#     4  11  26  47  72  96 145 188 228 289 350 421
#
# _framework density 23.190161
#
# number of rings (size 3 to 8) (size 9 to 14) (size 15 to 20)
#    0.000    0.857    4.286    2.143    2.000    2.286 
#    0.000    3.571    0.000    0.000    0.000    0.000 
#    0.000    0.000    0.000    0.000    0.000    0.000 
#
# Total GULP energy -78026.308538 kJ/mol
# GULP energy per Si atom -5573.307753 kJ/mol
# Density = 2.313738 g / cm^3
# Si number density = 23.190161 Si / 1000 Ang^3
#
#
#
# Elastic Constant Matrix: (Units=GPa)
#
#
# Indices 1 2 3 4 5 6 
#
# 1 37.8275 17.3535 34.6667 -1.7113 6.2167 -14.9014
# 2 17.3535 138.5772 28.0388 -7.7156 2.9694 10.2063
# 3 34.6667 28.0388 135.2141 19.9743 1.9906 -4.3869
# 4 -1.7113 -7.7156 19.9743 60.0234 -0.2969 -8.8675
# 5 6.2167 2.9694 1.9906 -0.2969 16.3343 -4.3918
# 6 -14.9014 10.2063 -4.3869 -8.8675 -4.3918 18.3725
#
#
#
# Elastic Compliance Matrix: (Units=1/GPa)
#
#
# Indices 1 2 3 4 5 6 
#
# 1 0.077102 -0.010178 -0.017820 0.017256 -0.005963 0.070837
# 2 -0.010178 0.009438 0.000410 -0.001363 -0.001813 -0.014492
# 3 -0.017820 0.000410 0.012382 -0.006744 0.001121 -0.014712
# 4 0.017256 -0.001363 -0.006744 0.022853 0.001514 0.024535
# 5 -0.005963 -0.001813 0.001121 0.001514 0.067273 0.013251
# 6 0.070837 -0.014492 -0.014712 0.024535 0.013251 0.131430
#
#
# Mechanical properties :
#
#
# Convention : Reuss Voigt Hill
#
# Bulk Modulus (GPa) = 22.85950 52.41520 37.63735
# Shear Modulus (GPa) = 12.81279 34.38338 23.59809
#
# Velocity S-wave (km/s) = 2.35310 3.85472 3.19343
# Velocity P-wave (km/s) = 4.15471 6.51639 5.46465
#
# Compressibility (1/GPa) = 0.04374548
#
# Stress axis : x y z
#
# Youngs Moduli (GPa) = 12.96991 105.95445 80.76419
#
# Poissons Ratio (x) = 1.07843 1.43922
# Poissons Ratio (y) = 0.13201 -0.03314
# Poissons Ratio (z) = 0.23112 -0.04348
#
# Static dielectric constant tensor:
#      x y z
#    x 1.921410 -0.096790 0.027270 
#    y -0.096790 2.020320 -0.031040 
#    z 0.027270 -0.031040 1.927110 
# 
# From -- ./inp_files/358607.got.cif
#   From: 2010.05.17/outbox.cif.g08.bks.cpg/sg2_180_cif.got.tgz:358607.got - 2010.06.03 11:33:40.
