data_PCOD9043044
_publ_section_title
;
Structure prediction by ZEFSAII (Michael W. Deem and Ramdas Pophale) SiO2 
 PCOD9043044
Probable space group: P -1
;
_chemical_formula_sum "Si O2"
_cell_formula_units_Z 16
_cell_length_a 16.112653
_cell_length_b 15.649590
_cell_length_c 15.650532
_cell_angle_alpha 146.247803
_cell_angle_beta 36.262251
_cell_angle_gamma 161.953216
_cell_volume 676.400371
_symmetry_space_group_name_H-M "P -1"
_symmetry_group_IT_number 2
_symmetry_cell_setting 'triclinic'
loop_
_space_group_symop_operation_xyz
x,y,z
-x,-y,-z
loop_
_atom_site_type_symbol
_atom_site_label
_atom_site_fract_x
_atom_site_fract_y
_atom_site_fract_z
Si Si1 0.569462 0.562571 0.717343
Si Si2 0.077320 0.728638 0.170896
Si Si3 0.766366 0.233364 0.294199
Si Si4 0.001205 0.194312 0.871322
Si Si5 0.237157 0.727907 0.200831
Si Si6 0.589449 0.323283 0.643358
Si Si7 0.073134 0.889775 0.828587
Si Si8 0.237538 0.323909 0.532050
O O1 0.274060 0.350507 0.762286
O O2 0.540149 0.399666 0.672925
O O3 0.726532 0.647324 0.574573
O O4 0.770556 0.882856 0.851979
O O5 0.145504 0.898578 0.174169
O O6 0.817224 0.559314 0.289612
O O7 0.261738 0.864690 0.212627
O O8 0.000000 0.500000 0.000000
O O9 0.643288 0.211404 0.458760
O O10 0.895031 0.192855 0.185111
O O11 0.006832 0.555809 0.318086
O O12 0.521326 0.978991 0.220398
O O13 0.114374 0.454146 0.037328
O O14 0.848111 0.609929 0.721364
O O15 0.346971 0.121286 0.741925
O O16 0.000000 0.000000 0.000000
O O17 0.500000 0.500000 0.500000
O O18 0.000000 0.000000 0.500000
#
# Coordination Sequence:
#
# PCOD9043044 Si02
#       8
#     2   2   2   2   2   2   2   2
#     4  12  24  42  71 102 146 188 244 287 361 413
#     4  10  23  45  68 101 144 194 245 289 358 409
#     4  12  26  50  76 106 148 184 238 298 372 424
#     4  11  24  43  67 105 146 195 235 308 345 413
#     4  11  26  43  75 104 146 189 247 296 355 435
#     4  12  27  48  76 110 147 188 238 293 362 443
#     4  12  28  49  79 112 144 184 234 298 370 443
#     4  12  23  42  66 100 139 186 239 291 346 409
#
# _framework density 23.654629
#
# number of rings (size 3 to 8) (size 9 to 14) (size 15 to 20)
#    0.000    0.500    2.500    4.875    5.250    4.000 
#    0.000    5.625    0.000    0.000    0.000    0.000 
#    0.000    0.000    0.000    0.000    0.000    0.000 
#
# Total GULP energy -89544.104123 kJ/mol
# GULP energy per Si atom -5596.506508 kJ/mol
# Density = 2.360079 g / cm^3
# Si number density = 23.654629 Si / 1000 Ang^3
#
#
#
# Elastic Constant Matrix: (Units=GPa)
#
#
# Indices 1 2 3 4 5 6 
#
# 1 168.2090 49.9895 46.3369 -1.8758 -1.8640 13.8655
# 2 49.9895 147.7788 22.3064 -13.9008 3.2496 19.7339
# 3 46.3369 22.3064 129.8047 -6.7797 -7.4771 19.0688
# 4 -1.8758 -13.9008 -6.7797 27.4431 -1.3482 5.1666
# 5 -1.8640 3.2496 -7.4771 -1.3482 38.7301 2.0265
# 6 13.8655 19.7339 19.0688 5.1666 2.0265 44.2973
#
#
#
# Elastic Compliance Matrix: (Units=1/GPa)
#
#
# Indices 1 2 3 4 5 6 
#
# 1 0.007212 -0.002184 -0.002224 -0.001122 0.000072 -0.000199
# 2 -0.002184 0.008443 0.000093 0.004818 -0.000436 -0.003660
# 3 -0.002224 0.000093 0.009311 0.003007 0.001986 -0.003795
# 4 -0.001122 0.004818 0.003007 0.041145 0.001972 -0.007979
# 5 0.000072 -0.000436 0.001986 0.001972 0.026423 -0.002122
# 6 -0.000199 -0.003660 -0.003795 -0.007979 -0.002122 0.026929
#
#
# Mechanical properties :
#
#
# Convention : Reuss Voigt Hill
#
# Bulk Modulus (GPa) = 61.21971 75.89534 68.55752
# Shear Modulus (GPa) = 37.44263 43.90475 40.67369
#
# Velocity S-wave (km/s) = 3.98287 4.31289 4.15116
# Velocity P-wave (km/s) = 6.86206 7.54691 7.21261
#
# Compressibility (1/GPa) = 0.01633461
#
# Stress axis : x y z
#
# Youngs Moduli (GPa) = 138.66705 118.43833 107.40201
#
# Poissons Ratio (x) = 0.25870 0.23888
# Poissons Ratio (y) = 0.30288 -0.00998
# Poissons Ratio (z) = 0.30841 -0.01100
#
# Static dielectric constant tensor:
#      x y z
#    x 1.913440 -0.022850 0.005990 
#    y -0.022850 1.884970 0.044540 
#    z 0.005990 0.044540 1.991710 
# 
# From -- ./inp_files/534428.got.cif
#   From: 2010.05.17/outbox.cif.g08.bks.cpg/sg2_268_cif.got.tgz:534428.got - 2010.06.03 11:33:40.
