data_PCOD9043154
_publ_section_title
;
Structure prediction by ZEFSAII (Michael W. Deem and Ramdas Pophale) SiO2 
 PCOD9043154
Probable space group: P -1
;
_chemical_formula_sum "Si O2"
_cell_formula_units_Z 16
_cell_length_a 15.807652
_cell_length_b 8.739190
_cell_length_c 16.606730
_cell_angle_alpha 77.335500
_cell_angle_beta 144.031056
_cell_angle_gamma 130.823865
_cell_volume 731.027635
_symmetry_space_group_name_H-M "P -1"
_symmetry_group_IT_number 2
_symmetry_cell_setting 'triclinic'
loop_
_space_group_symop_operation_xyz
x,y,z
-x,-y,-z
loop_
_atom_site_type_symbol
_atom_site_label
_atom_site_fract_x
_atom_site_fract_y
_atom_site_fract_z
Si Si1 0.839392 0.210847 0.021442
Si Si2 0.709784 0.139206 0.531248
Si Si3 0.643096 0.475917 0.646919
Si Si4 0.059981 0.352830 0.908235
Si Si5 0.894736 0.209715 0.498686
Si Si6 0.389537 0.843954 0.844921
Si Si7 0.481381 0.399089 0.707969
Si Si8 0.599551 0.852191 0.717348
O O1 0.919808 0.466670 0.046896
O O2 0.082103 0.312910 0.205092
O O3 0.638790 0.030794 0.960940
O O4 0.711364 0.037758 0.860513
O O5 0.740810 0.159862 0.457224
O O6 0.608863 0.216127 0.470553
O O7 0.972111 0.330818 0.755640
O O8 0.515736 0.828729 0.445528
O O9 0.500000 0.500000 0.500000
O O10 0.641838 0.501259 0.738819
O O11 0.325439 0.498650 0.089420
O O12 0.835395 0.047817 0.813406
O O13 0.785862 0.180767 0.333746
O O14 0.190121 0.516594 0.714900
O O15 0.790076 0.937570 0.458322
O O16 0.500000 0.000000 0.000000
O O17 0.469525 0.573752 0.676298
#
# Coordination Sequence:
#
# PCOD9043154 Si02
#       8
#     2   2   2   2   2   2   2   2
#     4  12  23  41  67  96 139 179 237 284 349 410
#     4  11  23  40  67 100 141 182 232 281 346 422
#     4  11  24  41  63 102 145 181 222 288 350 417
#     4  12  22  38  64 104 141 187 230 274 342 433
#     4  10  23  45  69 101 137 178 236 300 343 411
#     4  11  23  46  77 101 127 184 247 295 350 408
#     4  11  24  41  65 100 148 186 218 283 353 414
#     4  12  23  39  63 103 146 189 223 277 348 427
#
# _framework density 21.886996
#
# number of rings (size 3 to 8) (size 9 to 14) (size 15 to 20)
#    0.000    0.750    5.000    3.375    3.500    0.000 
#    0.000    0.625    0.000    3.750    0.000    0.000 
#    0.000    0.000    0.000    0.000    0.000    0.000 
#
# Total GULP energy -89338.334243 kJ/mol
# GULP energy per Si atom -5583.645890 kJ/mol
# Density = 2.183718 g / cm^3
# Si number density = 21.886996 Si / 1000 Ang^3
#
#
#
# Elastic Constant Matrix: (Units=GPa)
#
#
# Indices 1 2 3 4 5 6 
#
# 1 47.7332 19.3009 33.3742 -5.4623 -10.0781 11.8935
# 2 19.3009 137.3096 56.7969 12.7373 11.9575 -20.7362
# 3 33.3742 56.7969 124.9733 -6.8464 -2.9202 2.8268
# 4 -5.4623 12.7373 -6.8464 32.2799 2.1705 7.1949
# 5 -10.0781 11.9575 -2.9202 2.1705 46.5866 -3.0081
# 6 11.8935 -20.7362 2.8268 7.1949 -3.0081 35.3812
#
#
#
# Elastic Compliance Matrix: (Units=1/GPa)
#
#
# Indices 1 2 3 4 5 6 
#
# 1 0.034031 -0.006946 -0.004797 0.010713 0.007267 -0.016688
# 2 -0.006946 0.013615 -0.005266 -0.010169 -0.004049 0.012459
# 3 -0.004797 -0.005266 0.012012 0.004505 0.000644 -0.003295
# 4 0.010713 -0.010169 0.004505 0.041680 0.002092 -0.018219
# 5 0.007267 -0.004049 0.000644 0.002092 0.023809 -0.003269
# 6 -0.016688 0.012459 -0.003295 -0.018219 -0.003269 0.044866
#
#
# Mechanical properties :
#
#
# Convention : Reuss Voigt Hill
#
# Bulk Modulus (GPa) = 39.00204 58.77334 48.88769
# Shear Modulus (GPa) = 23.52077 36.21914 29.86995
#
# Velocity S-wave (km/s) = 3.28174 4.07237 3.69824
# Velocity P-wave (km/s) = 5.67610 7.00169 6.37345
#
# Compressibility (1/GPa) = 0.02563968
#
# Stress axis : x y z
#
# Youngs Moduli (GPa) = 29.38511 73.44853 83.24690
#
# Poissons Ratio (x) = 0.51019 0.39933
# Poissons Ratio (y) = 0.20411 0.43839
# Poissons Ratio (z) = 0.14096 0.38679
#
# Static dielectric constant tensor:
#      x y z
#    x 1.784210 0.010110 -0.021040 
#    y 0.010110 1.851880 -0.000810 
#    z -0.021040 -0.000810 1.931990 
# 
# From -- ./inp_files/529677.got.cif
#   From: 2010.05.17/outbox.cif.g08.bks.cpg/sg2_265_cif.got.tgz:529677.got - 2010.06.03 11:33:40.
