data_PCOD9043156
_publ_section_title
;
Structure prediction by ZEFSAII (Michael W. Deem and Ramdas Pophale) SiO2 
 PCOD9043156
Probable space group: P -1
;
_chemical_formula_sum "Si O2"
_cell_formula_units_Z 14
_cell_length_a 10.892876
_cell_length_b 5.836488
_cell_length_c 14.381991
_cell_angle_alpha 101.697809
_cell_angle_beta 39.255619
_cell_angle_gamma 83.712010
_cell_volume 511.480199
_symmetry_space_group_name_H-M "P -1"
_symmetry_group_IT_number 2
_symmetry_cell_setting 'triclinic'
loop_
_space_group_symop_operation_xyz
x,y,z
-x,-y,-z
loop_
_atom_site_type_symbol
_atom_site_label
_atom_site_fract_x
_atom_site_fract_y
_atom_site_fract_z
Si Si1 0.097184 0.685318 0.407943
Si Si2 0.254157 0.255723 0.782375
Si Si3 0.269363 0.673559 0.597746
Si Si4 0.854082 0.848379 0.972653
Si Si5 0.580199 0.399264 0.172549
Si Si6 0.279639 0.171241 0.554634
Si Si7 0.727302 0.471409 0.904385
O O1 0.341968 0.563843 0.289966
O O2 0.107814 0.653645 0.286190
O O3 0.000000 0.500000 0.500000
O O4 0.000000 0.000000 0.500000
O O5 0.758655 0.091287 0.436512
O O6 0.356090 0.440619 0.777812
O O7 0.460844 0.982184 0.619751
O O8 0.100793 0.257385 0.956447
O O9 0.236419 0.438842 0.546973
O O10 0.076802 0.820952 0.796537
O O11 0.176956 0.307903 0.725734
O O12 0.752240 0.722829 0.946173
O O13 0.644993 0.111552 0.141390
O O14 0.737151 0.333547 0.984719
O O15 0.500000 0.500000 0.500000
O O16 0.500000 0.500000 0.000000
#
# Coordination Sequence:
#
# PCOD9043156 Si02
#       7
#     2   2   2   2   2   2   2
#     4  11  27  46  74 110 143 188 232 293 367 430
#     4  10  23  45  69 101 139 192 247 295 366 421
#     4  12  25  49  67 104 142 191 244 306 365 425
#     4  11  27  42  77 105 140 198 247 297 367 433
#     4  10  25  46  71 104 146 187 244 297 354 443
#     4  11  26  47  71  97 148 192 242 310 362 422
#     4   9  23  48  73 101 149 187 238 293 363 433
#
# _framework density 27.371538999999999
#
# number of rings (size 3 to 8) (size 9 to 14) (size 15 to 20)
#    0.000    1.429    2.857    0.000   16.000    4.571 
#    0.000    0.000    0.000    0.000    0.000    0.000 
#    0.000    0.000    0.000    0.000    0.000    0.000 
#
# Total GULP energy -78048.148643 kJ/mol
# GULP energy per Si atom -5574.867760 kJ/mol
# Density = 2.730924 g / cm^3
# Si number density = 27.371539 Si / 1000 Ang^3
#
#
#
# Elastic Constant Matrix: (Units=GPa)
#
#
# Indices 1 2 3 4 5 6 
#
# 1 106.5944 56.7871 52.7785 20.6627 0.4707 6.1318
# 2 56.7871 193.9028 62.1504 26.2570 -10.4745 -12.4067
# 3 52.7785 62.1504 171.7645 0.9355 14.7833 4.9401
# 4 20.6627 26.2570 0.9355 53.6625 0.3730 -3.2076
# 5 0.4707 -10.4745 14.7833 0.3730 77.2538 -1.2386
# 6 6.1318 -12.4067 4.9401 -3.2076 -1.2386 42.3322
#
#
#
# Elastic Compliance Matrix: (Units=1/GPa)
#
#
# Indices 1 2 3 4 5 6 
#
# 1 0.013129 -0.002491 -0.003050 -0.003938 0.000144 -0.002570
# 2 -0.002491 0.007072 -0.001974 -0.002325 0.001404 0.002529
# 3 -0.003050 -0.001974 0.007639 0.001964 -0.001735 -0.000930
# 4 -0.003938 -0.002325 0.001964 0.021335 -0.000750 0.001254
# 5 0.000144 0.001404 -0.001735 -0.000750 0.013484 0.000931
# 6 -0.002570 0.002529 -0.000930 0.001254 0.000931 0.024967
#
#
# Mechanical properties :
#
#
# Convention : Reuss Voigt Hill
#
# Bulk Modulus (GPa) = 78.06644 90.63262 84.34953
# Shear Modulus (GPa) = 46.76106 54.68610 50.72358
#
# Velocity S-wave (km/s) = 4.13774 4.47466 4.30949
# Velocity P-wave (km/s) = 7.17013 7.73826 7.45961
#
# Compressibility (1/GPa) = 0.01280960
#
# Stress axis : x y z
#
# Youngs Moduli (GPa) = 76.16731 141.40125 130.90881
#
# Poissons Ratio (x) = 0.35221 0.39926
# Poissons Ratio (y) = 0.18972 0.25847
# Poissons Ratio (z) = 0.23230 0.27919
#
# Static dielectric constant tensor:
#      x y z
#    x 2.219830 0.005620 -0.070940 
#    y 0.005620 2.588630 -0.048880 
#    z -0.070940 -0.048880 2.170810 
# 
# From -- ./inp_files/571747.got.cif
#   From: 2010.05.17/outbox.cif.g08.bks.cpg/sg2_286_cif.got.tgz:571747.got - 2010.06.03 11:33:40.
