data_PCOD9043304
_publ_section_title
;
Structure prediction by ZEFSAII (Michael W. Deem and Ramdas Pophale) SiO2 
 PCOD9043304
Probable space group: P -1
;
_chemical_formula_sum "Si O2"
_cell_formula_units_Z 14
_cell_length_a 9.697221
_cell_length_b 12.482880
_cell_length_c 8.078532
_cell_angle_alpha 73.696729
_cell_angle_beta 102.301386
_cell_angle_gamma 145.329003
_cell_volume 533.638168
_symmetry_space_group_name_H-M "P -1"
_symmetry_group_IT_number 2
_symmetry_cell_setting 'triclinic'
loop_
_space_group_symop_operation_xyz
x,y,z
-x,-y,-z
loop_
_atom_site_type_symbol
_atom_site_label
_atom_site_fract_x
_atom_site_fract_y
_atom_site_fract_z
Si Si1 0.963953 0.170647 0.474831
Si Si2 0.705620 0.870454 0.140125
Si Si3 0.341769 0.761690 0.330791
Si Si4 0.914015 0.183928 0.832022
Si Si5 0.216826 0.173530 0.317347
Si Si6 0.822351 0.319425 0.308422
Si Si7 0.638723 0.421755 0.062427
O O1 0.849682 0.204246 0.337984
O O2 0.016105 0.242354 0.645726
O O3 0.187233 0.257976 0.398145
O O4 0.788410 0.950559 0.543870
O O5 0.551799 0.843697 0.240324
O O6 0.513318 0.659213 0.108633
O O7 0.961374 0.003684 0.226661
O O8 0.788138 0.992514 0.946840
O O9 0.334508 0.766417 0.526633
O O10 0.288800 0.851702 0.213381
O O11 0.095860 0.534651 0.325036
O O12 0.121406 0.352328 0.941534
O O13 0.452036 0.333179 0.197593
O O14 0.722841 0.345546 0.139684
#
# Coordination Sequence:
#
# PCOD9043304 Si02
#       7
#     2   2   2   2   2   2   2
#     4  10  23  46  69  98 135 174 234 277 331 398
#     4  12  25  43  67  98 147 180 216 275 339 410
#     4   9  21  41  70 103 134 170 227 286 330 398
#     4  10  23  45  70 103 133 178 229 275 343 396
#     4  11  26  45  64 104 138 181 228 273 336 404
#     4   9  21  44  71 102 128 173 233 281 335 390
#     4  11  25  45  72 100 139 176 224 284 332 405
#
# _framework density 26.235004
#
# number of rings (size 3 to 8) (size 9 to 14) (size 15 to 20)
#    0.000    1.714    1.429    1.714    4.000    7.429 
#    2.571    0.000    0.000    0.000    0.000    0.000 
#    0.000    0.000    0.000    0.000    0.000    0.000 
#
# Total GULP energy -78414.911315 kJ/mol
# GULP energy per Si atom -5601.065094 kJ/mol
# Density = 2.617529 g / cm^3
# Si number density = 26.235004 Si / 1000 Ang^3
#
#
#
# Elastic Constant Matrix: (Units=GPa)
#
#
# Indices 1 2 3 4 5 6 
#
# 1 163.4837 27.9722 21.4299 -12.6099 -7.2732 -4.2958
# 2 27.9722 69.4788 19.9309 13.9899 13.7279 -6.2258
# 3 21.4299 19.9309 56.7805 10.1048 -3.5324 -2.2873
# 4 -12.6099 13.9899 10.1048 30.7351 2.2162 1.3635
# 5 -7.2732 13.7279 -3.5324 2.2162 30.0152 3.8423
# 6 -4.2958 -6.2258 -2.2873 1.3635 3.8423 29.6144
#
#
#
# Elastic Compliance Matrix: (Units=1/GPa)
#
#
# Indices 1 2 3 4 5 6 
#
# 1 0.007707 -0.004296 -0.002230 0.005645 0.003235 -0.000637
# 2 -0.004296 0.022367 -0.005015 -0.009690 -0.011872 0.005678
# 3 -0.002230 -0.005015 0.021587 -0.006070 0.004748 -0.000047
# 4 0.005645 -0.009690 -0.006070 0.041249 0.002541 -0.003916
# 5 0.003235 -0.011872 0.004748 0.002541 0.040807 -0.007071
# 6 -0.000637 0.005678 -0.000047 -0.003916 -0.007071 0.035963
#
#
# Mechanical properties :
#
#
# Convention : Reuss Voigt Hill
#
# Bulk Modulus (GPa) = 34.99058 47.60101 41.29579
# Shear Modulus (GPa) = 24.71726 32.76694 28.74210
#
# Velocity S-wave (km/s) = 3.07277 3.53792 3.31352
# Velocity P-wave (km/s) = 5.09466 5.90531 5.51490
#
# Compressibility (1/GPa) = 0.02857912
#
# Stress axis : x y z
#
# Youngs Moduli (GPa) = 129.75580 44.70890 46.32351
#
# Poissons Ratio (x) = 0.19207 0.10329
# Poissons Ratio (y) = 0.55744 0.23232
# Poissons Ratio (z) = 0.28933 0.22422
#
# Static dielectric constant tensor:
#      x y z
#    x 2.047590 -0.032920 0.035570 
#    y -0.032920 2.047610 0.051630 
#    z 0.035570 0.051630 2.100500 
# 
# From -- ./inp_files/186853.got.cif
#   From: 2010.05.17/outbox.cif.g08.bks.cpg/sg2_94_cif.got.tgz:186853.got - 2010.06.03 11:33:40.
