data_PCOD9043638
_publ_section_title
;
Structure prediction by ZEFSAII (Michael W. Deem and Ramdas Pophale) SiO2 
 PCOD9043638
Probable space group: P -1
;
_chemical_formula_sum "Si O2"
_cell_formula_units_Z 16
_cell_length_a 8.459525
_cell_length_b 11.254829
_cell_length_c 14.338096
_cell_angle_alpha 139.214547
_cell_angle_beta 73.100154
_cell_angle_gamma 125.795997
_cell_volume 692.829449
_symmetry_space_group_name_H-M "P -1"
_symmetry_group_IT_number 2
_symmetry_cell_setting 'triclinic'
loop_
_space_group_symop_operation_xyz
x,y,z
-x,-y,-z
loop_
_atom_site_type_symbol
_atom_site_label
_atom_site_fract_x
_atom_site_fract_y
_atom_site_fract_z
Si Si1 0.662990 0.864213 0.617228
Si Si2 0.082796 0.210283 0.176208
Si Si3 0.978107 0.524605 0.409548
Si Si4 0.761085 0.846220 0.137913
Si Si5 0.398526 0.967130 0.596970
Si Si6 0.570889 0.397323 0.322249
Si Si7 0.074124 0.339299 0.873482
Si Si8 0.503298 0.365371 0.126856
O O1 0.508473 0.908257 0.620094
O O2 0.626713 0.646773 0.443794
O O3 0.610875 0.773685 0.679200
O O4 0.884627 0.100413 0.723381
O O5 0.002137 0.353712 0.247866
O O6 0.325089 0.369635 0.213444
O O7 0.967729 0.090309 0.221823
O O8 0.000000 0.000000 0.000000
O O9 0.165803 0.769160 0.498588
O O10 0.000000 0.500000 0.500000
O O11 0.762332 0.462642 0.388441
O O12 0.841640 0.702221 0.070985
O O13 0.624672 0.848574 0.244184
O O14 0.617523 0.765618 0.023652
O O15 0.500000 0.000000 0.500000
O O16 0.551162 0.275723 0.156739
O O17 0.269571 0.446197 0.835592
O O18 0.000000 0.500000 0.000000
#
# Coordination Sequence:
#
# PCOD9043638 Si02
#       8
#     2   2   2   2   2   2   2   2
#     4  11  25  48  75 109 155 190 253 312 376 438
#     4  10  23  45  73 105 144 196 252 305 367 444
#     4  12  23  45  77 109 147 192 257 310 373 439
#     4  11  24  50  73 107 153 200 251 311 370 453
#     4  12  27  45  80 110 150 201 246 305 384 453
#     4  11  25  46  78 112 143 196 253 321 365 440
#     4  12  28  47  70 106 160 199 241 308 384 454
#     4  11  26  44  75 106 145 196 249 297 386 445
#
# _framework density 23.093707999999999
#
# number of rings (size 3 to 8) (size 9 to 14) (size 15 to 20)
#    0.000    0.750    2.500    3.375    7.000    3.500 
#    0.000    8.125    0.000    0.000    0.000    0.000 
#    0.000    0.000    0.000    0.000    0.000    0.000 
#
# Total GULP energy -89147.112133 kJ/mol
# GULP energy per Si atom -5571.694508 kJ/mol
# Density = 2.304115 g / cm^3
# Si number density = 23.093708 Si / 1000 Ang^3
#
#
#
# Elastic Constant Matrix: (Units=GPa)
#
#
# Indices 1 2 3 4 5 6 
#
# 1 122.1965 39.8986 56.5975 9.2220 11.2924 10.4930
# 2 39.8986 127.4188 42.9172 -11.4235 4.5369 33.7542
# 3 56.5975 42.9172 114.7597 -1.2387 9.1212 -2.7220
# 4 9.2220 -11.4235 -1.2387 35.1514 -0.5770 11.0724
# 5 11.2924 4.5369 9.1212 -0.5770 37.7911 1.9053
# 6 10.4930 33.7542 -2.7220 11.0724 1.9053 46.8155
#
#
#
# Elastic Compliance Matrix: (Units=1/GPa)
#
#
# Indices 1 2 3 4 5 6 
#
# 1 0.011643 -0.002238 -0.004786 -0.003901 -0.002101 -0.000266
# 2 -0.002238 0.013912 -0.004348 0.008708 0.000780 -0.011873
# 3 -0.004786 -0.004348 0.012928 -0.001412 -0.001460 0.005353
# 4 -0.003901 0.008708 -0.001412 0.036770 0.001741 -0.014253
# 5 -0.002101 0.000780 -0.001460 0.001741 0.027460 -0.001705
# 6 -0.000266 -0.011873 0.005353 -0.014253 -0.001705 0.033732
#
#
# Mechanical properties :
#
#
# Convention : Reuss Voigt Hill
#
# Bulk Modulus (GPa) = 63.54460 71.46684 67.50572
# Shear Modulus (GPa) = 30.40688 38.94904 34.67796
#
# Velocity S-wave (km/s) = 3.63254 4.11124 3.87928
# Velocity P-wave (km/s) = 6.72082 7.31779 7.02565
#
# Compressibility (1/GPa) = 0.01573698
#
# Stress axis : x y z
#
# Youngs Moduli (GPa) = 85.89153 71.88231 77.34910
#
# Poissons Ratio (x) = 0.16087 0.37023
# Poissons Ratio (y) = 0.19222 0.33635
# Poissons Ratio (z) = 0.41111 0.31258
#
# Static dielectric constant tensor:
#      x y z
#    x 0.982450 0.136960 -0.059620 
#    y 0.136960 -0.140760 2.806150 
#    z -0.059620 2.806150 -1.776610 
# 
# From -- ./inp_files/500976.got.cif
#   From: 2010.05.17/outbox.cif.g08.bks.cpg/sg2_251_cif.got.tgz:500976.got - 2010.06.03 11:33:40.
