data_PCOD9043783
_publ_section_title
;
Structure prediction by ZEFSAII (Michael W. Deem and Ramdas Pophale) SiO2 
 PCOD9043783
Probable space group: P -1
;
_chemical_formula_sum "Si O2"
_cell_formula_units_Z 12
_cell_length_a 9.164078
_cell_length_b 11.812749
_cell_length_c 8.140902
_cell_angle_alpha 108.898889
_cell_angle_beta 144.397160
_cell_angle_gamma 90.059488
_cell_volume 425.808535
_symmetry_space_group_name_H-M "P -1"
_symmetry_group_IT_number 2
_symmetry_cell_setting 'triclinic'
loop_
_space_group_symop_operation_xyz
x,y,z
-x,-y,-z
loop_
_atom_site_type_symbol
_atom_site_label
_atom_site_fract_x
_atom_site_fract_y
_atom_site_fract_z
Si Si1 0.127685 0.214006 0.224321
Si Si2 0.639095 0.035027 0.465513
Si Si3 0.257200 0.501920 0.532071
Si Si4 0.869957 0.882339 0.463431
Si Si5 0.658212 0.295919 0.554854
Si Si6 0.139711 0.385276 0.810957
O O1 0.069419 0.342528 0.247138
O O2 0.029547 0.126943 0.261527
O O3 0.465214 0.268865 0.526096
O O4 0.967234 0.128096 0.874961
O O5 0.573721 0.140473 0.354750
O O6 0.500000 0.000000 0.500000
O O7 0.596078 0.902305 0.268118
O O8 0.423236 0.609433 0.586126
O O9 0.071052 0.571569 0.456722
O O10 0.534290 0.506774 0.868895
O O11 0.869666 0.753128 0.320008
O O12 0.000000 0.000000 0.500000
O O13 0.997902 0.373867 0.856527
#
# Coordination Sequence:
#
# PCOD9043783 Si02
#       6
#     2   2   2   2   2   2
#     4  12  27  45  77 107 147 196 246 316 360 440
#     4  12  26  47  73 110 145 195 256 301 368 437
#     4  10  25  47  78 112 149 187 256 296 379 431
#     4  12  26  48  72 105 150 198 248 302 371 441
#     4  10  23  45  75 110 147 193 243 309 365 440
#     4  10  25  46  75 111 151 195 236 308 367 442
#
# _framework density 28.18168
#
# number of rings (size 3 to 8) (size 9 to 14) (size 15 to 20)
#    1.000    0.000    3.333    2.000    2.333    4.000 
#    0.000    3.333    0.000    0.000    0.000    0.000 
#    0.000    0.000    0.000    0.000    0.000    0.000 
#
# Total GULP energy -66820.349144 kJ/mol
# GULP energy per Si atom -5568.362429 kJ/mol
# Density = 2.811754 g / cm^3
# Si number density = 28.181680 Si / 1000 Ang^3
#
#
#
# Elastic Constant Matrix: (Units=GPa)
#
#
# Indices 1 2 3 4 5 6 
#
# 1 59.4873 129.1545 88.1611 -48.3824 -56.6986 -21.8530
# 2 129.1545 154.4130 -16.7575 38.8632 38.3646 -20.9006
# 3 88.1611 -16.7575 66.8262 11.5787 52.3914 -3.3518
# 4 -48.3824 38.8632 11.5787 -2.6115 -37.7653 -16.1163
# 5 -56.6986 38.3646 52.3914 -37.7653 -4.4349 -29.5261
# 6 -21.8530 -20.9006 -3.3518 -16.1163 -29.5261 85.6511
#
#
#
# Elastic Compliance Matrix: (Units=1/GPa)
#
#
# Indices 1 2 3 4 5 6 
#
# 1 0.006057 -0.001511 -0.001003 -0.008662 -0.007682 -0.003141
# 2 -0.001511 0.005900 -0.001431 0.002815 0.005860 0.003548
# 3 -0.001003 -0.001431 0.012505 0.014812 0.001292 0.003117
# 4 -0.008662 0.002815 0.014812 0.036194 -0.011290 0.001975
# 5 -0.007682 0.005860 0.001292 -0.011290 0.015832 0.002854
# 6 -0.003141 0.003548 0.003117 0.001975 0.002854 0.013217
#
#
# Mechanical properties :
#
#
# Convention : Reuss Voigt Hill
#
# Bulk Modulus (GPa) = 60.34156 75.76030 68.05093
# Shear Modulus (GPa) = 48.48725 21.06551 34.77638
#
# Velocity S-wave (km/s) = 4.15242 2.73699 3.51665
# Velocity P-wave (km/s) = 6.66695 6.07695 6.37878
#
# Compressibility (1/GPa) = 0.01657232
#
# Stress axis : x y z
#
# Youngs Moduli (GPa) = 165.10998 169.47825 79.96524
#
# Poissons Ratio (x) = 0.25610 0.08020
# Poissons Ratio (y) = 0.24950 0.11444
# Poissons Ratio (z) = 0.16558 0.24254
#
# Static dielectric constant tensor:
#      x y z
#    x 2.193480 0.032250 -0.038670 
#    y 0.032250 2.166570 -0.023770 
#    z -0.038670 -0.023770 2.474740 
# 
# From -- ./inp_files/182128.got.cif
#   From: 2010.05.17/outbox.cif.g08.bks.cpg/sg2_92_cif.got.tgz:182128.got - 2010.06.03 11:33:40.
