data_PCOD9043611
_publ_section_title
;
Structure prediction by ZEFSAII (Michael W. Deem and Ramdas Pophale) SiO2 
 PCOD9043611
Probable space group: P -1
;
_chemical_formula_sum "Si O2"
_cell_formula_units_Z 16
_cell_length_a 21.052714
_cell_length_b 12.228853
_cell_length_c 8.596295
_cell_angle_alpha 38.888112
_cell_angle_beta 130.332235
_cell_angle_gamma 152.766005
_cell_volume 628.023570
_symmetry_space_group_name_H-M "P -1"
_symmetry_group_IT_number 2
_symmetry_cell_setting 'triclinic'
loop_
_space_group_symop_operation_xyz
x,y,z
-x,-y,-z
loop_
_atom_site_type_symbol
_atom_site_label
_atom_site_fract_x
_atom_site_fract_y
_atom_site_fract_z
Si Si1 0.934788 0.200343 0.416986
Si Si2 0.488018 0.270151 0.743441
Si Si3 0.290851 0.286743 0.847974
Si Si4 0.226494 0.359454 0.378103
Si Si5 0.141755 0.130987 0.049068
Si Si6 0.218117 0.626824 0.572681
Si Si7 0.565001 0.804105 0.909537
Si Si8 0.813486 0.343809 0.160681
O O1 0.896013 0.336707 0.201317
O O2 0.095246 0.443762 0.452689
O O3 0.883552 0.984326 0.441203
O O4 0.842503 0.971064 0.670648
O O5 0.500000 0.500000 0.500000
O O6 0.630264 0.432556 0.720169
O O7 0.351973 0.980299 0.754632
O O8 0.459163 0.165320 0.991067
O O9 0.272110 0.422985 0.559314
O O10 0.152566 0.042330 0.005394
O O11 0.417098 0.502043 0.934198
O O12 0.333656 0.194579 0.913950
O O13 0.164299 0.431719 0.132074
O O14 0.245088 0.468951 0.823627
O O15 0.000000 0.000000 0.000000
O O16 0.161135 0.609198 0.665143
O O17 0.355875 0.944813 0.368659
#
# Coordination Sequence:
#
# PCOD9043611 Si02
#       8
#     2   2   2   2   2   2   2   2
#     4  11  23  49  74 100 149 191 245 304 359 435
#     4  12  24  46  74 106 153 187 238 309 375 428
#     4  11  24  45  74 108 147 186 250 302 366 439
#     4  12  25  46  74 112 145 195 244 305 367 439
#     4  10  23  45  73 101 147 189 238 305 358 429
#     4  11  25  44  72 108 142 193 251 293 364 439
#     4  11  25  44  76 109 142 195 242 301 370 433
#     4  12  25  43  75 108 142 197 244 298 373 435
#
# _framework density 25.476752000000001
#
# number of rings (size 3 to 8) (size 9 to 14) (size 15 to 20)
#    0.000    0.750    3.750    3.000    3.500    1.500 
#    0.000    7.500    0.000    0.000    0.000    0.000 
#    0.000    0.000    0.000    0.000    0.000    0.000 
#
# Total GULP energy -89642.633729 kJ/mol
# GULP energy per Si atom -5602.664608 kJ/mol
# Density = 2.541877 g / cm^3
# Si number density = 25.476752 Si / 1000 Ang^3
#
#
#
# Elastic Constant Matrix: (Units=GPa)
#
#
# Indices 1 2 3 4 5 6 
#
# 1 97.2459 18.7224 22.8140 2.7160 3.3709 17.2893
# 2 18.7224 79.0379 -10.4598 12.5198 10.1279 -1.9464
# 3 22.8140 -10.4598 93.5895 8.6503 8.6924 5.2951
# 4 2.7160 12.5198 8.6503 29.3692 -2.2994 1.6730
# 5 3.3709 10.1279 8.6924 -2.2994 54.6219 1.5546
# 6 17.2893 -1.9464 5.2951 1.6730 1.5546 24.7486
#
#
#
# Elastic Compliance Matrix: (Units=1/GPa)
#
#
# Indices 1 2 3 4 5 6 
#
# 1 0.013503 -0.004368 -0.003550 0.002255 0.000899 -0.009226
# 2 -0.004368 0.016043 0.003709 -0.008067 -0.003757 0.004301
# 3 -0.003550 0.003709 0.012668 -0.005230 -0.002721 0.000586
# 4 0.002255 -0.008067 -0.005230 0.039358 0.003960 -0.004000
# 5 0.000899 -0.003757 -0.002721 0.003960 0.019601 -0.001840
# 6 -0.009226 0.004301 0.000586 -0.004000 -0.001840 0.047451
#
#
# Mechanical properties :
#
#
# Convention : Reuss Voigt Hill
#
# Bulk Modulus (GPa) = 29.58889 36.89181 33.24035
# Shear Modulus (GPa) = 29.70779 37.66772 33.68776
#
# Velocity S-wave (km/s) = 3.41849 3.84932 3.64028
# Velocity P-wave (km/s) = 5.21735 5.85392 5.54477
#
# Compressibility (1/GPa) = 0.03379647
#
# Stress axis : x y z
#
# Youngs Moduli (GPa) = 74.05708 62.33326 78.94007
#
# Poissons Ratio (x) = 0.27227 0.28021
# Poissons Ratio (y) = 0.32347 -0.29278
# Poissons Ratio (z) = 0.26288 -0.23119
#
# Static dielectric constant tensor:
#      x y z
#    x 2.042100 -0.028630 0.011040 
#    y -0.028630 2.033990 -0.031670 
#    z 0.011040 -0.031670 2.000370 
# 
# From -- ./inp_files/345888.got.cif
#   From: 2010.05.17/outbox.cif.g08.bks.cpg/sg2_173_cif.got.tgz:345888.got - 2010.06.03 11:33:40.
