data_PCOD9043335
_publ_section_title
;
Structure prediction by ZEFSAII (Michael W. Deem and Ramdas Pophale) SiO2 
 PCOD9043335
Probable space group: P -1
;
_chemical_formula_sum "Si O2"
_cell_formula_units_Z 16
_cell_length_a 10.500373
_cell_length_b 9.465844
_cell_length_c 7.014167
_cell_angle_alpha 67.909977
_cell_angle_beta 112.005035
_cell_angle_gamma 88.033357
_cell_volume 586.345048
_symmetry_space_group_name_H-M "P -1"
_symmetry_group_IT_number 2
_symmetry_cell_setting 'triclinic'
loop_
_space_group_symop_operation_xyz
x,y,z
-x,-y,-z
loop_
_atom_site_type_symbol
_atom_site_label
_atom_site_fract_x
_atom_site_fract_y
_atom_site_fract_z
Si Si1 0.070408 0.722368 0.542563
Si Si2 0.581064 0.165806 0.557297
Si Si3 0.386213 0.657889 0.876845
Si Si4 0.869456 0.626241 0.785335
Si Si5 0.463492 0.186243 0.850258
Si Si6 0.178098 0.669797 0.223938
Si Si7 0.938328 0.021524 0.165070
Si Si8 0.736069 0.840121 0.953271
O O1 0.225456 0.649577 0.746874
O O2 0.072894 0.667502 0.349275
O O3 0.938280 0.696033 0.606246
O O4 0.051783 0.911741 0.417122
O O5 0.567212 0.221406 0.307358
O O6 0.449912 0.208608 0.605499
O O7 0.700944 0.255381 0.652607
O O8 0.640404 0.983772 0.713046
O O9 0.500000 0.500000 0.000000
O O10 0.409232 0.734802 0.051834
O O11 0.771904 0.506189 0.727688
O O12 0.814226 0.737096 0.876764
O O13 0.000000 0.500000 0.000000
O O14 0.340725 0.254328 0.893582
O O15 0.500000 0.000000 0.000000
O O16 0.108175 0.792272 0.956817
O O17 0.812395 0.932135 0.106863
O O18 0.000000 0.000000 0.000000
#
# Coordination Sequence:
#
# PCOD9043335 Si02
#       8
#     2   2   2   2   2   2   2   2
#     4  10  23  45  70 105 148 195 237 293 372 439
#     4   9  22  50  76 103 144 200 241 298 367 429
#     4  11  26  48  76 104 145 189 255 299 353 440
#     4  12  25  39  68 111 151 186 234 303 366 427
#     4  10  24  48  78 104 143 190 246 304 360 426
#     4   9  20  42  73 103 147 187 243 298 365 439
#     4   9  18  44  71  96 140 192 235 288 361 444
#     4  10  23  45  71 110 145 184 242 300 364 441
#
# _framework density 27.287686000000001
#
# number of rings (size 3 to 8) (size 9 to 14) (size 15 to 20)
#    0.000    2.000    0.000    2.625    3.500    2.500 
#   13.500   11.875    0.000    0.000    0.000    0.000 
#    0.000    0.000    0.000    0.000    0.000    0.000 
#
# Total GULP energy -89438.069791 kJ/mol
# GULP energy per Si atom -5589.879362 kJ/mol
# Density = 2.722558 g / cm^3
# Si number density = 27.287686 Si / 1000 Ang^3
#
#
#
# Elastic Constant Matrix: (Units=GPa)
#
#
# Indices 1 2 3 4 5 6 
#
# 1 151.0749 50.8659 36.7258 -16.4159 -28.3973 -28.1146
# 2 50.8659 154.6743 22.6020 -6.8936 12.3619 -22.2348
# 3 36.7258 22.6020 87.6917 -13.9814 3.5007 -21.3808
# 4 -16.4159 -6.8936 -13.9814 36.2973 -1.6428 2.0464
# 5 -28.3973 12.3619 3.5007 -1.6428 51.5543 2.3404
# 6 -28.1146 -22.2348 -21.3808 2.0464 2.3404 54.7235
#
#
#
# Elastic Compliance Matrix: (Units=1/GPa)
#
#
# Indices 1 2 3 4 5 6 
#
# 1 0.010372 -0.003023 -0.002664 0.003240 0.006601 0.002656
# 2 -0.003023 0.008036 -0.000259 -0.000207 -0.003662 0.001775
# 3 -0.002664 -0.000259 0.014300 0.003914 -0.002436 0.004071
# 4 0.003240 -0.000207 0.003914 0.030490 0.002455 0.001865
# 5 0.006601 -0.003662 -0.002436 0.002455 0.024163 -0.000173
# 6 0.002656 0.001775 0.004071 0.001865 -0.000173 0.021888
#
#
# Mechanical properties :
#
#
# Convention : Reuss Voigt Hill
#
# Bulk Modulus (GPa) = 48.04161 68.20313 58.12237
# Shear Modulus (GPa) = 39.03848 47.39818 43.21833
#
# Velocity S-wave (km/s) = 3.78647 4.17223 3.98402
# Velocity P-wave (km/s) = 6.06302 6.94683 6.51992
#
# Compressibility (1/GPa) = 0.02081529
#
# Stress axis : x y z
#
# Youngs Moduli (GPa) = 96.41511 124.44334 69.92988
#
# Poissons Ratio (x) = 0.37619 0.18630
# Poissons Ratio (y) = 0.29146 0.01812
# Poissons Ratio (z) = 0.25686 0.03225
#
# Static dielectric constant tensor:
#      x y z
#    x 2.113600 -0.033300 -0.009820 
#    y -0.033300 2.085820 0.014910 
#    z -0.009820 0.014910 2.121380 
# 
# From -- ./inp_files/302417.got.cif
#   From: 2010.05.17/outbox.cif.g08.bks.cpg/sg2_152_cif.got.tgz:302417.got - 2010.06.03 11:33:40.
