data_PCOD9043311
_publ_section_title
;
Structure prediction by ZEFSAII (Michael W. Deem and Ramdas Pophale) SiO2 
 PCOD9043311
Probable space group: P -1
;
_chemical_formula_sum "Si O2"
_cell_formula_units_Z 13
_cell_length_a 9.193408
_cell_length_b 5.382040
_cell_length_c 17.655767
_cell_angle_alpha 55.163812
_cell_angle_beta 75.864738
_cell_angle_gamma 112.885656
_cell_volume 520.000975
_symmetry_space_group_name_H-M "P -1"
_symmetry_group_IT_number 2
_symmetry_cell_setting 'triclinic'
loop_
_space_group_symop_operation_xyz
x,y,z
-x,-y,-z
loop_
_atom_site_type_symbol
_atom_site_label
_atom_site_fract_x
_atom_site_fract_y
_atom_site_fract_z
Si Si1 0.299614 0.186543 0.628939
Si Si2 0.500000 0.500000 0.000000
Si Si3 0.376844 0.604465 0.705654
Si Si4 0.063714 0.280953 0.339475
Si Si5 0.207696 0.100257 0.962590
Si Si6 0.835428 0.173004 0.519299
Si Si7 0.729394 0.419008 0.892254
O O1 0.500000 0.500000 0.500000
O O2 0.312150 0.352159 0.680723
O O3 0.272276 0.786465 0.704548
O O4 0.116706 0.094702 0.623578
O O5 0.649872 0.618413 0.033294
O O6 0.303368 0.297073 0.118786
O O7 0.333330 0.332034 0.830095
O O8 0.613011 0.986713 0.595433
O O9 0.217754 0.558140 0.205303
O O10 0.936822 0.343875 0.394976
O O11 0.173606 0.203020 0.397063
O O12 0.156285 0.675107 0.056107
O O13 0.000000 0.000000 0.000000
O O14 0.000000 0.500000 0.500000
O O15 0.500000 0.000000 0.000000
#
# Coordination Sequence:
#
# PCOD9043311 Si02
#       7
#     2   1   2   2   2   2   2
#     4  12  26  49  75 108 150 192 247 308 377 445
#     4  10  24  44  70  98 144 196 240 306 366 444
#     4  12  28  48  77 110 148 195 247 314 371 454
#     4  11  25  43  71 107 139 196 245 307 373 448
#     4  11  26  47  73 108 146 198 253 309 375 452
#     4  11  25  44  72 105 146 191 246 310 376 448
#     4  10  23  45  70 103 145 189 252 304 376 453
#
# _framework density 24.999956000000001
#
# number of rings (size 3 to 8) (size 9 to 14) (size 15 to 20)
#    0.000    0.923    1.538    4.154    8.615    5.538 
#    0.000    0.000    0.000    0.000    0.000    0.000 
#    0.000    0.000    0.000    0.000    0.000    0.000 
#
# Total GULP energy -72397.728573 kJ/mol
# GULP energy per Si atom -5569.056044 kJ/mol
# Density = 2.494305 g / cm^3
# Si number density = 24.999956 Si / 1000 Ang^3
#
#
#
# Elastic Constant Matrix: (Units=GPa)
#
#
# Indices 1 2 3 4 5 6 
#
# 1 166.5945 32.1848 33.2556 11.8728 -14.8754 0.1262
# 2 32.1848 126.1008 39.8816 45.3510 -8.5030 11.0158
# 3 33.2556 39.8816 182.9303 43.7279 -25.6157 -6.1026
# 4 11.8728 45.3510 43.7279 37.6635 4.9835 1.2544
# 5 -14.8754 -8.5030 -25.6157 4.9835 37.7191 -0.4743
# 6 0.1262 11.0158 -6.1026 1.2544 -0.4743 47.5863
#
#
#
# Elastic Compliance Matrix: (Units=1/GPa)
#
#
# Indices 1 2 3 4 5 6 
#
# 1 0.006558 -0.001428 -0.000664 0.000178 0.001793 0.000241
# 2 -0.001428 0.017341 0.003984 -0.026219 0.009481 -0.002714
# 3 -0.000664 0.003984 0.010532 -0.018199 0.010206 0.001012
# 4 0.000178 -0.026219 -0.018199 0.083010 -0.029151 0.001256
# 5 0.001793 0.009481 0.010206 -0.029151 0.040142 0.000278
# 6 0.000241 -0.002714 0.001012 0.001256 0.000278 0.021741
#
#
# Mechanical properties :
#
#
# Convention : Reuss Voigt Hill
#
# Bulk Modulus (GPa) = 26.16896 76.25219 51.21058
# Shear Modulus (GPa) = 26.55611 49.28067 37.91839
#
# Velocity S-wave (km/s) = 3.26275 4.44467 3.89876
# Velocity P-wave (km/s) = 4.96834 7.54369 6.38716
#
# Compressibility (1/GPa) = 0.03821321
#
# Stress axis : x y z
#
# Youngs Moduli (GPa) = 152.47824 57.66817 94.94751
#
# Poissons Ratio (x) = 0.08235 0.06309
# Poissons Ratio (y) = 0.21775 -0.37824
# Poissons Ratio (z) = 0.10132 -0.22973
#
# Static dielectric constant tensor:
#      x y z
#    x 1.398590 0.555150 -0.373470 
#    y 0.555150 1.475700 0.382930 
#    z -0.373470 0.382930 1.664200 
# 
# From -- ./inp_files/134444.got.cif
#   From: 2010.05.17/outbox.cif.g08.bks.cpg/sg2_68_cif.got.tgz:134444.got - 2010.06.03 11:33:40.
