data_PCOD9043271
_publ_section_title
;
Structure prediction by ZEFSAII (Michael W. Deem and Ramdas Pophale) SiO2 
 PCOD9043271
Probable space group: P -1
;
_chemical_formula_sum "Si O2"
_cell_formula_units_Z 14
_cell_length_a 18.548058
_cell_length_b 9.361995
_cell_length_c 12.215072
_cell_angle_alpha 151.900023
_cell_angle_beta 145.138167
_cell_angle_gamma 47.878208
_cell_volume 559.846318
_symmetry_space_group_name_H-M "P -1"
_symmetry_group_IT_number 2
_symmetry_cell_setting 'triclinic'
loop_
_space_group_symop_operation_xyz
x,y,z
-x,-y,-z
loop_
_atom_site_type_symbol
_atom_site_label
_atom_site_fract_x
_atom_site_fract_y
_atom_site_fract_z
Si Si1 0.975031 0.247959 0.549338
Si Si2 0.166113 0.851577 0.162225
Si Si3 0.557335 0.849011 0.785925
Si Si4 0.328319 0.092289 0.729736
Si Si5 0.746284 0.316091 0.437953
Si Si6 0.060046 0.864300 0.817067
Si Si7 0.516588 0.718978 0.408790
O O1 0.878470 0.435713 0.619161
O O2 0.920434 0.090531 0.258907
O O3 0.000000 0.000000 0.500000
O O4 0.109823 0.484034 0.853099
O O5 0.281668 0.004746 0.488689
O O6 0.172587 0.924792 0.090059
O O7 0.053185 0.993643 0.174595
O O8 0.500000 0.500000 0.500000
O O9 0.542678 0.899687 0.676458
O O10 0.466393 0.006622 0.852027
O O11 0.697917 0.991182 0.094610
O O12 0.243863 0.830111 0.526994
O O13 0.379678 0.461897 0.064768
O O14 0.641323 0.539335 0.439706
O O15 0.000000 0.500000 0.500000
O O16 0.500000 0.000000 0.500000
#
# Coordination Sequence:
#
# PCOD9043271 Si02
#       7
#     2   2   2   2   2   2   2
#     4  11  25  42  72 106 141 181 236 285 343 418
#     4  10  23  45  70 100 140 180 236 282 345 422
#     4  11  21  44  73  96 132 182 234 288 355 406
#     4  11  23  42  75 103 132 187 241 282 351 433
#     4  11  24  43  71 106 139 182 239 289 351 425
#     4   9  21  46  65  94 141 183 226 279 348 414
#     4  11  25  48  70 103 141 180 238 298 353 410
#
# _framework density 25.006862999999999
#
# number of rings (size 3 to 8) (size 9 to 14) (size 15 to 20)
#    0.000    1.429    2.857    1.714    2.000    8.000 
#   20.571    0.000    0.000    0.000    0.000    0.000 
#    0.000    0.000    0.000    0.000    0.000    0.000 
#
# Total GULP energy -77958.828702 kJ/mol
# GULP energy per Si atom -5568.487764 kJ/mol
# Density = 2.494995 g / cm^3
# Si number density = 25.006863 Si / 1000 Ang^3
#
#
#
# Elastic Constant Matrix: (Units=GPa)
#
#
# Indices 1 2 3 4 5 6 
#
# 1 104.6200 50.8411 6.2135 -20.6809 -12.5196 13.9950
# 2 50.8411 137.5612 24.9628 -8.0658 -11.3834 26.5778
# 3 6.2135 24.9628 90.7227 -20.8170 -8.3218 16.4122
# 4 -20.6809 -8.0658 -20.8170 44.7669 19.3458 -9.5137
# 5 -12.5196 -11.3834 -8.3218 19.3458 44.4280 -18.2082
# 6 13.9950 26.5778 16.4122 -9.5137 -18.2082 53.3555
#
#
#
# Elastic Compliance Matrix: (Units=1/GPa)
#
#
# Indices 1 2 3 4 5 6 
#
# 1 0.012958 -0.004665 0.001854 0.005882 -0.000003 -0.000597
# 2 -0.004665 0.009949 -0.002320 -0.002344 0.000479 -0.003273
# 3 0.001854 -0.002320 0.013456 0.006821 -0.001680 -0.002827
# 4 0.005882 -0.002344 0.006821 0.032971 -0.012355 -0.000810
# 5 -0.000003 0.000479 -0.001680 -0.012355 0.031282 0.008751
# 6 -0.000597 -0.003273 -0.002827 -0.000810 0.008751 0.024241
#
#
# Mechanical properties :
#
#
# Convention : Reuss Voigt Hill
#
# Bulk Modulus (GPa) = 38.31388 55.21542 46.76465
# Shear Modulus (GPa) = 34.76541 45.23585 40.00063
#
# Velocity S-wave (km/s) = 3.73263 4.25777 4.00382
# Velocity P-wave (km/s) = 5.82506 6.80438 6.33368
#
# Compressibility (1/GPa) = 0.02610020
#
# Stress axis : x y z
#
# Youngs Moduli (GPa) = 77.17408 100.50902 74.31408
#
# Poissons Ratio (x) = 0.46891 -0.13775
# Poissons Ratio (y) = 0.36005 0.17240
# Poissons Ratio (z) = -0.14305 0.23317
#
# Static dielectric constant tensor:
#      x y z
#    x 2.019860 -0.068550 -0.009310 
#    y -0.068550 2.102310 0.114170 
#    z -0.009310 0.114170 2.198600 
# 
# From -- ./inp_files/60965.got.cif
#   From: 2010.05.17/outbox.cif.g08.bks.cpg/sg2_31_cif.got.tgz:60965.got - 2010.06.03 11:33:40.
