data_PCOD9043824
_publ_section_title
;
Structure prediction by ZEFSAII (Michael W. Deem and Ramdas Pophale) SiO2 
 PCOD9043824
Probable space group: P -1
;
_chemical_formula_sum "Si O2"
_cell_formula_units_Z 14
_cell_length_a 12.038956
_cell_length_b 13.842728
_cell_length_c 13.998372
_cell_angle_alpha 30.907027
_cell_angle_beta 149.508600
_cell_angle_gamma 128.729281
_cell_volume 547.098089
_symmetry_space_group_name_H-M "P -1"
_symmetry_group_IT_number 2
_symmetry_cell_setting 'triclinic'
loop_
_space_group_symop_operation_xyz
x,y,z
-x,-y,-z
loop_
_atom_site_type_symbol
_atom_site_label
_atom_site_fract_x
_atom_site_fract_y
_atom_site_fract_z
Si Si1 0.021164 0.977363 0.290826
Si Si2 0.438013 0.434477 0.612304
Si Si3 0.988948 0.280376 0.157946
Si Si4 0.230961 0.148640 0.636024
Si Si5 0.205992 0.140705 0.943274
Si Si6 0.605312 0.153982 0.484135
Si Si7 0.674844 0.485286 0.328005
O O1 0.979151 0.875372 0.441251
O O2 0.804655 0.983813 0.054958
O O3 0.242322 0.854006 0.491273
O O4 0.035372 0.183553 0.167930
O O5 0.500000 0.500000 0.500000
O O6 0.236601 0.360835 0.492954
O O7 0.328838 0.550308 0.531294
O O8 0.721546 0.296338 0.971509
O O9 0.189556 0.135770 0.504786
O O10 0.000000 0.500000 0.000000
O O11 0.500000 0.000000 0.000000
O O12 0.352090 0.281978 0.912356
O O13 0.939247 0.319907 0.624684
O O14 0.280021 0.971223 0.226201
O O15 0.492205 0.398179 0.221477
O O16 0.500000 0.000000 0.500000
#
# Coordination Sequence:
#
# PCOD9043824 Si02
#       7
#     2   2   2   2   2   2   2
#     4  11  24  46  69 102 142 185 251 299 363 440
#     4  12  26  44  74 105 144 197 240 300 375 436
#     4  12  28  45  69 112 145 192 245 300 368 447
#     4  12  26  46  73 105 148 197 240 303 371 436
#     4  10  23  45  76  96 137 194 239 304 360 433
#     4  11  27  43  71 106 140 193 240 310 366 435
#     4  10  23  46  68 104 139 182 248 295 368 433
#
# _framework density 25.589561
#
# number of rings (size 3 to 8) (size 9 to 14) (size 15 to 20)
#    0.000    0.857    4.286    2.143    6.000    2.857 
#    0.000    0.000    0.000    0.000    0.000    0.000 
#    0.000    0.000    0.000    0.000    0.000    0.000 
#
# Total GULP energy -77962.778359 kJ/mol
# GULP energy per Si atom -5568.769883 kJ/mol
# Density = 2.553132 g / cm^3
# Si number density = 25.589561 Si / 1000 Ang^3
#
#
#
# Elastic Constant Matrix: (Units=GPa)
#
#
# Indices 1 2 3 4 5 6 
#
# 1 110.6917 63.2464 14.6352 -10.3327 -22.3390 -21.5414
# 2 63.2464 232.2741 34.2238 2.9932 -19.7000 -30.4356
# 3 14.6352 34.2238 79.1537 7.4710 -21.6045 -11.6943
# 4 -10.3327 2.9932 7.4710 32.6672 7.1738 -5.8910
# 5 -22.3390 -19.7000 -21.6045 7.1738 22.5589 1.8618
# 6 -21.5414 -30.4356 -11.6943 -5.8910 1.8618 55.3649
#
#
#
# Elastic Compliance Matrix: (Units=1/GPa)
#
#
# Indices 1 2 3 4 5 6 
#
# 1 0.013728 -0.002480 0.002484 0.001955 0.012833 0.004279
# 2 -0.002480 0.005505 -0.001202 -0.001021 0.001388 0.001652
# 3 0.002484 -0.001202 0.020238 -0.008299 0.023191 0.002918
# 4 0.001955 -0.001021 -0.008299 0.038015 -0.019252 0.003139
# 5 0.012833 0.001388 0.023191 -0.019252 0.086109 0.005710
# 6 0.004279 0.001652 0.002918 0.003139 0.005710 0.021393
#
#
# Mechanical properties :
#
#
# Convention : Reuss Voigt Hill
#
# Bulk Modulus (GPa) = 26.97237 71.81447 49.39342
# Shear Modulus (GPa) = 25.03222 42.78581 33.90902
#
# Velocity S-wave (km/s) = 3.13104 4.09345 3.64416
# Velocity P-wave (km/s) = 4.86153 7.10399 6.08692
#
# Compressibility (1/GPa) = 0.03707498
#
# Stress axis : x y z
#
# Youngs Moduli (GPa) = 72.84553 181.64949 49.41144
#
# Poissons Ratio (x) = 0.45051 -0.12276
# Poissons Ratio (y) = 0.18067 0.05941
# Poissons Ratio (z) = -0.18098 0.21840
#
# Static dielectric constant tensor:
#      x y z
#    x 2.043280 0.266050 -0.038040 
#    y 0.266050 1.837910 0.022680 
#    z -0.038040 0.022680 2.121720 
# 
# From -- ./inp_files/425182.got.cif
#   From: 2010.05.17/outbox.cif.g08.bks.cpg/sg2_213_cif.got.tgz:425182.got - 2010.06.03 11:33:40.
