data_PCOD9043818
_publ_section_title
;
Structure prediction by ZEFSAII (Michael W. Deem and Ramdas Pophale) SiO2 
 PCOD9043818
Probable space group: P -1
;
_chemical_formula_sum "Si O2"
_cell_formula_units_Z 14
_cell_length_a 13.029650
_cell_length_b 6.492441
_cell_length_c 7.541027
_cell_angle_alpha 104.055663
_cell_angle_beta 110.106537
_cell_angle_gamma 88.133823
_cell_volume 580.204842
_symmetry_space_group_name_H-M "P -1"
_symmetry_group_IT_number 2
_symmetry_cell_setting 'triclinic'
loop_
_space_group_symop_operation_xyz
x,y,z
-x,-y,-z
loop_
_atom_site_type_symbol
_atom_site_label
_atom_site_fract_x
_atom_site_fract_y
_atom_site_fract_z
Si Si1 0.815724 0.057803 0.410058
Si Si2 0.778354 0.504112 0.674500
Si Si3 0.804644 0.285368 0.104601
Si Si4 0.068649 0.336833 0.627324
Si Si5 0.612750 0.237241 0.757193
Si Si6 0.009455 0.235454 0.979478
Si Si7 0.635358 0.821459 0.438624
O O1 0.900115 0.884470 0.488121
O O2 0.698181 0.936327 0.336594
O O3 0.809215 0.282886 0.553052
O O4 0.843068 0.120127 0.238320
O O5 0.685887 0.426204 0.745744
O O6 0.885762 0.642564 0.836633
O O7 0.712097 0.653865 0.537326
O O8 0.820577 0.520509 0.241344
O O9 0.680700 0.218238 0.972958
O O10 0.889897 0.297323 0.993815
O O11 0.000000 0.500000 0.500000
O O12 0.024142 0.276876 0.786440
O O13 0.485244 0.274111 0.698194
O O14 0.624134 0.016910 0.611405
O O15 0.000000 0.000000 0.000000
#
# Coordination Sequence:
#
# PCOD9043818 Si02
#       7
#     2   2   2   2   2   2   2
#     4  11  27  48  71 113 152 201 252 322 387 450
#     4  11  24  48  78 108 151 202 258 309 391 461
#     4  12  26  45  74 108 153 202 257 310 382 462
#     4  12  29  51  72 110 156 204 256 318 385 452
#     4  10  23  45  76 113 145 196 264 312 381 455
#     4  12  26  50  79 111 151 206 257 312 380 471
#     4  10  23  45  78 110 149 197 253 325 380 449
#
# _framework density 24.129413
#
# number of rings (size 3 to 8) (size 9 to 14) (size 15 to 20)
#    0.000    0.857    2.857    2.571    4.000    3.429 
#    0.000    3.571    0.000    0.000    0.000    0.000 
#    0.000    0.000    0.000    0.000    0.000    0.000 
#
# Total GULP energy -78214.055470 kJ/mol
# GULP energy per Si atom -5586.718248 kJ/mol
# Density = 2.407449 g / cm^3
# Si number density = 24.129413 Si / 1000 Ang^3
#
#
#
# Elastic Constant Matrix: (Units=GPa)
#
#
# Indices 1 2 3 4 5 6 
#
# 1 171.7586 69.7714 82.2885 -4.7073 32.0002 24.3961
# 2 69.7714 167.3843 57.9968 -21.9198 7.9182 9.4649
# 3 82.2885 57.9968 95.5178 -18.9355 16.5798 10.5420
# 4 -4.7073 -21.9198 -18.9355 36.2603 12.2445 1.1606
# 5 32.0002 7.9182 16.5798 12.2445 54.5880 3.7786
# 6 24.3961 9.4649 10.5420 1.1606 3.7786 43.2897
#
#
#
# Elastic Compliance Matrix: (Units=1/GPa)
#
#
# Indices 1 2 3 4 5 6 
#
# 1 0.011752 -0.001959 -0.008578 -0.002981 -0.003071 -0.003757
# 2 -0.001959 0.008124 -0.002578 0.003308 0.000020 -0.000135
# 3 -0.008578 -0.002578 0.022015 0.010016 -0.003536 0.000077
# 4 -0.002981 0.003308 0.010016 0.037906 -0.010166 -0.001612
# 5 -0.003071 0.000020 -0.003536 -0.010166 0.023414 0.000816
# 6 -0.003757 -0.000135 0.000077 -0.001612 0.000816 0.025201
#
#
# Mechanical properties :
#
#
# Convention : Reuss Voigt Hill
#
# Bulk Modulus (GPa) = 63.85064 94.97490 79.41277
# Shear Modulus (GPa) = 31.27715 41.80119 36.53917
#
# Velocity S-wave (km/s) = 3.60422 4.16670 3.89562
# Velocity P-wave (km/s) = 6.62116 7.91167 7.29501
#
# Compressibility (1/GPa) = 0.01566155
#
# Stress axis : x y z
#
# Youngs Moduli (GPa) = 85.09535 123.09308 45.42316
#
# Poissons Ratio (x) = 0.24114 0.38962
# Poissons Ratio (y) = 0.16670 0.11710
# Poissons Ratio (z) = 0.72992 0.31732
#
# Static dielectric constant tensor:
#      x y z
#    x 1.922460 -0.033410 -0.032890 
#    y -0.033410 1.955830 0.016740 
#    z -0.032890 0.016740 2.010480 
# 
# From -- ./inp_files/288899.got.cif
#   From: 2010.05.17/outbox.cif.g08.bks.cpg/sg2_145_cif.got.tgz:288899.got - 2010.06.03 11:33:40.
