data_PCOD9043384
_publ_section_title
;
Structure prediction by ZEFSAII (Michael W. Deem and Ramdas Pophale) SiO2 
 PCOD9043384
Probable space group: P -1
;
_chemical_formula_sum "Si O2"
_cell_formula_units_Z 16
_cell_length_a 15.215631
_cell_length_b 18.882430
_cell_length_c 28.650865
_cell_angle_alpha 163.378337
_cell_angle_beta 161.139066
_cell_angle_gamma 19.015823
_cell_volume 691.465002
_symmetry_space_group_name_H-M "P -1"
_symmetry_group_IT_number 2
_symmetry_cell_setting 'triclinic'
loop_
_space_group_symop_operation_xyz
x,y,z
-x,-y,-z
loop_
_atom_site_type_symbol
_atom_site_label
_atom_site_fract_x
_atom_site_fract_y
_atom_site_fract_z
Si Si1 0.847585 0.975178 0.119893
Si Si2 0.283461 0.341182 0.009787
Si Si3 0.693000 0.117840 0.642035
Si Si4 0.089379 0.686290 0.861734
Si Si5 0.281814 0.395304 0.868041
Si Si6 0.940773 0.370147 0.772662
Si Si7 0.200869 0.221397 0.396915
Si Si8 0.382594 0.222228 0.388313
O O1 0.535767 0.161790 0.058722
O O2 0.083402 0.004125 0.219825
O O3 0.963458 0.039787 0.268595
O O4 0.851744 0.680777 0.938848
O O5 0.385119 0.570602 0.186406
O O6 0.000000 0.500000 0.000000
O O7 0.181435 0.207344 0.831167
O O8 0.552065 0.133882 0.530573
O O9 0.500000 0.000000 0.500000
O O10 0.088229 0.616133 0.871654
O O11 0.845812 0.624023 0.671212
O O12 0.442910 0.537604 0.933487
O O13 0.000000 0.000000 0.000000
O O14 0.098139 0.346870 0.787244
O O15 0.448627 0.102338 0.741534
O O16 0.648834 0.314796 0.587757
O O17 0.179430 0.265522 0.359298
O O18 0.000000 0.500000 0.500000
#
# Coordination Sequence:
#
# PCOD9043384 Si02
#       8
#     2   2   2   2   2   2   2   2
#     4  10  24  40  66  94 134 185 223 273 342 402
#     4  11  23  43  63  94 138 180 226 275 335 404
#     4   9  20  40  59  95 125 170 224 272 330 398
#     4   9  22  42  70 100 129 173 228 282 336 404
#     4  10  23  45  70  97 137 176 225 284 339 405
#     4  11  26  41  68 103 140 181 221 280 348 403
#     4  11  22  42  69  96 137 179 226 287 338 398
#     4  11  25  44  67 103 134 176 232 278 337 408
#
# _framework density 23.139277
#
# number of rings (size 3 to 8) (size 9 to 14) (size 15 to 20)
#    0.000    1.750    1.250    1.125    7.000    4.500 
#    6.750    0.000    0.000    0.000    0.000    0.000 
#    0.000    0.000    0.000    0.000    0.000    0.000 
#
# Total GULP energy -89342.175284 kJ/mol
# GULP energy per Si atom -5583.885955 kJ/mol
# Density = 2.308661 g / cm^3
# Si number density = 23.139277 Si / 1000 Ang^3
#
#
#
# Elastic Constant Matrix: (Units=GPa)
#
#
# Indices 1 2 3 4 5 6 
#
# 1 122.0219 35.6595 21.7465 -15.5194 -4.1688 3.1052
# 2 35.6595 121.8260 46.4130 -40.1251 -16.1516 28.1485
# 3 21.7465 46.4130 128.4412 -34.9994 10.1309 2.1976
# 4 -15.5194 -40.1251 -34.9994 49.9467 9.6583 -8.6148
# 5 -4.1688 -16.1516 10.1309 9.6583 27.0321 -10.0994
# 6 3.1052 28.1485 2.1976 -8.6148 -10.0994 26.3030
#
#
#
# Elastic Compliance Matrix: (Units=1/GPa)
#
#
# Indices 1 2 3 4 5 6 
#
# 1 0.009121 -0.002759 -0.000481 0.000565 0.000609 0.002335
# 2 -0.002759 0.016000 -0.003531 0.006646 0.003189 -0.013101
# 3 -0.000481 -0.003531 0.011737 0.007208 -0.008417 0.001984
# 4 0.000565 0.006646 0.007208 0.032439 -0.010707 -0.001268
# 5 0.000609 0.003189 -0.008417 -0.010707 0.050929 0.013267
# 6 0.002335 -0.013101 0.001984 -0.001268 0.013267 0.056276
#
#
# Mechanical properties :
#
#
# Convention : Reuss Voigt Hill
#
# Bulk Modulus (GPa) = 42.88963 64.43635 53.66299
# Shear Modulus (GPa) = 25.27614 38.55437 31.91525
#
# Velocity S-wave (km/s) = 3.30865 4.08632 3.71788
# Velocity P-wave (km/s) = 5.75951 7.08320 6.45537
#
# Compressibility (1/GPa) = 0.02331566
#
# Stress axis : x y z
#
# Youngs Moduli (GPa) = 109.64247 62.50065 85.19887
#
# Poissons Ratio (x) = 0.17243 0.04100
# Poissons Ratio (y) = 0.30249 0.30083
# Poissons Ratio (z) = 0.05276 0.22068
#
# Static dielectric constant tensor:
#      x y z
#    x 1.877090 0.054100 -0.036010 
#    y 0.054100 1.973340 -0.030180 
#    z -0.036010 -0.030180 1.944110 
# 
# From -- ./inp_files/619766.got.cif
#   From: 2010.05.17/outbox.cif.g08.bks.cpg/sg2_310_cif.got.tgz:619766.got - 2010.06.03 11:33:40.
