data_PCOD9043365
_publ_section_title
;
Structure prediction by ZEFSAII (Michael W. Deem and Ramdas Pophale) SiO2 
 PCOD9043365
Probable space group: P -1
;
_chemical_formula_sum "Si O2"
_cell_formula_units_Z 16
_cell_length_a 14.383740
_cell_length_b 17.549696
_cell_length_c 23.798827
_cell_angle_alpha 159.578937
_cell_angle_beta 148.089856
_cell_angle_gamma 22.927974
_cell_volume 812.106826
_symmetry_space_group_name_H-M "P -1"
_symmetry_group_IT_number 2
_symmetry_cell_setting 'triclinic'
loop_
_space_group_symop_operation_xyz
x,y,z
-x,-y,-z
loop_
_atom_site_type_symbol
_atom_site_label
_atom_site_fract_x
_atom_site_fract_y
_atom_site_fract_z
Si Si1 0.551832 0.708239 0.184809
Si Si2 0.434587 0.612239 0.838209
Si Si3 0.256159 0.109843 0.924691
Si Si4 0.526165 0.902338 0.687467
Si Si5 0.227037 0.657816 0.646931
Si Si6 0.057411 0.144806 0.086683
Si Si7 0.240493 0.232481 0.878219
Si Si8 0.671902 0.041705 0.641772
O O1 0.366387 0.928523 0.290320
O O2 0.817095 0.479865 0.186926
O O3 0.558844 0.863882 0.243805
O O4 0.500000 0.500000 0.000000
O O5 0.372718 0.537517 0.697547
O O6 0.559259 0.354948 0.771658
O O7 0.611001 0.670950 0.963870
O O8 0.179496 0.923450 0.943304
O O9 0.272021 0.061383 0.832013
O O10 0.199325 0.932291 0.803864
O O11 0.034618 0.464610 0.062715
O O12 0.500000 0.000000 0.000000
O O13 0.615855 0.605332 0.499769
O O14 0.750723 0.846150 0.787400
O O15 0.344421 0.041825 0.742758
O O16 0.957145 0.787151 0.601070
O O17 0.000000 0.000000 0.000000
O O18 0.500000 0.000000 0.500000
#
# Coordination Sequence:
#
# PCOD9043365 Si02
#       8
#     2   2   2   2   2   2   2   2
#     4  12  22  37  61  89 128 178 220 258 305 377
#     4  11  22  40  64  94 127 172 220 264 313 388
#     4  11  23  45  75  97 119 168 218 269 334 390
#     4  11  26  41  60  99 131 166 215 270 319 378
#     4  12  26  41  67  97 134 170 217 269 328 386
#     4  11  21  38  61  87 125 174 222 258 308 373
#     4  10  23  45  70  95 125 160 221 273 320 391
#     4  12  25  39  59  92 139 177 208 258 318 377
#
# _framework density 19.701841999999999
#
# number of rings (size 3 to 8) (size 9 to 14) (size 15 to 20)
#    0.000    0.750    5.000    3.000    1.750    1.500 
#    0.000    0.625    0.000    0.000    0.000    0.000 
#    0.000    0.000    0.000    0.000    0.000    0.000 
#
# Total GULP energy -89373.275390 kJ/mol
# GULP energy per Si atom -5585.829712 kJ/mol
# Density = 1.965700 g / cm^3
# Si number density = 19.701842 Si / 1000 Ang^3
#
#
#
# Elastic Constant Matrix: (Units=GPa)
#
#
# Indices 1 2 3 4 5 6 
#
# 1 86.0730 40.4851 5.5036 3.4341 -30.2546 -0.3513
# 2 40.4851 101.2373 11.7883 6.8214 -13.7756 -8.5007
# 3 5.5036 11.7883 50.1895 -8.8845 -29.3113 -5.8195
# 4 3.4341 6.8214 -8.8845 27.2336 1.2762 2.8429
# 5 -30.2546 -13.7756 -29.3113 1.2762 39.1569 2.5037
# 6 -0.3513 -8.5007 -5.8195 2.8429 2.5037 32.8468
#
#
#
# Elastic Compliance Matrix: (Units=1/GPa)
#
#
# Indices 1 2 3 4 5 6 
#
# 1 0.023784 -0.007928 0.015472 0.002905 0.027162 -0.001378
# 2 -0.007928 0.013514 -0.006339 -0.004493 -0.006172 0.003149
# 3 0.015472 -0.006339 0.049207 0.013265 0.045960 0.002592
# 4 0.002905 -0.004493 0.013265 0.041688 0.009434 -0.003109
# 5 0.027162 -0.006172 0.045960 0.009434 0.078448 0.000040
# 6 -0.001378 0.003149 0.002592 -0.003109 0.000040 0.031970
#
#
# Mechanical properties :
#
#
# Convention : Reuss Voigt Hill
#
# Bulk Modulus (GPa) = 11.24696 39.22821 25.23758
# Shear Modulus (GPa) = 18.80832 31.82896 25.31864
#
# Velocity S-wave (km/s) = 3.09309 4.02373 3.58870
# Velocity P-wave (km/s) = 4.29852 6.44526 5.47807
#
# Compressibility (1/GPa) = 0.08891291
#
# Stress axis : x y z
#
# Youngs Moduli (GPa) = 42.04526 73.99863 20.32237
#
# Poissons Ratio (x) = 0.58668 -0.31442
# Poissons Ratio (y) = 0.33334 0.12883
# Poissons Ratio (z) = -0.65051 0.46910
#
# Static dielectric constant tensor:
#      x y z
#    x 1.725540 -0.021770 -0.022780 
#    y -0.021770 1.682340 0.000820 
#    z -0.022780 0.000820 1.693540 
# 
# From -- ./inp_files/201795.got.cif
#   From: 2010.05.17/outbox.cif.g08.bks.cpg/sg2_101_cif.got.tgz:201795.got - 2010.06.03 11:33:40.
