data_PCOD9043101
_publ_section_title
;
Structure prediction by ZEFSAII (Michael W. Deem and Ramdas Pophale) SiO2 
 PCOD9043101
Probable space group: P -1
;
_chemical_formula_sum "Si O2"
_cell_formula_units_Z 14
_cell_length_a 18.971033
_cell_length_b 12.371323
_cell_length_c 8.784102
_cell_angle_alpha 140.993789
_cell_angle_beta 129.392206
_cell_angle_gamma 28.193189
_cell_volume 604.216955
_symmetry_space_group_name_H-M "P -1"
_symmetry_group_IT_number 2
_symmetry_cell_setting 'triclinic'
loop_
_space_group_symop_operation_xyz
x,y,z
-x,-y,-z
loop_
_atom_site_type_symbol
_atom_site_label
_atom_site_fract_x
_atom_site_fract_y
_atom_site_fract_z
Si Si1 0.068995 0.357935 0.105297
Si Si2 0.358610 0.362742 0.611616
Si Si3 0.332711 0.033466 0.290640
Si Si4 0.586300 0.864276 0.127911
Si Si5 0.351907 0.618685 0.375012
Si Si6 0.133648 0.885907 0.653134
Si Si7 0.201571 0.131876 0.525810
O O1 0.246963 0.131799 0.121944
O O2 0.971098 0.603058 0.365637
O O3 0.000000 0.500000 0.000000
O O4 0.060609 0.170481 0.921824
O O5 0.310297 0.272387 0.547366
O O6 0.219643 0.661311 0.663228
O O7 0.488715 0.274560 0.782726
O O8 0.462396 0.119176 0.356678
O O9 0.243177 0.065022 0.332189
O O10 0.718664 0.809000 0.246143
O O11 0.631138 0.597046 0.909319
O O12 0.500000 0.000000 0.000000
O O13 0.500000 0.500000 0.500000
O O14 0.257733 0.738711 0.532942
O O15 0.271771 0.864735 0.415475
O O16 0.000000 0.000000 0.500000
#
# Coordination Sequence:
#
# PCOD9043101 Si02
#       7
#     2   2   2   2   2   2   2
#     4  12  25  42  72  98 134 181 231 289 346 412
#     4  10  23  45  68  96 143 184 224 289 346 417
#     4  10  24  47  68  95 143 183 225 285 356 413
#     4  11  21  39  69  98 140 180 229 291 346 401
#     4  12  23  39  70 104 137 183 239 288 342 414
#     4  12  25  42  69 109 140 180 236 292 348 413
#     4  11  24  46  64 103 140 181 230 289 350 415
#
# _framework density 23.170483999999998
#
# number of rings (size 3 to 8) (size 9 to 14) (size 15 to 20)
#    0.000    0.857    4.286    3.000    4.000    0.571 
#    7.714    0.714    0.000    0.000    0.000    0.000 
#    0.000    0.000    0.000    0.000    0.000    0.000 
#
# Total GULP energy -78222.540072 kJ/mol
# GULP energy per Si atom -5587.324291 kJ/mol
# Density = 2.311775 g / cm^3
# Si number density = 23.170484 Si / 1000 Ang^3
#
#
#
# Elastic Constant Matrix: (Units=GPa)
#
#
# Indices 1 2 3 4 5 6 
#
# 1 68.6304 25.7009 -12.6758 10.2197 7.9188 18.7692
# 2 25.7009 185.3388 26.2516 -7.2106 29.6169 31.0666
# 3 -12.6758 26.2516 61.9432 9.3724 24.3882 6.2970
# 4 10.2197 -7.2106 9.3724 50.1804 2.3898 13.1090
# 5 7.9188 29.6169 24.3882 2.3898 42.9902 0.5337
# 6 18.7692 31.0666 6.2970 13.1090 0.5337 52.9458
#
#
#
# Elastic Compliance Matrix: (Units=1/GPa)
#
#
# Indices 1 2 3 4 5 6 
#
# 1 0.020060 -0.002121 0.009003 -0.004215 -0.007035 -0.005823
# 2 -0.002121 0.007373 -0.002223 0.003134 -0.003552 -0.004050
# 3 0.009003 -0.002223 0.025764 -0.005371 -0.014401 -0.003477
# 4 -0.004215 0.003134 -0.005371 0.023676 0.000418 -0.005572
# 5 -0.007035 -0.003552 -0.014401 0.000418 0.035078 0.005834
# 6 -0.005823 -0.004050 -0.003477 -0.005572 0.005834 0.025062
#
#
# Mechanical properties :
#
#
# Convention : Reuss Voigt Hill
#
# Bulk Modulus (GPa) = 15.99579 43.82955 29.91267
# Shear Modulus (GPa) = 33.66290 47.66566 40.66428
#
# Velocity S-wave (km/s) = 3.81574 4.54053 4.19382
# Velocity P-wave (km/s) = 5.13144 6.81511 6.03230
#
# Compressibility (1/GPa) = 0.06251646
#
# Stress axis : x y z
#
# Youngs Moduli (GPa) = 49.85123 135.63498 38.81337
#
# Poissons Ratio (x) = 0.28764 -0.34944
# Poissons Ratio (y) = 0.10572 0.08627
# Poissons Ratio (z) = -0.44882 0.30146
#
# Static dielectric constant tensor:
#      x y z
#    x 1.896970 -0.021430 0.005240 
#    y -0.021430 1.936110 -0.056170 
#    z 0.005240 -0.056170 1.965630 
# 
# From -- ./inp_files/316056.got.cif
#   From: 2010.05.17/outbox.cif.g08.bks.cpg/sg2_159_cif.got.tgz:316056.got - 2010.06.03 11:33:40.
