data_PCOD9043348
_publ_section_title
;
Structure prediction by ZEFSAII (Michael W. Deem and Ramdas Pophale) SiO2 
 PCOD9043348
Probable space group: P -1
;
_chemical_formula_sum "Si O2"
_cell_formula_units_Z 12
_cell_length_a 12.391281
_cell_length_b 11.196494
_cell_length_c 4.982340
_cell_angle_alpha 124.799071
_cell_angle_beta 106.173072
_cell_angle_gamma 59.934879
_cell_volume 491.225040
_symmetry_space_group_name_H-M "P -1"
_symmetry_group_IT_number 2
_symmetry_cell_setting 'triclinic'
loop_
_space_group_symop_operation_xyz
x,y,z
-x,-y,-z
loop_
_atom_site_type_symbol
_atom_site_label
_atom_site_fract_x
_atom_site_fract_y
_atom_site_fract_z
Si Si1 0.580514 0.150068 0.737599
Si Si2 0.934943 0.455682 0.151084
Si Si3 0.405320 0.554249 0.750037
Si Si4 0.969374 0.916360 0.126152
Si Si5 0.308611 0.044083 0.954078
Si Si6 0.686480 0.647666 0.918311
O O1 0.607239 0.095201 0.378337
O O2 0.657678 0.253117 0.004240
O O3 0.625664 0.995056 0.762348
O O4 0.441917 0.262487 0.888315
O O5 0.000000 0.500000 0.500000
O O6 0.791818 0.552756 0.086602
O O7 0.000000 0.500000 0.000000
O O8 0.957733 0.274735 0.010665
O O9 0.500000 0.500000 0.500000
O O10 0.319537 0.471091 0.475461
O O11 0.500000 0.500000 0.000000
O O12 0.824944 0.951972 0.086735
O O13 0.000000 0.000000 0.500000
O O14 0.000000 0.000000 0.000000
O O15 0.291070 0.212118 0.033186
#
# Coordination Sequence:
#
# PCOD9043348 Si02
#       6
#     2   2   2   2   2   2
#     4  11  25  46  75 117 157 202 253 322 405 469
#     4  12  28  52  82 115 156 208 274 333 387 471
#     4  10  23  45  70 107 153 201 254 308 382 469
#     4  12  28  54  79 111 156 212 269 330 397 462
#     4  12  26  47  78 114 158 202 261 325 392 482
#     4  11  26  49  82 115 162 205 263 327 398 469
#
# _framework density 24.428719999999998
#
# number of rings (size 3 to 8) (size 9 to 14) (size 15 to 20)
#    0.000    0.667    1.667    5.000    4.667    6.667 
#    9.000    0.000    0.000    0.000    0.000    0.000 
#    0.000    0.000    0.000    0.000    0.000    0.000 
#
# Total GULP energy -67124.610283 kJ/mol
# GULP energy per Si atom -5593.717524 kJ/mol
# Density = 2.437312 g / cm^3
# Si number density = 24.428720 Si / 1000 Ang^3
#
#
#
# Elastic Constant Matrix: (Units=GPa)
#
#
# Indices 1 2 3 4 5 6 
#
# 1 151.0589 71.6386 42.8072 -8.9807 11.0001 14.3063
# 2 71.6386 197.2379 69.0392 -11.3625 13.7198 11.3096
# 3 42.8072 69.0392 174.2654 -14.8027 23.9794 23.7783
# 4 -8.9807 -11.3625 -14.8027 58.6036 17.7043 7.6155
# 5 11.0001 13.7198 23.9794 17.7043 40.9203 -8.1977
# 6 14.3063 11.3096 23.7783 7.6155 -8.1977 60.0214
#
#
#
# Elastic Compliance Matrix: (Units=1/GPa)
#
#
# Indices 1 2 3 4 5 6 
#
# 1 0.008373 -0.002564 -0.000326 0.001644 -0.002293 -0.001905
# 2 -0.002564 0.006756 -0.001855 0.000715 -0.000824 -0.000130
# 3 -0.000326 -0.001855 0.008528 0.004481 -0.007127 -0.004493
# 4 0.001644 0.000715 0.004481 0.024163 -0.015255 -0.007451
# 5 -0.002293 -0.000824 -0.007127 -0.015255 0.038247 0.010685
# 6 -0.001905 -0.000130 -0.004493 -0.007451 0.010685 0.021324
#
#
# Mechanical properties :
#
#
# Convention : Reuss Voigt Hill
#
# Bulk Modulus (GPa) = 70.58059 98.83694 84.70876
# Shear Modulus (GPa) = 41.11702 54.51419 47.81561
#
# Velocity S-wave (km/s) = 4.10706 4.72907 4.42900
# Velocity P-wave (km/s) = 7.17257 8.38844 7.80422
#
# Compressibility (1/GPa) = 0.01416820
#
# Stress axis : x y z
#
# Youngs Moduli (GPa) = 119.42686 148.00619 117.26433
#
# Poissons Ratio (x) = 0.37944 0.03822
# Poissons Ratio (y) = 0.30617 0.21753
# Poissons Ratio (z) = 0.03893 0.27456
#
# Static dielectric constant tensor:
#      x y z
#    x 2.065950 -0.004620 0.089700 
#    y -0.004620 1.947570 0.044390 
#    z 0.089700 0.044390 1.955860 
# 
# From -- ./inp_files/68043.got.cif
#   From: 2010.05.17/outbox.cif.g08.bks.cpg/sg2_35_cif.got.tgz:68043.got - 2010.06.03 11:33:40.
