data_PCOD9043665
_publ_section_title
;
Structure prediction by ZEFSAII (Michael W. Deem and Ramdas Pophale) SiO2 
 PCOD9043665
Probable space group: P -1
;
_chemical_formula_sum "Si O2"
_cell_formula_units_Z 16
_cell_length_a 5.319575
_cell_length_b 11.602029
_cell_length_c 10.201559
_cell_angle_alpha 112.028305
_cell_angle_beta 99.761769
_cell_angle_gamma 88.132908
_cell_volume 574.873351
_symmetry_space_group_name_H-M "P -1"
_symmetry_group_IT_number 2
_symmetry_cell_setting 'triclinic'
loop_
_space_group_symop_operation_xyz
x,y,z
-x,-y,-z
loop_
_atom_site_type_symbol
_atom_site_label
_atom_site_fract_x
_atom_site_fract_y
_atom_site_fract_z
Si Si1 0.343761 0.753499 0.325316
Si Si2 0.517842 0.695306 0.746140
Si Si3 0.110198 0.328358 0.936204
Si Si4 0.906527 0.166335 0.404329
Si Si5 0.725658 0.958428 0.906473
Si Si6 0.696006 0.617153 0.470356
Si Si7 0.352208 0.088282 0.762759
Si Si8 0.176740 0.534083 0.817602
O O1 0.183149 0.822615 0.449258
O O2 0.456262 0.637917 0.363090
O O3 0.574363 0.842452 0.334603
O O4 0.163962 0.707732 0.171349
O O5 0.282548 0.759757 0.677146
O O6 0.402864 0.632187 0.839792
O O7 0.711950 0.811069 0.829823
O O8 0.956305 0.607774 0.904251
O O9 0.259825 0.201117 0.892257
O O10 0.233140 0.427643 0.884796
O O11 0.166103 0.245964 0.451018
O O12 0.860480 0.022192 0.304030
O O13 0.618538 0.025945 0.798014
O O14 0.500000 0.000000 0.000000
O O15 0.000000 0.000000 0.000000
O O16 0.868637 0.529759 0.357487
O O17 0.619143 0.598774 0.606941
#
# Coordination Sequence:
#
# PCOD9043665 Si02
#       8
#     2   2   2   2   2   2   2   2
#     4  11  22  43  71 115 151 205 264 324 413 468
#     4  10  26  47  78 112 151 212 263 334 404 472
#     4  11  26  47  76 113 159 212 266 336 401 482
#     4  10  23  45  73 113 152 200 266 335 400 483
#     4  11  29  52  81 122 165 208 264 334 412 502
#     4  11  23  48  74 112 155 206 275 333 396 471
#     4  11  25  46  78 113 158 203 262 329 413 479
#     4  11  24  52  73 112 155 217 279 325 397 481
#
# _framework density 27.832215000000001
#
# number of rings (size 3 to 8) (size 9 to 14) (size 15 to 20)
#    0.000    1.250    2.500    0.750    7.000    5.000 
#    2.250    0.625    0.000    0.750    0.000    0.000 
#    0.000    0.000    0.000    0.000    0.000    0.000 
#
# Total GULP energy -89695.056818 kJ/mol
# GULP energy per Si atom -5605.941051 kJ/mol
# Density = 2.776887 g / cm^3
# Si number density = 27.832215 Si / 1000 Ang^3
#
#
#
# Elastic Constant Matrix: (Units=GPa)
#
#
# Indices 1 2 3 4 5 6 
#
# 1 129.6178 52.3184 48.7691 9.8664 -28.1434 -1.6240
# 2 52.3184 194.9744 50.4785 22.5810 -10.1489 -0.1486
# 3 48.7691 50.4785 100.5495 15.6964 -25.8685 4.1106
# 4 9.8664 22.5810 15.6964 48.0315 -2.1789 3.0838
# 5 -28.1434 -10.1489 -25.8685 -2.1789 78.6111 0.1545
# 6 -1.6240 -0.1486 4.1106 3.0838 0.1545 36.8125
#
#
#
# Elastic Compliance Matrix: (Units=1/GPa)
#
#
# Indices 1 2 3 4 5 6 
#
# 1 0.010250 -0.001701 -0.003551 -0.000096 0.002277 0.000840
# 2 -0.001701 0.006359 -0.002224 -0.001963 -0.000575 0.000366
# 3 -0.003551 -0.002224 0.014016 -0.002572 0.002986 -0.001528
# 4 -0.000096 -0.001963 -0.002572 0.022684 -0.000502 -0.001623
# 5 0.002277 -0.000575 0.002986 -0.000502 0.014431 -0.000254
# 6 0.000840 0.000366 -0.001528 -0.001623 -0.000254 0.027511
#
#
# Mechanical properties :
#
#
# Convention : Reuss Voigt Hill
#
# Bulk Modulus (GPa) = 63.80222 80.91931 72.36076
# Shear Modulus (GPa) = 43.31766 50.92939 47.12353
#
# Velocity S-wave (km/s) = 3.94939 4.28234 4.11923
# Velocity P-wave (km/s) = 6.61593 7.32041 6.97706
#
# Compressibility (1/GPa) = 0.01567344
#
# Stress axis : x y z
#
# Youngs Moduli (GPa) = 97.56235 157.26618 71.34603
#
# Poissons Ratio (x) = 0.26746 0.25336
# Poissons Ratio (y) = 0.16592 0.15866
# Poissons Ratio (z) = 0.34646 0.34972
#
# Static dielectric constant tensor:
#      x y z
#    x 2.235580 0.019300 -0.005100 
#    y 0.019300 2.162970 -0.059130 
#    z -0.005100 -0.059130 2.259030 
# 
# From -- ./inp_files/364882.got.cif
#   From: 2010.05.17/outbox.cif.g08.bks.cpg/sg2_183_cif.got.tgz:364882.got - 2010.06.03 11:33:40.
