data_PCOD9043267
_publ_section_title
;
Structure prediction by ZEFSAII (Michael W. Deem and Ramdas Pophale) SiO2 
 PCOD9043267
Probable space group: P -1
;
_chemical_formula_sum "Si O2"
_cell_formula_units_Z 16
_cell_length_a 5.867534
_cell_length_b 17.052232
_cell_length_c 10.906797
_cell_angle_alpha 53.022576
_cell_angle_beta 86.423302
_cell_angle_gamma 117.744109
_cell_volume 675.054128
_symmetry_space_group_name_H-M "P -1"
_symmetry_group_IT_number 2
_symmetry_cell_setting 'triclinic'
loop_
_space_group_symop_operation_xyz
x,y,z
-x,-y,-z
loop_
_atom_site_type_symbol
_atom_site_label
_atom_site_fract_x
_atom_site_fract_y
_atom_site_fract_z
Si Si1 0.754234 0.294120 0.725571
Si Si2 0.836525 0.448809 0.924147
Si Si3 0.286250 0.372733 0.297552
Si Si4 0.662003 0.784364 0.742512
Si Si5 0.736081 0.474387 0.391795
Si Si6 0.725874 0.974492 0.958791
Si Si7 0.281823 0.996454 0.602954
Si Si8 0.738900 0.145054 0.638134
O O1 0.696699 0.387236 0.586532
O O2 0.745125 0.225106 0.670165
O O3 0.074521 0.384283 0.692623
O O4 0.494354 0.174385 0.925232
O O5 0.661685 0.502899 0.862534
O O6 0.050251 0.502913 0.748292
O O7 0.619897 0.297050 0.083515
O O8 0.000000 0.500000 0.000000
O O9 0.396141 0.321473 0.247908
O O10 0.430858 0.404956 0.396779
O O11 0.943234 0.251071 0.430577
O O12 0.713326 0.892427 0.554798
O O13 0.964005 0.860602 0.736015
O O14 0.859017 0.073061 0.749122
O O15 0.500000 0.000000 0.000000
O O16 0.000000 0.000000 0.000000
O O17 0.421977 0.037988 0.693101
O O18 0.500000 0.000000 0.500000
#
# Coordination Sequence:
#
# PCOD9043267 Si02
#       8
#     2   2   2   2   2   2   2   2
#     4  10  23  47  66 100 137 180 232 284 349 410
#     4  12  25  43  67 100 139 178 228 283 344 410
#     4  12  23  42  71  98 137 184 222 283 351 413
#     4  11  25  41  67 101 140 179 228 278 349 418
#     4  11  24  43  70  97 138 179 228 283 339 420
#     4  10  23  45  70 100 134 184 240 297 349 421
#     4  11  24  44  68 100 137 178 225 282 344 419
#     4  11  22  43  73  96 137 181 228 289 352 417
#
# _framework density 23.701803999999999
#
# number of rings (size 3 to 8) (size 9 to 14) (size 15 to 20)
#    0.000    1.000    3.750    2.625    0.000    3.500 
#    9.000    0.000    0.000    0.000    0.000    0.000 
#    0.000    0.000    0.000    0.000    0.000    0.000 
#
# Total GULP energy -89326.210796 kJ/mol
# GULP energy per Si atom -5582.888175 kJ/mol
# Density = 2.364786 g / cm^3
# Si number density = 23.701804 Si / 1000 Ang^3
#
#
#
# Elastic Constant Matrix: (Units=GPa)
#
#
# Indices 1 2 3 4 5 6 
#
# 1 54.6180 33.3122 -5.5426 -1.8221 4.1687 20.2105
# 2 33.3122 143.9617 8.8670 -13.3168 0.7840 28.7905
# 3 -5.5426 8.8670 67.1260 -22.0159 4.3898 6.1909
# 4 -1.8221 -13.3168 -22.0159 31.5932 4.9886 -13.3853
# 5 4.1687 0.7840 4.3898 4.9886 35.9838 3.9995
# 6 20.2105 28.7905 6.1909 -13.3853 3.9995 39.8672
#
#
#
# Elastic Compliance Matrix: (Units=1/GPa)
#
#
# Indices 1 2 3 4 5 6 
#
# 1 0.025172 -0.004034 0.002850 -0.002688 -0.001577 -0.011035
# 2 -0.004034 0.008806 -0.000790 0.001195 0.000634 -0.003854
# 3 0.002850 -0.000790 0.020574 0.015722 -0.005195 0.001730
# 4 -0.002688 0.001195 0.015722 0.051602 -0.010614 0.016448
# 5 -0.001577 0.000634 -0.005195 -0.010614 0.030675 -0.005493
# 6 -0.011035 -0.003854 0.001730 0.016448 -0.005493 0.039266
#
#
# Mechanical properties :
#
#
# Convention : Reuss Voigt Hill
#
# Bulk Modulus (GPa) = 19.76072 37.66433 28.71252
# Shear Modulus (GPa) = 25.39235 36.76011 31.07623
#
# Velocity S-wave (km/s) = 3.27666 3.94247 3.62489
# Velocity P-wave (km/s) = 4.76137 6.05389 5.44611
#
# Compressibility (1/GPa) = 0.05060545
#
# Stress axis : x y z
#
# Youngs Moduli (GPa) = 39.72600 113.55569 48.60603
#
# Poissons Ratio (x) = 0.45804 -0.13855
# Poissons Ratio (y) = 0.16024 0.03841
# Poissons Ratio (z) = -0.11324 0.08974
#
# Static dielectric constant tensor:
#      x y z
#    x 2.774030 -0.411940 0.156040 
#    y -0.411940 2.081860 -0.062680 
#    z 0.156040 -0.062680 2.068290 
# 
# From -- ./inp_files/368959.got.cif
#   From: 2010.05.17/outbox.cif.g08.bks.cpg/sg2_185_cif.got.tgz:368959.got - 2010.06.03 11:33:40.
