data_PCOD9043296
_publ_section_title
;
Structure prediction by ZEFSAII (Michael W. Deem and Ramdas Pophale) SiO2 
 PCOD9043296
Probable space group: P -1
;
_chemical_formula_sum "Si O2"
_cell_formula_units_Z 14
_cell_length_a 8.900706
_cell_length_b 10.654090
_cell_length_c 9.511878
_cell_angle_alpha 52.582978
_cell_angle_beta 111.358230
_cell_angle_gamma 114.751202
_cell_volume 643.004395
_symmetry_space_group_name_H-M "P -1"
_symmetry_group_IT_number 2
_symmetry_cell_setting 'triclinic'
loop_
_space_group_symop_operation_xyz
x,y,z
-x,-y,-z
loop_
_atom_site_type_symbol
_atom_site_label
_atom_site_fract_x
_atom_site_fract_y
_atom_site_fract_z
Si Si1 0.107783 0.734735 0.594757
Si Si2 0.076569 0.347192 0.156523
Si Si3 0.575219 0.136878 0.545630
Si Si4 0.890917 0.832436 0.261164
Si Si5 0.365691 0.360085 0.464177
Si Si6 0.983784 0.345762 0.831740
Si Si7 0.325558 0.933434 0.072800
O O1 0.068201 0.772167 0.716531
O O2 0.283470 0.739317 0.582612
O O3 0.010507 0.540143 0.682586
O O4 0.050292 0.871688 0.391750
O O5 0.246320 0.392130 0.274594
O O6 0.000000 0.500000 0.000000
O O7 0.087304 0.300658 0.030059
O O8 0.456088 0.235042 0.508452
O O9 0.635992 0.053644 0.757834
O O10 0.500000 0.000000 0.500000
O O11 0.755345 0.725508 0.393830
O O12 0.949504 0.729553 0.229407
O O13 0.807247 0.966361 0.081565
O O14 0.500000 0.500000 0.500000
O O15 0.787180 0.255196 0.854722
O O16 0.500000 0.000000 0.000000
#
# Coordination Sequence:
#
# PCOD9043296 Si02
#       7
#     2   2   2   2   2   2   2
#     4  10  23  45  70 102 133 193 239 294 355 430
#     4   9  23  41  68 103 136 179 238 303 344 416
#     4  12  28  46  69 103 154 186 236 301 368 427
#     4  11  23  41  70  98 135 186 238 289 355 434
#     4  11  25  46  73 106 144 192 241 297 365 425
#     4  11  23  44  74 101 138 181 252 296 348 430
#     4  12  27  44  66 104 144 192 232 301 366 426
#
# _framework density 21.772791999999999
#
# number of rings (size 3 to 8) (size 9 to 14) (size 15 to 20)
#    0.000    1.143    2.857    1.714   10.000    0.000 
#    2.571    6.429    0.000    0.000    0.000    0.000 
#    0.000    0.000    0.000    0.000    0.000    0.000 
#
# Total GULP energy -77987.224981 kJ/mol
# GULP energy per Si atom -5570.516070 kJ/mol
# Density = 2.172324 g / cm^3
# Si number density = 21.772792 Si / 1000 Ang^3
#
#
#
# Elastic Constant Matrix: (Units=GPa)
#
#
# Indices 1 2 3 4 5 6 
#
# 1 119.1457 31.8201 35.0254 -4.9677 -13.3156 3.1419
# 2 31.8201 82.3583 43.1842 5.3065 -10.6910 13.5615
# 3 35.0254 43.1842 165.6181 26.2174 4.2588 -4.0798
# 4 -4.9677 5.3065 26.2174 34.6463 -8.9954 -3.7558
# 5 -13.3156 -10.6910 4.2588 -8.9954 34.5689 -2.5286
# 6 3.1419 13.5615 -4.0798 -3.7558 -2.5286 33.1250
#
#
#
# Elastic Compliance Matrix: (Units=1/GPa)
#
#
# Indices 1 2 3 4 5 6 
#
# 1 0.010567 -0.002582 -0.002489 0.005163 0.004974 0.000713
# 2 -0.002582 0.017057 -0.004295 0.000691 0.004489 -0.006846
# 3 -0.002489 -0.004295 0.009093 -0.007755 -0.005291 0.001831
# 4 0.005163 0.000691 -0.007755 0.039324 0.013666 0.003774
# 5 0.004974 0.004489 -0.005291 0.013666 0.036541 0.001378
# 6 0.000713 -0.006846 0.001831 0.003774 0.001378 0.033683
#
#
# Mechanical properties :
#
#
# Convention : Reuss Voigt Hill
#
# Bulk Modulus (GPa) = 55.60128 65.24239 60.42184
# Shear Modulus (GPa) = 29.24133 37.60753 33.42443
#
# Velocity S-wave (km/s) = 3.66870 4.16055 3.92235
# Velocity P-wave (km/s) = 6.59836 7.28769 6.95157
#
# Compressibility (1/GPa) = 0.01798520
#
# Stress axis : x y z
#
# Youngs Moduli (GPa) = 94.63727 58.62630 109.97319
#
# Poissons Ratio (x) = 0.15136 0.27373
# Poissons Ratio (y) = 0.24434 0.47233
# Poissons Ratio (z) = 0.23556 0.25180
#
# Static dielectric constant tensor:
#      x y z
#    x 1.892730 0.037220 0.030630 
#    y 0.037220 1.856360 0.063660 
#    z 0.030630 0.063660 1.855810 
# 
# From -- ./inp_files/184553.got.cif
#   From: 2010.05.17/outbox.cif.g08.bks.cpg/sg2_93_cif.got.tgz:184553.got - 2010.06.03 11:33:40.
