data_PCOD9043898
_publ_section_title
;
Structure prediction by ZEFSAII (Michael W. Deem and Ramdas Pophale) SiO2 
 PCOD9043898
Probable space group: P -1
;
_chemical_formula_sum "Si O2"
_cell_formula_units_Z 14
_cell_length_a 9.582390
_cell_length_b 7.709239
_cell_length_c 18.082650
_cell_angle_alpha 120.128490
_cell_angle_beta 144.901804
_cell_angle_gamma 48.963393
_cell_volume 577.432894
_symmetry_space_group_name_H-M "P -1"
_symmetry_group_IT_number 2
_symmetry_cell_setting 'triclinic'
loop_
_space_group_symop_operation_xyz
x,y,z
-x,-y,-z
loop_
_atom_site_type_symbol
_atom_site_label
_atom_site_fract_x
_atom_site_fract_y
_atom_site_fract_z
Si Si1 0.026922 0.439132 0.308956
Si Si2 0.906235 0.722163 0.454728
Si Si3 0.851663 0.959067 0.003454
Si Si4 0.263414 0.481938 0.067458
Si Si5 0.885893 0.135331 0.294330
Si Si6 0.295647 0.223941 0.879275
Si Si7 0.280296 0.092307 0.227300
O O1 0.250295 0.302550 0.311567
O O2 0.057463 0.604963 0.418041
O O3 0.005383 0.243535 0.307832
O O4 0.756134 0.627019 0.185942
O O5 0.000000 0.500000 0.500000
O O6 0.993125 0.877412 0.574429
O O7 0.573130 0.874130 0.332252
O O8 0.712586 0.917183 0.861117
O O9 0.168828 0.748884 0.087445
O O10 0.616471 0.017169 0.974329
O O11 0.960617 0.136640 0.107426
O O12 0.257250 0.389819 0.964881
O O13 0.561176 0.328687 0.198785
O O14 0.000000 0.500000 0.000000
O O15 0.896358 0.895941 0.227205
#
# Coordination Sequence:
#
# PCOD9043898 Si02
#       7
#     2   2   2   2   2   2   2
#     4  11  24  45  71  98 139 180 224 280 334 402
#     4  10  23  46  66 100 140 180 226 276 335 406
#     4  11  23  40  70 101 138 176 224 285 337 399
#     4  12  25  43  66 103 141 171 227 285 338 403
#     4  11  26  45  69 101 140 181 221 282 340 400
#     4  12  25  46  67 105 137 175 227 282 344 393
#     4  11  23  41  69 104 130 181 233 271 338 407
#
# _framework density 24.245242999999999
#
# number of rings (size 3 to 8) (size 9 to 14) (size 15 to 20)
#    0.000    0.857    4.286    3.000    4.000    4.000 
#    2.571    0.714    0.000    0.000    0.000    0.000 
#    0.000    0.000    0.000    0.000    0.000    0.000 
#
# Total GULP energy -77969.186310 kJ/mol
# GULP energy per Si atom -5569.227594 kJ/mol
# Density = 2.419006 g / cm^3
# Si number density = 24.245243 Si / 1000 Ang^3
#
#
#
# Elastic Constant Matrix: (Units=GPa)
#
#
# Indices 1 2 3 4 5 6 
#
# 1 65.8962 24.1009 28.8670 19.4345 -26.8989 -24.1296
# 2 24.1009 104.5755 40.2334 -1.8298 -4.4356 -15.7850
# 3 28.8670 40.2334 133.6965 6.5926 -25.2786 -11.3510
# 4 19.4345 -1.8298 6.5926 40.2814 -1.6380 -0.8778
# 5 -26.8989 -4.4356 -25.2786 -1.6380 25.0061 8.5058
# 6 -24.1296 -15.7850 -11.3510 -0.8778 8.5058 40.9084
#
#
#
# Elastic Compliance Matrix: (Units=1/GPa)
#
#
# Indices 1 2 3 4 5 6 
#
# 1 0.048270 -0.008438 0.003450 -0.021976 0.047061 0.015917
# 2 -0.008438 0.012983 -0.004354 0.004942 -0.011286 0.001277
# 3 0.003450 -0.004354 0.010785 -0.003069 0.013478 0.000479
# 4 -0.021976 0.004942 -0.003069 0.035143 -0.021274 -0.006730
# 5 0.047061 -0.011286 0.013478 -0.021274 0.098749 0.006155
# 6 0.015917 0.001277 0.000479 -0.006730 0.006155 0.033035
#
#
# Mechanical properties :
#
#
# Convention : Reuss Voigt Hill
#
# Bulk Modulus (GPa) = 18.74262 54.50786 36.62524
# Shear Modulus (GPa) = 18.15316 35.30363 26.72839
#
# Velocity S-wave (km/s) = 2.73926 3.82003 3.32387
# Velocity P-wave (km/s) = 4.21331 6.47978 5.46532
#
# Compressibility (1/GPa) = 0.05335434
#
# Stress axis : x y z
#
# Youngs Moduli (GPa) = 20.71674 77.02468 92.71831
#
# Poissons Ratio (x) = 0.64992 -0.31988
# Poissons Ratio (y) = 0.17480 0.40372
# Poissons Ratio (z) = -0.07147 0.33539
#
# Static dielectric constant tensor:
#      x y z
#    x 0.727720 -3.290450 0.155500 
#    y -3.290450 -7.089520 0.475940 
#    z 0.155500 0.475940 1.940000 
# 
# From -- ./inp_files/593761.got.cif
#   From: 2010.05.17/outbox.cif.g08.bks.cpg/sg2_297_cif.got.tgz:593761.got - 2010.06.03 11:33:40.
