data_PCOD9043012
_publ_section_title
;
Structure prediction by ZEFSAII (Michael W. Deem and Ramdas Pophale) SiO2 
 PCOD9043012
Probable space group: P -1
;
_chemical_formula_sum "Si O2"
_cell_formula_units_Z 16
_cell_length_a 16.105420
_cell_length_b 9.481654
_cell_length_c 11.864392
_cell_angle_alpha 55.341893
_cell_angle_beta 28.908333
_cell_angle_gamma 48.241831
_cell_volume 652.816431
_symmetry_space_group_name_H-M "P -1"
_symmetry_group_IT_number 2
_symmetry_cell_setting 'triclinic'
loop_
_space_group_symop_operation_xyz
x,y,z
-x,-y,-z
loop_
_atom_site_type_symbol
_atom_site_label
_atom_site_fract_x
_atom_site_fract_y
_atom_site_fract_z
Si Si1 0.408171 0.527340 0.220209
Si Si2 0.414836 0.682354 0.366087
Si Si3 0.224023 0.493536 0.818489
Si Si4 0.994557 0.723768 0.178477
Si Si5 0.056315 0.052146 0.664778
Si Si6 0.966142 0.674694 0.619792
Si Si7 0.451357 0.123994 0.389295
Si Si8 0.795727 0.872215 0.950814
O O1 0.456943 0.652902 0.196595
O O2 0.180879 0.619929 0.431977
O O3 0.478044 0.316176 0.281963
O O4 0.500000 0.500000 0.000000
O O5 0.302662 0.553312 0.588460
O O6 0.597299 0.606976 0.263079
O O7 0.268734 0.890328 0.481842
O O8 0.144734 0.335847 0.970109
O O9 0.084260 0.677510 0.969328
O O10 0.036741 0.868555 0.139927
O O11 0.063095 0.515810 0.247453
O O12 0.768524 0.811735 0.403309
O O13 0.055663 0.232319 0.517526
O O14 0.929874 0.968784 0.786606
O O15 0.824990 0.829792 0.803118
O O16 0.500000 0.000000 0.500000
O O17 0.587714 0.003148 0.182500
#
# Coordination Sequence:
#
# PCOD9043012 Si02
#       8
#     2   2   2   2   2   2   2   2
#     4  11  24  42  68 102 143 181 230 288 357 410
#     4  11  25  44  72  99 138 186 231 290 343 423
#     4  10  25  48  68  99 143 181 234 283 359 406
#     4  10  25  46  69 102 138 182 228 289 348 407
#     4  12  24  41  72 104 137 178 236 283 343 417
#     4  10  23  45  67  98 142 181 227 281 354 416
#     4  11  25  43  70 100 138 179 233 286 344 417
#     4  11  23  43  69  99 136 179 227 285 337 416
#
# _framework density 24.509187000000001
#
# number of rings (size 3 to 8) (size 9 to 14) (size 15 to 20)
#    0.000    1.250    1.250    3.000    7.000    2.000 
#    2.250    3.125    0.000    0.000    0.000    0.000 
#    0.000    0.000    0.000    0.000    0.000    0.000 
#
# Total GULP energy -89667.837154 kJ/mol
# GULP energy per Si atom -5604.239822 kJ/mol
# Density = 2.445340 g / cm^3
# Si number density = 24.509187 Si / 1000 Ang^3
#
#
#
# Elastic Constant Matrix: (Units=GPa)
#
#
# Indices 1 2 3 4 5 6 
#
# 1 52.1580 30.6285 28.0843 19.9789 19.1624 6.8616
# 2 30.6285 100.3280 30.8668 21.8498 16.6987 6.9365
# 3 28.0843 30.8668 121.4294 36.7694 18.1811 1.1109
# 4 19.9789 21.8498 36.7694 57.2021 2.7190 7.5087
# 5 19.1624 16.6987 18.1811 2.7190 38.4597 10.5007
# 6 6.8616 6.9365 1.1109 7.5087 10.5007 43.4119
#
#
#
# Elastic Compliance Matrix: (Units=1/GPa)
#
#
# Indices 1 2 3 4 5 6 
#
# 1 0.029986 -0.005230 -0.001869 -0.006742 -0.011323 0.000049
# 2 -0.005230 0.012755 -0.001015 -0.002253 -0.002223 -0.000258
# 3 -0.001869 -0.001015 0.011490 -0.006446 -0.004232 0.002302
# 4 -0.006742 -0.002253 -0.006446 0.025094 0.006811 -0.004397
# 5 -0.011323 -0.002223 -0.004232 0.006811 0.036226 -0.007688
# 6 0.000049 -0.000258 0.002302 -0.004397 -0.007688 0.025630
#
#
# Mechanical properties :
#
#
# Convention : Reuss Voigt Hill
#
# Bulk Modulus (GPa) = 26.31405 50.34162 38.32784
# Shear Modulus (GPa) = 29.39839 40.10380 34.75109
#
# Velocity S-wave (km/s) = 3.46711 4.04948 3.76956
# Velocity P-wave (km/s) = 5.17567 6.51528 5.88372
#
# Compressibility (1/GPa) = 0.03800251
#
# Stress axis : x y z
#
# Youngs Moduli (GPa) = 33.34884 78.40267 87.03023
#
# Poissons Ratio (x) = 0.41001 0.16270
# Poissons Ratio (y) = 0.17440 0.08835
# Poissons Ratio (z) = 0.06234 0.07959
#
# Static dielectric constant tensor:
#      x y z
#    x 1.990020 -0.002150 0.002990 
#    y -0.002150 1.937320 -0.019040 
#    z 0.002990 -0.019040 1.920380 
# 
# From -- ./inp_files/461976.got.cif
#   From: 2010.05.17/outbox.cif.g08.bks.cpg/sg2_231_cif.got.tgz:461976.got - 2010.06.03 11:33:40.
