data_PCOD9043775
_publ_section_title
;
Structure prediction by ZEFSAII (Michael W. Deem and Ramdas Pophale) SiO2 
 PCOD9043775
Probable space group: P -1
;
_chemical_formula_sum "Si O2"
_cell_formula_units_Z 14
_cell_length_a 32.019252
_cell_length_b 12.452518
_cell_length_c 5.582161
_cell_angle_alpha 53.086827
_cell_angle_beta 131.034824
_cell_angle_gamma 161.935350
_cell_volume 517.959534
_symmetry_space_group_name_H-M "P -1"
_symmetry_group_IT_number 2
_symmetry_cell_setting 'triclinic'
loop_
_space_group_symop_operation_xyz
x,y,z
-x,-y,-z
loop_
_atom_site_type_symbol
_atom_site_label
_atom_site_fract_x
_atom_site_fract_y
_atom_site_fract_z
Si Si1 0.006530 0.798822 0.119194
Si Si2 0.182644 0.427487 0.730815
Si Si3 0.477751 0.595310 0.908226
Si Si4 0.353404 0.773479 0.418338
Si Si5 0.233974 0.789758 0.658381
Si Si6 0.272113 0.318002 0.748584
Si Si7 0.116513 0.815455 0.202573
O O1 0.027769 0.701227 0.211226
O O2 0.848721 0.457595 0.091020
O O3 0.126240 0.051533 0.443065
O O4 0.054909 0.038832 0.835170
O O5 0.255867 0.557185 0.582454
O O6 0.157809 0.533812 0.506452
O O7 0.283468 0.631799 0.076544
O O8 0.326615 0.307263 0.827538
O O9 0.537280 0.857418 0.633171
O O10 0.500000 0.500000 0.000000
O O11 0.597373 0.851853 0.224107
O O12 0.392855 0.702631 0.669701
O O13 0.207311 0.884994 0.483274
O O14 0.228006 0.173075 0.038473
O O15 0.000000 0.500000 0.000000
#
# Coordination Sequence:
#
# PCOD9043775 Si02
#       7
#     2   2   2   2   2   2   2
#     4  11  23  47  70 104 139 188 242 292 358 435
#     4  10  23  45  75 107 143 187 241 302 362 424
#     4  11  26  46  72 104 146 188 235 304 364 424
#     4  10  23  49  71 106 144 193 243 293 358 438
#     4  11  25  44  69 107 144 183 238 301 361 425
#     4  11  24  47  72 102 139 193 242 289 359 434
#     4  12  25  41  73 103 142 189 239 296 358 432
#
# _framework density 27.029139000000001
#
# number of rings (size 3 to 8) (size 9 to 14) (size 15 to 20)
#    0.000    1.143    2.857    2.143    4.000    1.714 
#    7.714    9.286    0.000    0.000    0.000    0.000 
#    0.000    0.000    0.000    0.000    0.000    0.000 
#
# Total GULP energy -78179.570654 kJ/mol
# GULP energy per Si atom -5584.255047 kJ/mol
# Density = 2.696762 g / cm^3
# Si number density = 27.029139 Si / 1000 Ang^3
#
#
#
# Elastic Constant Matrix: (Units=GPa)
#
#
# Indices 1 2 3 4 5 6 
#
# 1 147.6833 0.4631 19.9383 1.1309 13.5360 -18.4996
# 2 0.4631 66.9130 18.0802 -2.6630 3.9422 -8.3339
# 3 19.9383 18.0802 80.0775 -8.3655 14.5089 4.3125
# 4 1.1309 -2.6630 -8.3655 35.2745 -6.3805 10.0627
# 5 13.5360 3.9422 14.5089 -6.3805 47.4043 -3.8998
# 6 -18.4996 -8.3339 4.3125 10.0627 -3.8998 59.6361
#
#
#
# Elastic Compliance Matrix: (Units=1/GPa)
#
#
# Indices 1 2 3 4 5 6 
#
# 1 0.007570 0.000900 -0.002138 -0.001775 -0.001589 0.002824
# 2 0.000900 0.016407 -0.004119 -0.000650 -0.000204 0.002966
# 3 -0.002138 -0.004119 0.015124 0.003625 -0.003449 -0.003170
# 4 -0.001775 -0.000650 0.003625 0.031510 0.003198 -0.006011
# 5 -0.001589 -0.000204 -0.003449 0.003198 0.023109 0.000700
# 6 0.002824 0.002966 -0.003170 -0.006011 0.000700 0.019348
#
#
# Mechanical properties :
#
#
# Convention : Reuss Voigt Hill
#
# Bulk Modulus (GPa) = 35.22649 41.29299 38.25974
# Shear Modulus (GPa) = 37.52468 45.54246 41.53357
#
# Velocity S-wave (km/s) = 3.73004 4.10925 3.92423
# Velocity P-wave (km/s) = 5.62245 6.15020 5.89224
#
# Compressibility (1/GPa) = 0.02838773
#
# Stress axis : x y z
#
# Youngs Moduli (GPa) = 132.10039 60.94896 66.11790
#
# Poissons Ratio (x) = -0.05485 0.14134
# Poissons Ratio (y) = -0.11888 0.27236
# Poissons Ratio (z) = 0.28239 0.25106
#
# Static dielectric constant tensor:
#      x y z
#    x 2.096320 -0.016920 0.072230 
#    y -0.016920 2.193720 0.091320 
#    z 0.072230 0.091320 2.341020 
# 
# From -- ./inp_files/68276.got.cif
#   From: 2010.05.17/outbox.cif.g08.bks.cpg/sg2_35_cif.got.tgz:68276.got - 2010.06.03 11:33:40.
