data_PCOD9043827
_publ_section_title
;
Structure prediction by ZEFSAII (Michael W. Deem and Ramdas Pophale) SiO2 
 PCOD9043827
Probable space group: P -1
;
_chemical_formula_sum "Si O2"
_cell_formula_units_Z 16
_cell_length_a 6.516635
_cell_length_b 13.935343
_cell_length_c 11.703887
_cell_angle_alpha 45.944239
_cell_angle_beta 99.023154
_cell_angle_gamma 120.660226
_cell_volume 622.524467
_symmetry_space_group_name_H-M "P -1"
_symmetry_group_IT_number 2
_symmetry_cell_setting 'triclinic'
loop_
_space_group_symop_operation_xyz
x,y,z
-x,-y,-z
loop_
_atom_site_type_symbol
_atom_site_label
_atom_site_fract_x
_atom_site_fract_y
_atom_site_fract_z
Si Si1 0.044597 0.859876 0.091806
Si Si2 0.115763 0.852805 0.840348
Si Si3 0.628598 0.769556 0.742492
Si Si4 0.771249 0.392358 0.962788
Si Si5 0.858853 0.688829 0.626306
Si Si6 0.389885 0.873345 0.465206
Si Si7 0.512828 0.378346 0.732062
Si Si8 0.240715 0.684261 0.387437
O O1 0.203730 0.821377 0.220605
O O2 0.772307 0.690173 0.214288
O O3 0.134632 0.887343 0.947018
O O4 0.000000 0.000000 0.000000
O O5 0.060188 0.676929 0.960513
O O6 0.896274 0.859334 0.757107
O O7 0.386060 0.971846 0.708276
O O8 0.419107 0.649644 0.915430
O O9 0.688464 0.705119 0.687427
O O10 0.513890 0.861052 0.600991
O O11 0.066270 0.419529 0.209908
O O12 0.598957 0.315983 0.896978
O O13 0.695508 0.572344 0.603270
O O14 0.121780 0.848044 0.482130
O O15 0.309166 0.726397 0.490536
O O16 0.550917 0.312098 0.674689
O O17 0.000000 0.500000 0.500000
#
# Coordination Sequence:
#
# PCOD9043827 Si02
#       8
#     2   2   2   2   2   2   2   2
#     4  12  27  46  79 113 146 197 258 304 371 445
#     4  12  26  49  74 104 149 194 249 308 359 449
#     4  12  26  45  73 110 145 194 250 306 368 435
#     4  10  23  45  77 100 142 187 249 297 371 429
#     4  10  24  45  71 108 143 190 243 307 365 438
#     4  12  29  45  72 106 153 194 243 299 384 440
#     4  10  23  46  75 106 144 191 245 307 368 437
#     4  12  26  49  76 110 155 193 243 311 379 446
#
# _framework density 25.701803000000002
#
# number of rings (size 3 to 8) (size 9 to 14) (size 15 to 20)
#    0.750    0.000    3.750    2.250    3.500    9.500 
#    0.000    0.000    0.000    0.000    0.000    0.000 
#    0.000    0.000    0.000    0.000    0.000    0.000 
#
# Total GULP energy -89559.908616 kJ/mol
# GULP energy per Si atom -5597.494289 kJ/mol
# Density = 2.564330 g / cm^3
# Si number density = 25.701803 Si / 1000 Ang^3
#
#
#
# Elastic Constant Matrix: (Units=GPa)
#
#
# Indices 1 2 3 4 5 6 
#
# 1 132.3228 46.2995 73.5972 2.4323 7.3224 -12.8931
# 2 46.2995 88.0772 25.3496 9.7663 3.7695 6.5706
# 3 73.5972 25.3496 106.8847 19.4698 -7.9236 1.5738
# 4 2.4323 9.7663 19.4698 40.2170 -6.8205 -2.5847
# 5 7.3224 3.7695 -7.9236 -6.8205 49.5887 9.8976
# 6 -12.8931 6.5706 1.5738 -2.5847 9.8976 37.4397
#
#
#
# Elastic Compliance Matrix: (Units=1/GPa)
#
#
# Indices 1 2 3 4 5 6 
#
# 1 0.018151 -0.007170 -0.012504 0.006446 -0.005214 0.009858
# 2 -0.007170 0.015381 0.002277 -0.004646 0.000770 -0.005788
# 3 -0.012504 0.002277 0.019527 -0.008872 0.005066 -0.007478
# 4 0.006446 -0.004646 -0.008872 0.030425 0.001129 0.005210
# 5 -0.005214 0.000770 0.005066 0.001129 0.023494 -0.008277
# 6 0.009858 -0.005788 -0.007478 0.005210 -0.008277 0.033982
#
#
# Mechanical properties :
#
#
# Convention : Reuss Voigt Hill
#
# Bulk Modulus (GPa) = 54.74250 68.64191 61.69221
# Shear Modulus (GPa) = 27.49665 37.58497 32.54081
#
# Velocity S-wave (km/s) = 3.27438 3.82821 3.56208
# Velocity P-wave (km/s) = 5.96999 6.80480 6.40102
#
# Compressibility (1/GPa) = 0.01826734
#
# Stress axis : x y z
#
# Youngs Moduli (GPa) = 55.09364 65.01491 51.21135
#
# Poissons Ratio (x) = 0.46614 0.64032
# Poissons Ratio (y) = 0.39501 -0.11663
# Poissons Ratio (z) = 0.68886 -0.14807
#
# Static dielectric constant tensor:
#      x y z
#    x 1.988890 -0.016490 0.036170 
#    y -0.016490 2.025900 -0.022060 
#    z 0.036170 -0.022060 2.002390 
# 
# From -- ./inp_files/127485.got.cif
#   From: 2010.05.17/outbox.cif.g08.bks.cpg/sg2_64_cif.got.tgz:127485.got - 2010.06.03 11:33:40.
