data_PCOD9043081
_publ_section_title
;
Structure prediction by ZEFSAII (Michael W. Deem and Ramdas Pophale) SiO2 
 PCOD9043081
Probable space group: P -1
;
_chemical_formula_sum "Si O2"
_cell_formula_units_Z 16
_cell_length_a 11.837792
_cell_length_b 11.722200
_cell_length_c 5.923795
_cell_angle_alpha 81.250265
_cell_angle_beta 126.041577
_cell_angle_gamma 96.952512
_cell_volume 656.426224
_symmetry_space_group_name_H-M "P -1"
_symmetry_group_IT_number 2
_symmetry_cell_setting 'triclinic'
loop_
_space_group_symop_operation_xyz
x,y,z
-x,-y,-z
loop_
_atom_site_type_symbol
_atom_site_label
_atom_site_fract_x
_atom_site_fract_y
_atom_site_fract_z
Si Si1 0.259185 0.913879 0.217982
Si Si2 0.314296 0.306364 0.152950
Si Si3 0.187263 0.114651 0.353322
Si Si4 0.211649 0.702636 0.912315
Si Si5 0.167919 0.495103 0.216760
Si Si6 0.616254 0.934354 0.031143
Si Si7 0.898597 0.693516 0.488868
Si Si8 0.575519 0.268084 0.236908
O O1 0.331840 0.827658 0.502362
O O2 0.155416 0.002785 0.190335
O O3 0.216443 0.831555 0.981590
O O4 0.366385 0.006312 0.205005
O O5 0.306443 0.198093 0.348926
O O6 0.242954 0.414186 0.151728
O O7 0.475567 0.339293 0.264402
O O8 0.194988 0.266598 0.839356
O O9 0.244424 0.057253 0.663285
O O10 0.092683 0.214842 0.317799
O O11 0.329734 0.681956 0.869782
O O12 0.060212 0.675546 0.628183
O O13 0.222490 0.621907 0.172074
O O14 0.180404 0.425809 0.485877
O O15 0.000000 0.500000 0.000000
O O16 0.555667 0.804957 0.999245
O O17 0.500000 0.000000 0.000000
#
# Coordination Sequence:
#
# PCOD9043081 Si02
#       8
#     2   2   2   2   2   2   2   2
#     4  12  23  38  63  98 134 172 205 262 321 375
#     4  11  23  41  73  95 121 171 218 264 315 376
#     4  11  21  38  67  97 125 171 221 256 307 386
#     4  11  26  42  62  97 134 165 210 270 319 377
#     4   9  23  46  68  92 123 171 216 261 318 381
#     4  12  20  38  63  94 130 173 213 254 313 383
#     4  10  23  45  68  93 126 169 220 263 313 383
#     4  12  24  38  66 100 129 165 214 263 320 378
#
# _framework density 24.374406
#
# number of rings (size 3 to 8) (size 9 to 14) (size 15 to 20)
#    0.000    1.000    5.000    1.125    0.000    7.000 
#    0.000    5.625    0.000    0.000    0.000    0.000 
#    0.000    0.000    0.000    0.000    0.000    0.000 
#
# Total GULP energy -89121.034758 kJ/mol
# GULP energy per Si atom -5570.064672 kJ/mol
# Density = 2.431893 g / cm^3
# Si number density = 24.374406 Si / 1000 Ang^3
#
#
#
# Elastic Constant Matrix: (Units=GPa)
#
#
# Indices 1 2 3 4 5 6 
#
# 1 112.3487 52.4745 24.5317 0.6783 10.8643 34.5961
# 2 52.4745 103.6756 6.1623 -10.2512 -5.6344 -12.2488
# 3 24.5317 6.1623 60.4300 -10.3844 -4.7342 2.6296
# 4 0.6783 -10.2512 -10.3844 20.1423 5.3235 13.2718
# 5 10.8643 -5.6344 -4.7342 5.3235 23.8392 -11.2262
# 6 34.5961 -12.2488 2.6296 13.2718 -11.2262 -46.0630
#
#
#
# Elastic Compliance Matrix: (Units=1/GPa)
#
#
# Indices 1 2 3 4 5 6 
#
# 1 0.010945 -0.005494 -0.006106 -0.010301 -0.001975 0.006846
# 2 -0.005494 0.012866 0.003123 0.010957 0.001556 -0.004591
# 3 -0.006106 0.003123 0.021285 0.012694 0.004178 -0.001562
# 4 -0.010301 0.010957 0.012694 0.057695 0.000068 0.006681
# 5 -0.001975 0.001556 0.004178 0.000068 0.038805 -0.011096
# 6 0.006846 -0.004591 -0.001562 0.006681 -0.011096 -0.010807
#
#
# Mechanical properties :
#
#
# Convention : Reuss Voigt Hill
#
# Bulk Modulus (GPa) = 35.53375 49.19903 42.36639
# Shear Modulus (GPa) = 31.82215 12.46943 22.14579
#
# Velocity S-wave (km/s) = 3.61717 2.26426 3.01751
# Velocity P-wave (km/s) = 5.66173 5.20234 5.43689
#
# Compressibility (1/GPa) = 0.02814226
#
# Stress axis : x y z
#
# Youngs Moduli (GPa) = 91.36443 77.72366 46.98181
#
# Poissons Ratio (x) = 0.42701 0.28686
# Poissons Ratio (y) = 0.50195 -0.14672
# Poissons Ratio (z) = 0.55786 -0.24272
#
# Static dielectric constant tensor:
#      x y z
#    x 1.840490 -0.007820 0.038060 
#    y -0.007820 2.270630 0.100610 
#    z 0.038060 0.100610 1.897130 
# 
# From -- ./inp_files/70183.got.cif
#   From: 2010.05.17/outbox.cif.g08.bks.cpg/sg2_36_cif.got.tgz:70183.got - 2010.06.03 11:33:40.
