data_PCOD9043984
_publ_section_title
;
Structure prediction by ZEFSAII (Michael W. Deem and Ramdas Pophale) SiO2 
 PCOD9043984
Probable space group: P -1
;
_chemical_formula_sum "Si O2"
_cell_formula_units_Z 10
_cell_length_a 6.958072
_cell_length_b 6.875739
_cell_length_c 14.450411
_cell_angle_alpha 74.285241
_cell_angle_beta 100.538179
_cell_angle_gamma 44.241044
_cell_volume 384.280019
_symmetry_space_group_name_H-M "P -1"
_symmetry_group_IT_number 2
_symmetry_cell_setting 'triclinic'
loop_
_space_group_symop_operation_xyz
x,y,z
-x,-y,-z
loop_
_atom_site_type_symbol
_atom_site_label
_atom_site_fract_x
_atom_site_fract_y
_atom_site_fract_z
Si Si1 0.472866 0.387395 0.777779
Si Si2 0.476031 0.660512 0.567336
Si Si3 0.585055 0.269162 0.118066
Si Si4 0.024442 0.403436 0.409630
Si Si5 0.152426 0.164935 0.962908
O O1 0.538971 0.464069 0.683953
O O2 0.287330 0.702749 0.788901
O O3 0.748871 0.065886 0.913175
O O4 0.279023 0.360934 0.718688
O O5 0.500000 0.500000 0.500000
O O6 0.725318 0.641366 0.602018
O O7 0.143069 0.072508 0.472074
O O8 0.500000 0.500000 0.000000
O O9 0.853384 0.916127 0.131312
O O10 0.232467 0.456110 0.093759
O O11 0.000000 0.500000 0.500000
O O12 0.500000 0.000000 0.000000
#
# Coordination Sequence:
#
# PCOD9043984 Si02
#       5
#     2   2   2   2   2
#     4  11  24  43  73  97 141 196 226 304 377 418
#     4  11  25  45  70 101 147 182 246 303 356 439
#     4  10  23  46  68 102 144 185 240 302 362 436
#     4  11  25  46  66 106 139 187 246 296 358 445
#     4  11  25  46  71 109 144 185 252 303 358 452
#
# _framework density 26.022690999999998
#
# number of rings (size 3 to 8) (size 9 to 14) (size 15 to 20)
#    0.000    1.200    2.000    3.600    2.800    6.400 
#    0.000    0.000    0.000    0.000    0.000    0.000 
#    0.000    0.000    0.000    0.000    0.000    0.000 
#
# Total GULP energy -55754.563256 kJ/mol
# GULP energy per Si atom -5575.456326 kJ/mol
# Density = 2.596346 g / cm^3
# Si number density = 26.022691 Si / 1000 Ang^3
#
#
#
# Elastic Constant Matrix: (Units=GPa)
#
#
# Indices 1 2 3 4 5 6 
#
# 1 148.5126 26.7273 51.7397 -7.3140 -3.4506 -12.9815
# 2 26.7273 143.5602 76.8074 21.7466 1.8756 -2.5452
# 3 51.7397 76.8074 190.2345 29.5366 9.0400 3.8866
# 4 -7.3140 21.7466 29.5366 47.0345 5.3645 5.5951
# 5 -3.4506 1.8756 9.0400 5.3645 67.5779 2.8458
# 6 -12.9815 -2.5452 3.8866 5.5951 2.8458 43.6523
#
#
#
# Elastic Compliance Matrix: (Units=1/GPa)
#
#
# Indices 1 2 3 4 5 6 
#
# 1 0.008023 -0.000568 -0.002443 0.002733 0.000443 0.002191
# 2 -0.000568 0.009169 -0.003198 -0.002466 0.000300 0.000947
# 3 -0.002443 -0.003198 0.007830 -0.003602 -0.000751 -0.001100
# 4 0.002733 -0.002466 -0.003602 0.025491 -0.001241 -0.002197
# 5 0.000443 0.000300 -0.000751 -0.001241 0.015037 -0.000605
# 6 0.002191 0.000947 -0.001100 -0.002197 -0.000605 0.024034
#
#
# Mechanical properties :
#
#
# Convention : Reuss Voigt Hill
#
# Bulk Modulus (GPa) = 79.34054 88.09512 83.71783
# Shear Modulus (GPa) = 47.07975 53.45513 50.26744
#
# Velocity S-wave (km/s) = 4.25806 4.53722 4.39985
# Velocity P-wave (km/s) = 7.39797 7.83423 7.61922
#
# Compressibility (1/GPa) = 0.01260390
#
# Stress axis : x y z
#
# Youngs Moduli (GPa) = 124.63913 109.06339 127.71606
#
# Poissons Ratio (x) = 0.06190 0.31203
# Poissons Ratio (y) = 0.07074 0.40848
# Poissons Ratio (z) = 0.30451 0.34883
#
# Static dielectric constant tensor:
#      x y z
#    x 2.341730 0.316190 0.344010 
#    y 0.316190 1.990180 0.135910 
#    z 0.344010 0.135910 2.266550 
# 
# From -- ./inp_files/490920.got.cif
#   From: 2010.05.17/outbox.cif.g08.bks.cpg/sg2_246_cif.got.tgz:490920.got - 2010.06.03 11:33:40.
