data_PCOD9043151
_publ_section_title
;
Structure prediction by ZEFSAII (Michael W. Deem and Ramdas Pophale) SiO2 
 PCOD9043151
Probable space group: P -1
;
_chemical_formula_sum "Si O2"
_cell_formula_units_Z 16
_cell_length_a 8.524661
_cell_length_b 7.650582
_cell_length_c 13.320390
_cell_angle_alpha 129.894315
_cell_angle_beta 88.379898
_cell_angle_gamma 96.056107
_cell_volume 661.916430
_symmetry_space_group_name_H-M "P -1"
_symmetry_group_IT_number 2
_symmetry_cell_setting 'triclinic'
loop_
_space_group_symop_operation_xyz
x,y,z
-x,-y,-z
loop_
_atom_site_type_symbol
_atom_site_label
_atom_site_fract_x
_atom_site_fract_y
_atom_site_fract_z
Si Si1 0.878247 0.791886 0.026514
Si Si2 0.698168 0.514688 0.277809
Si Si3 0.048840 0.732306 0.700565
Si Si4 0.159491 0.743591 0.483949
Si Si5 0.255272 0.846689 0.301166
Si Si6 0.513820 0.731582 0.524276
Si Si7 0.051536 0.386319 0.837315
Si Si8 0.554628 0.572162 0.911430
O O1 0.853565 0.642577 0.074536
O O2 0.954531 0.042722 0.148531
O O3 0.997103 0.638273 0.911634
O O4 0.700688 0.775842 0.981456
O O5 0.789948 0.369115 0.302103
O O6 0.589969 0.672964 0.396342
O O7 0.590627 0.387228 0.144634
O O8 0.839031 0.667457 0.275174
O O9 0.062232 0.796662 0.605120
O O10 0.906684 0.525479 0.634707
O O11 0.171374 0.855616 0.414839
O O12 0.339732 0.793727 0.534812
O O13 0.109183 0.777720 0.206637
O O14 0.363625 0.640632 0.215083
O O15 0.365569 0.074146 0.356978
O O16 0.500000 0.500000 0.500000
O O17 0.500000 0.500000 0.000000
#
# Coordination Sequence:
#
# PCOD9043151 Si02
#       8
#     2   2   2   2   2   2   2   2
#     4  10  24  45  68  98 136 183 225 291 336 402
#     4  12  24  44  68 101 140 177 232 284 334 417
#     4  11  26  44  72 100 144 179 223 291 341 401
#     4  11  24  46  67 104 139 179 228 273 347 414
#     4  11  25  44  73  98 137 188 221 284 344 408
#     4  12  27  44  69 104 140 174 228 288 346 405
#     4  10  23  45  69 101 132 179 245 269 339 414
#     4  11  24  42  69 102 136 180 237 280 335 410
#
# _framework density 24.172235000000001
#
# number of rings (size 3 to 8) (size 9 to 14) (size 15 to 20)
#    0.000    1.000    5.000    0.375    5.250    1.500 
#    0.000    1.250    0.000    0.000    0.000    0.000 
#    0.000    0.000    0.000    0.000    0.000    0.000 
#
# Total GULP energy -89398.325814 kJ/mol
# GULP energy per Si atom -5587.395363 kJ/mol
# Density = 2.411722 g / cm^3
# Si number density = 24.172235 Si / 1000 Ang^3
#
#
#
# Elastic Constant Matrix: (Units=GPa)
#
#
# Indices 1 2 3 4 5 6 
#
# 1 86.0439 18.5330 19.3431 12.4376 19.1005 18.2235
# 2 18.5330 79.3589 29.1368 12.5152 8.4391 17.6225
# 3 19.3431 29.1368 90.1205 20.2965 13.0019 19.1037
# 4 12.4376 12.5152 20.2965 45.5028 12.4222 11.5538
# 5 19.1005 8.4391 13.0019 12.4222 42.1147 -1.9826
# 6 18.2235 17.6225 19.1037 11.5538 -1.9826 35.5843
#
#
#
# Elastic Compliance Matrix: (Units=1/GPa)
#
#
# Indices 1 2 3 4 5 6 
#
# 1 0.014998 -0.001014 -0.000352 0.000090 -0.006865 -0.007401
# 2 -0.001014 0.015499 -0.003274 -0.000737 -0.001665 -0.005252
# 3 -0.000352 -0.003274 0.014478 -0.003395 -0.002889 -0.005029
# 4 0.000090 -0.000737 -0.003395 0.027485 -0.007290 -0.007188
# 5 -0.006865 -0.001665 -0.002889 -0.007290 0.030704 0.009969
# 6 -0.007401 -0.005252 -0.005029 -0.007188 0.009969 0.040083
#
#
# Mechanical properties :
#
#
# Convention : Reuss Voigt Hill
#
# Bulk Modulus (GPa) = 28.01448 43.28323 35.64885
# Shear Modulus (GPa) = 30.40893 37.20773 33.80833
#
# Velocity S-wave (km/s) = 3.55069 3.92762 3.74390
# Velocity P-wave (km/s) = 5.33147 6.20591 5.78523
#
# Compressibility (1/GPa) = 0.03569582
#
# Stress axis : x y z
#
# Youngs Moduli (GPa) = 66.67532 64.51844 69.07043
#
# Poissons Ratio (x) = 0.06541 0.02433
# Poissons Ratio (y) = 0.06760 0.22612
# Poissons Ratio (z) = 0.02348 0.21122
#
# Static dielectric constant tensor:
#      x y z
#    x 1.926030 -0.050020 0.035780 
#    y -0.050020 1.971210 -0.034240 
#    z 0.035780 -0.034240 2.024460 
# 
# From -- ./inp_files/495715.got.cif
#   From: 2010.05.17/outbox.cif.g08.bks.cpg/sg2_248_cif.got.tgz:495715.got - 2010.06.03 11:33:40.
