data_PCOD9043987
_publ_section_title
;
Structure prediction by ZEFSAII (Michael W. Deem and Ramdas Pophale) SiO2 
 PCOD9043987
Probable space group: P -1
;
_chemical_formula_sum "Si O2"
_cell_formula_units_Z 14
_cell_length_a 11.725194
_cell_length_b 9.936082
_cell_length_c 8.720155
_cell_angle_alpha 46.786318
_cell_angle_beta 116.219255
_cell_angle_gamma 115.779161
_cell_volume 650.467676
_symmetry_space_group_name_H-M "P -1"
_symmetry_group_IT_number 2
_symmetry_cell_setting 'triclinic'
loop_
_space_group_symop_operation_xyz
x,y,z
-x,-y,-z
loop_
_atom_site_type_symbol
_atom_site_label
_atom_site_fract_x
_atom_site_fract_y
_atom_site_fract_z
Si Si1 0.396242 0.846488 0.962442
Si Si2 0.292245 0.727056 0.515897
Si Si3 0.146916 0.758077 0.093470
Si Si4 0.492160 0.473728 0.328812
Si Si5 0.981333 0.021399 0.651304
Si Si6 0.678229 0.926906 0.548975
Si Si7 0.043549 0.568882 0.641104
O O1 0.348284 0.962472 0.706599
O O2 0.268350 0.758413 0.054287
O O3 0.462265 0.670357 0.095686
O O4 0.500000 0.000000 0.000000
O O5 0.205082 0.768383 0.289771
O O6 0.378073 0.584889 0.613677
O O7 0.199441 0.627604 0.676137
O O8 0.361892 0.935150 0.451573
O O9 0.027719 0.578309 0.162659
O O10 0.080951 0.930041 0.877067
O O11 0.500000 0.500000 0.500000
O O12 0.388120 0.290087 0.352434
O O13 0.830690 0.938765 0.661770
O O14 0.007841 0.241873 0.520053
O O15 0.000000 0.000000 0.500000
O O16 0.000000 0.500000 0.500000
#
# Coordination Sequence:
#
# PCOD9043987 Si02
#       7
#     2   2   2   2   2   2   2
#     4  12  25  42  69 104 132 179 234 283 337 403
#     4  10  23  46  68 103 144 173 230 289 334 414
#     4  11  23  44  73  97 140 186 225 273 348 403
#     4  12  24  44  76  97 130 190 226 280 350 405
#     4  11  24  41  69 101 139 178 225 286 332 404
#     4  11  25  44  65 107 140 170 233 287 340 403
#     4   9  23  41  64  98 137 178 223 275 332 403
#
# _framework density 21.522977000000001
#
# number of rings (size 3 to 8) (size 9 to 14) (size 15 to 20)
#    0.000    1.143    4.286    0.429    2.000   10.857 
#    0.000    4.286    0.000    0.000    0.000    0.000 
#    0.000    0.000    0.000    0.000    0.000    0.000 
#
# Total GULP energy -78145.118064 kJ/mol
# GULP energy per Si atom -5581.794147 kJ/mol
# Density = 2.147399 g / cm^3
# Si number density = 21.522977 Si / 1000 Ang^3
#
#
#
# Elastic Constant Matrix: (Units=GPa)
#
#
# Indices 1 2 3 4 5 6 
#
# 1 216.8424 191.5649 462.8793 -90.1055 188.7810 218.3921
# 2 191.5649 341.9630 583.4935 -126.3217 231.4484 292.5364
# 3 462.8793 583.4935 1583.0594 -268.0454 615.0347 832.1088
# 4 -90.1055 -126.3217 -268.0454 82.6211 -99.3342 -132.9591
# 5 188.7810 231.4484 615.0347 -99.3342 266.9457 329.9111
# 6 218.3921 292.5364 832.1088 -132.9591 329.9111 494.7581
#
#
#
# Elastic Compliance Matrix: (Units=1/GPa)
#
#
# Indices 1 2 3 4 5 6 
#
# 1 0.015989 -0.000721 -0.004605 0.003945 -0.007337 0.007067
# 2 -0.000721 0.009818 -0.001814 0.007103 -0.003005 0.001476
# 3 -0.004605 -0.001814 0.013481 0.005476 -0.010392 -0.011166
# 4 0.003945 0.007103 0.005476 0.034494 -0.008305 -0.000344
# 5 -0.007337 -0.003005 -0.010392 -0.008305 0.041798 -0.007609
# 6 0.007067 0.001476 -0.011166 -0.000344 -0.007609 0.021789
#
#
# Mechanical properties :
#
#
# Convention : Reuss Voigt Hill
#
# Bulk Modulus (GPa) = 39.98695 513.08223 276.53459
# Shear Modulus (GPa) = 31.25315 229.12679 130.18997
#
# Velocity S-wave (km/s) = 3.81475 10.32899 7.78589
# Velocity P-wave (km/s) = 6.16621 19.52322 14.47720
#
# Compressibility (1/GPa) = 0.02500816
#
# Stress axis : x y z
#
# Youngs Moduli (GPa) = 62.54286 101.85746 74.18033
#
# Poissons Ratio (x) = 0.07340 0.34164
# Poissons Ratio (y) = 0.04507 0.13453
# Poissons Ratio (z) = 0.28804 0.18472
#
# Static dielectric constant tensor:
#      x y z
#    x 1.872790 0.021960 -0.020560 
#    y 0.021960 1.720490 0.012530 
#    z -0.020560 0.012530 1.743640 
# 
# From -- ./inp_files/242267.got.cif
#   From: 2010.05.17/outbox.cif.g08.bks.cpg/sg2_122_cif.got.tgz:242267.got - 2010.06.03 11:33:40.
