data_PCOD9043057
_publ_section_title
;
Structure prediction by ZEFSAII (Michael W. Deem and Ramdas Pophale) SiO2 
 PCOD9043057
Probable space group: P -1
;
_chemical_formula_sum "Si O2"
_cell_formula_units_Z 14
_cell_length_a 6.432352
_cell_length_b 8.236581
_cell_length_c 14.694362
_cell_angle_alpha 72.331046
_cell_angle_beta 113.789685
_cell_angle_gamma 120.490403
_cell_volume 609.014609
_symmetry_space_group_name_H-M "P -1"
_symmetry_group_IT_number 2
_symmetry_cell_setting 'triclinic'
loop_
_space_group_symop_operation_xyz
x,y,z
-x,-y,-z
loop_
_atom_site_type_symbol
_atom_site_label
_atom_site_fract_x
_atom_site_fract_y
_atom_site_fract_z
Si Si1 0.283937 0.065766 0.504961
Si Si2 0.105045 0.532205 0.728230
Si Si3 0.435938 0.322416 0.812243
Si Si4 0.993471 0.620048 0.889698
Si Si5 0.367940 0.841620 0.275511
Si Si6 0.963152 0.981121 0.103749
Si Si7 0.244881 0.689671 0.541513
O O1 0.445314 0.084135 0.620747
O O2 0.464054 0.258217 0.446499
O O3 0.239083 0.879852 0.469738
O O4 0.000000 0.000000 0.500000
O O5 0.244258 0.407664 0.738940
O O6 0.199612 0.691746 0.641545
O O7 0.142203 0.601132 0.828656
O O8 0.815054 0.379633 0.696841
O O9 0.698761 0.505497 0.834058
O O10 0.471275 0.173304 0.778758
O O11 0.305463 0.202265 0.898754
O O12 0.050257 0.833307 0.889444
O O13 0.000000 0.500000 0.000000
O O14 0.186662 0.940008 0.197225
O O15 0.000000 0.000000 0.000000
O O16 0.000000 0.500000 0.500000
#
# Coordination Sequence:
#
# PCOD9043057 Si02
#       7
#     2   2   2   2   2   2   2
#     4  11  27  44  70 105 142 184 240 298 357 424
#     4  10  23  45  71 102 137 189 238 288 352 423
#     4  10  24  42  69  97 142 178 229 292 349 415
#     4  11  25  44  70 105 138 182 235 288 355 427
#     4  10  23  45  68 103 140 184 237 289 356 423
#     4  11  25  44  71 101 138 185 234 290 355 423
#     4  11  25  47  70 101 142 184 243 296 354 421
#
# _framework density 22.987954999999999
#
# number of rings (size 3 to 8) (size 9 to 14) (size 15 to 20)
#    0.000    1.429    1.429    2.571    6.000    8.571 
#    0.000    0.000    0.000    0.000    0.000    0.000 
#    0.000    0.000    0.000    0.000    0.000    0.000 
#
# Total GULP energy -77964.952297 kJ/mol
# GULP energy per Si atom -5568.925164 kJ/mol
# Density = 2.293563 g / cm^3
# Si number density = 22.987955 Si / 1000 Ang^3
#
#
#
# Elastic Constant Matrix: (Units=GPa)
#
#
# Indices 1 2 3 4 5 6 
#
# 1 106.6854 16.2384 23.8469 -7.6834 -8.3688 19.5433
# 2 16.2384 113.3670 12.4333 -7.0622 0.7781 11.7280
# 3 23.8469 12.4333 80.4829 -8.1392 -9.8728 21.9225
# 4 -7.6834 -7.0622 -8.1392 28.5078 9.5488 -4.0727
# 5 -8.3688 0.7781 -9.8728 9.5488 25.6164 -13.7481
# 6 19.5433 11.7280 21.9225 -4.0727 -13.7481 39.9183
#
#
#
# Elastic Compliance Matrix: (Units=1/GPa)
#
#
# Indices 1 2 3 4 5 6 
#
# 1 0.010732 -0.000852 -0.001841 0.001541 0.000232 -0.003755
# 2 -0.000852 0.009499 -0.000552 0.002669 -0.003361 -0.002955
# 3 -0.001841 -0.000552 0.015252 0.002514 0.000699 -0.006816
# 4 0.001541 0.002669 0.002514 0.041784 -0.016516 -0.004344
# 5 0.000232 -0.003361 0.000699 -0.016516 0.055204 0.017817
# 6 -0.003755 -0.002955 -0.006816 -0.004344 0.017817 0.037194
#
#
# Mechanical properties :
#
#
# Convention : Reuss Voigt Hill
#
# Bulk Modulus (GPa) = 34.49248 45.06359 39.77803
# Shear Modulus (GPa) = 26.90794 35.34294 31.12544
#
# Velocity S-wave (km/s) = 3.42500 3.92529 3.68365
# Velocity P-wave (km/s) = 5.53877 6.33953 5.95263
#
# Compressibility (1/GPa) = 0.02899183
#
# Stress axis : x y z
#
# Youngs Moduli (GPa) = 93.18158 105.27821 65.56442
#
# Poissons Ratio (x) = 0.08974 0.12069
# Poissons Ratio (y) = 0.07943 0.03620
# Poissons Ratio (z) = 0.17153 0.05813
#
# Static dielectric constant tensor:
#      x y z
#    x 2.217890 0.025110 0.116300 
#    y 0.025110 1.976150 0.016030 
#    z 0.116300 0.016030 2.050950 
# 
# From -- ./inp_files/480366.got.cif
#   From: 2010.05.17/outbox.cif.g08.bks.cpg/sg2_241_cif.got.tgz:480366.got - 2010.06.03 11:33:40.
