data_PCOD9043644
_publ_section_title
;
Structure prediction by ZEFSAII (Michael W. Deem and Ramdas Pophale) SiO2 
 PCOD9043644
Probable space group: P -1
;
_chemical_formula_sum "Si O2"
_cell_formula_units_Z 16
_cell_length_a 19.794739
_cell_length_b 5.520362
_cell_length_c 11.125292
_cell_angle_alpha 91.092685
_cell_angle_beta 149.244917
_cell_angle_gamma 90.187717
_cell_volume 621.102102
_symmetry_space_group_name_H-M "P -1"
_symmetry_group_IT_number 2
_symmetry_cell_setting 'triclinic'
loop_
_space_group_symop_operation_xyz
x,y,z
-x,-y,-z
loop_
_atom_site_type_symbol
_atom_site_label
_atom_site_fract_x
_atom_site_fract_y
_atom_site_fract_z
Si Si1 0.008523 0.035284 0.868168
Si Si2 0.243989 0.787474 0.496126
Si Si3 0.029696 0.198299 0.439604
Si Si4 0.318882 0.013551 0.287291
Si Si5 0.442371 0.229266 0.252276
Si Si6 0.222443 0.563287 0.868224
Si Si7 0.609157 0.118110 0.034584
Si Si8 0.345142 0.293001 0.548573
O O1 0.910946 0.258583 0.707787
O O2 0.161630 0.025570 0.063709
O O3 0.943877 0.877955 0.657650
O O4 0.000000 0.000000 0.000000
O O5 0.340473 0.852967 0.754471
O O6 0.280777 0.542062 0.484068
O O7 0.262792 0.044782 0.456301
O O8 0.154532 0.354145 0.680386
O O9 0.897542 0.355127 0.232710
O O10 0.000000 0.000000 0.500000
O O11 0.360882 0.045309 0.214596
O O12 0.370699 0.246134 0.446676
O O13 0.407113 0.798524 0.472873
O O14 0.354092 0.462938 0.127664
O O15 0.435328 0.130888 0.103354
O O16 0.268147 0.778731 0.853663
O O17 0.484264 0.284115 0.828060
#
# Coordination Sequence:
#
# PCOD9043644 Si02
#       8
#     2   2   2   2   2   2   2   2
#     4  12  25  44  72 103 151 199 247 309 373 454
#     4  12  27  48  73 106 151 199 245 302 380 447
#     4  11  25  47  69 107 149 188 249 308 381 446
#     4  10  23  48  70 103 150 194 247 307 372 449
#     4  10  23  45  73 106 142 190 250 305 378 440
#     4  11  23  41  77 107 135 192 245 318 370 443
#     4  11  25  42  75 107 143 184 250 315 370 441
#     4  11  27  48  73 108 148 199 245 304 372 452
#
# _framework density 25.760657999999999
#
# number of rings (size 3 to 8) (size 9 to 14) (size 15 to 20)
#    0.000    1.000    1.250    4.500    7.000    2.500 
#    2.250    3.750    0.000    0.000    0.000    0.000 
#    0.000    0.000    0.000    0.000    0.000    0.000 
#
# Total GULP energy -89324.497567 kJ/mol
# GULP energy per Si atom -5582.781098 kJ/mol
# Density = 2.570203 g / cm^3
# Si number density = 25.760658 Si / 1000 Ang^3
#
#
#
# Elastic Constant Matrix: (Units=GPa)
#
#
# Indices 1 2 3 4 5 6 
#
# 1 116.7622 45.9294 49.2822 -6.7795 -3.4581 -31.3048
# 2 45.9294 118.7003 40.8108 -15.2808 -2.6615 -24.0776
# 3 49.2822 40.8108 133.4523 -11.6132 18.6749 -21.9764
# 4 -6.7795 -15.2808 -11.6132 28.9305 -21.8861 16.9807
# 5 -3.4581 -2.6615 18.6749 -21.8861 62.4769 3.8841
# 6 -31.3048 -24.0776 -21.9764 16.9807 3.8841 41.5716
#
#
#
# Elastic Compliance Matrix: (Units=1/GPa)
#
#
# Indices 1 2 3 4 5 6 
#
# 1 0.012959 -0.003030 -0.002698 -0.005958 -0.001260 0.009129
# 2 -0.003030 0.011330 -0.002234 0.007061 0.003463 -0.000108
# 3 -0.002698 -0.002234 0.010195 -0.003796 -0.004875 0.004070
# 4 -0.005958 0.007061 -0.003796 0.083348 0.032759 -0.039510
# 5 -0.001260 0.003463 -0.004875 0.032759 0.030118 -0.017716
# 6 0.009129 -0.000108 0.004070 -0.039510 -0.017716 0.050812
#
#
# Mechanical properties :
#
#
# Convention : Reuss Voigt Hill
#
# Bulk Modulus (GPa) = 53.87904 71.21772 62.54838
# Shear Modulus (GPa) = 22.63751 42.12196 32.37974
#
# Velocity S-wave (km/s) = 2.96761 4.04806 3.54919
# Velocity P-wave (km/s) = 5.71865 7.03953 6.41319
#
# Compressibility (1/GPa) = 0.01856009
#
# Stress axis : x y z
#
# Youngs Moduli (GPa) = 77.16376 88.26346 98.09021
#
# Poissons Ratio (x) = 0.26748 0.26463
# Poissons Ratio (y) = 0.23384 0.21909
# Poissons Ratio (z) = 0.20818 0.19714
#
# Static dielectric constant tensor:
#      x y z
#    x 2.137590 0.066400 0.013080 
#    y 0.066400 2.047040 -0.010740 
#    z 0.013080 -0.010740 2.032400 
# 
# From -- ./inp_files/468412.got.cif
#   From: 2010.05.17/outbox.cif.g08.bks.cpg/sg2_235_cif.got.tgz:468412.got - 2010.06.03 11:33:40.
