data_PCOD9043350
_publ_section_title
;
Structure prediction by ZEFSAII (Michael W. Deem and Ramdas Pophale) SiO2 
 PCOD9043350
Probable space group: P -1
;
_chemical_formula_sum "Si O2"
_cell_formula_units_Z 16
_cell_length_a 11.623719
_cell_length_b 9.067466
_cell_length_c 16.838315
_cell_angle_alpha 117.291848
_cell_angle_beta 28.306905
_cell_angle_gamma 128.218726
_cell_volume 643.251443
_symmetry_space_group_name_H-M "P -1"
_symmetry_group_IT_number 2
_symmetry_cell_setting 'triclinic'
loop_
_space_group_symop_operation_xyz
x,y,z
-x,-y,-z
loop_
_atom_site_type_symbol
_atom_site_label
_atom_site_fract_x
_atom_site_fract_y
_atom_site_fract_z
Si Si1 0.444178 0.241638 0.127022
Si Si2 0.604209 0.053021 0.242903
Si Si3 0.158176 0.077436 0.699654
Si Si4 0.682988 0.697856 0.488872
Si Si5 0.763830 0.592441 0.581564
Si Si6 0.589777 0.960158 0.060940
Si Si7 0.130379 0.411441 0.961430
Si Si8 0.293502 0.771900 0.506228
O O1 0.213915 0.276481 0.323764
O O2 0.742569 0.437458 0.006017
O O3 0.434995 0.189535 0.027560
O O4 0.472992 0.086031 0.123790
O O5 0.495664 0.205186 0.350083
O O6 0.495793 0.917784 0.351208
O O7 0.483960 0.917831 0.204710
O O8 0.934293 0.204276 0.069193
O O9 0.106225 0.147420 0.664340
O O10 0.488190 0.206194 0.551983
O O11 0.931127 0.087155 0.894344
O O12 0.116843 0.865226 0.668322
O O13 0.500000 0.500000 0.500000
O O14 0.828379 0.684896 0.477640
O O15 0.420775 0.449832 0.755175
O O16 0.874517 0.443890 0.477530
O O17 0.000000 0.500000 0.000000
#
# Coordination Sequence:
#
# PCOD9043350 Si02
#       8
#     2   2   2   2   2   2   2   2
#     4   9  22  35  63  89 116 147 200 248 290 335
#     4  11  21  35  63  87 117 153 196 236 302 342
#     4  10  23  36  57  86 122 156 189 238 297 344
#     4  11  20  32  58  90 116 148 189 245 292 336
#     4  10  19  36  58  84 119 150 190 243 285 342
#     4  11  20  40  61  87 120 152 194 245 293 344
#     4  10  17  33  60  90 108 143 195 240 288 331
#     4  10  22  38  54  91 121 154 191 241 287 354
#
# _framework density 24.873631
#
# number of rings (size 3 to 8) (size 9 to 14) (size 15 to 20)
#    0.750    1.000    5.000    0.750    1.750    2.000 
#    0.000    1.875    0.000    0.000    0.000    0.000 
#    0.000    0.000    0.000    0.000    0.000    0.000 
#
# Total GULP energy -89271.020995 kJ/mol
# GULP energy per Si atom -5579.438812 kJ/mol
# Density = 2.481702 g / cm^3
# Si number density = 24.873631 Si / 1000 Ang^3
#
#
#
# Elastic Constant Matrix: (Units=GPa)
#
#
# Indices 1 2 3 4 5 6 
#
# 1 92.1017 27.7315 12.9856 0.1246 21.1087 13.5524
# 2 27.7315 91.0422 6.4815 25.3415 10.0064 2.2768
# 3 12.9856 6.4815 44.3809 18.2050 11.8427 -5.7753
# 4 0.1246 25.3415 18.2050 39.5263 3.5885 9.2780
# 5 21.1087 10.0064 11.8427 3.5885 38.5076 6.7486
# 6 13.5524 2.2768 -5.7753 9.2780 6.7486 43.8786
#
#
#
# Elastic Compliance Matrix: (Units=1/GPa)
#
#
# Indices 1 2 3 4 5 6 
#
# 1 0.015736 -0.006181 -0.007149 0.009194 -0.004498 -0.006733
# 2 -0.006181 0.016678 0.006914 -0.014911 -0.002649 0.005514
# 3 -0.007149 0.006914 0.037805 -0.024095 -0.009607 0.013397
# 4 0.009194 -0.014911 -0.024095 0.049361 0.004514 -0.016369
# 5 -0.004498 -0.002649 -0.009607 0.004514 0.032658 -0.005715
# 6 -0.006733 0.005514 0.013397 -0.016369 -0.005715 0.030687
#
#
# Mechanical properties :
#
#
# Convention : Reuss Voigt Hill
#
# Bulk Modulus (GPa) = 17.42551 35.76910 26.59731
# Shear Modulus (GPa) = 23.26827 36.40426 29.83626
#
# Velocity S-wave (km/s) = 3.06185 3.82981 3.46716
# Velocity P-wave (km/s) = 4.41822 5.82822 5.17150
#
# Compressibility (1/GPa) = 0.05738714
#
# Stress axis : x y z
#
# Youngs Moduli (GPa) = 63.55034 59.95860 26.45168
#
# Poissons Ratio (x) = 0.37058 0.18910
# Poissons Ratio (y) = 0.39278 -0.18288
# Poissons Ratio (z) = 0.45431 -0.41454
#
# Static dielectric constant tensor:
#      x y z
#    x 2.034660 0.107870 -0.044000 
#    y 0.107870 2.074770 -0.014910 
#    z -0.044000 -0.014910 2.001790 
# 
# From -- ./inp_files/566065.got.cif
#   From: 2010.05.17/outbox.cif.g08.bks.cpg/sg2_284_cif.got.tgz:566065.got - 2010.06.03 11:33:40.
