data_PCOD9043961
_publ_section_title
;
Structure prediction by ZEFSAII (Michael W. Deem and Ramdas Pophale) SiO2 
 PCOD9043961
Probable space group: P -1
;
_chemical_formula_sum "Si O2"
_cell_formula_units_Z 16
_cell_length_a 27.400640
_cell_length_b 6.451457
_cell_length_c 12.124905
_cell_angle_alpha 49.148785
_cell_angle_beta 29.350859
_cell_angle_gamma 48.862840
_cell_volume 772.106697
_symmetry_space_group_name_H-M "P -1"
_symmetry_group_IT_number 2
_symmetry_cell_setting 'triclinic'
loop_
_space_group_symop_operation_xyz
x,y,z
-x,-y,-z
loop_
_atom_site_type_symbol
_atom_site_label
_atom_site_fract_x
_atom_site_fract_y
_atom_site_fract_z
Si Si1 0.393294 0.820964 0.536806
Si Si2 0.917003 0.811514 0.229160
Si Si3 0.767541 0.101036 0.599448
Si Si4 0.197775 0.293503 0.716239
Si Si5 0.057912 0.180307 0.474770
Si Si6 0.532731 0.295743 0.334042
Si Si7 0.450818 0.767380 0.927358
Si Si8 0.066368 0.256602 0.186089
O O1 0.437789 0.550428 0.467465
O O2 0.391642 0.725752 0.701771
O O3 0.285559 0.008897 0.645029
O O4 0.472725 0.023906 0.302359
O O5 0.890127 0.735398 0.185846
O O6 0.969615 0.523691 0.288129
O O7 0.813018 0.968461 0.440079
O O8 0.000000 0.000000 0.000000
O O9 0.762123 0.434616 0.491403
O O10 0.853491 0.950307 0.569287
O O11 0.656327 0.071092 0.864124
O O12 0.150276 0.340638 0.914947
O O13 0.102964 0.166764 0.267406
O O14 0.000000 0.500000 0.500000
O O15 0.973893 0.994127 0.703500
O O16 0.567264 0.329996 0.128644
O O17 0.500000 0.000000 0.500000
O O18 0.500000 0.500000 0.000000
#
# Coordination Sequence:
#
# PCOD9043961 Si02
#       8
#     2   2   2   2   2   2   2   2
#     4  10  23  46  67  98 130 179 224 270 333 393
#     4  12  24  42  68  97 133 172 220 280 331 395
#     4  12  25  43  67 100 134 177 224 268 347 388
#     4  12  25  41  72  95 129 177 228 270 332 402
#     4  11  24  45  64  93 136 174 213 278 332 398
#     4   9  22  46  67  88 136 172 219 277 323 384
#     4  11  24  42  68 100 140 171 217 284 330 396
#     4  11  24  43  65  95 130 170 221 271 330 395
#
# _framework density 20.722522999999999
#
# number of rings (size 3 to 8) (size 9 to 14) (size 15 to 20)
#    0.000    1.000    5.000    1.125    3.500    1.500 
#    6.750    0.000    0.000    0.000    0.000    0.000 
#    0.000    0.000    0.000    0.000    0.000    0.000 
#
# Total GULP energy -89431.536050 kJ/mol
# GULP energy per Si atom -5589.471003 kJ/mol
# Density = 2.067536 g / cm^3
# Si number density = 20.722523 Si / 1000 Ang^3
#
#
#
# Elastic Constant Matrix: (Units=GPa)
#
#
# Indices 1 2 3 4 5 6 
#
# 1 48.2429 11.6114 27.4077 -0.0766 20.1957 -14.5062
# 2 11.6114 115.9851 -0.8209 4.9283 3.8466 -12.4232
# 3 27.4077 -0.8209 63.8032 7.7004 17.7956 -0.5834
# 4 -0.0766 4.9283 7.7004 31.5302 0.5408 1.0218
# 5 20.1957 3.8466 17.7956 0.5408 26.6000 -3.8702
# 6 -14.5062 -12.4232 -0.5834 1.0218 -3.8702 33.0254
#
#
#
# Elastic Compliance Matrix: (Units=1/GPa)
#
#
# Indices 1 2 3 4 5 6 
#
# 1 0.041278 -0.002107 -0.012221 0.003299 -0.020805 0.014582
# 2 -0.002107 0.009205 0.001327 -0.001849 -0.000204 0.002594
# 3 -0.012221 0.001327 0.023635 -0.005717 -0.007356 -0.005136
# 4 0.003299 -0.001849 -0.005717 0.033403 0.000868 -0.000279
# 5 -0.020805 -0.000204 -0.007356 0.000868 0.057947 -0.002581
# 6 0.014582 0.002594 -0.005136 -0.000279 -0.002581 0.037276
#
#
# Mechanical properties :
#
#
# Convention : Reuss Voigt Hill
#
# Bulk Modulus (GPa) = 20.78271 33.82527 27.30399
# Shear Modulus (GPa) = 20.42618 30.88665 25.65641
#
# Velocity S-wave (km/s) = 3.14299 3.86487 3.52247
# Velocity P-wave (km/s) = 4.81892 6.02285 5.45420
#
# Compressibility (1/GPa) = 0.04811693
#
# Stress axis : x y z
#
# Youngs Moduli (GPa) = 24.22613 108.63299 42.31074
#
# Poissons Ratio (x) = 0.22890 0.51707
# Poissons Ratio (y) = 0.05105 -0.05617
# Poissons Ratio (z) = 0.29606 -0.14420
#
# Static dielectric constant tensor:
#      x y z
#    x 1.744780 0.013800 0.023330 
#    y 0.013800 1.733060 -0.002480 
#    z 0.023330 -0.002480 1.758860 
# 
# From -- ./inp_files/38095.got.cif
#   From: 2010.05.17/outbox.cif.g08.bks.cpg/sg2_20_cif.got.tgz:38095.got - 2010.06.03 11:33:40.
