data_PCOD9043574
_publ_section_title
;
Structure prediction by ZEFSAII (Michael W. Deem and Ramdas Pophale) SiO2 
 PCOD9043574
Probable space group: P -1
;
_chemical_formula_sum "Si O2"
_cell_formula_units_Z 14
_cell_length_a 5.602770
_cell_length_b 9.655834
_cell_length_c 14.698792
_cell_angle_alpha 43.931532
_cell_angle_beta 95.109465
_cell_angle_gamma 95.420550
_cell_volume 548.983925
_symmetry_space_group_name_H-M "P -1"
_symmetry_group_IT_number 2
_symmetry_cell_setting 'triclinic'
loop_
_space_group_symop_operation_xyz
x,y,z
-x,-y,-z
loop_
_atom_site_type_symbol
_atom_site_label
_atom_site_fract_x
_atom_site_fract_y
_atom_site_fract_z
Si Si1 0.749052 0.323760 0.121089
Si Si2 0.601825 0.649715 0.072115
Si Si3 0.704002 0.534244 0.720506
Si Si4 0.385687 0.094125 0.360806
Si Si5 0.965257 0.043959 0.722783
Si Si6 0.786088 0.083227 0.897334
Si Si7 0.241035 0.400844 0.516752
O O1 0.801689 0.529653 0.080942
O O2 0.572308 0.190892 0.246727
O O3 0.612685 0.371014 0.999835
O O4 0.962058 0.183446 0.169431
O O5 0.565367 0.521404 0.224255
O O6 0.610096 0.884144 0.985463
O O7 0.772030 0.722442 0.696944
O O8 0.779794 0.306372 0.830634
O O9 0.758603 0.607569 0.587389
O O10 0.500000 0.000000 0.500000
O O11 0.214492 0.933535 0.378257
O O12 0.839413 0.103536 0.782683
O O13 0.207894 0.178773 0.659695
O O14 0.000000 0.000000 0.000000
O O15 0.500000 0.500000 0.500000
O O16 0.000000 0.500000 0.500000
#
# Coordination Sequence:
#
# PCOD9043574 Si02
#       7
#     2   2   2   2   2   2   2
#     4  10  23  45  73 108 150 201 254 329 389 472
#     4  10  23  45  72 107 156 198 259 321 394 469
#     4  11  26  46  75 109 154 202 263 326 392 471
#     4  11  26  49  77 112 150 203 272 329 394 469
#     4  12  27  48  79 107 157 208 262 329 403 470
#     4  12  26  43  73 115 152 203 259 318 401 480
#     4  12  30  51  80 115 159 207 264 332 407 474
#
# _framework density 25.501660999999999
#
# number of rings (size 3 to 8) (size 9 to 14) (size 15 to 20)
#    0.000    0.857    2.857    2.143   10.000    2.857 
#    0.000    0.000    0.000    0.000    0.000    0.000 
#    0.000    0.000    0.000    0.000    0.000    0.000 
#
# Total GULP energy -78127.798601 kJ/mol
# GULP energy per Si atom -5580.557043 kJ/mol
# Density = 2.544362 g / cm^3
# Si number density = 25.501661 Si / 1000 Ang^3
#
#
#
# Elastic Constant Matrix: (Units=GPa)
#
#
# Indices 1 2 3 4 5 6 
#
# 1 62.1073 34.8595 20.5171 6.7302 -6.0604 6.3614
# 2 34.8595 166.5235 8.5525 -12.3976 8.1358 -8.8468
# 3 20.5171 8.5525 85.3513 8.6869 -22.9276 2.2245
# 4 6.7302 -12.3976 8.6869 45.3444 -6.1628 8.7889
# 5 -6.0604 8.1358 -22.9276 -6.1628 52.7611 -10.8304
# 6 6.3614 -8.8468 2.2245 8.7889 -10.8304 36.0252
#
#
#
# Elastic Compliance Matrix: (Units=1/GPa)
#
#
# Indices 1 2 3 4 5 6 
#
# 1 0.020709 -0.004542 -0.004088 -0.002772 0.000203 -0.003783
# 2 -0.004542 0.007278 -0.000209 0.002218 -0.001122 0.001724
# 3 -0.004088 -0.000209 0.014478 -0.001795 0.006063 0.002037
# 4 -0.002772 0.002218 -0.001795 0.024381 0.000449 -0.004668
# 5 0.000203 -0.001122 0.006063 0.000449 0.023099 0.006149
# 6 -0.003783 0.001724 0.002037 -0.004668 0.006149 0.031711
#
#
# Mechanical properties :
#
#
# Convention : Reuss Voigt Hill
#
# Bulk Modulus (GPa) = 40.34559 49.09338 44.71949
# Shear Modulus (GPa) = 33.87590 43.49633 38.68611
#
# Velocity S-wave (km/s) = 3.64865 4.13440 3.89910
# Velocity P-wave (km/s) = 5.79701 6.48721 6.15180
#
# Compressibility (1/GPa) = 0.02478586
#
# Stress axis : x y z
#
# Youngs Moduli (GPa) = 48.28902 137.39440 69.06965
#
# Poissons Ratio (x) = 0.62409 0.28234
# Poissons Ratio (y) = 0.21935 0.01447
# Poissons Ratio (z) = 0.19739 0.02878
#
# Static dielectric constant tensor:
#      x y z
#    x 2.128390 0.057960 -0.041970 
#    y 0.057960 2.484070 -0.087570 
#    z -0.041970 -0.087570 2.038220 
# 
# From -- ./inp_files/77751.got.cif
#   From: 2010.05.17/outbox.cif.g08.bks.cpg/sg2_39_cif.got.tgz:77751.got - 2010.06.03 11:33:40.
