data_PCOD9043060
_publ_section_title
;
Structure prediction by ZEFSAII (Michael W. Deem and Ramdas Pophale) SiO2 
 PCOD9043060
Probable space group: P -1
;
_chemical_formula_sum "Si O2"
_cell_formula_units_Z 16
_cell_length_a 15.490027
_cell_length_b 15.334713
_cell_length_c 8.274885
_cell_angle_alpha 44.190202
_cell_angle_beta 43.809781
_cell_angle_gamma 28.376723
_cell_volume 626.239167
_symmetry_space_group_name_H-M "P -1"
_symmetry_group_IT_number 2
_symmetry_cell_setting 'triclinic'
loop_
_space_group_symop_operation_xyz
x,y,z
-x,-y,-z
loop_
_atom_site_type_symbol
_atom_site_label
_atom_site_fract_x
_atom_site_fract_y
_atom_site_fract_z
Si Si1 0.140971 0.080403 0.091913
Si Si2 0.749830 0.904806 0.422276
Si Si3 0.450142 0.681757 0.347492
Si Si4 0.144955 0.870164 0.743528
Si Si5 0.879815 0.263130 0.718007
Si Si6 0.391095 0.327589 0.407882
Si Si7 0.275521 0.359401 0.158124
Si Si8 0.095932 0.362501 0.899983
O O1 0.287361 0.858829 0.215643
O O2 0.211830 0.099083 0.812270
O O3 0.937468 0.174640 0.204453
O O4 0.141723 0.181378 0.099295
O O5 0.606593 0.121108 0.382460
O O6 0.951611 0.769297 0.416205
O O7 0.666519 0.830110 0.662335
O O8 0.500000 0.500000 0.500000
O O9 0.341135 0.772916 0.542470
O O10 0.623490 0.640243 0.122085
O O11 0.980942 0.097951 0.672071
O O12 0.160887 0.794953 0.996372
O O13 0.691857 0.484081 0.648786
O O14 0.323261 0.382621 0.236952
O O15 0.278340 0.301434 0.682696
O O16 0.055535 0.523099 0.193695
O O17 0.000000 0.500000 0.000000
#
# Coordination Sequence:
#
# PCOD9043060 Si02
#       8
#     2   2   2   2   2   2   2   2
#     4  11  23  46  72  99 140 185 246 287 352 433
#     4  11  22  43  75 111 134 187 242 304 348 423
#     4  12  25  42  67 101 139 186 241 290 348 425
#     4  10  24  45  68  96 141 192 232 288 353 420
#     4  10  23  45  68 103 143 182 239 295 350 422
#     4  12  22  43  74 104 142 185 237 289 364 427
#     4  12  23  45  73 105 144 184 244 295 359 429
#     4  12  27  43  71 110 143 183 230 302 375 419
#
# _framework density 25.549341999999999
#
# number of rings (size 3 to 8) (size 9 to 14) (size 15 to 20)
#    0.000    0.750    3.750    4.875    1.750    1.000 
#    2.250    3.750    0.000    0.000    0.000    0.000 
#    0.000    0.000    0.000    0.000    0.000    0.000 
#
# Total GULP energy -89664.568378 kJ/mol
# GULP energy per Si atom -5604.035524 kJ/mol
# Density = 2.549119 g / cm^3
# Si number density = 25.549342 Si / 1000 Ang^3
#
#
#
# Elastic Constant Matrix: (Units=GPa)
#
#
# Indices 1 2 3 4 5 6 
#
# 1 42.9046 32.6691 21.1988 -1.0128 -5.7248 9.7425
# 2 32.6691 198.6881 57.7943 -13.1972 -5.2196 14.3195
# 3 21.1988 57.7943 148.6008 0.3324 -22.3801 18.3504
# 4 -1.0128 -13.1972 0.3324 53.8765 -0.0630 0.3516
# 5 -5.7248 -5.2196 -22.3801 -0.0630 16.8139 -5.4208
# 6 9.7425 14.3195 18.3504 0.3516 -5.4208 46.2145
#
#
#
# Elastic Compliance Matrix: (Units=1/GPa)
#
#
# Indices 1 2 3 4 5 6 
#
# 1 0.028487 -0.003943 -0.001228 -0.000392 0.005670 -0.003628
# 2 -0.003943 0.006409 -0.002242 0.001510 -0.002515 -0.000571
# 3 -0.001228 -0.002242 0.009664 -0.000608 0.011244 -0.001560
# 4 -0.000392 0.001510 -0.000608 0.018929 -0.000516 -0.000348
# 5 0.005670 -0.002515 0.011244 -0.000516 0.076926 0.004146
# 6 -0.003628 -0.000571 -0.001560 -0.000348 0.004146 0.023689
#
#
# Mechanical properties :
#
#
# Convention : Reuss Voigt Hill
#
# Bulk Modulus (GPa) = 33.62917 68.16866 50.89892
# Shear Modulus (GPa) = 26.47759 41.94972 34.21365
#
# Velocity S-wave (km/s) = 3.22270 4.05644 3.66337
# Velocity P-wave (km/s) = 5.19988 6.97702 6.15295
#
# Compressibility (1/GPa) = 0.02973608
#
# Stress axis : x y z
#
# Youngs Moduli (GPa) = 35.10338 156.03711 103.47810
#
# Poissons Ratio (x) = 0.61518 0.12703
# Poissons Ratio (y) = 0.13840 0.23197
# Poissons Ratio (z) = 0.04309 0.34980
#
# Static dielectric constant tensor:
#      x y z
#    x 2.060400 0.028090 0.014070 
#    y 0.028090 2.000220 -0.042890 
#    z 0.014070 -0.042890 1.999660 
# 
# From -- ./inp_files/335627.got.cif
#   From: 2010.05.17/outbox.cif.g08.bks.cpg/sg2_168_cif.got.tgz:335627.got - 2010.06.03 11:33:40.
