data_PCOD9043862
_publ_section_title
;
Structure prediction by ZEFSAII (Michael W. Deem and Ramdas Pophale) SiO2 
 PCOD9043862
Probable space group: P -1
;
_chemical_formula_sum "Si O2"
_cell_formula_units_Z 16
_cell_length_a 16.537931
_cell_length_b 9.145910
_cell_length_c 6.807779
_cell_angle_alpha 51.303328
_cell_angle_beta 118.992219
_cell_angle_gamma 124.902232
_cell_volume 646.001897
_symmetry_space_group_name_H-M "P -1"
_symmetry_group_IT_number 2
_symmetry_cell_setting 'triclinic'
loop_
_space_group_symop_operation_xyz
x,y,z
-x,-y,-z
loop_
_atom_site_type_symbol
_atom_site_label
_atom_site_fract_x
_atom_site_fract_y
_atom_site_fract_z
Si Si1 0.106648 0.974677 0.480813
Si Si2 0.354181 0.603763 0.251152
Si Si3 0.559866 0.109275 0.211616
Si Si4 0.102166 0.297921 0.525771
Si Si5 0.651428 0.913045 0.939596
Si Si6 0.324489 0.162957 0.500724
Si Si7 0.327855 0.481181 0.768219
Si Si8 0.826814 0.292289 0.924801
O O1 0.998478 0.852549 0.359756
O O2 0.109081 0.166223 0.453627
O O3 0.206520 0.053067 0.402625
O O4 0.118607 0.813301 0.785511
O O5 0.355454 0.403017 0.318768
O O6 0.368081 0.567511 0.526198
O O7 0.248359 0.632477 0.100588
O O8 0.434974 0.802794 0.079194
O O9 0.634215 0.322033 0.218462
O O10 0.609910 0.947014 0.424990
O O11 0.450567 0.052869 0.219569
O O12 0.206903 0.368303 0.705494
O O13 0.101115 0.511560 0.272659
O O14 0.669534 0.875339 0.224093
O O15 0.638317 0.704000 0.994608
O O16 0.749484 0.115859 0.842150
#
# Coordination Sequence:
#
# PCOD9043862 Si02
#       8
#     2   2   2   2   2   2   2   2
#     4  10  17  33  62  87 115 161 200 243 305 358
#     4  10  21  40  61  82 126 161 197 247 302 353
#     4  12  23  40  64  85 126 168 193 255 309 339
#     4  10  19  34  58  89 118 158 200 247 302 358
#     4  10  20  39  61  85 126 161 199 250 297 359
#     4  10  20  38  58  92 119 154 213 247 289 374
#     4  10  22  42  59  92 123 155 211 252 290 369
#     4  10  17  35  59  87 120 152 199 247 291 359
#
# _framework density 24.767728000000002
#
# number of rings (size 3 to 8) (size 9 to 14) (size 15 to 20)
#    0.000    1.750    7.500    1.125    0.000    2.000 
#    6.750    3.125    0.000    0.750    0.000    0.000 
#    0.000    0.000    0.000    0.000    0.000    0.000 
#
# Total GULP energy -89559.558558 kJ/mol
# GULP energy per Si atom -5597.472410 kJ/mol
# Density = 2.471136 g / cm^3
# Si number density = 24.767728 Si / 1000 Ang^3
#
#
#
# Elastic Constant Matrix: (Units=GPa)
#
#
# Indices 1 2 3 4 5 6 
#
# 1 72.7895 41.2970 19.5646 -6.1765 8.6831 9.7811
# 2 41.2970 112.4282 35.1005 -26.0968 14.6730 9.4665
# 3 19.5646 35.1005 98.4649 -39.2709 6.5939 -6.0215
# 4 -6.1765 -26.0968 -39.2709 43.0987 -8.0635 3.2870
# 5 8.6831 14.6730 6.5939 -8.0635 21.1995 -7.5305
# 6 9.7811 9.4665 -6.0215 3.2870 -7.5305 53.5899
#
#
#
# Elastic Compliance Matrix: (Units=1/GPa)
#
#
# Indices 1 2 3 4 5 6 
#
# 1 0.018677 -0.005942 -0.003300 -0.004701 -0.005438 -0.003206
# 2 -0.005942 0.013678 -0.001340 0.005380 -0.005488 -0.002583
# 3 -0.003300 -0.001340 0.017083 0.014740 0.003400 0.002332
# 4 -0.004701 0.005380 0.014740 0.040932 0.009315 0.000362
# 5 -0.005438 -0.005488 0.003400 0.009315 0.059270 0.010101
# 6 -0.003206 -0.002583 0.002332 0.000362 0.010101 0.021361
#
#
# Mechanical properties :
#
#
# Convention : Reuss Voigt Hill
#
# Bulk Modulus (GPa) = 35.36726 52.84520 44.10623
# Shear Modulus (GPa) = 24.80306 36.09231 30.44769
#
# Velocity S-wave (km/s) = 3.16797 3.82151 3.50998
# Velocity P-wave (km/s) = 5.26231 6.39176 5.85434
#
# Compressibility (1/GPa) = 0.02827474
#
# Stress axis : x y z
#
# Youngs Moduli (GPa) = 53.54273 73.11022 58.53863
#
# Poissons Ratio (x) = 0.43440 0.19315
# Poissons Ratio (y) = 0.31813 0.07845
# Poissons Ratio (z) = 0.17667 0.09798
#
# Static dielectric constant tensor:
#      x y z
#    x 1.985190 -0.030140 -0.039470 
#    y -0.030140 2.014400 0.080750 
#    z -0.039470 0.080750 2.002040 
# 
# From -- ./inp_files/200629.got.cif
#   From: 2010.05.17/outbox.cif.g08.bks.cpg/sg2_101_cif.got.tgz:200629.got - 2010.06.03 11:33:40.
