data_PCOD9044591
_publ_section_title
;
Structure prediction by ZEFSAII (Michael W. Deem and Ramdas Pophale) SiO2 
 PCOD9044591
Probable space group: P -1
;
_chemical_formula_sum "Si O2"
_cell_formula_units_Z 13
_cell_length_a 6.966073
_cell_length_b 8.540548
_cell_length_c 11.158003
_cell_angle_alpha 67.611248
_cell_angle_beta 73.714575
_cell_angle_gamma 59.761348
_cell_volume 527.007537
_symmetry_space_group_name_H-M "P -1"
_symmetry_group_IT_number 2
_symmetry_cell_setting 'triclinic'
loop_
_space_group_symop_operation_xyz
x,y,z
-x,-y,-z
loop_
_atom_site_type_symbol
_atom_site_label
_atom_site_fract_x
_atom_site_fract_y
_atom_site_fract_z
Si Si1 0.500000 0.500000 0.500000
Si Si2 0.869104 0.291868 0.030315
Si Si3 0.186482 0.015964 0.725990
Si Si4 0.345564 0.158957 0.885510
Si Si5 0.457661 0.602903 0.141872
Si Si6 0.610082 0.715365 0.614807
Si Si7 0.979326 0.200526 0.489151
O O1 0.608677 0.633022 0.508171
O O2 0.742673 0.358607 0.444693
O O3 0.680878 0.490196 0.055887
O O4 0.901063 0.130250 0.167216
O O5 0.745313 0.258576 0.945569
O O6 0.103438 0.278207 0.953698
O O7 0.293962 0.076166 0.799154
O O8 0.996048 0.184422 0.636419
O O9 0.387135 0.903792 0.630890
O O10 0.474634 0.286420 0.802783
O O11 0.500000 0.000000 0.000000
O O12 0.394407 0.446401 0.250804
O O13 0.822085 0.750817 0.596986
O O14 0.000000 0.000000 0.500000
#
# Coordination Sequence:
#
# PCOD9044591 Si02
#       7
#     1   2   2   2   2   2   2
#     4  12  28  50  76 114 150 198 260 308 394 444
#     4  10  23  47  68 106 149 192 252 307 370 455
#     4  11  25  48  74 108 151 195 259 311 378 454
#     4  12  25  42  73 110 149 199 248 306 380 451
#     4  10  24  46  72 105 149 197 250 310 376 456
#     4  11  27  49  75 110 151 203 252 317 388 449
#     4  12  28  53  79 109 152 201 260 323 375 455
#
# _framework density 24.667580000000001
#
# number of rings (size 3 to 8) (size 9 to 14) (size 15 to 20)
#    0.000    0.923    3.077    1.846    4.308    2.462 
#    0.000    0.000    0.000    0.000    0.000    0.000 
#    0.000    0.000    0.000    0.000    0.000    0.000 
#
# Total GULP energy -72603.816510 kJ/mol
# GULP energy per Si atom -5584.908962 kJ/mol
# Density = 2.461144 g / cm^3
# Si number density = 24.667580 Si / 1000 Ang^3
#
#
#
# Elastic Constant Matrix: (Units=GPa)
#
#
# Indices 1 2 3 4 5 6 
#
# 1 167.6721 51.2027 27.9007 4.6299 -29.4735 20.4494
# 2 51.2027 77.1503 13.1964 16.1695 -19.8404 5.8121
# 3 27.9007 13.1964 62.4991 -8.6673 -1.3984 0.5842
# 4 4.6299 16.1695 -8.6673 36.5347 2.2624 8.2586
# 5 -29.4735 -19.8404 -1.3984 2.2624 48.0741 4.6223
# 6 20.4494 5.8121 0.5842 8.2586 4.6223 50.1251
#
#
#
# Elastic Compliance Matrix: (Units=1/GPa)
#
#
# Indices 1 2 3 4 5 6 
#
# 1 0.008830 -0.004243 -0.002836 0.000646 0.003890 -0.003542
# 2 -0.004243 0.019857 -0.003497 -0.009558 0.005894 0.000501
# 3 -0.002836 -0.003497 0.018824 0.006432 -0.002991 0.000559
# 4 0.000646 -0.009558 0.006432 0.034337 -0.004548 -0.004468
# 5 0.003890 0.005894 -0.002991 -0.004548 0.026120 -0.003895
# 6 -0.003542 0.000501 0.000559 -0.004468 -0.003895 0.022426
#
#
# Mechanical properties :
#
#
# Convention : Reuss Voigt Hill
#
# Bulk Modulus (GPa) = 37.93762 54.65789 46.29776
# Shear Modulus (GPa) = 31.18516 41.28157 36.23337
#
# Velocity S-wave (km/s) = 3.55944 4.09530 3.83674
# Velocity P-wave (km/s) = 5.68381 6.67592 6.19974
#
# Compressibility (1/GPa) = 0.02635906
#
# Stress axis : x y z
#
# Youngs Moduli (GPa) = 113.25530 50.35982 53.12245
#
# Poissons Ratio (x) = 0.21368 0.15066
# Poissons Ratio (y) = 0.48055 0.18576
# Poissons Ratio (z) = 0.32120 0.17610
#
# Static dielectric constant tensor:
#      x y z
#    x 1.946110 0.004160 0.086770 
#    y 0.004160 1.949430 -0.020440 
#    z 0.086770 -0.020440 2.071090 
# 
# From -- ./inp_files/24598.got.cif
#   From: 2010.05.17/outbox.cif.g08.bks.cpg/sg2_13_cif.got.tgz:24598.got - 2010.06.03 11:33:40.
