data_PCOD9044296
_publ_section_title
;
Structure prediction by ZEFSAII (Michael W. Deem and Ramdas Pophale) SiO2 
 PCOD9044296
Probable space group: P -1
;
_chemical_formula_sum "Si O2"
_cell_formula_units_Z 16
_cell_length_a 11.841612
_cell_length_b 8.779048
_cell_length_c 14.130339
_cell_angle_alpha 113.476662
_cell_angle_beta 73.637986
_cell_angle_gamma 150.579718
_cell_volume 654.855169
_symmetry_space_group_name_H-M "P -1"
_symmetry_group_IT_number 2
_symmetry_cell_setting 'triclinic'
loop_
_space_group_symop_operation_xyz
x,y,z
-x,-y,-z
loop_
_atom_site_type_symbol
_atom_site_label
_atom_site_fract_x
_atom_site_fract_y
_atom_site_fract_z
Si Si1 0.837854 0.194052 0.207426
Si Si2 0.211589 0.136825 0.455622
Si Si3 0.460259 0.761654 0.344833
Si Si4 0.776684 0.867895 0.773416
Si Si5 0.499781 0.145546 0.958301
Si Si6 0.876897 0.854147 0.094830
Si Si7 0.336128 0.961074 0.427721
Si Si8 0.317522 0.914083 0.222927
O O1 0.058872 0.580325 0.240902
O O2 0.677593 0.060574 0.298787
O O3 0.729317 0.079412 0.098835
O O4 0.875804 0.043045 0.175450
O O5 0.500000 0.500000 0.500000
O O6 0.183074 0.096075 0.339331
O O7 0.154858 0.890197 0.455756
O O8 0.000000 0.000000 0.500000
O O9 0.375187 0.480454 0.258320
O O10 0.280646 0.697515 0.369323
O O11 0.523633 0.838066 0.459478
O O12 0.671631 0.925714 0.816670
O O13 0.993548 0.105695 0.849759
O O14 0.632050 0.205472 0.858706
O O15 0.629835 0.468630 0.039870
O O16 0.500000 0.000000 0.000000
O O17 0.000000 0.000000 0.000000
O O18 0.462075 0.136107 0.338034
#
# Coordination Sequence:
#
# PCOD9044296 Si02
#       8
#     2   2   2   2   2   2   2   2
#     4  12  26  46  74 104 147 193 247 321 378 465
#     4  11  25  49  75 111 156 202 256 315 391 470
#     4  11  23  45  76 107 150 188 257 300 398 445
#     4  11  26  46  75 105 148 195 248 316 371 465
#     4  12  27  47  72 104 141 193 252 308 379 454
#     4  12  26  46  72 105 147 192 249 313 389 442
#     4  10  23  46  72 109 148 201 236 324 370 477
#     4  11  25  48  69 103 145 186 252 300 381 450
#
# _framework density 24.432881999999999
#
# number of rings (size 3 to 8) (size 9 to 14) (size 15 to 20)
#    0.000    0.750    3.750    2.625    5.250    3.500 
#    2.250    0.000    0.000    0.000    0.000    0.000 
#    0.000    0.000    0.000    0.000    0.000    0.000 
#
# Total GULP energy -89193.739090 kJ/mol
# GULP energy per Si atom -5574.608693 kJ/mol
# Density = 2.437727 g / cm^3
# Si number density = 24.432882 Si / 1000 Ang^3
#
#
#
# Elastic Constant Matrix: (Units=GPa)
#
#
# Indices 1 2 3 4 5 6 
#
# 1 172.7552 16.4446 33.8657 1.3376 -7.9210 -16.5618
# 2 16.4446 74.0851 28.2153 4.3977 -11.9803 -3.1818
# 3 33.8657 28.2153 101.6953 13.6866 20.9827 10.5272
# 4 1.3376 4.3977 13.6866 33.3702 -14.5588 -6.9460
# 5 -7.9210 -11.9803 20.9827 -14.5588 63.5489 1.6141
# 6 -16.5618 -3.1818 10.5272 -6.9460 1.6141 27.7001
#
#
#
# Elastic Compliance Matrix: (Units=1/GPa)
#
#
# Indices 1 2 3 4 5 6 
#
# 1 0.007498 0.000799 -0.004849 0.004677 0.003571 0.007383
# 2 0.000799 0.017455 -0.007959 0.005363 0.007083 0.006440
# 3 -0.004849 -0.007959 0.019507 -0.014772 -0.011568 -0.014257
# 4 0.004677 0.005363 -0.014772 0.046486 0.016620 0.019715
# 5 0.003571 0.007083 -0.011568 0.016620 0.024888 0.010062
# 6 0.007383 0.006440 -0.014257 0.019715 0.010062 0.051030
#
#
# Mechanical properties :
#
#
# Convention : Reuss Voigt Hill
#
# Bulk Modulus (GPa) = 48.91674 56.17632 52.54653
# Shear Modulus (GPa) = 25.29119 42.92452 34.10786
#
# Velocity S-wave (km/s) = 3.22083 4.19601 3.74034
# Velocity P-wave (km/s) = 5.82203 6.82036 6.34087
#
# Compressibility (1/GPa) = 0.02044290
#
# Stress axis : x y z
#
# Youngs Moduli (GPa) = 133.36286 57.28876 51.26350
#
# Poissons Ratio (x) = -0.04579 0.24859
# Poissons Ratio (y) = -0.10659 0.40800
# Poissons Ratio (z) = 0.64671 0.45596
#
# Static dielectric constant tensor:
#      x y z
#    x 2.013470 -0.001230 -0.005290 
#    y -0.001230 1.989960 0.029410 
#    z -0.005290 0.029410 2.005390 
# 
# From -- ./inp_files/78059.got.cif
#   From: 2010.05.17/outbox.cif.g08.bks.cpg/sg2_40_cif.got.tgz:78059.got - 2010.06.03 11:33:40.
