data_PCOD9044418
_publ_section_title
;
Structure prediction by ZEFSAII (Michael W. Deem and Ramdas Pophale) SiO2 
 PCOD9044418
Probable space group: P -1
;
_chemical_formula_sum "Si O2"
_cell_formula_units_Z 14
_cell_length_a 8.037557
_cell_length_b 18.784924
_cell_length_c 10.186870
_cell_angle_alpha 34.185714
_cell_angle_beta 106.351224
_cell_angle_gamma 130.742337
_cell_volume 520.386047
_symmetry_space_group_name_H-M "P -1"
_symmetry_group_IT_number 2
_symmetry_cell_setting 'triclinic'
loop_
_space_group_symop_operation_xyz
x,y,z
-x,-y,-z
loop_
_atom_site_type_symbol
_atom_site_label
_atom_site_fract_x
_atom_site_fract_y
_atom_site_fract_z
Si Si1 0.804423 0.293320 0.196406
Si Si2 0.985233 0.973801 0.699524
Si Si3 0.815102 0.569054 0.130545
Si Si4 0.348353 0.957560 0.808736
Si Si5 0.214019 0.263713 0.525605
Si Si6 0.559946 0.252768 0.733400
Si Si7 0.369168 0.590642 0.212512
O O1 0.572421 0.099020 0.528560
O O2 0.665506 0.300877 0.043510
O O3 0.000000 0.500000 0.000000
O O4 0.025705 0.329915 0.122124
O O5 0.258874 0.049041 0.686516
O O6 0.693957 0.744539 0.025826
O O7 0.000000 0.000000 0.500000
O O8 0.006816 0.103134 0.610453
O O9 0.516890 0.462829 0.223741
O O10 0.749010 0.389370 0.440465
O O11 0.047847 0.746191 0.012145
O O12 0.454729 0.903778 0.004333
O O13 0.286193 0.179417 0.756423
O O14 0.182358 0.369362 0.450777
O O15 0.677882 0.395003 0.669827
#
# Coordination Sequence:
#
# PCOD9044418 Si02
#       7
#     2   2   2   2   2   2   2
#     4  12  27  45  71 110 146 198 254 307 372 443
#     4  12  26  47  72 113 152 197 250 305 382 444
#     4  10  23  46  74 107 149 189 248 305 372 443
#     4  12  23  46  77 110 150 194 251 313 373 451
#     4  10  26  48  74 109 151 199 250 308 375 447
#     4  10  25  47  78 112 146 204 246 310 381 440
#     4  12  25  46  76 106 153 201 247 313 373 448
#
# _framework density 26.903105
#
# number of rings (size 3 to 8) (size 9 to 14) (size 15 to 20)
#    0.857    0.000    4.286    2.143    0.000    4.000 
#    0.000    0.000    0.000    0.000    0.000    0.000 
#    0.000    0.000    0.000    0.000    0.000    0.000 
#
# Total GULP energy -78211.532695 kJ/mol
# GULP energy per Si atom -5586.538050 kJ/mol
# Density = 2.684187 g / cm^3
# Si number density = 26.903105 Si / 1000 Ang^3
#
#
#
# Elastic Constant Matrix: (Units=GPa)
#
#
# Indices 1 2 3 4 5 6 
#
# 1 74.1868 11.5104 19.6629 -3.7195 7.9527 -4.4886
# 2 11.5104 121.2846 47.7918 -31.4540 25.3887 -29.9051
# 3 19.6629 47.7918 100.7462 7.3906 4.5519 6.7698
# 4 -3.7195 -31.4540 7.3906 33.7222 16.6792 -6.0842
# 5 7.9527 25.3887 4.5519 16.6792 52.4571 -4.1057
# 6 -4.4886 -29.9051 6.7698 -6.0842 -4.1057 29.0812
#
#
#
# Elastic Compliance Matrix: (Units=1/GPa)
#
#
# Indices 1 2 3 4 5 6 
#
# 1 0.012384 -0.008590 0.002895 -0.011391 0.004924 -0.009283
# 2 -0.008590 -0.026383 0.019353 -0.049315 0.024961 -0.039755
# 3 0.002895 0.019353 -0.003096 0.032462 -0.017875 0.025337
# 4 -0.011391 -0.049315 0.032462 -0.053861 0.034707 -0.066396
# 5 0.004924 0.024961 -0.017875 0.034707 -0.000289 0.037809
# 6 -0.009283 -0.039755 0.025337 -0.066396 0.037809 -0.022379
#
#
# Mechanical properties :
#
#
# Convention : Reuss Voigt Hill
#
# Bulk Modulus (GPa) = 97.82917 50.46085 74.14501
# Shear Modulus (GPa) = -42.54171 37.53559 -2.50306
#
# Velocity S-wave (km/s) = -3.98086 3.73931 -0.96562
# Velocity P-wave (km/s) = 3.91315 6.11886 5.13582
#
# Compressibility (1/GPa) = 0.01022190
#
# Stress axis : x y z
#
# Youngs Moduli (GPa) = 80.74680 -37.90375 -322.99487
#
# Poissons Ratio (x) = -0.32558 0.93495
# Poissons Ratio (y) = 0.69359 6.25097
# Poissons Ratio (z) = -0.23373 0.73356
#
# Static dielectric constant tensor:
#      x y z
#    x 2.179510 -0.057690 0.098420 
#    y -0.057690 2.179690 -0.028280 
#    z 0.098420 -0.028280 2.107660 
# 
# From -- ./inp_files/404551.got.cif
#   From: 2010.05.17/outbox.cif.g08.bks.cpg/sg2_203_cif.got.tgz:404551.got - 2010.06.03 11:33:40.
