data_PCOD9044934
_publ_section_title
;
Structure prediction by ZEFSAII (Michael W. Deem and Ramdas Pophale) SiO2 
 PCOD9044934
Probable space group: P -1
;
_chemical_formula_sum "Si O2"
_cell_formula_units_Z 14
_cell_length_a 8.920445
_cell_length_b 20.769631
_cell_length_c 7.052611
_cell_angle_alpha 70.388824
_cell_angle_beta 87.291110
_cell_angle_gamma 33.928669
_cell_volume 617.020892
_symmetry_space_group_name_H-M "P -1"
_symmetry_group_IT_number 2
_symmetry_cell_setting 'triclinic'
loop_
_space_group_symop_operation_xyz
x,y,z
-x,-y,-z
loop_
_atom_site_type_symbol
_atom_site_label
_atom_site_fract_x
_atom_site_fract_y
_atom_site_fract_z
Si Si1 0.339161 0.389409 0.054738
Si Si2 0.551867 0.283404 0.724521
Si Si3 0.914833 0.369157 0.140780
Si Si4 0.208246 0.174865 0.969492
Si Si5 0.468219 0.221523 0.468462
Si Si6 0.707898 0.367100 0.500725
Si Si7 0.787991 0.982267 0.904331
O O1 0.544386 0.255173 0.291510
O O2 0.405879 0.355680 0.863069
O O3 0.000000 0.500000 0.000000
O O4 0.318370 0.476988 0.021170
O O5 0.387891 0.290996 0.602424
O O6 0.568997 0.346895 0.544388
O O7 0.894541 0.128782 0.906306
O O8 0.036780 0.288328 0.020447
O O9 0.198412 0.288339 0.318426
O O10 0.774107 0.369681 0.288838
O O11 0.218859 0.091167 0.115592
O O12 0.018556 0.244582 0.718983
O O13 0.528598 0.079080 0.984906
O O14 0.710382 0.070437 0.667592
O O15 0.500000 0.500000 0.500000
#
# Coordination Sequence:
#
# PCOD9044934 Si02
#       7
#     2   2   2   2   2   2   2
#     4  10  25  42  64 105 135 176 224 273 349 407
#     4  11  25  45  68 102 141 176 228 286 334 410
#     4  11  24  44  73 103 133 181 229 281 347 406
#     4  10  24  45  71 100 139 175 233 290 331 407
#     4  11  25  44  69 100 135 186 221 274 352 399
#     4  11  23  44  71 102 136 180 227 281 349 393
#     4  10  23  48  68  98 138 185 231 279 339 400
#
# _framework density 22.68967
#
# number of rings (size 3 to 8) (size 9 to 14) (size 15 to 20)
#    0.000    1.429    2.857    0.429    6.000    6.286 
#    2.571    0.000    0.000    0.000    0.000    0.000 
#    0.000    0.000    0.000    0.000    0.000    0.000 
#
# Total GULP energy -78293.685149 kJ/mol
# GULP energy per Si atom -5592.406082 kJ/mol
# Density = 2.263803 g / cm^3
# Si number density = 22.689670 Si / 1000 Ang^3
#
#
#
# Elastic Constant Matrix: (Units=GPa)
#
#
# Indices 1 2 3 4 5 6 
#
# 1 82.5241 35.1135 61.3857 11.9877 -5.4566 21.3345
# 2 35.1135 58.4464 29.1610 18.1267 -7.7894 10.0745
# 3 61.3857 29.1610 118.3890 -2.0597 -27.4861 21.7434
# 4 11.9877 18.1267 -2.0597 43.7620 11.2783 -6.6007
# 5 -5.4566 -7.7894 -27.4861 11.2783 47.9255 -5.3550
# 6 21.3345 10.0745 21.7434 -6.6007 -5.3550 39.0037
#
#
#
# Elastic Compliance Matrix: (Units=1/GPa)
#
#
# Indices 1 2 3 4 5 6 
#
# 1 0.026285 -0.008132 -0.011462 -0.004251 -0.004713 -0.007254
# 2 -0.008132 0.027003 -0.000839 -0.010809 0.005170 -0.003178
# 3 -0.011462 -0.000839 0.016614 0.002145 0.007426 -0.001393
# 4 -0.004251 -0.010809 0.002145 0.031790 -0.007569 0.008262
# 5 -0.004713 0.005170 0.007426 -0.007569 0.027160 -0.000450
# 6 -0.007254 -0.003178 -0.001393 0.008262 -0.000450 0.032540
#
#
# Mechanical properties :
#
#
# Convention : Reuss Voigt Hill
#
# Bulk Modulus (GPa) = 34.43927 56.74221 45.59074
# Shear Modulus (GPa) = 23.59218 35.05153 29.32185
#
# Velocity S-wave (km/s) = 3.22805 3.93469 3.59876
# Velocity P-wave (km/s) = 5.39492 6.76052 6.11595
#
# Compressibility (1/GPa) = 0.02903662
#
# Stress axis : x y z
#
# Youngs Moduli (GPa) = 38.04480 37.03315 60.19173
#
# Poissons Ratio (x) = 0.30116 0.68990
# Poissons Ratio (y) = 0.30939 0.05047
# Poissons Ratio (z) = 0.43606 0.03105
#
# Static dielectric constant tensor:
#      x y z
#    x 1.941980 0.126520 0.036140 
#    y 0.126520 1.991300 0.005170 
#    z 0.036140 0.005170 1.890140 
# 
# From -- ./inp_files/52738.got.cif
#   From: 2010.05.17/outbox.cif.g08.bks.cpg/sg2_27_cif.got.tgz:52738.got - 2010.06.03 11:33:40.
