data_PCOD9044006
_publ_section_title
;
Structure prediction by ZEFSAII (Michael W. Deem and Ramdas Pophale) SiO2 
 PCOD9044006
Probable space group: P -1
;
_chemical_formula_sum "Si O2"
_cell_formula_units_Z 16
_cell_length_a 22.186200
_cell_length_b 5.200514
_cell_length_c 11.513562
_cell_angle_alpha 74.346566
_cell_angle_beta 147.675232
_cell_angle_gamma 112.392741
_cell_volume 653.115206
_symmetry_space_group_name_H-M "P -1"
_symmetry_group_IT_number 2
_symmetry_cell_setting 'triclinic'
loop_
_space_group_symop_operation_xyz
x,y,z
-x,-y,-z
loop_
_atom_site_type_symbol
_atom_site_label
_atom_site_fract_x
_atom_site_fract_y
_atom_site_fract_z
Si Si1 0.830135 0.116936 0.502864
Si Si2 0.271491 0.462748 0.977752
Si Si3 0.863658 0.675107 0.769444
Si Si4 0.624173 0.258246 0.445338
Si Si5 0.040832 0.098636 0.680131
Si Si6 0.022502 0.602513 0.843604
Si Si7 0.639047 0.906338 0.023362
Si Si8 0.617023 0.654125 0.601716
O O1 0.826696 0.944731 0.637445
O O2 0.929668 0.077765 0.581835
O O3 0.895767 0.440047 0.600007
O O4 0.709370 0.993970 0.249129
O O5 0.336806 0.790723 0.035574
O O6 0.131299 0.401136 0.766380
O O7 0.310748 0.295768 0.954547
O O8 0.292297 0.335606 0.149732
O O9 0.751017 0.418611 0.578076
O O10 0.982930 0.713960 0.885202
O O11 0.901409 0.601988 0.968175
O O12 0.622502 0.455887 0.528139
O O13 0.622152 0.955022 0.524351
O O14 0.502920 0.224816 0.181185
O O15 0.091681 0.859630 0.847002
O O16 0.000000 0.000000 0.500000
O O17 0.500000 0.500000 0.500000
#
# Coordination Sequence:
#
# PCOD9044006 Si02
#       8
#     2   2   2   2   2   2   2   2
#     4  11  25  42  69  94 137 180 227 290 332 407
#     4  12  25  41  67 101 142 177 221 280 341 418
#     4  10  25  45  69  96 131 178 242 282 336 393
#     4  12  25  44  70 102 135 185 227 279 338 408
#     4  11  23  40  65 103 137 176 222 275 357 412
#     4  10  23  46  68  97 133 175 235 291 336 397
#     4  12  25  43  66 100 140 179 224 277 341 407
#     4  12  23  43  68 100 139 178 226 275 342 399
#
# _framework density 24.497978
#
# number of rings (size 3 to 8) (size 9 to 14) (size 15 to 20)
#    0.000    0.750    3.750    3.000    7.000    1.500 
#    0.000    0.625    0.000    0.000    0.000    0.000 
#    0.000    0.000    0.000    0.000    0.000    0.000 
#
# Total GULP energy -89353.397495 kJ/mol
# GULP energy per Si atom -5584.587343 kJ/mol
# Density = 2.444222 g / cm^3
# Si number density = 24.497978 Si / 1000 Ang^3
#
#
#
# Elastic Constant Matrix: (Units=GPa)
#
#
# Indices 1 2 3 4 5 6 
#
# 1 65.0623 26.7865 12.9676 -1.0595 1.5716 -0.7691
# 2 26.7865 130.5085 7.2163 11.3511 8.0442 -0.6072
# 3 12.9676 7.2163 121.9682 18.0036 0.3528 10.8032
# 4 -1.0595 11.3511 18.0036 42.5170 10.6469 2.0550
# 5 1.5716 8.0442 0.3528 10.6469 31.0238 9.2740
# 6 -0.7691 -0.6072 10.8032 2.0550 9.2740 35.8167
#
#
#
# Elastic Compliance Matrix: (Units=1/GPa)
#
#
# Indices 1 2 3 4 5 6 
#
# 1 0.017345 -0.003588 -0.002094 0.002502 -0.001108 0.001087
# 2 -0.003588 0.008670 0.000137 -0.002111 -0.001505 0.000539
# 3 -0.002094 0.000137 0.009361 -0.004518 0.002486 -0.003251
# 4 0.002502 -0.002111 -0.004518 0.028448 -0.009989 0.002335
# 5 -0.001108 -0.001505 0.002486 -0.009989 0.039179 -0.010371
# 6 0.001087 0.000539 -0.003251 0.002335 -0.010371 0.031484
#
#
# Mechanical properties :
#
#
# Convention : Reuss Voigt Hill
#
# Bulk Modulus (GPa) = 41.17839 45.71999 43.44919
# Shear Modulus (GPa) = 32.53640 39.90943 36.22292
#
# Velocity S-wave (km/s) = 3.64830 4.04058 3.84944
# Velocity P-wave (km/s) = 5.88151 6.36173 6.12633
#
# Compressibility (1/GPa) = 0.02428458
#
# Stress axis : x y z
#
# Youngs Moduli (GPa) = 57.65348 115.33782 106.82540
#
# Poissons Ratio (x) = 0.41389 0.22371
# Poissons Ratio (y) = 0.20689 -0.01461
# Poissons Ratio (z) = 0.12073 -0.01578
#
# Static dielectric constant tensor:
#      x y z
#    x 1.847280 -0.011700 -0.061410 
#    y -0.011700 1.930830 0.022960 
#    z -0.061410 0.022960 1.713780 
# 
# From -- ./inp_files/473398.got.cif
#   From: 2010.05.17/outbox.cif.g08.bks.cpg/sg2_237_cif.got.tgz:473398.got - 2010.06.03 11:33:40.
