data_PCOD9044357
_publ_section_title
;
Structure prediction by ZEFSAII (Michael W. Deem and Ramdas Pophale) SiO2 
 PCOD9044357
Probable space group: P -1
;
_chemical_formula_sum "Si O2"
_cell_formula_units_Z 14
_cell_length_a 18.467326
_cell_length_b 7.973565
_cell_length_c 16.878324
_cell_angle_alpha 149.947313
_cell_angle_beta 28.673148
_cell_angle_gamma 144.611957
_cell_volume 580.856488
_symmetry_space_group_name_H-M "P -1"
_symmetry_group_IT_number 2
_symmetry_cell_setting 'triclinic'
loop_
_space_group_symop_operation_xyz
x,y,z
-x,-y,-z
loop_
_atom_site_type_symbol
_atom_site_label
_atom_site_fract_x
_atom_site_fract_y
_atom_site_fract_z
Si Si1 0.696790 0.756211 0.820527
Si Si2 0.962213 0.722017 0.300181
Si Si3 0.640498 0.119078 0.173234
Si Si4 0.956653 0.168606 0.964232
Si Si5 0.874290 0.205218 0.457645
Si Si6 0.334223 0.500720 0.417120
Si Si7 0.570805 0.741693 0.424263
O O1 0.736033 0.390623 0.654300
O O2 0.616449 0.687076 0.783979
O O3 0.864213 0.036204 0.765668
O O4 0.608233 0.877352 0.028323
O O5 0.970063 0.342401 0.107849
O O6 0.846046 0.678486 0.467431
O O7 0.864498 0.884504 0.394363
O O8 0.779419 0.015232 0.045329
O O9 0.680342 0.501985 0.252409
O O10 0.517136 0.154300 0.372480
O O11 0.000000 0.500000 0.000000
O O12 0.054478 0.898572 0.734551
O O13 0.000000 0.500000 0.500000
O O14 0.446053 0.512762 0.390221
O O15 0.350424 0.905883 0.550304
#
# Coordination Sequence:
#
# PCOD9044357 Si02
#       7
#     2   2   2   2   2   2   2
#     4  11  23  38  68  98 123 154 201 269 315 358
#     4  10  20  38  64  95 125 160 194 259 318 366
#     4  11  21  43  68  89 116 164 226 247 289 364
#     4  10  17  33  68  93 120 150 209 259 301 357
#     4   9  18  34  60  99 121 153 198 248 320 353
#     4  11  24  43  60  89 136 157 204 252 317 368
#     4  10  26  43  65  85 118 181 210 247 289 367
#
# _framework density 24.102339000000001
#
# number of rings (size 3 to 8) (size 9 to 14) (size 15 to 20)
#    0.000    1.714    5.714    0.429    4.000    1.143 
#    0.000    8.571    0.000    0.000    0.000    0.000 
#    0.000    0.000    0.000    0.000    0.000    0.000 
#
# Total GULP energy -78172.069835 kJ/mol
# GULP energy per Si atom -5583.719274 kJ/mol
# Density = 2.404748 g / cm^3
# Si number density = 24.102339 Si / 1000 Ang^3
#
#
#
# Elastic Constant Matrix: (Units=GPa)
#
#
# Indices 1 2 3 4 5 6 
#
# 1 109.4658 28.2680 50.8261 5.8933 25.6089 25.1600
# 2 28.2680 55.8616 5.0044 2.3609 -4.7447 7.6735
# 3 50.8261 5.0044 157.9839 19.2759 25.5016 -2.4650
# 4 5.8933 2.3609 19.2759 21.2628 -0.4164 2.3162
# 5 25.6089 -4.7447 25.5016 -0.4164 44.0921 13.4900
# 6 25.1600 7.6735 -2.4650 2.3162 13.4900 29.0272
#
#
#
# Elastic Compliance Matrix: (Units=1/GPa)
#
#
# Indices 1 2 3 4 5 6 
#
# 1 0.016602 -0.006853 -0.004836 0.001682 -0.004141 -0.011199
# 2 -0.006853 0.022417 0.000329 -0.000390 0.007200 -0.003274
# 3 -0.004836 0.000329 0.009957 -0.008724 -0.005508 0.008206
# 4 0.001682 -0.000390 -0.008724 0.055766 0.007643 -0.010097
# 5 -0.004141 0.007200 -0.005508 0.007643 0.033727 -0.015066
# 6 -0.011199 -0.003274 0.008206 -0.010097 -0.015066 0.053527
#
#
# Mechanical properties :
#
#
# Convention : Reuss Voigt Hill
#
# Bulk Modulus (GPa) = 38.08470 54.61204 46.34837
# Shear Modulus (GPa) = 22.37455 34.82393 28.59924
#
# Velocity S-wave (km/s) = 3.05013 3.80522 3.44841
# Velocity P-wave (km/s) = 5.31413 6.48181 5.92680
#
# Compressibility (1/GPa) = 0.02625726
#
# Stress axis : x y z
#
# Youngs Moduli (GPa) = 60.23194 44.60839 100.43592
#
# Poissons Ratio (x) = 0.30568 0.48569
# Poissons Ratio (y) = 0.41275 -0.03303
# Poissons Ratio (z) = 0.29127 -0.01467
#
# Static dielectric constant tensor:
#      x y z
#    x 2.020300 0.004120 0.018260 
#    y 0.004120 1.968800 -0.017370 
#    z 0.018260 -0.017370 1.911700 
# 
# From -- ./inp_files/577506.got.cif
#   From: 2010.05.17/outbox.cif.g08.bks.cpg/sg2_289_cif.got.tgz:577506.got - 2010.06.03 11:33:40.
