data_PCOD9044065
_publ_section_title
;
Structure prediction by ZEFSAII (Michael W. Deem and Ramdas Pophale) SiO2 
 PCOD9044065
Probable space group: P -1
;
_chemical_formula_sum "Si O2"
_cell_formula_units_Z 11
_cell_length_a 11.334697
_cell_length_b 6.904292
_cell_length_c 9.900544
_cell_angle_alpha 105.605873
_cell_angle_beta 139.918814
_cell_angle_gamma 55.946222
_cell_volume 394.429327
_symmetry_space_group_name_H-M "P -1"
_symmetry_group_IT_number 2
_symmetry_cell_setting 'triclinic'
loop_
_space_group_symop_operation_xyz
x,y,z
-x,-y,-z
loop_
_atom_site_type_symbol
_atom_site_label
_atom_site_fract_x
_atom_site_fract_y
_atom_site_fract_z
Si Si1 0.116416 0.367822 0.439314
Si Si2 0.940502 0.298916 0.897756
Si Si3 0.576613 0.050930 0.718381
Si Si4 0.002177 0.976871 0.658789
Si Si5 0.675034 0.634352 0.932057
Si Si6 0.500000 0.500000 0.000000
O O1 0.000000 0.500000 0.500000
O O2 0.150785 0.108531 0.437784
O O3 0.359176 0.317173 0.623636
O O4 0.919262 0.518174 0.189623
O O5 0.717538 0.437488 0.817915
O O6 0.917810 0.219283 0.715303
O O7 0.166614 0.050421 0.102694
O O8 0.000000 0.500000 0.000000
O O9 0.603168 0.880484 0.836655
O O10 0.500000 0.000000 0.500000
O O11 0.253771 0.749936 0.872322
O O12 0.000000 0.000000 0.500000
O O13 0.524358 0.653145 0.925729
#
# Coordination Sequence:
#
# PCOD9044065 Si02
#       6
#     2   2   2   2   2   1
#     4  11  26  42  69 106 149 194 246 309 378 446
#     4  10  24  47  76 107 150 197 252 315 376 456
#     4  11  23  44  74 106 144 196 246 311 376 446
#     4  11  26  47  73 107 151 197 254 311 379 453
#     4  10  23  46  69 107 148 192 255 304 376 450
#     4  10  24  46  70 110 146 196 246 318 370 448
#
# _framework density 27.888393000000001
#
# number of rings (size 3 to 8) (size 9 to 14) (size 15 to 20)
#    0.000    1.455    1.818    1.091   10.182    3.636 
#    0.000    4.545    0.000    0.000    0.000    0.000 
#    0.000    0.000    0.000    0.000    0.000    0.000 
#
# Total GULP energy -61300.828450 kJ/mol
# GULP energy per Si atom -5572.802586 kJ/mol
# Density = 2.782492 g / cm^3
# Si number density = 27.888393 Si / 1000 Ang^3
#
#
#
# Elastic Constant Matrix: (Units=GPa)
#
#
# Indices 1 2 3 4 5 6 
#
# 1 137.4690 7.7268 32.1057 1.6302 2.5540 -14.1697
# 2 7.7268 107.5264 23.4472 6.3300 3.1778 -11.7446
# 3 32.1057 23.4472 131.9872 -16.8579 -16.1954 -12.1009
# 4 1.6302 6.3300 -16.8579 50.3954 -20.0452 -1.6406
# 5 2.5540 3.1778 -16.1954 -20.0452 67.8863 -11.0659
# 6 -14.1697 -11.7446 -12.1009 -1.6406 -11.0659 73.0370
#
#
#
# Elastic Compliance Matrix: (Units=1/GPa)
#
#
# Indices 1 2 3 4 5 6 
#
# 1 0.007912 0.000126 -0.002163 -0.001386 -0.001065 0.001004
# 2 0.000126 0.010098 -0.002278 -0.002660 -0.001650 0.000961
# 3 -0.002163 -0.002278 0.009905 0.005490 0.004441 0.001651
# 4 -0.001386 -0.002660 0.005490 0.025910 0.009501 0.002235
# 5 -0.001065 -0.001650 0.004441 0.009501 0.019266 0.003396
# 6 0.001004 0.000961 0.001651 0.002235 0.003396 0.014879
#
#
# Mechanical properties :
#
#
# Convention : Reuss Voigt Hill
#
# Bulk Modulus (GPa) = 51.85514 55.94909 53.90212
# Shear Modulus (GPa) = 48.52955 59.17726 53.85341
#
# Velocity S-wave (km/s) = 4.17602 4.61144 4.39912
# Velocity P-wave (km/s) = 6.47197 6.96126 6.72107
#
# Compressibility (1/GPa) = 0.01928449
#
# Stress axis : x y z
#
# Youngs Moduli (GPa) = 126.38832 99.02813 100.96105
#
# Poissons Ratio (x) = -0.01246 0.21834
# Poissons Ratio (y) = -0.01590 0.23004
# Poissons Ratio (z) = 0.27333 0.22564
#
# Static dielectric constant tensor:
#      x y z
#    x 1.259310 0.007610 0.440680 
#    y 0.007610 2.351390 0.167420 
#    z 0.440680 0.167420 2.072170 
# 
# From -- ./inp_files/235427.got.cif
#   From: 2010.05.17/outbox.cif.g08.bks.cpg/sg2_118_cif.got.tgz:235427.got - 2010.06.03 11:33:40.
