data_PCOD9044401
_publ_section_title
;
Structure prediction by ZEFSAII (Michael W. Deem and Ramdas Pophale) SiO2 
 PCOD9044401
Probable space group: P -1
;
_chemical_formula_sum "Si O2"
_cell_formula_units_Z 16
_cell_length_a 18.366876
_cell_length_b 7.266740
_cell_length_c 6.576200
_cell_angle_alpha 120.504981
_cell_angle_beta 117.495911
_cell_angle_gamma 57.128547
_cell_volume 613.761458
_symmetry_space_group_name_H-M "P -1"
_symmetry_group_IT_number 2
_symmetry_cell_setting 'triclinic'
loop_
_space_group_symop_operation_xyz
x,y,z
-x,-y,-z
loop_
_atom_site_type_symbol
_atom_site_label
_atom_site_fract_x
_atom_site_fract_y
_atom_site_fract_z
Si Si1 0.151880 0.101912 0.233899
Si Si2 0.397098 0.574524 0.658352
Si Si3 0.060988 0.915675 0.303872
Si Si4 0.630992 0.713764 0.867162
Si Si5 0.193120 0.346084 0.768152
Si Si6 0.788524 0.239553 0.237160
Si Si7 0.494991 0.189052 0.882910
Si Si8 0.997137 0.617335 0.296613
O O1 0.211765 0.130179 0.513847
O O2 0.103066 0.936791 0.157416
O O3 0.081290 0.372719 0.284123
O O4 0.197466 0.977527 0.016448
O O5 0.372705 0.513104 0.370588
O O6 0.308010 0.667180 0.731118
O O7 0.444550 0.750588 0.836965
O O8 0.468974 0.352206 0.746426
O O9 0.139984 0.835636 0.528892
O O10 0.009561 0.747948 0.181237
O O11 0.001624 0.186137 0.431911
O O12 0.595078 0.757969 0.076192
O O13 0.730267 0.704762 0.992551
O O14 0.559590 0.926899 0.768817
O O15 0.199888 0.556487 0.764130
O O16 0.097554 0.394781 0.780008
#
# Coordination Sequence:
#
# PCOD9044401 Si02
#       8
#     2   2   2   2   2   2   2   2
#     4  11  26  50  72 103 151 196 246 307 355 430
#     4  11  25  47  72 107 146 183 235 294 357 436
#     4  10  23  46  74 102 141 198 248 301 370 418
#     4  11  24  46  76 105 145 184 235 295 362 431
#     4  11  24  47  70 105 149 184 241 313 356 425
#     4  12  27  44  71 108 146 191 246 300 362 438
#     4  10  24  47  73 109 136 188 236 288 365 435
#     4  10  23  49  73 103 146 195 253 301 359 432
#
# _framework density 26.068757000000002
#
# number of rings (size 3 to 8) (size 9 to 14) (size 15 to 20)
#    0.000    1.250    2.500    2.250    7.000    2.000 
#   13.500    0.000    0.000    0.000    0.000    0.000 
#    0.000    0.000    0.000    0.000    0.000    0.000 
#
# Total GULP energy -89559.675358 kJ/mol
# GULP energy per Si atom -5597.479710 kJ/mol
# Density = 2.600942 g / cm^3
# Si number density = 26.068757 Si / 1000 Ang^3
#
#
#
# Elastic Constant Matrix: (Units=GPa)
#
#
# Indices 1 2 3 4 5 6 
#
# 1 108.1648 44.6206 12.0535 7.3903 19.1852 7.7919
# 2 44.6206 94.0114 24.7469 4.4290 -4.5338 8.2274
# 3 12.0535 24.7469 107.9577 11.2070 17.6626 -10.6108
# 4 7.3903 4.4290 11.2070 19.3736 -1.7601 -3.3810
# 5 19.1852 -4.5338 17.6626 -1.7601 34.4704 -8.8823
# 6 7.7919 8.2274 -10.6108 -3.3810 -8.8823 44.1253
#
#
#
# Elastic Compliance Matrix: (Units=1/GPa)
#
#
# Indices 1 2 3 4 5 6 
#
# 1 0.014986 -0.007675 0.002409 -0.007055 -0.011863 -0.003565
# 2 -0.007675 0.015829 -0.004521 0.002575 0.008607 -0.000754
# 3 0.002409 -0.004521 0.012287 -0.007555 -0.008329 0.001117
# 4 -0.007055 0.002575 -0.007555 0.060325 0.012801 0.006148
# 5 -0.011863 0.008607 -0.008329 0.012801 0.043802 0.008285
# 6 -0.003565 -0.000754 0.001117 0.006148 0.008285 0.025840
#
#
# Mechanical properties :
#
#
# Convention : Reuss Voigt Hill
#
# Bulk Modulus (GPa) = 42.50146 52.55288 47.52717
# Shear Modulus (GPa) = 24.93943 34.84138 29.89040
#
# Velocity S-wave (km/s) = 3.09638 3.65981 3.38982
# Velocity P-wave (km/s) = 5.39652 6.16944 5.79588
#
# Compressibility (1/GPa) = 0.02352860
#
# Stress axis : x y z
#
# Youngs Moduli (GPa) = 66.73064 63.17336 81.38644
#
# Poissons Ratio (x) = 0.48482 -0.19606
# Poissons Ratio (y) = 0.51213 0.36797
# Poissons Ratio (z) = -0.16075 0.28562
#
# Static dielectric constant tensor:
#      x y z
#    x 2.031250 -0.002740 -0.008960 
#    y -0.002740 2.100660 -0.018340 
#    z -0.008960 -0.018340 2.108560 
# 
# From -- ./inp_files/117483.got.cif
#   From: 2010.05.17/outbox.cif.g08.bks.cpg/sg2_59_cif.got.tgz:117483.got - 2010.06.03 11:33:40.
