data_PCOD9044650
_publ_section_title
;
Structure prediction by ZEFSAII (Michael W. Deem and Ramdas Pophale) SiO2 
 PCOD9044650
Probable space group: P -1
;
_chemical_formula_sum "Si O2"
_cell_formula_units_Z 15
_cell_length_a 5.377793
_cell_length_b 8.795027
_cell_length_c 17.264961
_cell_angle_alpha 122.530435
_cell_angle_beta 60.666379
_cell_angle_gamma 105.974382
_cell_volume 600.124282
_symmetry_space_group_name_H-M "P -1"
_symmetry_group_IT_number 2
_symmetry_cell_setting 'triclinic'
loop_
_space_group_symop_operation_xyz
x,y,z
-x,-y,-z
loop_
_atom_site_type_symbol
_atom_site_label
_atom_site_fract_x
_atom_site_fract_y
_atom_site_fract_z
Si Si1 0.520962 0.670446 0.737898
Si Si2 0.210094 0.350109 0.634335
Si Si3 0.036297 0.792670 0.955802
Si Si4 0.722304 0.460424 0.851041
Si Si5 0.878484 0.729198 0.137054
Si Si6 0.446490 0.917707 0.662452
Si Si7 0.886284 0.393187 0.414307
Si Si8 0.000000 0.000000 0.500000
O O1 0.445261 0.456945 0.678270
O O2 0.329486 0.732947 0.854566
O O3 0.456371 0.792535 0.704787
O O4 0.856541 0.685698 0.697457
O O5 0.245299 0.452148 0.575352
O O6 0.910606 0.408870 0.733861
O O7 0.185336 0.140257 0.566331
O O8 0.790053 0.667090 0.919673
O O9 0.016392 0.766758 0.043205
O O10 0.000000 0.000000 0.000000
O O11 0.395676 0.403038 0.872715
O O12 0.882909 0.350615 0.864810
O O13 0.741190 0.908661 0.243146
O O14 0.295536 0.783179 0.587201
O O15 0.753912 0.974854 0.599174
O O16 0.000000 0.500000 0.500000
#
# Coordination Sequence:
#
# PCOD9044650 Si02
#       8
#     2   2   2   2   2   2   2   1
#     4  10  23  47  70 102 150 188 252 312 378 444
#     4  10  24  42  70 103 141 198 243 312 377 454
#     4  11  24  47  79 112 146 204 258 310 378 457
#     4  11  27  49  75 106 164 193 254 310 396 444
#     4  12  26  51  73 114 152 207 242 323 382 461
#     4  11  25  43  71 106 147 192 256 307 383 450
#     4  11  24  45  73 103 147 196 254 318 381 450
#     4  12  22  42  70 100 146 188 254 302 386 450
#
# _framework density 24.994820000000001
#
# number of rings (size 3 to 8) (size 9 to 14) (size 15 to 20)
#    0.000    1.067    2.667    2.400    5.600    3.200 
#    4.800    7.333    0.000    0.000    0.000    0.000 
#    0.000    0.000    0.000    0.000    0.000    0.000 
#
# Total GULP energy -83774.628613 kJ/mol
# GULP energy per Si atom -5584.975241 kJ/mol
# Density = 2.493793 g / cm^3
# Si number density = 24.994820 Si / 1000 Ang^3
#
#
#
# Elastic Constant Matrix: (Units=GPa)
#
#
# Indices 1 2 3 4 5 6 
#
# 1 81.4339 54.6592 34.4922 1.4788 -3.6465 10.7519
# 2 54.6592 147.7201 69.9086 9.7668 3.4154 28.9298
# 3 34.4922 69.9086 156.8671 -11.2971 -1.2699 15.5138
# 4 1.4788 9.7668 -11.2971 60.3524 6.0221 -2.7279
# 5 -3.6465 3.4154 -1.2699 6.0221 30.8703 -16.0777
# 6 10.7519 28.9298 15.5138 -2.7279 -16.0777 39.3002
#
#
#
# Elastic Compliance Matrix: (Units=1/GPa)
#
#
# Indices 1 2 3 4 5 6 
#
# 1 0.016779 -0.006131 -0.001100 0.000104 0.003539 0.001812
# 2 -0.006131 0.012926 -0.003723 -0.002392 -0.006664 -0.009260
# 3 -0.001100 -0.003723 0.008442 0.002190 0.000165 -0.000072
# 4 0.000104 -0.002392 0.002190 0.017664 -0.002527 0.001060
# 5 0.003539 -0.006664 0.000165 -0.002527 0.045714 0.022398
# 6 0.001812 -0.009260 -0.000072 0.001060 0.022398 0.041031
#
#
# Mechanical properties :
#
#
# Convention : Reuss Voigt Hill
#
# Bulk Modulus (GPa) = 61.58311 78.23790 69.91051
# Shear Modulus (GPa) = 29.43329 41.23532 35.33430
#
# Velocity S-wave (km/s) = 3.43530 4.06612 3.76395
# Velocity P-wave (km/s) = 6.35822 7.30849 6.84985
#
# Compressibility (1/GPa) = 0.01623822
#
# Stress axis : x y z
#
# Youngs Moduli (GPa) = 59.59985 77.36455 118.45777
#
# Poissons Ratio (x) = 0.47436 0.13029
# Poissons Ratio (y) = 0.36544 0.44098
# Poissons Ratio (z) = 0.06555 0.28800
#
# Static dielectric constant tensor:
#      x y z
#    x 2.024440 -0.020210 0.011940 
#    y -0.020210 1.961380 -0.008470 
#    z 0.011940 -0.008470 1.977890 
# 
# From -- ./inp_files/547442.got.cif
#   From: 2010.05.17/outbox.cif.g08.bks.cpg/sg2_274_cif.got.tgz:547442.got - 2010.06.03 11:33:40.
