data_PCOD9044661
_publ_section_title
;
Structure prediction by ZEFSAII (Michael W. Deem and Ramdas Pophale) SiO2 
 PCOD9044661
Probable space group: P -1
;
_chemical_formula_sum "Si O2"
_cell_formula_units_Z 14
_cell_length_a 5.557391
_cell_length_b 14.269584
_cell_length_c 8.804827
_cell_angle_alpha 54.298345
_cell_angle_beta 74.546708
_cell_angle_gamma 72.169722
_cell_volume 536.290309
_symmetry_space_group_name_H-M "P -1"
_symmetry_group_IT_number 2
_symmetry_cell_setting 'triclinic'
loop_
_space_group_symop_operation_xyz
x,y,z
-x,-y,-z
loop_
_atom_site_type_symbol
_atom_site_label
_atom_site_fract_x
_atom_site_fract_y
_atom_site_fract_z
Si Si1 0.295121 0.190586 0.399895
Si Si2 0.957219 0.672109 0.424967
Si Si3 0.128192 0.868442 0.700294
Si Si4 0.332145 0.666098 0.088937
Si Si5 0.577371 0.789505 0.156611
Si Si6 0.832423 0.542799 0.839019
Si Si7 0.848007 0.012741 0.857313
O O1 0.589822 0.124687 0.418931
O O2 0.321862 0.326019 0.230467
O O3 0.144837 0.211234 0.566128
O O4 0.097964 0.155380 0.346698
O O5 0.184254 0.663237 0.277424
O O6 0.718163 0.686077 0.338928
O O7 0.001019 0.569034 0.639716
O O8 0.028036 0.982519 0.711140
O O9 0.175226 0.761301 0.913054
O O10 0.553599 0.726603 0.059815
O O11 0.341361 0.543166 0.119482
O O12 0.335004 0.860921 0.221854
O O13 0.704190 0.901892 0.991136
O O14 0.000000 0.500000 0.000000
O O15 0.000000 0.000000 0.000000
#
# Coordination Sequence:
#
# PCOD9044661 Si02
#       7
#     2   2   2   2   2   2   2
#     4  10  27  45  70 102 157 188 243 292 374 437
#     4  10  24  44  68 106 149 192 240 307 357 431
#     4  12  23  46  72 108 140 197 240 305 365 441
#     4  12  22  41  75 103 147 189 250 301 356 429
#     4  11  23  41  71 111 142 182 247 314 362 421
#     4  10  23  47  70 105 149 199 243 288 373 439
#     4  11  23  43  74 106 139 188 248 303 372 438
#
# _framework density 26.105263999999998
#
# number of rings (size 3 to 8) (size 9 to 14) (size 15 to 20)
#    0.857    0.286    4.286    1.286    4.000    1.143 
#    2.571    1.429    0.000    0.000    0.000    0.000 
#    0.000    0.000    0.000    0.000    0.000    0.000 
#
# Total GULP energy -78221.482323 kJ/mol
# GULP energy per Si atom -5587.248737 kJ/mol
# Density = 2.604585 g / cm^3
# Si number density = 26.105264 Si / 1000 Ang^3
#
#
#
# Elastic Constant Matrix: (Units=GPa)
#
#
# Indices 1 2 3 4 5 6 
#
# 1 111.4202 54.4288 43.4964 27.9145 10.8951 19.6841
# 2 54.4288 179.3218 50.9016 37.0180 16.2115 27.8661
# 3 43.4964 50.9016 132.5409 4.8913 -3.6983 13.4424
# 4 27.9145 37.0180 4.8913 50.1633 -1.0613 6.1964
# 5 10.8951 16.2115 -3.6983 -1.0613 43.0723 12.4959
# 6 19.6841 27.8661 13.4424 6.1964 12.4959 51.3543
#
#
#
# Elastic Compliance Matrix: (Units=1/GPa)
#
#
# Indices 1 2 3 4 5 6 
#
# 1 0.012992 -0.001201 -0.003452 -0.005807 -0.002672 -0.002074
# 2 -0.001201 0.008210 -0.002427 -0.004940 -0.002491 -0.002157
# 3 -0.003452 -0.002427 0.009683 0.002952 0.002974 -0.000974
# 4 -0.005807 -0.004940 0.002952 0.026629 0.004272 -0.000119
# 5 -0.002672 -0.002491 0.002974 0.004272 0.026766 -0.005431
# 6 -0.002074 -0.002157 -0.000974 -0.000119 -0.005431 0.023029
#
#
# Mechanical properties :
#
#
# Convention : Reuss Voigt Hill
#
# Bulk Modulus (GPa) = 59.79479 80.10404 69.94942
# Shear Modulus (GPa) = 39.35602 47.21507 43.28555
#
# Velocity S-wave (km/s) = 3.88698 4.25743 4.07641
# Velocity P-wave (km/s) = 6.56505 7.41075 7.00068
#
# Compressibility (1/GPa) = 0.01672386
#
# Stress axis : x y z
#
# Youngs Moduli (GPa) = 76.97095 121.79827 103.27502
#
# Poissons Ratio (x) = 0.14625 0.35655
# Poissons Ratio (y) = 0.09242 0.25070
# Poissons Ratio (z) = 0.26573 0.29566
#
# Static dielectric constant tensor:
#      x y z
#    x 2.233220 0.013710 -0.113310 
#    y 0.013710 2.053030 0.012190 
#    z -0.113310 0.012190 2.094700 
# 
# From -- ./inp_files/134967.got.cif
#   From: 2010.05.17/outbox.cif.g08.bks.cpg/sg2_68_cif.got.tgz:134967.got - 2010.06.03 11:33:40.
