data_PCOD9044780
_publ_section_title
;
Structure prediction by ZEFSAII (Michael W. Deem and Ramdas Pophale) SiO2 
 PCOD9044780
Probable space group: P -1
;
_chemical_formula_sum "Si O2"
_cell_formula_units_Z 14
_cell_length_a 15.251585
_cell_length_b 15.254566
_cell_length_c 9.078582
_cell_angle_alpha 45.802297
_cell_angle_beta 65.325465
_cell_angle_gamma 28.744362
_cell_volume 602.346550
_symmetry_space_group_name_H-M "P -1"
_symmetry_group_IT_number 2
_symmetry_cell_setting 'triclinic'
loop_
_space_group_symop_operation_xyz
x,y,z
-x,-y,-z
loop_
_atom_site_type_symbol
_atom_site_label
_atom_site_fract_x
_atom_site_fract_y
_atom_site_fract_z
Si Si1 0.562385 0.938929 0.858336
Si Si2 0.156379 0.130625 0.934500
Si Si3 0.450386 0.287462 0.032492
Si Si4 0.707404 0.694679 0.639568
Si Si5 0.612019 0.148164 0.601075
Si Si6 0.222949 0.781358 0.682863
Si Si7 0.852233 0.249343 0.917380
O O1 0.338398 0.226075 0.590807
O O2 0.687561 0.925342 0.760763
O O3 0.650616 0.708573 0.002823
O O4 0.500000 0.000000 0.000000
O O5 0.963031 0.433803 0.787354
O O6 0.013100 0.175447 0.943449
O O7 0.291134 0.018541 0.827883
O O8 0.339738 0.901375 0.199820
O O9 0.353926 0.364331 0.171082
O O10 0.395628 0.493316 0.817517
O O11 0.500000 0.000000 0.500000
O O12 0.738760 0.118869 0.479742
O O13 0.360188 0.459570 0.364493
O O14 0.215531 0.756644 0.888804
O O15 0.000000 0.000000 0.500000
O O16 0.000000 0.000000 0.000000
#
# Coordination Sequence:
#
# PCOD9044780 Si02
#       7
#     2   2   2   2   2   2   2
#     4  11  23  45  73 109 151 190 253 315 366 451
#     4  12  24  47  79 110 150 205 249 312 395 434
#     4  11  24  45  80 107 152 205 248 314 377 453
#     4  10  23  47  73 107 154 195 252 308 374 457
#     4  12  25  47  76 109 156 193 259 319 367 462
#     4  12  25  48  78 110 156 202 252 315 391 447
#     4  12  27  46  75 116 151 196 261 314 380 461
#
# _framework density 23.242433999999999
#
# number of rings (size 3 to 8) (size 9 to 14) (size 15 to 20)
#    0.000    0.571    5.714    1.286    2.000    4.571 
#    0.000    6.429    6.286    0.000    0.000    0.000 
#    0.000    0.000    0.000    0.000    0.000    0.000 
#
# Total GULP energy -77982.265740 kJ/mol
# GULP energy per Si atom -5570.161839 kJ/mol
# Density = 2.318953 g / cm^3
# Si number density = 23.242434 Si / 1000 Ang^3
#
#
#
# Elastic Constant Matrix: (Units=GPa)
#
#
# Indices 1 2 3 4 5 6 
#
# 1 145.2680 37.2365 29.7116 2.7774 -20.9343 -9.3152
# 2 37.2365 134.5628 45.9530 -1.1931 -7.3300 -2.6833
# 3 29.7116 45.9530 101.7448 11.1437 19.7940 4.1471
# 4 2.7774 -1.1931 11.1437 32.2130 -0.9124 4.1957
# 5 -20.9343 -7.3300 19.7940 -0.9124 51.2992 2.8524
# 6 -9.3152 -2.6833 4.1471 4.1957 2.8524 34.4948
#
#
#
# Elastic Compliance Matrix: (Units=1/GPa)
#
#
# Indices 1 2 3 4 5 6 
#
# 1 0.008528 -0.001071 -0.002951 0.000082 0.004344 0.002205
# 2 -0.001071 0.009546 -0.004794 0.002113 0.002784 0.000543
# 3 -0.002951 -0.004794 0.014974 -0.005097 -0.007662 -0.001716
# 4 0.000082 0.002113 -0.005097 0.033424 0.003092 -0.003522
# 5 0.004344 0.002784 -0.007662 0.003092 0.024682 -0.000106
# 6 0.002205 0.000543 -0.001716 -0.003522 -0.000106 0.030271
#
#
# Mechanical properties :
#
#
# Convention : Reuss Voigt Hill
#
# Bulk Modulus (GPa) = 64.86259 67.48642 66.17450
# Shear Modulus (GPa) = 34.67535 41.51302 38.09419
#
# Velocity S-wave (km/s) = 3.86670 4.23080 4.05284
# Velocity P-wave (km/s) = 6.92118 7.27771 7.10168
#
# Compressibility (1/GPa) = 0.01541721
#
# Stress axis : x y z
#
# Youngs Moduli (GPa) = 117.26489 104.75443 66.78158
#
# Poissons Ratio (x) = 0.11217 0.19705
# Poissons Ratio (y) = 0.12557 0.32015
# Poissons Ratio (z) = 0.34601 0.50219
#
# Static dielectric constant tensor:
#      x y z
#    x 2.009920 0.075820 -0.090310 
#    y 0.075820 1.912400 -0.026920 
#    z -0.090310 -0.026920 1.984770 
# 
# From -- ./inp_files/314619.got.cif
#   From: 2010.05.17/outbox.cif.g08.bks.cpg/sg2_158_cif.got.tgz:314619.got - 2010.06.03 11:33:40.
