data_PCOD9044025
_publ_section_title
;
Structure prediction by ZEFSAII (Michael W. Deem and Ramdas Pophale) SiO2 
 PCOD9044025
Probable space group: P -1
;
_chemical_formula_sum "Si O2"
_cell_formula_units_Z 16
_cell_length_a 22.428492
_cell_length_b 6.055584
_cell_length_c 13.476267
_cell_angle_alpha 116.505862
_cell_angle_beta 32.168527
_cell_angle_gamma 132.090029
_cell_volume 688.343517
_symmetry_space_group_name_H-M "P -1"
_symmetry_group_IT_number 2
_symmetry_cell_setting 'triclinic'
loop_
_space_group_symop_operation_xyz
x,y,z
-x,-y,-z
loop_
_atom_site_type_symbol
_atom_site_label
_atom_site_fract_x
_atom_site_fract_y
_atom_site_fract_z
Si Si1 0.443992 0.217426 0.291047
Si Si2 0.168063 0.765777 0.922908
Si Si3 0.378768 0.377176 0.065091
Si Si4 0.484349 0.284419 0.573110
Si Si5 0.777644 0.368340 0.638838
Si Si6 0.975429 0.627584 0.753369
Si Si7 0.703381 0.257490 0.950873
Si Si8 0.939899 0.808219 0.149049
O O1 0.419256 0.438094 0.427709
O O2 0.307729 0.884492 0.379547
O O3 0.532299 0.391017 0.102933
O O4 0.561092 0.202023 0.176965
O O5 0.178871 0.548844 0.787352
O O6 0.319366 0.087010 0.793735
O O7 0.099048 0.569807 0.081152
O O8 0.063119 0.815136 0.028562
O O9 0.255951 0.389915 0.280356
O O10 0.308988 0.037287 0.054350
O O11 0.500000 0.500000 0.000000
O O12 0.500000 0.500000 0.500000
O O13 0.500000 0.000000 0.500000
O O14 0.714493 0.238874 0.812184
O O15 0.935174 0.475609 0.438323
O O16 0.850715 0.560563 0.845246
O O17 0.082445 0.992699 0.706525
O O18 0.000000 0.000000 0.000000
#
# Coordination Sequence:
#
# PCOD9044025 Si02
#       8
#     2   2   2   2   2   2   2   2
#     4  11  24  43  70  99 141 190 241 298 377 429
#     4  10  23  46  68  99 138 191 237 298 376 435
#     4  11  20  41  69  94 138 189 241 296 363 433
#     4  12  31  47  76 112 148 189 255 312 364 447
#     4  11  24  40  64 107 135 184 245 295 353 447
#     4  11  24  39  70 100 144 183 235 302 365 436
#     4  11  22  42  68  97 143 190 230 297 368 440
#     4   9  21  41  71  92 135 185 235 291 367 437
#
# _framework density 23.244209000000001
#
# number of rings (size 3 to 8) (size 9 to 14) (size 15 to 20)
#    0.000    1.250    2.500    2.625    8.750    4.500 
#    0.000    0.000    0.000    0.000    0.000    0.000 
#    0.000    0.000    0.000    0.000    0.000    0.000 
#
# Total GULP energy -89241.865712 kJ/mol
# GULP energy per Si atom -5577.616607 kJ/mol
# Density = 2.319130 g / cm^3
# Si number density = 23.244209 Si / 1000 Ang^3
#
#
#
# Elastic Constant Matrix: (Units=GPa)
#
#
# Indices 1 2 3 4 5 6 
#
# 1 76.5659 21.3466 11.7302 16.9072 -6.6270 4.7075
# 2 21.3466 94.0312 7.6034 24.4574 -2.0230 0.0502
# 3 11.7302 7.6034 55.1768 22.7993 -14.7411 -12.7300
# 4 16.9072 24.4574 22.7993 35.7710 -6.5861 -4.0665
# 5 -6.6270 -2.0230 -14.7411 -6.5861 26.8392 0.7135
# 6 4.7075 0.0502 -12.7300 -4.0665 0.7135 29.7812
#
#
#
# Elastic Compliance Matrix: (Units=1/GPa)
#
#
# Indices 1 2 3 4 5 6 
#
# 1 0.015332 -0.001988 -0.001205 -0.005208 0.001794 -0.003690
# 2 -0.001988 0.013467 0.002567 -0.009996 -0.000520 0.000036
# 3 -0.001205 0.002567 0.031030 -0.017461 0.012367 0.010769
# 4 -0.005208 -0.009996 -0.017461 0.048425 0.000254 -0.000017
# 5 0.001794 -0.000520 0.012367 0.000254 0.044412 0.003975
# 6 -0.003690 0.000036 0.010769 -0.000017 0.003975 0.038667
#
#
# Mechanical properties :
#
#
# Convention : Reuss Voigt Hill
#
# Bulk Modulus (GPa) = 17.07205 34.12604 25.59904
# Shear Modulus (GPa) = 23.57244 30.81785 27.19515
#
# Velocity S-wave (km/s) = 3.18798 3.64514 3.42420
# Velocity P-wave (km/s) = 4.57292 5.69469 5.16435
#
# Compressibility (1/GPa) = 0.05857528
#
# Stress axis : x y z
#
# Youngs Moduli (GPa) = 65.22427 74.25462 32.22695
#
# Poissons Ratio (x) = 0.14761 0.03885
# Poissons Ratio (y) = 0.12966 -0.08271
# Poissons Ratio (z) = 0.07862 -0.19057
#
# Static dielectric constant tensor:
#      x y z
#    x 1.791650 -0.288640 0.151430 
#    y -0.288640 1.612230 0.313110 
#    z 0.151430 0.313110 1.655050 
# 
# From -- ./inp_files/542079.got.cif
#   From: 2010.05.17/outbox.cif.g08.bks.cpg/sg2_272_cif.got.tgz:542079.got - 2010.06.03 11:33:40.
