data_PCOD9044177
_publ_section_title
;
Structure prediction by ZEFSAII (Michael W. Deem and Ramdas Pophale) SiO2 
 PCOD9044177
Probable space group: P -1
;
_chemical_formula_sum "Si O2"
_cell_formula_units_Z 12
_cell_length_a 7.322623
_cell_length_b 7.494397
_cell_length_c 11.911507
_cell_angle_alpha 63.295930
_cell_angle_beta 122.359284
_cell_angle_gamma 94.594982
_cell_volume 482.006150
_symmetry_space_group_name_H-M "P -1"
_symmetry_group_IT_number 2
_symmetry_cell_setting 'triclinic'
loop_
_space_group_symop_operation_xyz
x,y,z
-x,-y,-z
loop_
_atom_site_type_symbol
_atom_site_label
_atom_site_fract_x
_atom_site_fract_y
_atom_site_fract_z
Si Si1 0.851243 0.830895 0.131196
Si Si2 0.818777 0.704497 0.903823
Si Si3 0.124242 0.145973 0.356757
Si Si4 0.647809 0.099822 0.295109
Si Si5 0.278451 0.558535 0.340975
Si Si6 0.469604 0.788841 0.155709
O O1 0.681161 0.713270 0.168509
O O2 0.094505 0.740913 0.282366
O O3 0.875234 0.786051 0.019612
O O4 0.717649 0.064795 0.022352
O O5 0.829199 0.853044 0.760377
O O6 0.557255 0.707157 0.826898
O O7 0.000000 0.500000 0.000000
O O8 0.166631 0.365386 0.347555
O O9 0.872897 0.133028 0.303741
O O10 0.283185 0.980011 0.533856
O O11 0.558083 0.927406 0.241743
O O12 0.500000 0.500000 0.500000
O O13 0.360640 0.629385 0.229654
#
# Coordination Sequence:
#
# PCOD9044177 Si02
#       6
#     2   2   2   2   2   2
#     4  10  24  45  70 101 138 179 228 279 343 408
#     4  11  23  45  72 101 138 179 227 283 339 407
#     4  11  24  46  68 105 135 182 228 280 344 401
#     4  10  24  46  71  98 140 179 229 280 341 406
#     4  12  24  44  70 102 140 178 231 279 340 406
#     4  10  23  46  71 100 135 182 225 283 341 403
#
# _framework density 24.895948000000001
#
# number of rings (size 3 to 8) (size 9 to 14) (size 15 to 20)
#    0.000    1.333    3.333    1.000    0.000    9.333 
#    6.000    0.000    0.000    0.000    0.000    0.000 
#    0.000    0.000    0.000    0.000    0.000    0.000 
#
# Total GULP energy -67191.424141 kJ/mol
# GULP energy per Si atom -5599.285345 kJ/mol
# Density = 2.483928 g / cm^3
# Si number density = 24.895948 Si / 1000 Ang^3
#
#
#
# Elastic Constant Matrix: (Units=GPa)
#
#
# Indices 1 2 3 4 5 6 
#
# 1 133.2674 8.7856 77.5540 3.3146 23.1695 -8.2728
# 2 8.7856 65.5651 5.4427 8.6583 22.0955 5.8745
# 3 77.5540 5.4427 140.2767 -0.8863 33.6361 -3.9271
# 4 3.3146 8.6583 -0.8863 24.0212 -1.9359 -1.1667
# 5 23.1695 22.0955 33.6361 -1.9359 59.9843 -0.0838
# 6 -8.2728 5.8745 -3.9271 -1.1667 -0.0838 41.4567
#
#
#
# Elastic Compliance Matrix: (Units=1/GPa)
#
#
# Indices 1 2 3 4 5 6 
#
# 1 0.011330 -0.000710 -0.006007 -0.001508 -0.000793 0.001748
# 2 -0.000710 0.019114 0.001389 -0.007511 -0.007792 -0.002946
# 3 -0.006007 0.001389 0.011499 0.000365 -0.004628 -0.000305
# 4 -0.001508 -0.007511 0.000365 0.045030 0.004601 0.002075
# 5 -0.000793 -0.007792 -0.004628 0.004601 0.022592 0.000683
# 6 0.001748 -0.002946 -0.000305 0.002075 0.000683 0.024919
#
#
# Mechanical properties :
#
#
# Convention : Reuss Voigt Hill
#
# Bulk Modulus (GPa) = 31.96110 58.07486 45.01798
# Shear Modulus (GPa) = 32.14011 41.58090 36.86051
#
# Velocity S-wave (km/s) = 3.59692 4.09123 3.85201
# Velocity P-wave (km/s) = 5.48782 6.75982 6.15676
#
# Compressibility (1/GPa) = 0.03128804
#
# Stress axis : x y z
#
# Youngs Moduli (GPa) = 88.26062 52.31895 86.96044
#
# Poissons Ratio (x) = 0.03714 0.52237
# Poissons Ratio (y) = 0.06266 -0.12082
# Poissons Ratio (z) = 0.53018 -0.07269
#
# Static dielectric constant tensor:
#      x y z
#    x 1.946520 0.008710 0.017050 
#    y 0.008710 2.043370 0.021230 
#    z 0.017050 0.021230 1.977610 
# 
# From -- ./inp_files/302006.got.cif
#   From: 2010.05.17/outbox.cif.g08.bks.cpg/sg2_152_cif.got.tgz:302006.got - 2010.06.03 11:33:40.
