data_PCOD9044469
_publ_section_title
;
Structure prediction by ZEFSAII (Michael W. Deem and Ramdas Pophale) SiO2 
 PCOD9044469
Probable space group: P -1
;
_chemical_formula_sum "Si O2"
_cell_formula_units_Z 12
_cell_length_a 4.810293
_cell_length_b 10.316759
_cell_length_c 12.038579
_cell_angle_alpha 113.993715
_cell_angle_beta 66.711810
_cell_angle_gamma 110.755533
_cell_volume 487.814868
_symmetry_space_group_name_H-M "P -1"
_symmetry_group_IT_number 2
_symmetry_cell_setting 'triclinic'
loop_
_space_group_symop_operation_xyz
x,y,z
-x,-y,-z
loop_
_atom_site_type_symbol
_atom_site_label
_atom_site_fract_x
_atom_site_fract_y
_atom_site_fract_z
Si Si1 0.080600 0.725407 0.508452
Si Si2 0.581846 0.531555 0.626747
Si Si3 0.255632 0.131893 0.556447
Si Si4 0.636004 0.143946 0.956557
Si Si5 0.675022 0.465911 0.105347
Si Si6 0.344750 0.219380 0.828028
O O1 0.228123 0.588390 0.414326
O O2 0.835482 0.686525 0.633911
O O3 0.886176 0.745738 0.438272
O O4 0.384960 0.852370 0.531421
O O5 0.500000 0.500000 0.500000
O O6 0.322535 0.527588 0.758619
O O7 0.286324 0.160292 0.691790
O O8 0.000000 0.000000 0.500000
O O9 0.557338 0.134085 0.833899
O O10 0.006112 0.182940 0.925388
O O11 0.523908 0.294236 0.051100
O O12 0.500000 0.000000 0.000000
O O13 0.533283 0.603491 0.137350
O O14 0.000000 0.500000 0.000000
#
# Coordination Sequence:
#
# PCOD9044469 Si02
#       6
#     2   2   2   2   2   2
#     4  11  23  43  68 107 149 188 241 303 376 441
#     4  11  22  44  75 108 150 191 243 316 374 444
#     4  12  25  45  71 107 147 196 249 305 376 448
#     4  11  25  46  68 103 140 189 240 305 374 443
#     4  10  23  46  76 109 144 196 252 306 374 448
#     4  11  23  46  72  98 143 188 244 307 364 443
#
# _framework density 24.599494
#
# number of rings (size 3 to 8) (size 9 to 14) (size 15 to 20)
#    0.000    1.000    3.333    2.500    0.000    2.667 
#   15.000    0.000    0.000    0.000    0.000    0.000 
#    0.000    0.000    0.000    0.000    0.000    0.000 
#
# Total GULP energy -66963.220302 kJ/mol
# GULP energy per Si atom -5580.268359 kJ/mol
# Density = 2.454350 g / cm^3
# Si number density = 24.599494 Si / 1000 Ang^3
#
#
#
# Elastic Constant Matrix: (Units=GPa)
#
#
# Indices 1 2 3 4 5 6 
#
# 1 131.3617 43.8467 43.0391 -19.4058 13.2662 0.6058
# 2 43.8467 173.5324 65.8471 -20.3602 17.1877 16.5636
# 3 43.0391 65.8471 129.0030 -29.3210 -0.0332 7.0853
# 4 -19.4058 -20.3602 -29.3210 32.4548 3.7495 1.8143
# 5 13.2662 17.1877 -0.0332 3.7495 35.7194 -13.1909
# 6 0.6058 16.5636 7.0853 1.8143 -13.1909 54.3697
#
#
#
# Elastic Compliance Matrix: (Units=1/GPa)
#
#
# Indices 1 2 3 4 5 6 
#
# 1 0.009445 -0.000792 -0.001801 0.004001 -0.003802 -0.000685
# 2 -0.000792 0.008349 -0.003197 0.002683 -0.005298 -0.003493
# 3 -0.001801 -0.003197 0.011681 0.007349 0.001275 -0.000464
# 4 0.004001 0.002683 0.007349 0.042911 -0.009310 -0.005510
# 5 -0.003802 -0.005298 0.001275 -0.009310 0.036907 0.010755
# 6 -0.000685 -0.003493 -0.000464 -0.005510 0.010755 0.022318
#
#
# Mechanical properties :
#
#
# Convention : Reuss Voigt Hill
#
# Bulk Modulus (GPa) = 55.88127 82.15146 69.01636
# Shear Modulus (GPa) = 33.52231 43.25306 38.38768
#
# Velocity S-wave (km/s) = 3.69551 4.19775 3.95461
# Velocity P-wave (km/s) = 6.40116 7.54737 6.99777
#
# Compressibility (1/GPa) = 0.01789509
#
# Stress axis : x y z
#
# Youngs Moduli (GPa) = 105.87511 119.77983 85.61242
#
# Poissons Ratio (x) = 0.09483 0.15418
# Poissons Ratio (y) = 0.08382 0.27370
# Poissons Ratio (z) = 0.19067 0.38293
#
# Static dielectric constant tensor:
#      x y z
#    x 2.018120 0.089440 0.016930 
#    y 0.089440 2.203430 0.021590 
#    z 0.016930 0.021590 2.008110 
# 
# From -- ./inp_files/360299.got.cif
#   From: 2010.05.17/outbox.cif.g08.bks.cpg/sg2_181_cif.got.tgz:360299.got - 2010.06.03 11:33:40.
