data_PCOD9044966
_publ_section_title
;
Structure prediction by ZEFSAII (Michael W. Deem and Ramdas Pophale) SiO2 
 PCOD9044966
Probable space group: P -1
;
_chemical_formula_sum "Si O2"
_cell_formula_units_Z 16
_cell_length_a 27.134734
_cell_length_b 24.076960
_cell_length_c 6.303112
_cell_angle_alpha 119.161344
_cell_angle_beta 119.694683
_cell_angle_gamma 10.882194
_cell_volume 675.328745
_symmetry_space_group_name_H-M "P -1"
_symmetry_group_IT_number 2
_symmetry_cell_setting 'triclinic'
loop_
_space_group_symop_operation_xyz
x,y,z
-x,-y,-z
loop_
_atom_site_type_symbol
_atom_site_label
_atom_site_fract_x
_atom_site_fract_y
_atom_site_fract_z
Si Si1 0.749845 0.592541 0.433847
Si Si2 0.457827 0.278029 0.492896
Si Si3 0.743551 0.201780 0.844617
Si Si4 0.120911 0.162662 0.055005
Si Si5 0.590815 0.242590 0.402333
Si Si6 0.720341 0.814655 0.609611
Si Si7 0.179500 0.779230 0.283843
Si Si8 0.147382 0.235215 0.878491
O O1 0.772704 0.507570 0.482429
O O2 0.861090 0.447715 0.175709
O O3 0.453424 0.940977 0.424405
O O4 0.918328 0.466262 0.656330
O O5 0.437207 0.359935 0.441942
O O6 0.651521 0.084069 0.739511
O O7 0.597756 0.071652 0.263327
O O8 0.716802 0.156633 0.666502
O O9 0.733634 0.250807 0.696206
O O10 0.500000 0.500000 0.000000
O O11 0.007680 0.929490 0.024711
O O12 0.098005 0.248260 0.010787
O O13 0.204046 0.015753 0.798800
O O14 0.395503 0.496313 0.310789
O O15 0.795361 0.757778 0.898101
O O16 0.000000 0.500000 0.500000
O O17 0.500000 0.000000 0.500000
O O18 0.000000 0.000000 0.500000
#
# Coordination Sequence:
#
# PCOD9044966 Si02
#       8
#     2   2   2   2   2   2   2   2
#     4  11  25  49  77 105 154 193 251 309 386 437
#     4  10  24  46  72 107 140 194 245 310 370 447
#     4  11  25  47  71 101 144 191 237 302 374 440
#     4  10  23  48  70 105 146 195 240 313 376 442
#     4  11  25  47  70 108 145 184 254 296 374 456
#     4  12  28  48  79 117 153 206 260 308 374 467
#     4  11  25  47  70 100 140 194 234 301 375 436
#     4  10  24  48  74 104 153 197 239 314 383 428
#
# _framework density 23.692164999999999
#
# number of rings (size 3 to 8) (size 9 to 14) (size 15 to 20)
#    0.000    1.250    2.500    1.125    7.000    1.000 
#   18.000    0.000    0.000    0.000    0.000    0.000 
#    0.000    0.000    0.000    0.000    0.000    0.000 
#
# Total GULP energy -89471.037191 kJ/mol
# GULP energy per Si atom -5591.939824 kJ/mol
# Density = 2.363824 g / cm^3
# Si number density = 23.692165 Si / 1000 Ang^3
#
#
#
# Elastic Constant Matrix: (Units=GPa)
#
#
# Indices 1 2 3 4 5 6 
#
# 1 128.5273 40.3168 52.4535 20.6070 -5.0226 -9.9649
# 2 40.3168 100.5754 46.8363 1.2269 5.4610 7.7752
# 3 52.4535 46.8363 130.4594 8.5883 14.8701 -9.5952
# 4 20.6070 1.2269 8.5883 51.4466 -7.1418 -13.5402
# 5 -5.0226 5.4610 14.8701 -7.1418 54.5597 0.4739
# 6 -9.9649 7.7752 -9.5952 -13.5402 0.4739 36.5907
#
#
#
# Elastic Compliance Matrix: (Units=1/GPa)
#
#
# Indices 1 2 3 4 5 6 
#
# 1 0.010660 -0.003018 -0.003082 -0.003026 0.001713 0.001594
# 2 -0.003018 0.013331 -0.003871 0.000269 -0.000482 -0.004564
# 3 -0.003082 -0.003871 0.010840 -0.000145 -0.002894 0.002810
# 4 -0.003026 0.000269 -0.000145 0.023032 0.002683 0.007569
# 5 0.001713 -0.000482 -0.002894 0.002683 0.019670 0.000548
# 6 0.001594 -0.004564 0.002810 0.007569 0.000548 0.032264
#
#
# Mechanical properties :
#
#
# Convention : Reuss Voigt Hill
#
# Bulk Modulus (GPa) = 67.15597 70.97502 69.06550
# Shear Modulus (GPa) = 37.11918 43.18310 40.15114
#
# Velocity S-wave (km/s) = 3.96249 4.27391 4.12114
# Velocity P-wave (km/s) = 7.02437 7.37410 7.20136
#
# Compressibility (1/GPa) = 0.01489071
#
# Stress axis : x y z
#
# Youngs Moduli (GPa) = 93.80453 75.01407 92.25023
#
# Poissons Ratio (x) = 0.22637 0.28429
# Poissons Ratio (y) = 0.28307 0.35710
# Poissons Ratio (z) = 0.28908 0.29038
#
# Static dielectric constant tensor:
#      x y z
#    x 1.943350 -0.008540 0.029100 
#    y -0.008540 1.927250 -0.041850 
#    z 0.029100 -0.041850 1.884220 
# 
# From -- ./inp_files/13268.got.cif
#   From: 2010.05.17/outbox.cif.g08.bks.cpg/sg2_7_cif.got.tgz:13268.got - 2010.06.03 11:33:40.
