data_PCOD9044389
_publ_section_title
;
Structure prediction by ZEFSAII (Michael W. Deem and Ramdas Pophale) SiO2 
 PCOD9044389
Probable space group: P -1
;
_chemical_formula_sum "Si O2"
_cell_formula_units_Z 10
_cell_length_a 9.679844
_cell_length_b 9.149196
_cell_length_c 12.571639
_cell_angle_alpha 58.294028
_cell_angle_beta 49.886780
_cell_angle_gamma 31.333303
_cell_volume 441.924234
_symmetry_space_group_name_H-M "P -1"
_symmetry_group_IT_number 2
_symmetry_cell_setting 'triclinic'
loop_
_space_group_symop_operation_xyz
x,y,z
-x,-y,-z
loop_
_atom_site_type_symbol
_atom_site_label
_atom_site_fract_x
_atom_site_fract_y
_atom_site_fract_z
Si Si1 0.379630 0.937074 0.160200
Si Si2 0.200088 0.207792 0.843298
Si Si3 0.778969 0.681656 0.443235
Si Si4 0.832507 0.300685 0.435742
Si Si5 0.469729 0.354478 0.997649
O O1 0.620977 0.769433 0.199451
O O2 0.358258 0.792835 0.144441
O O3 0.062746 0.201118 0.271450
O O4 0.500000 0.000000 0.000000
O O5 0.149820 0.273019 0.718720
O O6 0.865938 0.422414 0.962880
O O7 0.405320 0.891399 0.894266
O O8 0.776524 0.487066 0.480442
O O9 0.000000 0.500000 0.500000
O O10 0.500000 0.000000 0.500000
O O11 0.500000 0.500000 0.500000
O O12 0.000000 0.000000 0.500000
O O13 0.500000 0.500000 0.000000
#
# Coordination Sequence:
#
# PCOD9044389 Si02
#       5
#     2   2   2   2   2
#     4  10  23  46  73  99 139 193 238 284 355 449
#     4  11  23  44  68  98 139 189 244 291 355 442
#     4  12  25  45  70  98 138 194 244 293 357 438
#     4  12  27  46  70 107 147 186 241 307 367 423
#     4  11  24  41  69 108 141 178 236 309 365 416
#
# _framework density 22.628315000000001
#
# number of rings (size 3 to 8) (size 9 to 14) (size 15 to 20)
#    0.000    0.800    0.000    8.400    0.000    9.600 
#    0.000    2.000    0.000    0.000    0.000    0.000 
#    0.000    0.000    0.000    0.000    0.000    0.000 
#
# Total GULP energy -55752.441555 kJ/mol
# GULP energy per Si atom -5575.244156 kJ/mol
# Density = 2.257681 g / cm^3
# Si number density = 22.628315 Si / 1000 Ang^3
#
#
#
# Elastic Constant Matrix: (Units=GPa)
#
#
# Indices 1 2 3 4 5 6 
#
# 1 215.9232 101.0081 52.0657 24.5249 21.2359 7.5473
# 2 101.0081 218.2160 50.9830 6.8708 -0.8193 -4.8458
# 3 52.0657 50.9830 88.0896 12.5457 9.4973 -14.2604
# 4 24.5249 6.8708 12.5457 43.1472 -0.0214 -1.3236
# 5 21.2359 -0.8193 9.4973 -0.0214 36.3199 4.2298
# 6 7.5473 -4.8458 -14.2604 -1.3236 4.2298 59.1641
#
#
#
# Elastic Compliance Matrix: (Units=1/GPa)
#
#
# Indices 1 2 3 4 5 6 
#
# 1 0.007183 -0.002797 -0.002037 -0.003092 -0.003563 -0.001451
# 2 -0.002797 0.006431 -0.002491 0.001296 0.002417 0.000139
# 3 -0.002037 -0.002491 0.015397 -0.002803 -0.003352 0.003944
# 4 -0.003092 0.001296 -0.002803 0.025550 0.002560 0.000213
# 5 -0.003563 0.002417 -0.003352 0.002560 0.030817 -0.002301
# 6 -0.001451 0.000139 0.003944 0.000213 -0.002301 0.018219
#
#
# Mechanical properties :
#
#
# Convention : Reuss Voigt Hill
#
# Bulk Modulus (GPa) = 69.63784 103.37138 86.50461
# Shear Modulus (GPa) = 40.63885 48.93771 44.78828
#
# Velocity S-wave (km/s) = 4.24244 4.65550 4.45376
# Velocity P-wave (km/s) = 7.40535 8.64175 8.04733
#
# Compressibility (1/GPa) = 0.01436001
#
# Stress axis : x y z
#
# Youngs Moduli (GPa) = 139.20971 155.50090 64.94786
#
# Poissons Ratio (x) = 0.43499 0.13231
# Poissons Ratio (y) = 0.38942 0.16179
# Poissons Ratio (z) = 0.28359 0.38736
#
# Static dielectric constant tensor:
#      x y z
#    x 1.825090 0.028870 -0.021560 
#    y 0.028870 1.888490 0.001940 
#    z -0.021560 0.001940 1.940690 
# 
# From -- ./inp_files/162755.got.cif
#   From: 2010.05.17/outbox.cif.g08.bks.cpg/sg2_82_cif.got.tgz:162755.got - 2010.06.03 11:33:40.
