data_PCOD9044439
_publ_section_title
;
Structure prediction by ZEFSAII (Michael W. Deem and Ramdas Pophale) SiO2 
 PCOD9044439
Probable space group: P -1
;
_chemical_formula_sum "Si O2"
_cell_formula_units_Z 14
_cell_length_a 22.051323
_cell_length_b 16.210019
_cell_length_c 13.335461
_cell_angle_alpha 152.184692
_cell_angle_beta 152.816084
_cell_angle_gamma 15.125083
_cell_volume 554.829788
_symmetry_space_group_name_H-M "P -1"
_symmetry_group_IT_number 2
_symmetry_cell_setting 'triclinic'
loop_
_space_group_symop_operation_xyz
x,y,z
-x,-y,-z
loop_
_atom_site_type_symbol
_atom_site_label
_atom_site_fract_x
_atom_site_fract_y
_atom_site_fract_z
Si Si1 0.481789 0.814923 0.064373
Si Si2 0.127041 0.693210 0.642690
Si Si3 0.354706 0.241543 0.192415
Si Si4 0.500000 0.000000 0.500000
Si Si5 0.120572 0.392592 0.819290
Si Si6 0.973797 0.710427 0.749174
Si Si7 0.791374 0.241570 0.368602
Si Si8 0.000000 0.000000 0.000000
O O1 0.491271 0.932288 0.299123
O O2 0.764052 0.478964 0.082947
O O3 0.326091 0.091866 0.050100
O O4 0.374944 0.743712 0.849292
O O5 0.114602 0.849360 0.704786
O O6 0.973842 0.692995 0.382176
O O7 0.390527 0.315586 0.640835
O O8 0.028094 0.861311 0.785571
O O9 0.333973 0.432464 0.437378
O O10 0.625728 0.920099 0.200593
O O11 0.172471 0.450848 0.055273
O O12 0.937925 0.681077 0.778303
O O13 0.000000 0.500000 0.500000
O O14 0.821846 0.033551 0.822818
O O15 0.000000 0.000000 0.500000
#
# Coordination Sequence:
#
# PCOD9044439 Si02
#       8
#     2   2   2   1   2   2   2   1
#     4  11  25  46  71 105 145 193 245 298 369 450
#     4  12  27  47  76 108 152 196 252 305 378 450
#     4  10  24  48  73 103 148 191 254 303 373 437
#     4  12  24  48  70 106 144 198 232 304 376 438
#     4  10  23  46  75 103 141 202 242 312 366 444
#     4  11  23  45  72 103 146 188 245 306 370 433
#     4  12  29  47  74 112 149 200 244 310 372 450
#     4  12  26  44  70 114 136 190 246 304 364 446
#
# _framework density 25.232963000000002
#
# number of rings (size 3 to 8) (size 9 to 14) (size 15 to 20)
#    0.000    0.857    4.286    0.857    6.000    2.857 
#    2.571    2.857    0.000    0.000    0.000    0.000 
#    0.000    0.000    0.000    0.000    0.000    0.000 
#
# Total GULP energy -77991.231183 kJ/mol
# GULP energy per Si atom -5570.802227 kJ/mol
# Density = 2.517553 g / cm^3
# Si number density = 25.232963 Si / 1000 Ang^3
#
#
#
# Elastic Constant Matrix: (Units=GPa)
#
#
# Indices 1 2 3 4 5 6 
#
# 1 109.6311 29.0180 9.6496 4.0881 17.3221 28.2760
# 2 29.0180 70.1700 24.4734 -0.8751 -11.5634 15.0897
# 3 9.6496 24.4734 103.4244 11.2815 7.0860 0.7095
# 4 4.0881 -0.8751 11.2815 26.4510 6.1538 -11.2725
# 5 17.3221 -11.5634 7.0860 6.1538 60.4458 0.2925
# 6 28.2760 15.0897 0.7095 -11.2725 0.2925 35.0586
#
#
#
# Elastic Compliance Matrix: (Units=1/GPa)
#
#
# Indices 1 2 3 4 5 6 
#
# 1 0.014135 -0.004420 0.000823 -0.006640 -0.004261 -0.011615
# 2 -0.004420 0.019644 -0.004575 -0.000094 0.005594 -0.004875
# 3 0.000823 -0.004575 0.011342 -0.004865 -0.001943 -0.000472
# 4 -0.006640 -0.000094 -0.004865 0.050887 -0.002831 0.021880
# 5 -0.004261 0.005594 -0.001943 -0.002831 0.019351 -0.000004
# 6 -0.011615 -0.004875 -0.000472 0.021880 -0.000004 0.047034
#
#
# Mechanical properties :
#
#
# Convention : Reuss Voigt Hill
#
# Bulk Modulus (GPa) = 34.75100 45.50083 40.12591
# Shear Modulus (GPa) = 26.54921 39.06338 32.80630
#
# Velocity S-wave (km/s) = 3.24723 3.93887 3.60965
# Velocity P-wave (km/s) = 5.27838 6.22557 5.77144
#
# Compressibility (1/GPa) = 0.02877615
#
# Stress axis : x y z
#
# Youngs Moduli (GPa) = 70.74464 50.90718 88.16903
#
# Poissons Ratio (x) = 0.22500 -0.07256
# Poissons Ratio (y) = 0.31268 0.40341
# Poissons Ratio (z) = -0.05822 0.23292
#
# Static dielectric constant tensor:
#      x y z
#    x 1.886980 -0.269740 0.007120 
#    y -0.269740 1.516530 -0.070330 
#    z 0.007120 -0.070330 1.811560 
# 
# From -- ./inp_files/416218.got.cif
#   From: 2010.05.17/outbox.cif.g08.bks.cpg/sg2_209_cif.got.tgz:416218.got - 2010.06.03 11:33:40.
