data_PCOD9044182
_publ_section_title
;
Structure prediction by ZEFSAII (Michael W. Deem and Ramdas Pophale) SiO2 
 PCOD9044182
Probable space group: P -1
;
_chemical_formula_sum "Si O2"
_cell_formula_units_Z 10
_cell_length_a 10.465782
_cell_length_b 5.601971
_cell_length_c 6.822562
_cell_angle_alpha 105.581431
_cell_angle_beta 86.215209
_cell_angle_gamma 96.443619
_cell_volume 382.597018
_symmetry_space_group_name_H-M "P -1"
_symmetry_group_IT_number 2
_symmetry_cell_setting 'triclinic'
loop_
_space_group_symop_operation_xyz
x,y,z
-x,-y,-z
loop_
_atom_site_type_symbol
_atom_site_label
_atom_site_fract_x
_atom_site_fract_y
_atom_site_fract_z
Si Si1 0.631738 0.870028 0.256633
Si Si2 0.120583 0.137570 0.626728
Si Si3 0.789910 0.534528 0.887681
Si Si4 0.917431 0.292536 0.148986
Si Si5 0.604632 0.339341 0.541243
O O1 0.483026 0.796932 0.305909
O O2 0.727054 0.846322 0.431326
O O3 0.636200 0.168658 0.315734
O O4 0.688624 0.690932 0.050579
O O5 0.120877 0.945087 0.767858
O O6 0.097144 0.426855 0.710026
O O7 0.000000 0.000000 0.500000
O O8 0.729943 0.453121 0.668344
O O9 0.928014 0.694232 0.886471
O O10 0.833863 0.301314 0.959422
O O11 0.500000 0.500000 0.500000
#
# Coordination Sequence:
#
# PCOD9044182 Si02
#       5
#     2   2   2   2   2
#     4  10  25  44  64 104 131 187 232 282 355 408
#     4  11  23  42  73 104 145 180 233 293 353 420
#     4  10  23  46  71 100 143 179 229 294 349 418
#     4  10  24  43  69 110 135 185 232 286 361 422
#     4  11  25  45  67  99 139 183 241 285 341 418
#
# _framework density 26.137165
#
# number of rings (size 3 to 8) (size 9 to 14) (size 15 to 20)
#    0.000    1.600    0.000    2.400    8.400    8.000 
#   14.400    0.000    0.000    0.000    0.000    0.000 
#    0.000    0.000    0.000    0.000    0.000    0.000 
#
# Total GULP energy -55735.172479 kJ/mol
# GULP energy per Si atom -5573.517248 kJ/mol
# Density = 2.607768 g / cm^3
# Si number density = 26.137165 Si / 1000 Ang^3
#
#
#
# Elastic Constant Matrix: (Units=GPa)
#
#
# Indices 1 2 3 4 5 6 
#
# 1 130.7815 31.7852 21.1049 -2.2592 -10.0865 -10.3000
# 2 31.7852 132.7198 57.1499 2.6818 2.3139 -13.1898
# 3 21.1049 57.1499 55.5609 -6.0985 11.3089 2.1850
# 4 -2.2592 2.6818 -6.0985 39.0074 -13.6338 -9.6306
# 5 -10.0865 2.3139 11.3089 -13.6338 56.7741 3.8519
# 6 -10.3000 -13.1898 2.1850 -9.6306 3.8519 37.7510
#
#
#
# Elastic Compliance Matrix: (Units=1/GPa)
#
#
# Indices 1 2 3 4 5 6 
#
# 1 0.008696 -0.000543 -0.003165 0.001499 0.002388 0.002505
# 2 -0.000543 0.015162 -0.016138 -0.001635 0.001735 0.005489
# 3 -0.003165 -0.016138 0.037667 0.002829 -0.006231 -0.007325
# 4 0.001499 -0.001635 0.002829 0.030234 0.006574 0.006716
# 5 0.002388 0.001735 -0.006231 0.006574 0.020707 0.001183
# 6 0.002505 0.005489 -0.007325 0.006716 0.001183 0.031107
#
#
# Mechanical properties :
#
#
# Convention : Reuss Voigt Hill
#
# Bulk Modulus (GPa) = 45.80056 59.90467 52.85261
# Shear Modulus (GPa) = 26.24081 40.64130 33.44105
#
# Velocity S-wave (km/s) = 3.17198 3.94753 3.58081
# Velocity P-wave (km/s) = 5.56565 6.61411 6.11240
#
# Compressibility (1/GPa) = 0.02183380
#
# Stress axis : x y z
#
# Youngs Moduli (GPa) = 114.99083 65.95371 26.54845
#
# Poissons Ratio (x) = 0.03580 0.08402
# Poissons Ratio (y) = 0.06242 0.42844
# Poissons Ratio (z) = 0.36394 1.06437
#
# Static dielectric constant tensor:
#      x y z
#    x 2.276010 0.122640 -0.124450 
#    y 0.122640 2.165940 -0.027740 
#    z -0.124450 -0.027740 2.189770 
# 
# From -- ./inp_files/33759.got.cif
#   From: 2010.05.17/outbox.cif.g08.bks.cpg/sg2_17_cif.got.tgz:33759.got - 2010.06.03 11:33:40.
