data_PCOD9044758
_publ_section_title
;
Structure prediction by ZEFSAII (Michael W. Deem and Ramdas Pophale) SiO2 
 PCOD9044758
Probable space group: P -1
;
_chemical_formula_sum "Si O2"
_cell_formula_units_Z 12
_cell_length_a 9.558895
_cell_length_b 14.927675
_cell_length_c 10.486483
_cell_angle_alpha 149.993870
_cell_angle_beta 133.234421
_cell_angle_gamma 36.519962
_cell_volume 445.018300
_symmetry_space_group_name_H-M "P -1"
_symmetry_group_IT_number 2
_symmetry_cell_setting 'triclinic'
loop_
_space_group_symop_operation_xyz
x,y,z
-x,-y,-z
loop_
_atom_site_type_symbol
_atom_site_label
_atom_site_fract_x
_atom_site_fract_y
_atom_site_fract_z
Si Si1 0.720525 0.631641 0.981411
Si Si2 0.124800 0.748917 0.730243
Si Si3 0.948256 0.244324 0.035480
Si Si4 0.470718 0.085962 0.256294
Si Si5 0.735936 0.220420 0.407545
Si Si6 0.280781 0.308999 0.672174
O O1 0.621256 0.823245 0.049662
O O2 0.610605 0.758328 0.203114
O O3 0.707216 0.425182 0.708241
O O4 0.000000 0.500000 0.000000
O O5 0.938393 0.709747 0.507599
O O6 0.202809 0.650125 0.798451
O O7 0.297993 0.710332 0.678040
O O8 0.000000 0.000000 0.000000
O O9 0.832091 0.434066 0.094860
O O10 0.205517 0.179025 0.160941
O O11 0.008030 0.016411 0.735823
O O12 0.581023 0.160501 0.314052
O O13 0.447768 0.186916 0.505727
#
# Coordination Sequence:
#
# PCOD9044758 Si02
#       6
#     2   2   2   2   2   2
#     4  12  26  46  71 101 144 187 227 288 346 418
#     4   9  19  40  66  99 130 179 226 278 337 406
#     4  10  23  47  73 100 141 183 229 292 344 408
#     4  11  25  46  70 105 140 180 235 291 341 410
#     4  11  24  44  70 107 135 185 235 283 347 413
#     4  11  23  48  70  99 146 182 226 288 351 409
#
# _framework density 26.965185000000002
#
# number of rings (size 3 to 8) (size 9 to 14) (size 15 to 20)
#    0.000    1.333    1.667    4.000    0.000    4.000 
#   27.000    0.000    0.000    0.000    0.000    0.000 
#    0.000    0.000    0.000    0.000    0.000    0.000 
#
# Total GULP energy -67180.579646 kJ/mol
# GULP energy per Si atom -5598.381637 kJ/mol
# Density = 2.690381 g / cm^3
# Si number density = 26.965185 Si / 1000 Ang^3
#
#
#
# Elastic Constant Matrix: (Units=GPa)
#
#
# Indices 1 2 3 4 5 6 
#
# 1 197.0702 57.9165 65.0468 -0.7939 -3.4902 40.4159
# 2 57.9165 116.9894 45.0846 20.8440 10.6360 31.5370
# 3 65.0468 45.0846 170.2570 9.8120 -8.7028 22.7753
# 4 -0.7939 20.8440 9.8120 32.8826 16.0592 -8.1648
# 5 -3.4902 10.6360 -8.7028 16.0592 54.5937 -2.0811
# 6 40.4159 31.5370 22.7753 -8.1648 -2.0811 48.7379
#
#
#
# Elastic Compliance Matrix: (Units=1/GPa)
#
#
# Indices 1 2 3 4 5 6 
#
# 1 0.006957 -0.002054 -0.001705 0.001056 0.000131 -0.003461
# 2 -0.002054 0.014390 -0.001226 -0.010876 -0.000269 -0.008869
# 3 -0.001705 -0.001226 0.007337 -0.002871 0.002083 -0.001613
# 4 0.001056 -0.010876 -0.002871 0.047627 -0.011710 0.014982
# 5 0.000131 -0.000269 0.002083 -0.011710 0.022081 -0.001926
# 6 -0.003461 -0.008869 -0.001613 0.014982 -0.001926 0.032308
#
#
# Mechanical properties :
#
#
# Convention : Reuss Voigt Hill
#
# Bulk Modulus (GPa) = 53.43796 91.15695 72.29745
# Shear Modulus (GPa) = 34.03449 48.32744 41.18097
#
# Velocity S-wave (km/s) = 3.55655 4.23805 3.91217
# Velocity P-wave (km/s) = 6.06018 7.60440 6.87578
#
# Compressibility (1/GPa) = 0.01871329
#
# Stress axis : x y z
#
# Youngs Moduli (GPa) = 143.73626 69.49114 136.28764
#
# Poissons Ratio (x) = 0.14274 0.23241
# Poissons Ratio (y) = 0.29525 0.16715
# Poissons Ratio (z) = 0.24511 0.08523
#
# Static dielectric constant tensor:
#      x y z
#    x 2.202900 0.014870 0.012780 
#    y 0.014870 2.120060 -0.041280 
#    z 0.012780 -0.041280 2.120740 
# 
# From -- ./inp_files/396796.got.cif
#   From: 2010.05.17/outbox.cif.g08.bks.cpg/sg2_199_cif.got.tgz:396796.got - 2010.06.03 11:33:40.
