data_PCOD9044852
_publ_section_title
;
Structure prediction by ZEFSAII (Michael W. Deem and Ramdas Pophale) SiO2 
 PCOD9044852
Probable space group: P -1
;
_chemical_formula_sum "Si O2"
_cell_formula_units_Z 16
_cell_length_a 20.324629
_cell_length_b 9.066624
_cell_length_c 8.009266
_cell_angle_alpha 48.456401
_cell_angle_beta 124.115365
_cell_angle_gamma 139.912340
_cell_volume 706.955926
_symmetry_space_group_name_H-M "P -1"
_symmetry_group_IT_number 2
_symmetry_cell_setting 'triclinic'
loop_
_space_group_symop_operation_xyz
x,y,z
-x,-y,-z
loop_
_atom_site_type_symbol
_atom_site_label
_atom_site_fract_x
_atom_site_fract_y
_atom_site_fract_z
Si Si1 0.612337 0.257363 0.921720
Si Si2 0.096971 0.460902 0.668658
Si Si3 0.592033 0.989012 0.607638
Si Si4 0.251563 0.911657 0.746452
Si Si5 0.971981 0.411796 0.828415
Si Si6 0.439412 0.502451 0.563506
Si Si7 0.279621 0.488520 0.807196
Si Si8 0.235538 0.001377 0.996277
O O1 0.605944 0.361095 0.663541
O O2 0.693317 0.211015 0.066468
O O3 0.651906 0.459163 0.974047
O O4 0.500000 0.000000 0.000000
O O5 0.178067 0.768077 0.592463
O O6 0.035365 0.418006 0.444320
O O7 0.167358 0.383496 0.785317
O O8 0.035250 0.358999 0.835144
O O9 0.526116 0.696025 0.672997
O O10 0.673485 0.014341 0.829149
O O11 0.500000 0.000000 0.500000
O O12 0.663657 0.231418 0.402741
O O13 0.344001 0.210034 0.667624
O O14 0.187463 0.866743 0.851082
O O15 0.853798 0.155102 0.877171
O O16 0.000000 0.500000 0.000000
O O17 0.500000 0.500000 0.500000
O O18 0.274520 0.287983 0.836439
#
# Coordination Sequence:
#
# PCOD9044852 Si02
#       8
#     2   2   2   2   2   2   2   2
#     4  11  21  38  60  88 133 184 231 282 331 401
#     4  10  23  47  75  98 143 178 225 306 355 414
#     4  12  25  41  63  96 148 189 225 287 337 402
#     4  11  24  41  64 100 133 182 233 277 347 414
#     4  11  23  47  79 103 133 181 233 293 369 418
#     4  12  22  36  62  92 131 183 233 273 331 402
#     4  11  24  42  64 103 137 181 239 281 348 417
#     4  12  26  42  72 100 139 184 236 291 349 425
#
# _framework density 22.632245000000001
#
# number of rings (size 3 to 8) (size 9 to 14) (size 15 to 20)
#    0.000    0.750    5.000    3.000    1.750    1.500 
#    0.000    0.625    0.000    0.000    0.000    0.000 
#    0.000    0.000    0.000    0.000    0.000    0.000 
#
# Total GULP energy -89116.213004 kJ/mol
# GULP energy per Si atom -5569.763313 kJ/mol
# Density = 2.258073 g / cm^3
# Si number density = 22.632245 Si / 1000 Ang^3
#
#
#
# Elastic Constant Matrix: (Units=GPa)
#
#
# Indices 1 2 3 4 5 6 
#
# 1 140.6160 28.0365 20.1725 2.9086 -4.5300 4.1850
# 2 28.0365 74.4144 30.1688 18.6315 -0.3751 -14.6477
# 3 20.1725 30.1688 77.9730 18.9558 -2.4381 -1.9570
# 4 2.9086 18.6315 18.9558 43.1565 1.4628 -9.0332
# 5 -4.5300 -0.3751 -2.4381 1.4628 35.8105 -0.8067
# 6 4.1850 -14.6477 -1.9570 -9.0332 -0.8067 36.7260
#
#
#
# Elastic Compliance Matrix: (Units=1/GPa)
#
#
# Indices 1 2 3 4 5 6 
#
# 1 0.007965 -0.003173 -0.001065 0.000854 0.000822 -0.002002
# 2 -0.003173 0.019216 -0.005408 -0.004301 -0.000242 0.006674
# 3 -0.001065 -0.005408 0.016474 -0.005381 0.001095 -0.002457
# 4 0.000854 -0.004301 -0.005381 0.028396 -0.001354 0.004855
# 5 0.000822 -0.000242 0.001095 -0.001354 0.028160 0.000154
# 6 -0.002002 0.006674 -0.002457 0.004855 0.000154 0.031185
#
#
# Mechanical properties :
#
#
# Convention : Reuss Voigt Hill
#
# Bulk Modulus (GPa) = 41.04784 49.97323 45.51054
# Shear Modulus (GPa) = 31.48424 37.44697 34.46561
#
# Velocity S-wave (km/s) = 3.73382 4.07207 3.90661
# Velocity P-wave (km/s) = 6.06340 6.65113 6.36405
#
# Compressibility (1/GPa) = 0.02436182
#
# Stress axis : x y z
#
# Youngs Moduli (GPa) = 125.54295 52.04064 60.70273
#
# Poissons Ratio (x) = 0.16512 0.06466
# Poissons Ratio (y) = 0.39834 0.32830
# Poissons Ratio (z) = 0.13374 0.28145
#
# Static dielectric constant tensor:
#      x y z
#    x 1.973450 0.227450 -0.176240 
#    y 0.227450 3.292920 -0.837550 
#    z -0.176240 -0.837550 2.388340 
# 
# From -- ./inp_files/342468.got.cif
#   From: 2010.05.17/outbox.cif.g08.bks.cpg/sg2_172_cif.got.tgz:342468.got - 2010.06.03 11:33:40.
