data_PCOD9044089
_publ_section_title
;
Structure prediction by ZEFSAII (Michael W. Deem and Ramdas Pophale) SiO2 
 PCOD9044089
Probable space group: P -1
;
_chemical_formula_sum "Si O2"
_cell_formula_units_Z 15
_cell_length_a 11.241327
_cell_length_b 8.139395
_cell_length_c 12.041782
_cell_angle_alpha 91.654015
_cell_angle_beta 103.522758
_cell_angle_gamma 39.046262
_cell_volume 653.510961
_symmetry_space_group_name_H-M "P -1"
_symmetry_group_IT_number 2
_symmetry_cell_setting 'triclinic'
loop_
_space_group_symop_operation_xyz
x,y,z
-x,-y,-z
loop_
_atom_site_type_symbol
_atom_site_label
_atom_site_fract_x
_atom_site_fract_y
_atom_site_fract_z
Si Si1 0.630362 0.644173 0.418332
Si Si2 0.500000 0.500000 0.500000
Si Si3 0.135998 0.103412 0.005948
Si Si4 0.173214 0.233699 0.784114
Si Si5 0.455829 0.224634 0.849388
Si Si6 0.498076 0.253332 0.290721
Si Si7 0.725874 0.420084 0.978051
Si Si8 0.743782 0.768210 0.626831
O O1 0.681285 0.420956 0.482844
O O2 0.636095 0.636596 0.287863
O O3 0.734055 0.684976 0.504628
O O4 0.389516 0.924159 0.401705
O O5 0.479769 0.418414 0.377052
O O6 0.303603 0.031121 0.104664
O O7 0.204119 0.841778 0.017338
O O8 0.919161 0.333963 0.018928
O O9 0.123256 0.174576 0.877379
O O10 0.352154 0.164824 0.857836
O O11 0.970544 0.541105 0.710279
O O12 0.273427 0.032830 0.698277
O O13 0.397368 0.415766 0.934755
O O14 0.382858 0.217859 0.317998
O O15 0.396104 0.411045 0.155937
#
# Coordination Sequence:
#
# PCOD9044089 Si02
#       8
#     2   1   2   2   2   2   2   2
#     4  10  23  46  69  97 134 176 227 279 340 395
#     4  10  24  44  76  92 128 182 220 280 338 394
#     4  11  25  43  65 102 139 187 222 275 340 401
#     4  12  25  41  71 102 139 178 229 277 339 403
#     4  12  25  41  68 107 133 179 225 281 337 407
#     4  11  22  46  67 101 135 181 225 279 336 398
#     4  11  25  43  69  98 146 180 224 279 340 402
#     4  10  23  47  66  95 139 179 224 282 332 401
#
# _framework density 22.952943999999999
#
# number of rings (size 3 to 8) (size 9 to 14) (size 15 to 20)
#    0.000    1.067    4.000    1.600    3.733    1.067 
#    0.000    2.667    0.000    0.000    0.000    0.000 
#    0.000    0.000    0.000    0.000    0.000    0.000 
#
# Total GULP energy -83665.402215 kJ/mol
# GULP energy per Si atom -5577.693481 kJ/mol
# Density = 2.290070 g / cm^3
# Si number density = 22.952944 Si / 1000 Ang^3
#
#
#
# Elastic Constant Matrix: (Units=GPa)
#
#
# Indices 1 2 3 4 5 6 
#
# 1 69.5245 1.7647 9.1796 -1.0389 7.2585 -25.6448
# 2 1.7647 42.4218 22.8064 7.1260 15.3381 -16.8726
# 3 9.1796 22.8064 101.9720 18.3734 -5.4712 -9.7926
# 4 -1.0389 7.1260 18.3734 41.8919 -5.8436 5.8772
# 5 7.2585 15.3381 -5.4712 -5.8436 38.6306 -1.7769
# 6 -25.6448 -16.8726 -9.7926 5.8772 -1.7769 29.3492
#
#
#
# Elastic Compliance Matrix: (Units=1/GPa)
#
#
# Indices 1 2 3 4 5 6 
#
# 1 0.030345 0.023353 -0.003223 -0.009495 -0.015033 0.039857
# 2 0.023353 0.064587 -0.009513 -0.018522 -0.031598 0.056158
# 3 -0.003223 -0.009513 0.012734 -0.002824 0.005615 -0.003131
# 4 -0.009495 -0.018522 -0.002824 0.033404 0.012604 -0.025813
# 5 -0.015033 -0.031598 0.005615 0.012604 0.042607 -0.029372
# 6 0.039857 0.056158 -0.003131 -0.025813 -0.029372 0.103529
#
#
# Mechanical properties :
#
#
# Convention : Reuss Voigt Hill
#
# Bulk Modulus (GPa) = 7.75787 31.26886 19.51337
# Shear Modulus (GPa) = 16.18440 33.98551 25.08496
#
# Velocity S-wave (km/s) = 2.65828 3.85211 3.30947
# Velocity P-wave (km/s) = 3.57899 5.78253 4.80868
#
# Compressibility (1/GPa) = 0.12890138
#
# Stress axis : x y z
#
# Youngs Moduli (GPa) = 32.95403 15.48294 78.53138
#
# Poissons Ratio (x) = -0.36158 0.25311
# Poissons Ratio (y) = -0.76958 0.74704
# Poissons Ratio (z) = 0.10621 0.14728
#
# Static dielectric constant tensor:
#      x y z
#    x 1.916730 0.057390 -0.037490 
#    y 0.057390 1.951430 -0.024190 
#    z -0.037490 -0.024190 1.855310 
# 
# From -- ./inp_files/355247.got.cif
#   From: 2010.05.17/outbox.cif.g08.bks.cpg/sg2_178_cif.got.tgz:355247.got - 2010.06.03 11:33:40.
