data_PCOD9044474
_publ_section_title
;
Structure prediction by ZEFSAII (Michael W. Deem and Ramdas Pophale) SiO2 
 PCOD9044474
Probable space group: P -1
;
_chemical_formula_sum "Si O2"
_cell_formula_units_Z 14
_cell_length_a 7.144074
_cell_length_b 12.476428
_cell_length_c 9.293173
_cell_angle_alpha 137.955162
_cell_angle_beta 83.662647
_cell_angle_gamma 94.431489
_cell_volume 551.334807
_symmetry_space_group_name_H-M "P -1"
_symmetry_group_IT_number 2
_symmetry_cell_setting 'triclinic'
loop_
_space_group_symop_operation_xyz
x,y,z
-x,-y,-z
loop_
_atom_site_type_symbol
_atom_site_label
_atom_site_fract_x
_atom_site_fract_y
_atom_site_fract_z
Si Si1 0.277929 0.524183 0.568273
Si Si2 0.198038 0.000961 0.787412
Si Si3 0.216335 0.633519 0.386974
Si Si4 0.225047 0.026376 0.493558
Si Si5 0.500000 0.000000 0.000000
Si Si6 0.000000 0.500000 0.000000
Si Si7 0.147631 0.775646 0.041443
Si Si8 0.365223 0.268548 0.510214
O O1 0.500000 0.500000 0.500000
O O2 0.181089 0.523168 0.420227
O O3 0.254361 0.694930 0.818441
O O4 0.231760 0.389878 0.555440
O O5 0.301688 0.015716 0.637258
O O6 0.148461 0.813339 0.610375
O O7 0.322184 0.049346 0.959154
O O8 0.013985 0.111395 0.899063
O O9 0.444504 0.645175 0.368829
O O10 0.136119 0.576472 0.188027
O O11 0.262810 0.194902 0.583076
O O12 0.000000 0.000000 0.500000
O O13 0.280729 0.886607 0.238746
O O14 0.431509 0.131103 0.259326
O O15 0.937115 0.357664 0.980465
#
# Coordination Sequence:
#
# PCOD9044474 Si02
#       8
#     2   2   2   2   1   1   2   2
#     4  10  25  49  74 112 161 204 260 324 392 465
#     4  10  23  48  73 116 151 205 257 319 384 472
#     4  10  24  48  74 113 159 202 263 317 392 468
#     4  10  23  46  76 114 154 201 261 321 387 469
#     4  10  24  44  78 110 152 206 256 312 390 462
#     4  12  26  48  74 116 156 210 258 320 398 462
#     4  11  26  44  79 113 153 209 260 321 393 463
#     4  10  24  47  79 110 155 205 262 324 386 468
#
# _framework density 25.392918000000002
#
# number of rings (size 3 to 8) (size 9 to 14) (size 15 to 20)
#    0.000    1.714    1.429    0.000   12.000    3.429 
#    2.571    2.857    0.000    0.000    0.000    0.000 
#    0.000    0.000    0.000    0.000    0.000    0.000 
#
# Total GULP energy -77999.723230 kJ/mol
# GULP energy per Si atom -5571.408802 kJ/mol
# Density = 2.533512 g / cm^3
# Si number density = 25.392918 Si / 1000 Ang^3
#
#
#
# Elastic Constant Matrix: (Units=GPa)
#
#
# Indices 1 2 3 4 5 6 
#
# 1 102.4051 59.6378 57.1203 -17.7782 15.8414 -19.4257
# 2 59.6378 174.1537 24.8793 -1.8723 21.5414 -14.4960
# 3 57.1203 24.8793 103.1054 -41.1821 16.7561 -24.5976
# 4 -17.7782 -1.8723 -41.1821 34.5711 -20.1594 12.4428
# 5 15.8414 21.5414 16.7561 -20.1594 51.2754 -0.3221
# 6 -19.4257 -14.4960 -24.5976 12.4428 -0.3221 44.9015
#
#
#
# Elastic Compliance Matrix: (Units=1/GPa)
#
#
# Indices 1 2 3 4 5 6 
#
# 1 0.017633 -0.004181 -0.009895 -0.005226 -0.002498 0.002288
# 2 -0.004181 0.007856 -0.000707 -0.005528 -0.003939 0.001844
# 3 -0.009895 -0.000707 0.026569 0.029495 0.006280 0.001917
# 4 -0.005226 -0.005528 0.029495 0.079417 0.025461 -0.009713
# 5 -0.002498 -0.003939 0.006280 0.025461 0.029851 -0.005754
# 6 0.002288 0.001844 0.001917 -0.009713 -0.005754 0.027557
#
#
# Mechanical properties :
#
#
# Convention : Reuss Voigt Hill
#
# Bulk Modulus (GPa) = 44.46353 73.65989 59.06171
# Shear Modulus (GPa) = 22.12911 42.01806 32.07358
#
# Velocity S-wave (km/s) = 2.95527 4.07223 3.55786
# Velocity P-wave (km/s) = 5.40306 7.15414 6.33935
#
# Compressibility (1/GPa) = 0.02249034
#
# Stress axis : x y z
#
# Youngs Moduli (GPa) = 56.71225 127.28738 37.63789
#
# Poissons Ratio (x) = 0.53224 0.37244
# Poissons Ratio (y) = 0.23714 0.02661
# Poissons Ratio (z) = 0.56119 0.09000
#
# Static dielectric constant tensor:
#      x y z
#    x 2.067810 0.088020 -0.096080 
#    y 0.088020 2.072260 0.051140 
#    z -0.096080 0.051140 1.993510 
# 
# From -- ./inp_files/191123.got.cif
#   From: 2010.05.17/outbox.cif.g08.bks.cpg/sg2_96_cif.got.tgz:191123.got - 2010.06.03 11:33:40.
