data_PCOD9044135
_publ_section_title
;
Structure prediction by ZEFSAII (Michael W. Deem and Ramdas Pophale) SiO2 
 PCOD9044135
Probable space group: P -1
;
_chemical_formula_sum "Si O2"
_cell_formula_units_Z 15
_cell_length_a 20.406043
_cell_length_b 11.748882
_cell_length_c 5.148705
_cell_angle_alpha 99.127163
_cell_angle_beta 87.616904
_cell_angle_gamma 30.636353
_cell_volume 580.870371
_symmetry_space_group_name_H-M "P -1"
_symmetry_group_IT_number 2
_symmetry_cell_setting 'triclinic'
loop_
_space_group_symop_operation_xyz
x,y,z
-x,-y,-z
loop_
_atom_site_type_symbol
_atom_site_label
_atom_site_fract_x
_atom_site_fract_y
_atom_site_fract_z
Si Si1 0.408870 0.295752 0.038440
Si Si2 0.225288 0.042383 0.315168
Si Si3 0.000000 0.000000 0.000000
Si Si4 0.488693 0.407962 0.780575
Si Si5 0.000531 0.623733 0.173292
Si Si6 0.719930 0.795713 0.836693
Si Si7 0.213090 0.869640 0.857811
Si Si8 0.247685 0.457681 0.622785
O O1 0.308022 0.432658 0.348628
O O2 0.434826 0.383751 0.953105
O O3 0.343648 0.332668 0.811558
O O4 0.560900 0.021891 0.006550
O O5 0.067639 0.294536 0.509028
O O6 0.256873 0.103118 0.151115
O O7 0.353551 0.858793 0.428496
O O8 0.231562 0.907446 0.138845
O O9 0.137174 0.866756 0.896915
O O10 0.093397 0.740703 0.803887
O O11 0.372101 0.605851 0.653124
O O12 0.500000 0.500000 0.000000
O O13 0.152417 0.440772 0.093154
O O14 0.887398 0.889236 0.188595
O O15 0.000000 0.500000 0.000000
O O16 0.744355 0.687356 0.526914
#
# Coordination Sequence:
#
# PCOD9044135 Si02
#       8
#     2   2   1   2   2   2   2   2
#     4  11  26  52  75 116 154 206 262 320 382 467
#     4  10  23  46  70 105 148 191 253 323 372 456
#     4  12  28  46  74 110 156 208 242 322 382 476
#     4   9  21  46  74 105 147 195 253 310 385 451
#     4  12  26  41  72 108 148 194 253 317 390 452
#     4  11  25  47  77 111 151 204 259 324 387 456
#     4  11  24  48  67 109 147 194 253 309 387 457
#     4  12  28  50  78 112 160 203 264 313 392 467
#
# _framework density 25.823321
#
# number of rings (size 3 to 8) (size 9 to 14) (size 15 to 20)
#    0.000    1.067    2.667    2.000    3.733    5.333 
#    0.000    0.000    0.000    0.000    0.000    0.000 
#    0.000    0.000    0.000    0.000    0.000    0.000 
#
# Total GULP energy -83562.275261 kJ/mol
# GULP energy per Si atom -5570.818351 kJ/mol
# Density = 2.576455 g / cm^3
# Si number density = 25.823321 Si / 1000 Ang^3
#
#
#
# Elastic Constant Matrix: (Units=GPa)
#
#
# Indices 1 2 3 4 5 6 
#
# 1 146.7563 23.0389 9.3910 -11.7253 7.1097 -8.3026
# 2 23.0389 169.9814 15.7915 1.6646 -10.4432 -28.3598
# 3 9.3910 15.7915 72.0664 2.3408 -0.3869 -9.4394
# 4 -11.7253 1.6646 2.3408 35.3676 1.2559 -1.0679
# 5 7.1097 -10.4432 -0.3869 1.2559 33.8149 4.5927
# 6 -8.3026 -28.3598 -9.4394 -1.0679 4.5927 44.2081
#
#
#
# Elastic Compliance Matrix: (Units=1/GPa)
#
#
# Indices 1 2 3 4 5 6 
#
# 1 0.007369 -0.000932 -0.000734 0.002636 -0.002067 0.000908
# 2 -0.000932 0.006844 -0.000849 -0.000523 0.001798 0.003834
# 3 -0.000734 -0.000849 0.014508 -0.001083 -0.000230 0.002413
# 4 0.002636 -0.000523 -0.001083 0.029339 -0.001932 0.000838
# 5 -0.002067 0.001798 -0.000230 -0.001932 0.030978 -0.002548
# 6 0.000908 0.003834 0.002413 0.000838 -0.002548 0.026051
#
#
# Mechanical properties :
#
#
# Convention : Reuss Voigt Hill
#
# Bulk Modulus (GPa) = 42.21114 53.91631 48.06372
# Shear Modulus (GPa) = 39.05784 45.38363 42.22073
#
# Velocity S-wave (km/s) = 3.89331 4.19676 4.04788
# Velocity P-wave (km/s) = 6.04914 6.66393 6.36397
#
# Compressibility (1/GPa) = 0.02369043
#
# Stress axis : x y z
#
# Youngs Moduli (GPa) = 135.69575 146.12296 68.92855
#
# Poissons Ratio (x) = 0.13619 0.05059
# Poissons Ratio (y) = 0.12647 0.05854
# Poissons Ratio (z) = 0.09959 0.12410
#
# Static dielectric constant tensor:
#      x y z
#    x 1.999960 0.120420 0.021320 
#    y 0.120420 2.285620 0.069360 
#    z 0.021320 0.069360 2.196200 
# 
# From -- ./inp_files/118284.got.cif
#   From: 2010.05.17/outbox.cif.g08.bks.cpg/sg2_60_cif.got.tgz:118284.got - 2010.06.03 11:33:40.
