data_PCOD9044977
_publ_section_title
;
Structure prediction by ZEFSAII (Michael W. Deem and Ramdas Pophale) SiO2 
 PCOD9044977
Probable space group: P -1
;
_chemical_formula_sum "Si O2"
_cell_formula_units_Z 16
_cell_length_a 8.373203
_cell_length_b 11.744424
_cell_length_c 12.279868
_cell_angle_alpha 110.142540
_cell_angle_beta 51.789646
_cell_angle_gamma 72.502757
_cell_volume 639.375108
_symmetry_space_group_name_H-M "P -1"
_symmetry_group_IT_number 2
_symmetry_cell_setting 'triclinic'
loop_
_space_group_symop_operation_xyz
x,y,z
-x,-y,-z
loop_
_atom_site_type_symbol
_atom_site_label
_atom_site_fract_x
_atom_site_fract_y
_atom_site_fract_z
Si Si1 0.646120 0.269177 0.665391
Si Si2 0.208457 0.289503 0.130668
Si Si3 0.735295 0.607256 0.317833
Si Si4 0.588752 0.919504 0.555384
Si Si5 0.147450 0.785260 0.738910
Si Si6 0.513628 0.571015 0.904341
Si Si7 0.247115 0.970505 0.293811
Si Si8 0.047150 0.867966 0.054833
O O1 0.369546 0.337160 0.742814
O O2 0.636161 0.416779 0.722800
O O3 0.671229 0.195147 0.747795
O O4 0.929196 0.107485 0.431353
O O5 0.307206 0.378444 0.165777
O O6 0.013599 0.413272 0.151909
O O7 0.008137 0.269864 0.259436
O O8 0.498189 0.102572 0.915337
O O9 0.457434 0.669045 0.516583
O O10 0.770942 0.723370 0.395924
O O11 0.746052 0.947613 0.575490
O O12 0.287235 0.019110 0.771587
O O13 0.500000 0.000000 0.500000
O O14 0.182496 0.769171 0.851163
O O15 0.950966 0.987726 0.879969
O O16 0.500000 0.500000 0.000000
O O17 0.203326 0.736331 0.044686
#
# Coordination Sequence:
#
# PCOD9044977 Si02
#       8
#     2   2   2   2   2   2   2   2
#     4  11  25  43  63 100 146 176 223 291 350 410
#     4  12  25  44  70 101 135 183 234 283 339 419
#     4  11  25  43  71  99 135 183 232 290 342 402
#     4  11  22  38  69 102 134 178 229 282 352 417
#     4  10  23  48  70  97 137 187 238 279 336 414
#     4  12  27  43  68 104 143 176 227 293 353 408
#     4  11  24  41  66 100 139 182 227 281 352 417
#     4  10  24  44  71 100 139 182 227 289 340 411
#
# _framework density 25.024432999999998
#
# number of rings (size 3 to 8) (size 9 to 14) (size 15 to 20)
#    0.000    1.000    3.750    1.875    7.000    1.000 
#    0.000    1.250    0.000    0.000    0.000    0.000 
#    0.000    0.000    0.000    0.000    0.000    0.000 
#
# Total GULP energy -89482.288192 kJ/mol
# GULP energy per Si atom -5592.643012 kJ/mol
# Density = 2.496748 g / cm^3
# Si number density = 25.024433 Si / 1000 Ang^3
#
#
#
# Elastic Constant Matrix: (Units=GPa)
#
#
# Indices 1 2 3 4 5 6 
#
# 1 101.7697 22.1041 2.0742 12.3623 7.2247 28.7419
# 2 22.1041 75.5683 12.8985 12.1883 1.9708 11.1203
# 3 2.0742 12.8985 60.6369 7.4401 -10.5438 -2.7847
# 4 12.3623 12.1883 7.4401 46.8565 -5.7691 -3.4617
# 5 7.2247 1.9708 -10.5438 -5.7691 35.3697 7.8858
# 6 28.7419 11.1203 -2.7847 -3.4617 7.8858 57.5509
#
#
#
# Elastic Compliance Matrix: (Units=1/GPa)
#
#
# Indices 1 2 3 4 5 6 
#
# 1 0.012462 -0.002194 -0.000113 -0.003337 -0.001715 -0.005771
# 2 -0.002194 0.015256 -0.003112 -0.003217 -0.001408 -0.002004
# 3 -0.000113 -0.003112 0.018272 -0.001360 0.005257 0.000740
# 4 -0.003337 -0.003217 -0.001360 0.023959 0.003658 0.003162
# 5 -0.001715 -0.001408 0.005257 0.003658 0.031469 -0.002709
# 6 -0.005771 -0.002004 0.000740 0.003162 -0.002709 0.021242
#
#
# Mechanical properties :
#
#
# Convention : Reuss Voigt Hill
#
# Bulk Modulus (GPa) = 28.44812 34.68096 31.56454
# Shear Modulus (GPa) = 34.43121 41.34864 37.88992
#
# Velocity S-wave (km/s) = 3.71334 4.06930 3.89539
# Velocity P-wave (km/s) = 5.45692 5.99732 5.73349
#
# Compressibility (1/GPa) = 0.03515170
#
# Stress axis : x y z
#
# Youngs Moduli (GPa) = 80.24551 65.54655 54.72714
#
# Poissons Ratio (x) = 0.14379 0.00621
# Poissons Ratio (y) = 0.17603 0.17033
# Poissons Ratio (z) = 0.00910 0.20400
#
# Static dielectric constant tensor:
#      x y z
#    x 2.008460 0.006890 0.033740 
#    y 0.006890 2.029730 -0.029100 
#    z 0.033740 -0.029100 1.955480 
# 
# From -- ./inp_files/381809.got.cif
#   From: 2010.05.17/outbox.cif.g08.bks.cpg/sg2_191_cif.got.tgz:381809.got - 2010.06.03 11:33:40.
