data_PCOD9044612
_publ_section_title
;
Structure prediction by ZEFSAII (Michael W. Deem and Ramdas Pophale) SiO2 
 PCOD9044612
Probable space group: P -1
;
_chemical_formula_sum "Si O2"
_cell_formula_units_Z 16
_cell_length_a 14.906907
_cell_length_b 8.320933
_cell_length_c 13.759583
_cell_angle_alpha 85.397468
_cell_angle_beta 149.379596
_cell_angle_gamma 112.485866
_cell_volume 681.719061
_symmetry_space_group_name_H-M "P -1"
_symmetry_group_IT_number 2
_symmetry_cell_setting 'triclinic'
loop_
_space_group_symop_operation_xyz
x,y,z
-x,-y,-z
loop_
_atom_site_type_symbol
_atom_site_label
_atom_site_fract_x
_atom_site_fract_y
_atom_site_fract_z
Si Si1 0.097941 0.457355 0.873041
Si Si2 0.419105 0.415141 0.087087
Si Si3 0.790717 0.228364 0.876435
Si Si4 0.832594 0.295636 0.257535
Si Si5 0.168873 0.243354 0.656378
Si Si6 0.308241 0.518109 0.354224
Si Si7 0.507941 0.123322 0.138244
Si Si8 0.619032 0.208488 0.427543
O O1 0.088210 0.524393 0.750875
O O2 0.853842 0.267382 0.686701
O O3 0.274099 0.414578 0.033400
O O4 0.184303 0.652630 0.007793
O O5 0.628319 0.641321 0.237481
O O6 0.489248 0.271666 0.181820
O O7 0.275560 0.307617 0.859353
O O8 0.687734 0.307050 0.706123
O O9 0.615113 0.986550 0.738138
O O10 0.050005 0.318880 0.098441
O O11 0.644729 0.238812 0.163343
O O12 0.031775 0.326898 0.500388
O O13 0.713760 0.088056 0.093468
O O14 0.000000 0.000000 0.500000
O O15 0.500000 0.500000 0.500000
O O16 0.337035 0.585729 0.491563
O O17 0.634464 0.107042 0.342753
#
# Coordination Sequence:
#
# PCOD9044612 Si02
#       8
#     2   2   2   2   2   2   2   2
#     4  11  24  41  64  93 133 175 216 270 322 383
#     4  11  24  38  56  90 122 164 224 273 318 376
#     4  10  23  47  69 102 138 166 216 271 330 405
#     4  11  22  41  63  85 133 182 220 265 323 376
#     4  11  22  37  57  83 119 167 226 277 318 372
#     4  10  24  46  76 104 130 170 212 271 340 400
#     4  11  23  39  64  93 127 177 225 266 317 387
#     4  11  23  44  68  97 133 172 216 264 333 390
#
# _framework density 23.470079999999999
#
# number of rings (size 3 to 8) (size 9 to 14) (size 15 to 20)
#    0.000    1.250    2.500    3.375    3.500    3.000 
#    2.250    0.000    0.000    0.000    0.000    0.000 
#    0.000    0.000    0.000    0.000    0.000    0.000 
#
# Total GULP energy -89190.001877 kJ/mol
# GULP energy per Si atom -5574.375117 kJ/mol
# Density = 2.341666 g / cm^3
# Si number density = 23.470080 Si / 1000 Ang^3
#
#
#
# Elastic Constant Matrix: (Units=GPa)
#
#
# Indices 1 2 3 4 5 6 
#
# 1 118.3809 84.6873 120.7641 -53.9863 9.3514 -10.2628
# 2 84.6873 245.3153 243.4228 -92.7805 15.7073 1.5767
# 3 120.7641 243.4228 363.6315 -96.6056 13.3536 -11.6927
# 4 -53.9863 -92.7805 -96.6056 112.9436 -2.6181 1.7638
# 5 9.3514 15.7073 13.3536 -2.6181 50.7429 -11.0656
# 6 -10.2628 1.5767 -11.6927 1.7638 -11.0656 33.5359
#
#
#
# Elastic Compliance Matrix: (Units=1/GPa)
#
#
# Indices 1 2 3 4 5 6 
#
# 1 0.014052 0.000414 -0.003845 0.003708 -0.000987 0.002419
# 2 0.000414 0.014554 -0.008660 0.004750 -0.003116 -0.004855
# 3 -0.003845 -0.008660 0.009690 -0.000678 0.001488 0.003136
# 4 0.003708 0.004750 -0.000678 0.013925 -0.001368 -0.000509
# 5 -0.000987 -0.003116 0.001488 -0.001368 0.022075 0.007719
# 6 0.002419 -0.004855 0.003136 -0.000509 0.007719 0.034454
#
#
# Mechanical properties :
#
#
# Convention : Reuss Voigt Hill
#
# Bulk Modulus (GPa) = 70.84940 180.56400 125.70670
# Shear Modulus (GPa) = 36.32785 58.00806 47.16796
#
# Velocity S-wave (km/s) = 3.93852 4.97689 4.48784
# Velocity P-wave (km/s) = 7.13690 10.49412 8.97390
#
# Compressibility (1/GPa) = 0.01411445
#
# Stress axis : x y z
#
# Youngs Moduli (GPa) = 71.16502 68.71161 103.19732
#
# Poissons Ratio (x) = -0.02846 0.39679
# Poissons Ratio (y) = -0.02948 0.89367
# Poissons Ratio (z) = 0.27363 0.59503
#
# Static dielectric constant tensor:
#      x y z
#    x 1.872070 -0.152150 0.093060 
#    y -0.152150 1.739860 0.113260 
#    z 0.093060 0.113260 1.804210 
# 
# From -- ./inp_files/529854.got.cif
#   From: 2010.05.17/outbox.cif.g08.bks.cpg/sg2_265_cif.got.tgz:529854.got - 2010.06.03 11:33:40.
