data_PCOD9044303
_publ_section_title
;
Structure prediction by ZEFSAII (Michael W. Deem and Ramdas Pophale) SiO2 
 PCOD9044303
Probable space group: P -1
;
_chemical_formula_sum "Si O2"
_cell_formula_units_Z 14
_cell_length_a 14.724543
_cell_length_b 5.408986
_cell_length_c 23.110508
_cell_angle_alpha 117.990215
_cell_angle_beta 21.256215
_cell_angle_gamma 114.705770
_cell_volume 588.158982
_symmetry_space_group_name_H-M "P -1"
_symmetry_group_IT_number 2
_symmetry_cell_setting 'triclinic'
loop_
_space_group_symop_operation_xyz
x,y,z
-x,-y,-z
loop_
_atom_site_type_symbol
_atom_site_label
_atom_site_fract_x
_atom_site_fract_y
_atom_site_fract_z
Si Si1 0.764820 0.314731 0.632927
Si Si2 0.101176 0.675835 0.905838
Si Si3 0.415144 0.575830 0.368077
Si Si4 0.537249 0.101755 0.424792
Si Si5 0.930090 0.497308 0.223744
Si Si6 0.340633 0.738818 0.084745
Si Si7 0.961206 0.262614 0.626582
O O1 0.572282 0.416881 0.708556
O O2 0.737859 0.329645 0.719860
O O3 0.000000 0.500000 0.500000
O O4 0.855580 0.993133 0.532874
O O5 0.399043 0.658993 0.739071
O O6 0.059002 0.505472 0.852733
O O7 0.000000 0.500000 0.000000
O O8 0.000000 0.000000 0.000000
O O9 0.135543 0.524409 0.551038
O O10 0.496277 0.867652 0.376477
O O11 0.822765 0.191666 0.262466
O O12 0.301323 0.330452 0.586972
O O13 0.500000 0.000000 0.500000
O O14 0.183059 0.597464 0.112171
O O15 0.137886 0.834506 0.264421
O O16 0.500000 0.500000 0.000000
O O17 0.500000 0.000000 0.000000
#
# Coordination Sequence:
#
# PCOD9044303 Si02
#       7
#     2   2   2   2   2   2   2
#     4   9  21  41  73 106 142 188 253 311 360 437
#     4  12  29  49  70 109 155 198 245 308 385 461
#     4  11  23  42  78 110 145 198 249 318 381 445
#     4  11  22  42  84 109 143 185 257 325 368 439
#     4  11  27  49  72 115 145 198 255 314 380 453
#     4  12  31  50  75 108 154 203 244 310 383 451
#     4  10  23  46  72 112 144 193 262 306 370 452
#
# _framework density 23.803087999999999
#
# number of rings (size 3 to 8) (size 9 to 14) (size 15 to 20)
#    0.000    1.143    1.429    2.571   14.000    1.143 
#   10.286    0.000    0.000    0.000    0.000    0.000 
#    0.000    0.000    0.000    0.000    0.000    0.000 
#
# Total GULP energy -78180.401826 kJ/mol
# GULP energy per Si atom -5584.314416 kJ/mol
# Density = 2.374891 g / cm^3
# Si number density = 23.803088 Si / 1000 Ang^3
#
#
#
# Elastic Constant Matrix: (Units=GPa)
#
#
# Indices 1 2 3 4 5 6 
#
# 1 213.6709 68.0388 63.7625 -24.5788 -10.0631 15.7090
# 2 68.0388 137.3431 44.6853 -24.6627 -15.0921 5.9619
# 3 63.7625 44.6853 86.6271 -18.4420 -3.2706 8.9943
# 4 -24.5788 -24.6627 -18.4420 51.0584 -10.9770 -3.7313
# 5 -10.0631 -15.0921 -3.2706 -10.9770 47.7052 -9.7717
# 6 15.7090 5.9619 8.9943 -3.7313 -9.7717 37.3178
#
#
#
# Elastic Compliance Matrix: (Units=1/GPa)
#
#
# Indices 1 2 3 4 5 6 
#
# 1 0.006544 -0.001799 -0.003507 0.001026 0.000524 -0.001382
# 2 -0.001799 0.010245 -0.003126 0.003860 0.003792 0.001253
# 3 -0.003507 -0.003126 0.016451 0.002524 -0.000397 -0.001841
# 4 0.001026 0.003860 0.002524 0.024765 0.007901 0.002888
# 5 0.000524 0.003792 -0.000397 0.007901 0.025440 0.006721
# 6 -0.001382 0.001253 -0.001841 0.002888 0.006721 0.029671
#
#
# Mechanical properties :
#
#
# Convention : Reuss Voigt Hill
#
# Bulk Modulus (GPa) = 61.06305 87.84601 74.45453
# Shear Modulus (GPa) = 36.91764 44.62657 40.77210
#
# Velocity S-wave (km/s) = 3.94250 4.33462 4.14320
# Velocity P-wave (km/s) = 6.81421 7.87638 7.36447
#
# Compressibility (1/GPa) = 0.01637651
#
# Stress axis : x y z
#
# Youngs Moduli (GPa) = 152.81758 97.61192 60.78746
#
# Poissons Ratio (x) = 0.17560 0.21318
# Poissons Ratio (y) = 0.27491 0.18999
# Poissons Ratio (z) = 0.53591 0.30509
#
# Static dielectric constant tensor:
#      x y z
#    x 1.935980 -0.032680 0.008750 
#    y -0.032680 2.057800 0.006500 
#    z 0.008750 0.006500 2.130430 
# 
# From -- ./inp_files/611333.got.cif
#   From: 2010.05.17/outbox.cif.g08.bks.cpg/sg2_306_cif.got.tgz:611333.got - 2010.06.03 11:33:40.
