data_PCOD9044447
_publ_section_title
;
Structure prediction by ZEFSAII (Michael W. Deem and Ramdas Pophale) SiO2 
 PCOD9044447
Probable space group: P -1
;
_chemical_formula_sum "Si O2"
_cell_formula_units_Z 16
_cell_length_a 6.989424
_cell_length_b 7.072214
_cell_length_c 15.317736
_cell_angle_alpha 109.180040
_cell_angle_beta 98.892661
_cell_angle_gamma 103.163592
_cell_volume 674.334592
_symmetry_space_group_name_H-M "P -1"
_symmetry_group_IT_number 2
_symmetry_cell_setting 'triclinic'
loop_
_space_group_symop_operation_xyz
x,y,z
-x,-y,-z
loop_
_atom_site_type_symbol
_atom_site_label
_atom_site_fract_x
_atom_site_fract_y
_atom_site_fract_z
Si Si1 0.904343 0.412128 0.571002
Si Si2 0.042869 0.015627 0.268193
Si Si3 0.714020 0.962766 0.536256
Si Si4 0.902176 0.336991 0.891960
Si Si5 0.431013 0.043007 0.096261
Si Si6 0.515849 0.524043 0.386825
Si Si7 0.257128 0.754000 0.701084
Si Si8 0.258117 0.369748 0.194332
O O1 0.694094 0.468723 0.581439
O O2 0.000000 0.500000 0.500000
O O3 0.076522 0.537736 0.670010
O O4 0.867193 0.166479 0.535274
O O5 0.207991 0.015858 0.354550
O O6 0.140617 0.202069 0.233717
O O7 0.857596 0.078587 0.309155
O O8 0.982633 0.805570 0.173742
O O9 0.682898 0.731260 0.462129
O O10 0.500000 0.000000 0.500000
O O11 0.711204 0.162566 0.896221
O O12 0.847560 0.479319 0.835422
O O13 0.000000 0.500000 0.000000
O O14 0.616551 0.149056 0.190257
O O15 0.313491 0.217201 0.105462
O O16 0.500000 0.000000 0.000000
O O17 0.594378 0.318602 0.366388
O O18 0.456027 0.517976 0.280005
#
# Coordination Sequence:
#
# PCOD9044447 Si02
#       8
#     2   2   2   2   2   2   2   2
#     4  11  25  45  74 109 148 200 251 310 379 436
#     4  11  25  45  76 111 143 201 253 307 384 450
#     4  10  24  46  77 111 151 197 258 311 368 459
#     4  11  26  46  78 111 148 194 250 318 383 453
#     4  10  26  46  73 108 150 195 248 310 385 449
#     4  10  23  46  75 105 152 202 249 309 373 445
#     4  11  26  46  73 104 155 198 251 310 371 459
#     4  10  23  47  74 106 147 196 250 305 381 442
#
# _framework density 23.727093
#
# number of rings (size 3 to 8) (size 9 to 14) (size 15 to 20)
#    0.000    1.500    1.250    1.500    5.250   10.000 
#    4.500    0.000    0.000    0.750    0.000    0.000 
#    0.000    0.000    0.000    0.000    0.000    0.000 
#
# Total GULP energy -89385.731101 kJ/mol
# GULP energy per Si atom -5586.608194 kJ/mol
# Density = 2.367309 g / cm^3
# Si number density = 23.727093 Si / 1000 Ang^3
#
#
#
# Elastic Constant Matrix: (Units=GPa)
#
#
# Indices 1 2 3 4 5 6 
#
# 1 124.1284 50.2550 43.9043 15.7110 -6.9748 -10.0822
# 2 50.2550 153.8472 70.6207 22.3691 -3.8457 -3.9142
# 3 43.9043 70.6207 157.7939 40.3078 -6.5494 -3.0291
# 4 15.7110 22.3691 40.3078 47.1676 0.5236 0.9064
# 5 -6.9748 -3.8457 -6.5494 0.5236 47.9709 10.9051
# 6 -10.0822 -3.9142 -3.0291 0.9064 10.9051 45.3100
#
#
#
# Elastic Compliance Matrix: (Units=1/GPa)
#
#
# Indices 1 2 3 4 5 6 
#
# 1 0.009802 -0.002376 -0.001338 -0.001035 0.000666 0.001747
# 2 -0.002376 0.008802 -0.003090 -0.000742 -0.000066 0.000056
# 3 -0.001338 -0.003090 0.009783 -0.006459 0.000967 -0.000014
# 4 -0.001035 -0.000742 -0.006459 0.027450 -0.001165 -0.000995
# 5 0.000666 -0.000066 0.000967 -0.001165 0.022247 -0.005124
# 6 0.001747 0.000056 -0.000014 -0.000995 -0.005124 0.023716
#
#
# Mechanical properties :
#
#
# Convention : Reuss Voigt Hill
#
# Bulk Modulus (GPa) = 67.66955 85.03660 76.35308
# Shear Modulus (GPa) = 41.55086 46.15567 43.85327
#
# Velocity S-wave (km/s) = 4.18927 4.41531 4.30378
# Velocity P-wave (km/s) = 7.20985 7.86832 7.54627
#
# Compressibility (1/GPa) = 0.01477769
#
# Stress axis : x y z
#
# Youngs Moduli (GPa) = 102.02236 113.60546 102.22170
#
# Poissons Ratio (x) = 0.26991 0.13679
# Poissons Ratio (y) = 0.24239 0.31591
# Poissons Ratio (z) = 0.13653 0.35110
#
# Static dielectric constant tensor:
#      x y z
#    x 2.015500 -0.013120 0.011510 
#    y -0.013120 1.909130 0.002350 
#    z 0.011510 0.002350 1.933020 
# 
# From -- ./inp_files/488600.got.cif
#   From: 2010.05.17/outbox.cif.g08.bks.cpg/sg2_245_cif.got.tgz:488600.got - 2010.06.03 11:33:40.
