data_PCOD9044873
_publ_section_title
;
Structure prediction by ZEFSAII (Michael W. Deem and Ramdas Pophale) SiO2 
 PCOD9044873
Probable space group: P -1
;
_chemical_formula_sum "Si O2"
_cell_formula_units_Z 15
_cell_length_a 8.585325
_cell_length_b 8.918731
_cell_length_c 11.698466
_cell_angle_alpha 75.173664
_cell_angle_beta 136.823314
_cell_angle_gamma 97.476750
_cell_volume 590.349244
_symmetry_space_group_name_H-M "P -1"
_symmetry_group_IT_number 2
_symmetry_cell_setting 'triclinic'
loop_
_space_group_symop_operation_xyz
x,y,z
-x,-y,-z
loop_
_atom_site_type_symbol
_atom_site_label
_atom_site_fract_x
_atom_site_fract_y
_atom_site_fract_z
Si Si1 0.954520 0.899273 0.243285
Si Si2 0.000000 0.000000 0.500000
Si Si3 0.399902 0.673300 0.282841
Si Si4 0.604766 0.746515 0.920991
Si Si5 0.643826 0.998061 0.694668
Si Si6 0.080037 0.689533 0.685165
Si Si7 0.147433 0.573817 0.969303
Si Si8 0.178907 0.579681 0.412489
O O1 0.094490 0.988420 0.205607
O O2 0.132975 0.751097 0.404836
O O3 0.919878 0.997946 0.320111
O O4 0.742982 0.828118 0.079599
O O5 0.064297 0.177393 0.484875
O O6 0.442630 0.843639 0.316361
O O7 0.304934 0.681507 0.102964
O O8 0.219633 0.618733 0.292250
O O9 0.600991 0.534587 0.416340
O O10 0.341630 0.725454 0.809589
O O11 0.713107 0.572414 0.987414
O O12 0.616164 0.854011 0.792430
O O13 0.500000 0.000000 0.500000
O O14 0.031137 0.518987 0.648778
O O15 0.006896 0.674084 0.780417
O O16 0.000000 0.500000 0.000000
#
# Coordination Sequence:
#
# PCOD9044873 Si02
#       8
#     2   1   2   2   2   2   2   2
#     4  11  26  52  73 111 148 212 253 320 381 458
#     4  12  32  46  78 106 160 204 254 314 386 460
#     4  10  24  43  79 115 140 208 252 321 370 463
#     4  12  28  49  78 113 157 204 249 326 395 454
#     4  11  26  47  78 111 158 198 261 317 384 459
#     4  12  28  50  72 115 153 200 253 319 389 456
#     4  12  25  48  81 112 148 202 261 318 380 464
#     4  10  23  47  77 108 153 190 266 310 385 451
#
# _framework density 25.408688999999999
#
# number of rings (size 3 to 8) (size 9 to 14) (size 15 to 20)
#    0.000    0.800    2.667    2.400   14.933    2.133 
#    0.000    0.000    0.000    0.000    0.000    0.000 
#    0.000    0.000    0.000    0.000    0.000    0.000 
#
# Total GULP energy -83703.443528 kJ/mol
# GULP energy per Si atom -5580.229569 kJ/mol
# Density = 2.535086 g / cm^3
# Si number density = 25.408689 Si / 1000 Ang^3
#
#
#
# Elastic Constant Matrix: (Units=GPa)
#
#
# Indices 1 2 3 4 5 6 
#
# 1 106.9448 31.3030 19.5126 6.1520 7.2999 15.0332
# 2 31.3030 112.4096 20.9418 -7.1660 -5.9937 1.9246
# 3 19.5126 20.9418 64.5642 1.8077 -27.3999 -4.4966
# 4 6.1520 -7.1660 1.8077 64.2296 6.7811 -12.2811
# 5 7.2999 -5.9937 -27.3999 6.7811 44.6282 1.5384
# 6 15.0332 1.9246 -4.4966 -12.2811 1.5384 48.4522
#
#
#
# Elastic Compliance Matrix: (Units=1/GPa)
#
#
# Indices 1 2 3 4 5 6 
#
# 1 0.012170 -0.002713 -0.005261 -0.001614 -0.005188 -0.004401
# 2 -0.002713 0.010205 -0.002479 0.001581 0.000031 0.000606
# 3 -0.005261 -0.002479 0.024915 -0.001557 0.015953 0.003142
# 4 -0.001614 0.001581 -0.001557 0.017197 -0.003257 0.004756
# 5 -0.005188 0.000031 0.015953 -0.003257 0.033508 0.001200
# 6 -0.004401 0.000606 0.003142 0.004756 0.001200 0.023439
#
#
# Mechanical properties :
#
#
# Convention : Reuss Voigt Hill
#
# Bulk Modulus (GPa) = 37.90157 47.49261 42.69709
# Shear Modulus (GPa) = 33.08258 45.60609 39.34433
#
# Velocity S-wave (km/s) = 3.61226 4.24122 3.93932
# Velocity P-wave (km/s) = 5.68745 6.53575 6.12630
#
# Compressibility (1/GPa) = 0.02638413
#
# Stress axis : x y z
#
# Youngs Moduli (GPa) = 82.16699 97.98658 40.13625
#
# Poissons Ratio (x) = 0.26585 0.21117
# Poissons Ratio (y) = 0.22293 0.09950
# Poissons Ratio (z) = 0.43230 0.24291
#
# Static dielectric constant tensor:
#      x y z
#    x 2.029530 -0.012560 0.047010 
#    y -0.012560 2.010190 0.048090 
#    z 0.047010 0.048090 2.046080 
# 
# From -- ./inp_files/239482.got.cif
#   From: 2010.05.17/outbox.cif.g08.bks.cpg/sg2_120_cif.got.tgz:239482.got - 2010.06.03 11:33:40.
