data_PCOD9044514
_publ_section_title
;
Structure prediction by ZEFSAII (Michael W. Deem and Ramdas Pophale) SiO2 
 PCOD9044514
Probable space group: P -1
;
_chemical_formula_sum "Si O2"
_cell_formula_units_Z 16
_cell_length_a 21.106577
_cell_length_b 5.862362
_cell_length_c 8.884700
_cell_angle_alpha 116.994169
_cell_angle_beta 131.779299
_cell_angle_gamma 61.254716
_cell_volume 703.632834
_symmetry_space_group_name_H-M "P -1"
_symmetry_group_IT_number 2
_symmetry_cell_setting 'triclinic'
loop_
_space_group_symop_operation_xyz
x,y,z
-x,-y,-z
loop_
_atom_site_type_symbol
_atom_site_label
_atom_site_fract_x
_atom_site_fract_y
_atom_site_fract_z
Si Si1 0.731574 0.441499 0.369273
Si Si2 0.112890 0.633845 0.628174
Si Si3 0.399143 0.141876 0.848953
Si Si4 0.675030 0.980936 0.020793
Si Si5 0.637487 0.291886 0.551877
Si Si6 0.471914 0.741197 0.335821
Si Si7 0.775278 0.571591 0.811553
Si Si8 0.082525 0.280840 0.763071
O O1 0.801524 0.488523 0.373317
O O2 0.631503 0.594431 0.216507
O O3 0.733195 0.135225 0.253044
O O4 0.754642 0.542712 0.596103
O O5 0.113887 0.435193 0.713618
O O6 0.022573 0.642504 0.399529
O O7 0.108572 0.954814 0.733981
O O8 0.355347 0.203139 0.961988
O O9 0.357961 0.955127 0.622268
O O10 0.500000 0.000000 0.000000
O O11 0.585967 0.184441 0.881153
O O12 0.722097 0.826589 0.902238
O O13 0.563227 0.516641 0.413512
O O14 0.591968 0.295174 0.641694
O O15 0.732513 0.344696 0.740916
O O16 0.500000 0.000000 0.500000
O O17 0.874957 0.581916 0.996578
#
# Coordination Sequence:
#
# PCOD9044514 Si02
#       8
#     2   2   2   2   2   2   2   2
#     4  12  27  45  68 102 142 190 238 300 359 447
#     4  10  23  47  79 110 152 186 248 292 374 445
#     4  12  27  43  66  98 138 188 248 301 361 430
#     4  12  25  43  65  94 134 187 230 298 354 424
#     4  11  25  41  62 100 132 178 241 299 349 441
#     4  11  23  40  66  91 132 181 237 294 360 418
#     4  12  25  44  69 104 141 186 241 296 370 434
#     4  10  23  46  79 115 144 196 233 307 367 444
#
# _framework density 22.739134
#
# number of rings (size 3 to 8) (size 9 to 14) (size 15 to 20)
#    0.000    0.750    3.750    3.000    7.000    2.500 
#    0.000    0.000    0.000    5.250    0.000    0.000 
#    0.000    0.000    0.000    0.000    0.000    0.000 
#
# Total GULP energy -89188.801508 kJ/mol
# GULP energy per Si atom -5574.300094 kJ/mol
# Density = 2.268738 g / cm^3
# Si number density = 22.739134 Si / 1000 Ang^3
#
#
#
# Elastic Constant Matrix: (Units=GPa)
#
#
# Indices 1 2 3 4 5 6 
#
# 1 83.9268 8.8209 29.4297 -2.0272 0.7984 15.4654
# 2 8.8209 81.9856 42.6213 7.5723 -8.4358 6.5664
# 3 29.4297 42.6213 181.2037 19.9146 9.2468 9.0528
# 4 -2.0272 7.5723 19.9146 42.4745 5.9454 -1.0955
# 5 0.7984 -8.4358 9.2468 5.9454 37.5106 3.3017
# 6 15.4654 6.5664 9.0528 -1.0955 3.3017 25.9495
#
#
#
# Elastic Compliance Matrix: (Units=1/GPa)
#
#
# Indices 1 2 3 4 5 6 
#
# 1 0.014094 0.000159 -0.002124 0.001339 0.000728 -0.007735
# 2 0.000159 0.014873 -0.003402 -0.001802 0.004761 -0.003353
# 3 -0.002124 -0.003402 0.007054 -0.002521 -0.002043 -0.000181
# 4 0.001339 -0.001802 -0.002521 0.025737 -0.004080 0.002143
# 5 0.000728 0.004761 -0.002043 -0.004080 0.029289 -0.004825
# 6 -0.007735 -0.003353 -0.000181 0.002143 -0.004825 0.044762
#
#
# Mechanical properties :
#
#
# Convention : Reuss Voigt Hill
#
# Bulk Modulus (GPa) = 39.54545 56.54001 48.04273
# Shear Modulus (GPa) = 32.26355 38.93654 35.60004
#
# Velocity S-wave (km/s) = 3.77086 4.14250 3.96104
# Velocity P-wave (km/s) = 6.03223 6.91368 6.48794
#
# Compressibility (1/GPa) = 0.02528736
#
# Stress axis : x y z
#
# Youngs Moduli (GPa) = 70.95160 67.23409 141.76174
#
# Poissons Ratio (x) = -0.01067 0.30114
# Poissons Ratio (y) = -0.01126 0.48221
# Poissons Ratio (z) = 0.15072 0.22870
#
# Static dielectric constant tensor:
#      x y z
#    x 1.902610 0.042060 0.006760 
#    y 0.042060 1.991350 -0.006240 
#    z 0.006760 -0.006240 1.822420 
# 
# From -- ./inp_files/340702.got.cif
#   From: 2010.05.17/outbox.cif.g08.bks.cpg/sg2_171_cif.got.tgz:340702.got - 2010.06.03 11:33:40.
