data_PCOD9044582
_publ_section_title
;
Structure prediction by ZEFSAII (Michael W. Deem and Ramdas Pophale) SiO2 
 PCOD9044582
Probable space group: P -1
;
_chemical_formula_sum "Si O2"
_cell_formula_units_Z 16
_cell_length_a 7.647129
_cell_length_b 8.162741
_cell_length_c 17.123765
_cell_angle_alpha 81.983964
_cell_angle_beta 74.224521
_cell_angle_gamma 39.575826
_cell_volume 651.041981
_symmetry_space_group_name_H-M "P -1"
_symmetry_group_IT_number 2
_symmetry_cell_setting 'triclinic'
loop_
_space_group_symop_operation_xyz
x,y,z
-x,-y,-z
loop_
_atom_site_type_symbol
_atom_site_label
_atom_site_fract_x
_atom_site_fract_y
_atom_site_fract_z
Si Si1 0.926627 0.788651 0.484885
Si Si2 0.704122 0.699072 0.978170
Si Si3 0.817076 0.021880 0.170000
Si Si4 0.363445 0.732627 0.419075
Si Si5 0.456878 0.570538 0.110370
Si Si6 0.261457 0.249511 0.206835
Si Si7 0.155675 0.944268 0.258893
Si Si8 0.927140 0.536654 0.373683
O O1 0.257706 0.619219 0.454595
O O2 0.888904 0.690001 0.568509
O O3 0.837079 0.761520 0.418199
O O4 0.753431 0.072042 0.509689
O O5 0.414183 0.688915 0.192491
O O6 0.772515 0.660554 0.881409
O O7 0.000000 0.500000 0.000000
O O8 0.500000 0.000000 0.000000
O O9 0.127878 0.761420 0.117506
O O10 0.882414 0.049689 0.246041
O O11 0.558021 0.634952 0.031886
O O12 0.667632 0.270925 0.120308
O O13 0.200174 0.884735 0.347979
O O14 0.679287 0.580929 0.378597
O O15 0.596994 0.026973 0.198671
O O16 0.102447 0.459227 0.280695
O O17 0.153408 0.139520 0.230453
#
# Coordination Sequence:
#
# PCOD9044582 Si02
#       8
#     2   2   2   2   2   2   2   2
#     4  10  24  46  63 105 135 188 233 301 351 436
#     4  12  25  45  75 110 145 191 247 295 356 431
#     4  10  26  46  70 108 143 191 240 296 353 423
#     4  11  23  42  74  97 137 192 232 289 370 423
#     4  10  23  47  68 101 150 185 234 305 342 419
#     4  12  26  45  73 106 139 197 233 297 372 423
#     4  10  24  43  67 104 142 181 241 293 351 428
#     4  11  25  43  67 103 143 176 243 292 359 432
#
# _framework density 24.575989
#
# number of rings (size 3 to 8) (size 9 to 14) (size 15 to 20)
#    0.750    0.500    2.500    2.250    5.250    4.000 
#    9.000    0.000    0.000    0.000    0.000    0.000 
#    0.000    0.000    0.000    0.000    0.000    0.000 
#
# Total GULP energy -89523.192198 kJ/mol
# GULP energy per Si atom -5595.199512 kJ/mol
# Density = 2.452005 g / cm^3
# Si number density = 24.575989 Si / 1000 Ang^3
#
#
#
# Elastic Constant Matrix: (Units=GPa)
#
#
# Indices 1 2 3 4 5 6 
#
# 1 117.3384 20.1568 42.6986 1.0161 10.1726 -22.3713
# 2 20.1568 110.5398 43.8631 -2.6942 7.9417 -7.5559
# 3 42.6986 43.8631 178.7070 3.0082 4.9070 -8.0551
# 4 1.0161 -2.6942 3.0082 23.0148 -6.1324 -2.1535
# 5 10.1726 7.9417 4.9070 -6.1324 31.7887 0.9210
# 6 -22.3713 -7.5559 -8.0551 -2.1535 0.9210 44.3217
#
#
#
# Elastic Compliance Matrix: (Units=1/GPa)
#
#
# Indices 1 2 3 4 5 6 
#
# 1 0.010592 -0.000559 -0.002073 -0.000655 -0.003198 0.004909
# 2 -0.000559 0.010306 -0.002313 0.001148 -0.001851 0.001148
# 3 -0.002073 -0.002313 0.006664 -0.001073 0.000014 -0.000282
# 4 -0.000655 0.001148 -0.001073 0.046306 0.008971 0.001734
# 5 -0.003198 -0.001851 0.000014 0.008971 0.034736 -0.002213
# 6 0.004909 0.001148 -0.000282 0.001734 -0.002213 0.025315
#
#
# Mechanical properties :
#
#
# Convention : Reuss Voigt Hill
#
# Bulk Modulus (GPa) = 56.59130 68.89136 62.74133
# Shear Modulus (GPa) = 33.40041 39.81616 36.60828
#
# Velocity S-wave (km/s) = 3.69055 4.02944 3.86371
# Velocity P-wave (km/s) = 6.42163 7.05276 6.74458
#
# Compressibility (1/GPa) = 0.01767056
#
# Stress axis : x y z
#
# Youngs Moduli (GPa) = 94.41348 97.03471 150.06659
#
# Poissons Ratio (x) = 0.05428 0.31113
# Poissons Ratio (y) = 0.05281 0.34704
# Poissons Ratio (z) = 0.19575 0.22440
#
# Static dielectric constant tensor:
#      x y z
#    x 1.984760 0.002850 -0.011060 
#    y 0.002850 1.970390 0.025170 
#    z -0.011060 0.025170 1.939980 
# 
# From -- ./inp_files/494850.got.cif
#   From: 2010.05.17/outbox.cif.g08.bks.cpg/sg2_248_cif.got.tgz:494850.got - 2010.06.03 11:33:40.
