data_PCOD9044276
_publ_section_title
;
Structure prediction by ZEFSAII (Michael W. Deem and Ramdas Pophale) SiO2 
 PCOD9044276
Probable space group: P -1
;
_chemical_formula_sum "Si O2"
_cell_formula_units_Z 16
_cell_length_a 11.280431
_cell_length_b 13.152632
_cell_length_c 12.826836
_cell_angle_alpha 157.124654
_cell_angle_beta 124.098173
_cell_angle_gamma 58.601571
_cell_volume 612.537660
_symmetry_space_group_name_H-M "P -1"
_symmetry_group_IT_number 2
_symmetry_cell_setting 'triclinic'
loop_
_space_group_symop_operation_xyz
x,y,z
-x,-y,-z
loop_
_atom_site_type_symbol
_atom_site_label
_atom_site_fract_x
_atom_site_fract_y
_atom_site_fract_z
Si Si1 0.905907 0.761148 0.198204
Si Si2 0.206338 0.456825 0.753710
Si Si3 0.986015 0.133309 0.229505
Si Si4 0.365827 0.699021 0.622819
Si Si5 0.381020 0.361833 0.946923
Si Si6 0.726246 0.426871 0.330771
Si Si7 0.902267 0.670054 0.881742
Si Si8 0.511998 0.161299 0.402660
O O1 0.771821 0.736413 0.181457
O O2 0.864791 0.793002 0.089861
O O3 0.000000 0.000000 0.500000
O O4 0.000000 0.500000 0.000000
O O5 0.342056 0.418029 0.859819
O O6 0.255792 0.612468 0.821931
O O7 0.132124 0.198930 0.423563
O O8 0.068469 0.576638 0.861095
O O9 0.891662 0.398889 0.421838
O O10 0.893628 0.921572 0.043348
O O11 0.000000 0.000000 0.000000
O O12 0.500000 0.500000 0.500000
O O13 0.356011 0.757842 0.799782
O O14 0.215855 0.553579 0.394737
O O15 0.403102 0.857063 0.684117
O O16 0.480668 0.113352 0.792328
O O17 0.419278 0.616234 0.275814
O O18 0.644915 0.705680 0.565883
#
# Coordination Sequence:
#
# PCOD9044276 Si02
#       8
#     2   2   2   2   2   2   2   2
#     4  12  25  42  71 107 147 193 240 307 374 439
#     4  12  26  46  72 110 150 192 246 317 385 447
#     4  12  25  42  75 108 145 190 248 314 388 445
#     4  10  23  46  72 103 146 194 248 309 369 451
#     4  12  27  47  75 107 156 193 258 301 381 456
#     4  11  25  48  73 105 150 192 259 308 376 448
#     4  12  24  42  71 110 144 192 245 309 387 445
#     4  11  28  50  74 109 145 211 249 310 370 452
#
# _framework density 26.120842
#
# number of rings (size 3 to 8) (size 9 to 14) (size 15 to 20)
#    0.000    0.500    5.000    2.625    3.500    4.000 
#    0.000    4.375    0.000    0.000    0.000    0.000 
#    0.000    0.000    0.000    0.000    0.000    0.000 
#
# Total GULP energy -89397.888855 kJ/mol
# GULP energy per Si atom -5587.368053 kJ/mol
# Density = 2.606139 g / cm^3
# Si number density = 26.120842 Si / 1000 Ang^3
#
#
#
# Elastic Constant Matrix: (Units=GPa)
#
#
# Indices 1 2 3 4 5 6 
#
# 1 119.3615 42.7017 32.4546 0.1807 5.6016 -4.6255
# 2 42.7017 167.6414 36.2833 -9.2876 -4.4133 13.8587
# 3 32.4546 36.2833 118.9767 0.2064 20.1812 -2.2624
# 4 0.1807 -9.2876 0.2064 41.5922 -3.9218 -22.1624
# 5 5.6016 -4.4133 20.1812 -3.9218 47.1536 -2.0298
# 6 -4.6255 13.8587 -2.2624 -22.1624 -2.0298 51.5318
#
#
#
# Elastic Compliance Matrix: (Units=1/GPa)
#
#
# Indices 1 2 3 4 5 6 
#
# 1 0.009755 -0.002199 -0.001882 0.000205 -0.000480 0.001454
# 2 -0.002199 0.007181 -0.001922 0.000837 0.001749 -0.001784
# 3 -0.001882 -0.001922 0.010257 -0.000717 -0.004392 0.000317
# 4 0.000205 0.000837 -0.000717 0.031809 0.003591 0.013584
# 5 -0.000480 0.001749 -0.004392 0.003591 0.023683 0.001771
# 6 0.001454 -0.001784 0.000317 0.013584 0.001771 0.025941
#
#
# Mechanical properties :
#
#
# Convention : Reuss Voigt Hill
#
# Bulk Modulus (GPa) = 65.84518 69.87318 67.85918
# Shear Modulus (GPa) = 39.77925 47.69154 43.73539
#
# Velocity S-wave (km/s) = 3.90666 4.27758 4.09632
# Velocity P-wave (km/s) = 6.75366 7.15576 6.95762
#
# Compressibility (1/GPa) = 0.01518714
#
# Stress axis : x y z
#
# Youngs Moduli (GPa) = 102.51429 139.25360 97.49665
#
# Poissons Ratio (x) = 0.30621 0.18346
# Poissons Ratio (y) = 0.22542 0.18740
# Poissons Ratio (z) = 0.19290 0.26767
#
# Static dielectric constant tensor:
#      x y z
#    x 1.981260 -0.080120 -0.019930 
#    y -0.080120 1.996840 -0.005040 
#    z -0.019930 -0.005040 2.004190 
# 
# From -- ./inp_files/429276.got.cif
#   From: 2010.05.17/outbox.cif.g08.bks.cpg/sg2_215_cif.got.tgz:429276.got - 2010.06.03 11:33:40.
