data_PCOD9044567
_publ_section_title
;
Structure prediction by ZEFSAII (Michael W. Deem and Ramdas Pophale) SiO2 
 PCOD9044567
Probable space group: P -1
;
_chemical_formula_sum "Si O2"
_cell_formula_units_Z 14
_cell_length_a 16.117538
_cell_length_b 9.081314
_cell_length_c 10.416083
_cell_angle_alpha 137.275113
_cell_angle_beta 40.056635
_cell_angle_gamma 123.558502
_cell_volume 665.524381
_symmetry_space_group_name_H-M "P -1"
_symmetry_group_IT_number 2
_symmetry_cell_setting 'triclinic'
loop_
_space_group_symop_operation_xyz
x,y,z
-x,-y,-z
loop_
_atom_site_type_symbol
_atom_site_label
_atom_site_fract_x
_atom_site_fract_y
_atom_site_fract_z
Si Si1 0.029674 0.671180 0.341756
Si Si2 0.637596 0.596564 0.860283
Si Si3 0.973822 0.133044 0.806449
Si Si4 0.155359 0.719111 0.691895
Si Si5 0.468801 0.850620 0.059190
Si Si6 0.289932 0.476225 0.993058
Si Si7 0.227497 0.077045 0.632968
O O1 0.038817 0.715738 0.207023
O O2 0.956288 0.450799 0.315170
O O3 0.169676 0.640437 0.218179
O O4 0.959629 0.884264 0.618836
O O5 0.715038 0.425408 0.571121
O O6 0.596190 0.809602 0.967829
O O7 0.500000 0.500000 0.000000
O O8 0.711612 0.617815 0.920662
O O9 0.117849 0.144977 0.703664
O O10 0.874403 0.195705 0.076200
O O11 0.162082 0.913862 0.707257
O O12 0.417012 0.619404 0.922546
O O13 0.500000 0.000000 0.000000
O O14 0.351284 0.954734 0.346905
O O15 0.275737 0.285520 0.786124
#
# Coordination Sequence:
#
# PCOD9044567 Si02
#       7
#     2   2   2   2   2   2   2
#     4  11  25  43  69 103 144 174 221 280 347 399
#     4  10  23  47  67  95 137 179 222 280 326 399
#     4  11  25  42  66 105 139 179 219 281 344 398
#     4  12  24  42  72 100 136 181 225 276 335 407
#     4  11  26  49  70  95 136 182 228 281 338 397
#     4  11  24  45  69  99 138 175 227 280 336 400
#     4  12  25  43  69 102 139 174 231 280 333 407
#
# _framework density 21.036044
#
# number of rings (size 3 to 8) (size 9 to 14) (size 15 to 20)
#    0.000    0.857    5.714    0.857    4.000    2.286 
#    0.000    0.000    0.000    0.000    0.000    0.000 
#    0.000    0.000    0.000    0.000    0.000    0.000 
#
# Total GULP energy -78298.401282 kJ/mol
# GULP energy per Si atom -5592.742949 kJ/mol
# Density = 2.098816 g / cm^3
# Si number density = 21.036044 Si / 1000 Ang^3
#
#
#
# Elastic Constant Matrix: (Units=GPa)
#
#
# Indices 1 2 3 4 5 6 
#
# 1 118.9950 46.7326 47.8603 -9.3265 -1.3133 -37.8826
# 2 46.7326 104.6451 5.7944 3.1683 17.9476 -10.0680
# 3 47.8603 5.7944 96.4922 -1.8421 12.5934 -4.6187
# 4 -9.3265 3.1683 -1.8421 22.4399 -0.4940 3.8823
# 5 -1.3133 17.9476 12.5934 -0.4940 33.3962 9.4370
# 6 -37.8826 -10.0680 -4.6187 3.8823 9.4370 37.4864
#
#
#
# Elastic Compliance Matrix: (Units=1/GPa)
#
#
# Indices 1 2 3 4 5 6 
#
# 1 0.021436 -0.008434 -0.009811 0.006564 0.004548 0.016364
# 2 -0.008434 0.014815 0.004418 -0.005277 -0.009756 -0.000997
# 3 -0.009811 0.004418 0.015653 -0.002774 -0.007390 -0.004652
# 4 0.006564 -0.005277 -0.002774 0.048173 0.005259 -0.001439
# 5 0.004548 -0.009756 -0.007390 0.005259 0.040999 -0.009800
# 6 0.016364 -0.000997 -0.004652 -0.001439 -0.009800 0.044989
#
#
# Mechanical properties :
#
#
# Convention : Reuss Voigt Hill
#
# Bulk Modulus (GPa) = 41.23505 57.87854 49.55679
# Shear Modulus (GPa) = 22.54259 33.31417 27.92838
#
# Velocity S-wave (km/s) = 3.27711 3.98385 3.64764
# Velocity P-wave (km/s) = 5.82786 6.98106 6.43036
#
# Compressibility (1/GPa) = 0.02425122
#
# Stress axis : x y z
#
# Youngs Moduli (GPa) = 46.65003 67.49924 63.88451
#
# Poissons Ratio (x) = 0.56930 0.62677
# Poissons Ratio (y) = 0.39345 -0.28227
# Poissons Ratio (z) = 0.45768 -0.29824
#
# Static dielectric constant tensor:
#      x y z
#    x 1.797850 -0.004230 -0.006740 
#    y -0.004230 1.757640 0.018210 
#    z -0.006740 0.018210 1.760320 
# 
# From -- ./inp_files/296582.got.cif
#   From: 2010.05.17/outbox.cif.g08.bks.cpg/sg2_149_cif.got.tgz:296582.got - 2010.06.03 11:33:40.
