data_PCOD9044699
_publ_section_title
;
Structure prediction by ZEFSAII (Michael W. Deem and Ramdas Pophale) SiO2 
 PCOD9044699
Probable space group: P -1
;
_chemical_formula_sum "Si O2"
_cell_formula_units_Z 16
_cell_length_a 16.091326
_cell_length_b 11.615671
_cell_length_c 8.526891
_cell_angle_alpha 72.684679
_cell_angle_beta 71.318452
_cell_angle_gamma 133.945423
_cell_volume 703.617289
_symmetry_space_group_name_H-M "P -1"
_symmetry_group_IT_number 2
_symmetry_cell_setting 'triclinic'
loop_
_space_group_symop_operation_xyz
x,y,z
-x,-y,-z
loop_
_atom_site_type_symbol
_atom_site_label
_atom_site_fract_x
_atom_site_fract_y
_atom_site_fract_z
Si Si1 0.345306 0.997307 0.342214
Si Si2 0.945831 0.562836 0.271001
Si Si3 0.292018 0.668078 0.027969
Si Si4 0.839234 0.661649 0.484351
Si Si5 0.317298 0.962605 0.014604
Si Si6 0.911373 0.857328 0.943731
Si Si7 0.951510 0.234769 0.205517
Si Si8 0.572174 0.452382 0.503584
O O1 0.208035 0.720209 0.532545
O O2 0.235723 0.967275 0.512762
O O3 0.534738 0.180943 0.222354
O O4 0.377366 0.065872 0.112286
O O5 0.861031 0.587373 0.365530
O O6 0.042783 0.693392 0.993771
O O7 0.102888 0.722002 0.233782
O O8 0.353423 0.865972 0.992922
O O9 0.223231 0.487324 0.267871
O O10 0.119997 0.489049 0.098269
O O11 0.695577 0.583840 0.532449
O O12 0.028721 0.957175 0.272844
O O13 0.415768 0.168187 0.747774
O O14 0.000123 0.845597 0.823595
O O15 0.704203 0.588141 0.220878
O O16 0.000000 0.000000 0.000000
O O17 0.500000 0.500000 0.500000
#
# Coordination Sequence:
#
# PCOD9044699 Si02
#       8
#     2   2   2   2   2   2   2   2
#     4  12  25  45  70 110 146 189 236 292 372 423
#     4  12  23  44  72 105 145 189 238 298 360 429
#     4  12  26  46  73 109 150 189 236 299 365 428
#     4  11  22  47  74  99 137 192 248 287 353 435
#     4  12  24  44  76 108 145 191 242 297 353 437
#     4  10  23  47  71  94 135 190 239 291 352 424
#     4  12  27  45  66 111 149 186 238 302 363 425
#     4  11  23  41  72 110 130 182 255 293 342 422
#
# _framework density 22.739635
#
# number of rings (size 3 to 8) (size 9 to 14) (size 15 to 20)
#    0.000    0.500    6.250    3.375    1.750    2.000 
#    0.000    0.625    0.000    0.000    0.000    0.000 
#    0.000    0.000    0.000    0.000    0.000    0.000 
#
# Total GULP energy -89487.486180 kJ/mol
# GULP energy per Si atom -5592.967886 kJ/mol
# Density = 2.268788 g / cm^3
# Si number density = 22.739635 Si / 1000 Ang^3
#
#
#
# Elastic Constant Matrix: (Units=GPa)
#
#
# Indices 1 2 3 4 5 6 
#
# 1 91.0786 8.1830 34.9401 -0.8654 -8.2701 -18.8969
# 2 8.1830 30.9665 28.1343 3.5614 4.6659 -15.9591
# 3 34.9401 28.1343 128.7554 -19.8377 -5.9936 -28.4600
# 4 -0.8654 3.5614 -19.8377 36.0010 -17.6844 -0.2256
# 5 -8.2701 4.6659 -5.9936 -17.6844 45.0750 -5.2944
# 6 -18.8969 -15.9591 -28.4600 -0.2256 -5.2944 51.2045
#
#
#
# Elastic Compliance Matrix: (Units=1/GPa)
#
#
# Indices 1 2 3 4 5 6 
#
# 1 0.012953 0.000624 -0.002738 -0.000081 0.002350 0.003696
# 2 0.000624 0.052836 -0.013716 -0.019589 -0.013978 0.007543
# 3 -0.002738 -0.013716 0.014937 0.013878 0.008817 0.003990
# 4 -0.000081 -0.019589 0.013878 0.048962 0.023565 0.004231
# 5 0.002350 -0.013978 0.008817 0.023565 0.035085 0.005143
# 6 0.003696 0.007543 0.003990 0.004231 0.005143 0.026012
#
#
# Mechanical properties :
#
#
# Convention : Reuss Voigt Hill
#
# Bulk Modulus (GPa) = 20.38002 43.70170 32.04086
# Shear Modulus (GPa) = 20.93794 38.42562 29.68178
#
# Velocity S-wave (km/s) = 3.03771 4.11519 3.61680
# Velocity P-wave (km/s) = 4.61361 6.46836 5.61805
#
# Compressibility (1/GPa) = 0.04906767
#
# Stress axis : x y z
#
# Youngs Moduli (GPa) = 77.20146 18.92648 66.94638
#
# Poissons Ratio (x) = -0.01182 0.18328
# Poissons Ratio (y) = -0.04821 0.91825
# Poissons Ratio (z) = 0.21136 0.25960
#
# Static dielectric constant tensor:
#      x y z
#    x 1.872730 0.010970 0.006970 
#    y 0.010970 1.856700 -0.019870 
#    z 0.006970 -0.019870 1.892710 
# 
# From -- ./inp_files/333234.got.cif
#   From: 2010.05.17/outbox.cif.g08.bks.cpg/sg2_167_cif.got.tgz:333234.got - 2010.06.03 11:33:40.
