data_PCOD9044492
_publ_section_title
;
Structure prediction by ZEFSAII (Michael W. Deem and Ramdas Pophale) SiO2 
 PCOD9044492
Probable space group: P -1
;
_chemical_formula_sum "Si O2"
_cell_formula_units_Z 14
_cell_length_a 11.695758
_cell_length_b 7.937544
_cell_length_c 8.615485
_cell_angle_alpha 71.447812
_cell_angle_beta 130.162618
_cell_angle_gamma 117.026440
_cell_volume 544.119516
_symmetry_space_group_name_H-M "P -1"
_symmetry_group_IT_number 2
_symmetry_cell_setting 'triclinic'
loop_
_space_group_symop_operation_xyz
x,y,z
-x,-y,-z
loop_
_atom_site_type_symbol
_atom_site_label
_atom_site_fract_x
_atom_site_fract_y
_atom_site_fract_z
Si Si1 0.122660 0.583400 0.437395
Si Si2 0.232183 0.310159 0.758864
Si Si3 0.037888 0.037738 0.341340
Si Si4 0.605758 0.821637 0.303538
Si Si5 0.535862 0.113185 0.335824
Si Si6 0.371857 0.424255 0.151891
Si Si7 0.021612 0.221788 0.999215
O O1 0.189243 0.408817 0.541154
O O2 0.926287 0.825243 0.254927
O O3 0.280366 0.757196 0.566132
O O4 0.063505 0.658184 0.208668
O O5 0.332471 0.186821 0.815632
O O6 0.000000 0.500000 0.500000
O O7 0.325673 0.463235 0.923203
O O8 0.228697 0.102568 0.475501
O O9 0.973801 0.181878 0.150534
O O10 0.000000 0.000000 0.500000
O O11 0.507552 0.955662 0.223655
O O12 0.492249 0.605181 0.288019
O O13 0.500000 0.000000 0.500000
O O14 0.439523 0.256024 0.228453
O O15 0.206964 0.343841 0.119636
O O16 0.000000 0.000000 0.000000
#
# Coordination Sequence:
#
# PCOD9044492 Si02
#       7
#     2   2   2   2   2   2   2
#     4  12  24  47  81 116 155 214 271 322 405 484
#     4  11  23  48  78 113 161 209 262 336 399 479
#     4  10  23  46  77 112 158 206 261 329 401 474
#     4  11  25  48  74 115 159 204 261 335 398 480
#     4  12  28  47  78 113 162 215 267 333 411 475
#     4  12  25  47  81 113 161 207 267 329 407 469
#     4  12  23  45  84 111 152 217 263 322 405 481
#
# _framework density 25.729644
#
# number of rings (size 3 to 8) (size 9 to 14) (size 15 to 20)
#    0.000    0.571    4.286    3.857    0.000    2.857 
#    0.000    5.714    0.000    0.000    0.000    0.000 
#    0.000    0.000    0.000    0.000    0.000    0.000 
#
# Total GULP energy -78093.311035 kJ/mol
# GULP energy per Si atom -5578.093645 kJ/mol
# Density = 2.567108 g / cm^3
# Si number density = 25.729644 Si / 1000 Ang^3
#
#
#
# Elastic Constant Matrix: (Units=GPa)
#
#
# Indices 1 2 3 4 5 6 
#
# 1 69.1670 55.4683 32.6928 -13.9166 -5.3601 9.4225
# 2 55.4683 166.8592 75.5958 -24.0627 3.3317 6.4449
# 3 32.6928 75.5958 113.9862 -56.2020 -7.6386 16.7795
# 4 -13.9166 -24.0627 -56.2020 60.1432 14.3330 1.5210
# 5 -5.3601 3.3317 -7.6386 14.3330 31.4204 -2.9547
# 6 9.4225 6.4449 16.7795 1.5210 -2.9547 53.7448
#
#
#
# Elastic Compliance Matrix: (Units=1/GPa)
#
#
# Indices 1 2 3 4 5 6 
#
# 1 0.020705 -0.006436 -0.000656 0.000848 0.003434 -0.002489
# 2 -0.006436 0.011141 -0.008045 -0.004095 -0.002150 0.002302
# 3 -0.000656 -0.008045 0.026123 0.022134 -0.003749 -0.007909
# 4 0.000848 -0.004095 0.022134 0.039097 -0.012662 -0.008371
# 5 0.003434 -0.002150 -0.003749 -0.012662 0.037812 0.003263
# 6 -0.002489 0.002302 -0.007909 -0.008371 0.003263 0.021652
#
#
# Mechanical properties :
#
#
# Convention : Reuss Voigt Hill
#
# Bulk Modulus (GPa) = 36.10695 75.28071 55.69383
# Shear Modulus (GPa) = 25.50579 41.47871 33.49225
#
# Velocity S-wave (km/s) = 3.15191 4.01945 3.61182
# Velocity P-wave (km/s) = 5.22587 7.13184 6.25191
#
# Compressibility (1/GPa) = 0.02769550
#
# Stress axis : x y z
#
# Youngs Moduli (GPa) = 48.29825 89.76088 38.28108
#
# Poissons Ratio (x) = 0.57770 0.02509
# Poissons Ratio (y) = 0.31085 0.30796
# Poissons Ratio (z) = 0.03166 0.72210
#
# Static dielectric constant tensor:
#      x y z
#    x 2.122540 -0.041720 -0.050370 
#    y -0.041720 2.187550 0.034110 
#    z -0.050370 0.034110 2.241810 
# 
# From -- ./inp_files/238799.got.cif
#   From: 2010.05.17/outbox.cif.g08.bks.cpg/sg2_120_cif.got.tgz:238799.got - 2010.06.03 11:33:40.
