data_PCOD9044052
_publ_section_title
;
Structure prediction by ZEFSAII (Michael W. Deem and Ramdas Pophale) SiO2 
 PCOD9044052
Probable space group: P -1
;
_chemical_formula_sum "Si O2"
_cell_formula_units_Z 14
_cell_length_a 6.528758
_cell_length_b 6.232618
_cell_length_c 16.362116
_cell_angle_alpha 80.385924
_cell_angle_beta 71.287414
_cell_angle_gamma 70.554189
_cell_volume 593.276901
_symmetry_space_group_name_H-M "P -1"
_symmetry_group_IT_number 2
_symmetry_cell_setting 'triclinic'
loop_
_space_group_symop_operation_xyz
x,y,z
-x,-y,-z
loop_
_atom_site_type_symbol
_atom_site_label
_atom_site_fract_x
_atom_site_fract_y
_atom_site_fract_z
Si Si1 0.793287 0.630097 0.344298
Si Si2 0.483071 0.689879 0.603452
Si Si3 0.174209 0.368138 0.199209
Si Si4 0.025905 0.169315 0.072019
Si Si5 0.727741 0.316765 0.949824
Si Si6 0.836590 0.886430 0.479519
Si Si7 0.372371 0.924869 0.771145
O O1 0.583603 0.534177 0.399191
O O2 0.900532 0.730271 0.399901
O O3 0.988157 0.431586 0.289048
O O4 0.694646 0.831294 0.279153
O O5 0.727813 0.730819 0.560441
O O6 0.402267 0.746405 0.703518
O O7 0.340620 0.890006 0.550271
O O8 0.242049 0.593071 0.150449
O O9 0.387223 0.158598 0.209780
O O10 0.078422 0.313283 0.129496
O O11 0.823361 0.082403 0.140814
O O12 0.924572 0.297447 0.993806
O O13 0.244958 0.951679 0.042949
O O14 0.500000 0.500000 0.000000
O O15 0.000000 0.000000 0.500000
#
# Coordination Sequence:
#
# PCOD9044052 Si02
#       7
#     2   2   2   2   2   2   2
#     4  11  24  46  74 103 146 191 237 298 359 421
#     4  10  23  46  69 104 144 185 236 300 352 423
#     4  12  25  43  71 102 138 193 237 292 361 420
#     4  11  24  44  67 100 145 177 244 300 341 431
#     4  11  24  45  70 100 139 189 238 291 365 418
#     4  10  24  46  73 105 145 186 241 290 354 433
#     4  11  24  43  67 105 141 180 242 295 349 427
#
# _framework density 23.597750999999999
#
# number of rings (size 3 to 8) (size 9 to 14) (size 15 to 20)
#    0.000    1.143    4.286    0.857    2.000    3.429 
#    7.714    0.000    0.000    0.000    0.000    0.000 
#    0.000    0.000    0.000    0.000    0.000    0.000 
#
# Total GULP energy -78188.204010 kJ/mol
# GULP energy per Si atom -5584.871715 kJ/mol
# Density = 2.354404 g / cm^3
# Si number density = 23.597751 Si / 1000 Ang^3
#
#
#
# Elastic Constant Matrix: (Units=GPa)
#
#
# Indices 1 2 3 4 5 6 
#
# 1 98.5622 45.4380 44.4300 -3.1407 5.7315 3.8470
# 2 45.4380 83.7967 31.9310 10.5688 2.6719 -7.6115
# 3 44.4300 31.9310 107.0625 -2.4056 1.8692 3.0733
# 4 -3.1407 10.5688 -2.4056 33.1849 1.6012 3.2257
# 5 5.7315 2.6719 1.8692 1.6012 32.9692 2.0899
# 6 3.8470 -7.6115 3.0733 3.2257 2.0899 45.8832
#
#
#
# Elastic Compliance Matrix: (Units=1/GPa)
#
#
# Indices 1 2 3 4 5 6 
#
# 1 0.015896 -0.007734 -0.004093 0.004011 -0.001939 -0.002535
# 2 -0.007734 0.018412 -0.002571 -0.007211 0.000071 0.004379
# 3 -0.004093 -0.002571 0.011861 0.001375 0.000243 -0.000985
# 4 0.004011 -0.007211 0.001375 0.033365 -0.001564 -0.003899
# 5 -0.001939 0.000071 0.000243 -0.001564 0.030797 -0.001135
# 6 -0.002535 0.004379 -0.000985 -0.003899 -0.001135 0.023125
#
#
# Mechanical properties :
#
#
# Convention : Reuss Voigt Hill
#
# Bulk Modulus (GPa) = 57.56220 59.22440 58.39330
# Shear Modulus (GPa) = 29.75447 33.58230 31.66839
#
# Velocity S-wave (km/s) = 3.55477 3.77651 3.66732
# Velocity P-wave (km/s) = 6.42609 6.64590 6.53692
#
# Compressibility (1/GPa) = 0.01737251
#
# Stress axis : x y z
#
# Youngs Moduli (GPa) = 62.90890 54.31275 84.31227
#
# Poissons Ratio (x) = 0.42006 0.34512
# Poissons Ratio (y) = 0.48654 0.21674
# Poissons Ratio (z) = 0.25751 0.13962
#
# Static dielectric constant tensor:
#      x y z
#    x 1.975870 0.055180 -0.052440 
#    y 0.055180 1.931860 0.018660 
#    z -0.052440 0.018660 1.891700 
# 
# From -- ./inp_files/7662.got.cif
#   From: 2010.05.17/outbox.cif.g08.bks.cpg/sg2_4_cif.got.tgz:7662.got - 2010.06.03 11:33:40.
