data_PCOD9044017
_publ_section_title
;
Structure prediction by ZEFSAII (Michael W. Deem and Ramdas Pophale) SiO2 
 PCOD9044017
Probable space group: P -1
;
_chemical_formula_sum "Si O2"
_cell_formula_units_Z 14
_cell_length_a 21.079324
_cell_length_b 6.973635
_cell_length_c 8.983008
_cell_angle_alpha 54.183561
_cell_angle_beta 39.115999
_cell_angle_gamma 63.359490
_cell_volume 675.509971
_symmetry_space_group_name_H-M "P -1"
_symmetry_group_IT_number 2
_symmetry_cell_setting 'triclinic'
loop_
_space_group_symop_operation_xyz
x,y,z
-x,-y,-z
loop_
_atom_site_type_symbol
_atom_site_label
_atom_site_fract_x
_atom_site_fract_y
_atom_site_fract_z
Si Si1 0.047930 0.607556 0.012961
Si Si2 0.231931 0.899852 0.628603
Si Si3 0.897936 0.861874 0.707005
Si Si4 0.135838 0.296288 0.491463
Si Si5 0.774561 0.199192 0.969874
Si Si6 0.459155 0.760782 0.265784
Si Si7 0.537126 0.250336 0.384050
O O1 0.092553 0.392869 0.122312
O O2 0.958768 0.721710 0.218343
O O3 0.142728 0.781530 0.748587
O O4 0.000000 0.500000 0.000000
O O5 0.338399 0.779156 0.465619
O O6 0.229831 0.170687 0.456242
O O7 0.205366 0.880135 0.860674
O O8 0.887081 0.822835 0.570228
O O9 0.806638 0.999584 0.885969
O O10 0.000000 0.000000 0.500000
O O11 0.160063 0.569335 0.292008
O O12 0.657599 0.259350 0.145562
O O13 0.493627 0.493525 0.281882
O O14 0.487613 0.767065 0.386531
O O15 0.500000 0.000000 0.000000
O O16 0.500000 0.000000 0.500000
#
# Coordination Sequence:
#
# PCOD9044017 Si02
#       7
#     2   2   2   2   2   2   2
#     4  12  24  42  64  97 137 173 218 268 323 391
#     4  11  24  42  67  95 134 175 215 273 327 391
#     4  12  23  40  67  95 129 176 220 265 323 390
#     4  12  24  44  65  94 137 172 219 269 322 394
#     4  11  24  43  66  97 132 174 220 266 336 394
#     4  10  23  46  68  98 136 172 222 278 341 396
#     4  10  24  43  69 100 132 171 223 283 332 399
#
# _framework density 20.725083000000001
#
# number of rings (size 3 to 8) (size 9 to 14) (size 15 to 20)
#    0.000    0.857    2.857    4.286    2.000    2.857 
#    0.000    0.000    0.000    0.000    0.000    0.000 
#    0.000    0.000    0.000    0.000    0.000    0.000 
#
# Total GULP energy -78242.922089 kJ/mol
# GULP energy per Si atom -5588.780149 kJ/mol
# Density = 2.067791 g / cm^3
# Si number density = 20.725083 Si / 1000 Ang^3
#
#
#
# Elastic Constant Matrix: (Units=GPa)
#
#
# Indices 1 2 3 4 5 6 
#
# 1 104.8202 60.0057 34.2581 2.7613 16.0997 -5.1939
# 2 60.0057 138.1459 30.9113 5.2199 11.6319 -14.8633
# 3 34.2581 30.9113 73.5721 -3.6881 6.3639 -1.8747
# 4 2.7613 5.2199 -3.6881 36.2934 -4.8514 4.2384
# 5 16.0997 11.6319 6.3639 -4.8514 23.7504 -12.2578
# 6 -5.1939 -14.8633 -1.8747 4.2384 -12.2578 39.9410
#
#
#
# Elastic Compliance Matrix: (Units=1/GPa)
#
#
# Indices 1 2 3 4 5 6 
#
# 1 0.015030 -0.005082 -0.004304 -0.001652 -0.008157 -0.002467
# 2 -0.005082 0.010283 -0.001980 -0.001640 0.000332 0.003349
# 3 -0.004304 -0.001980 0.016569 0.002331 -0.000561 -0.000938
# 4 -0.001652 -0.001640 0.002331 0.029213 0.006294 -0.001884
# 5 -0.008157 0.000332 -0.000561 0.006294 0.057111 0.015896
# 6 -0.002467 0.003349 -0.000938 -0.001884 0.015896 0.030997
#
#
# Mechanical properties :
#
#
# Convention : Reuss Voigt Hill
#
# Bulk Modulus (GPa) = 52.21324 62.98760 57.60042
# Shear Modulus (GPa) = 26.55083 32.75450 29.65266
#
# Velocity S-wave (km/s) = 3.58312 3.97977 3.78665
# Velocity P-wave (km/s) = 6.50894 7.18165 6.85355
#
# Compressibility (1/GPa) = 0.01915223
#
# Stress axis : x y z
#
# Youngs Moduli (GPa) = 66.53413 97.24447 60.35238
#
# Poissons Ratio (x) = 0.49416 0.25973
# Poissons Ratio (y) = 0.33810 0.11950
# Poissons Ratio (z) = 0.28634 0.19254
#
# Static dielectric constant tensor:
#      x y z
#    x 1.728770 0.000980 -0.003510 
#    y 0.000980 1.829890 -0.091470 
#    z -0.003510 -0.091470 1.827210 
# 
# From -- ./inp_files/37138.got.cif
#   From: 2010.05.17/outbox.cif.g08.bks.cpg/sg2_19_cif.got.tgz:37138.got - 2010.06.03 11:33:40.
