data_PCOD9044161
_publ_section_title
;
Structure prediction by ZEFSAII (Michael W. Deem and Ramdas Pophale) SiO2 
 PCOD9044161
Probable space group: P -1
;
_chemical_formula_sum "Si O2"
_cell_formula_units_Z 14
_cell_length_a 12.002844
_cell_length_b 7.310984
_cell_length_c 8.750182
_cell_angle_alpha 91.691095
_cell_angle_beta 53.881025
_cell_angle_gamma 113.332011
_cell_volume 547.590648
_symmetry_space_group_name_H-M "P -1"
_symmetry_group_IT_number 2
_symmetry_cell_setting 'triclinic'
loop_
_space_group_symop_operation_xyz
x,y,z
-x,-y,-z
loop_
_atom_site_type_symbol
_atom_site_label
_atom_site_fract_x
_atom_site_fract_y
_atom_site_fract_z
Si Si1 0.894026 0.212404 0.516657
Si Si2 0.999736 0.739868 0.897675
Si Si3 0.737081 0.304126 0.196401
Si Si4 0.788783 0.736259 0.617529
Si Si5 0.669009 0.168455 0.922645
Si Si6 0.451930 0.614613 0.414253
Si Si7 0.756625 0.848721 0.972854
O O1 0.959999 0.320886 0.303227
O O2 0.041748 0.250002 0.502300
O O3 0.810079 0.961684 0.550539
O O4 0.774578 0.280864 0.693284
O O5 0.162259 0.816428 0.856279
O O6 0.868277 0.545074 0.090660
O O7 0.913470 0.873733 0.926446
O O8 0.659111 0.272998 0.090920
O O9 0.620523 0.263195 0.428769
O O10 0.675125 0.559103 0.594650
O O11 0.727912 0.705392 0.841484
O O12 0.765225 0.052058 0.897742
O O13 0.500000 0.000000 0.000000
O O14 0.500000 0.500000 0.500000
O O15 0.604828 0.753285 0.197602
#
# Coordination Sequence:
#
# PCOD9044161 Si02
#       7
#     2   2   2   2   2   2   2
#     4   9  21  42  70  92 126 179 221 273 322 393
#     4  10  23  47  67 100 132 175 228 271 331 396
#     4  11  27  44  64 103 140 170 223 280 332 391
#     4   9  21  42  68  99 126 170 236 264 320 399
#     4  11  27  44  68  99 138 172 223 279 335 397
#     4  12  25  40  68 101 139 177 214 279 337 392
#     4  10  23  46  70  97 131 185 219 271 332 399
#
# _framework density 25.566541999999998
#
# number of rings (size 3 to 8) (size 9 to 14) (size 15 to 20)
#    0.000    1.714    1.429    1.286   10.000    5.143 
#    0.000    0.000    0.000    0.000    0.000    0.000 
#    0.000    0.000    0.000    0.000    0.000    0.000 
#
# Total GULP energy -78356.871899 kJ/mol
# GULP energy per Si atom -5596.919421 kJ/mol
# Density = 2.550835 g / cm^3
# Si number density = 25.566542 Si / 1000 Ang^3
#
#
#
# Elastic Constant Matrix: (Units=GPa)
#
#
# Indices 1 2 3 4 5 6 
#
# 1 123.0179 30.6792 27.2028 9.1348 -2.4278 11.9523
# 2 30.6792 68.0656 30.5040 5.8385 -2.8742 16.0930
# 3 27.2028 30.5040 219.6566 7.0781 -9.7916 18.6196
# 4 9.1348 5.8385 7.0781 31.4323 -4.1131 8.3495
# 5 -2.4278 -2.8742 -9.7916 -4.1131 34.3324 -0.3587
# 6 11.9523 16.0930 18.6196 8.3495 -0.3587 46.6781
#
#
#
# Elastic Compliance Matrix: (Units=1/GPa)
#
#
# Indices 1 2 3 4 5 6 
#
# 1 0.009355 -0.003683 -0.000541 -0.001757 -0.000018 -0.000596
# 2 -0.003683 0.018252 -0.001640 -0.000647 0.000675 -0.004575
# 3 -0.000541 -0.001640 0.005014 -0.000174 0.001220 -0.001256
# 4 -0.001757 -0.000647 -0.000174 0.034417 0.003839 -0.005384
# 5 -0.000018 0.000675 0.001220 0.003839 0.029978 -0.001171
# 6 -0.000596 -0.004575 -0.001256 -0.005384 -0.001171 0.024608
#
#
# Mechanical properties :
#
#
# Convention : Reuss Voigt Hill
#
# Bulk Modulus (GPa) = 47.86275 65.27912 56.57094
# Shear Modulus (GPa) = 35.63371 43.97884 39.80628
#
# Velocity S-wave (km/s) = 3.73736 4.15199 3.95012
# Velocity P-wave (km/s) = 6.11436 6.96950 6.55588
#
# Compressibility (1/GPa) = 0.02089308
#
# Stress axis : x y z
#
# Youngs Moduli (GPa) = 106.89392 54.78715 199.45349
#
# Poissons Ratio (x) = 0.20181 0.10785
# Poissons Ratio (y) = 0.39374 0.32708
# Poissons Ratio (z) = 0.05780 0.08984
#
# Static dielectric constant tensor:
#      x y z
#    x 2.022070 -0.090870 0.191130 
#    y -0.090870 2.261520 -0.205800 
#    z 0.191130 -0.205800 2.789520 
# 
# From -- ./inp_files/244403.got.cif
#   From: 2010.05.17/outbox.cif.g08.bks.cpg/sg2_123_cif.got.tgz:244403.got - 2010.06.03 11:33:40.
