data_PCOD9044843
_publ_section_title
;
Structure prediction by ZEFSAII (Michael W. Deem and Ramdas Pophale) SiO2 
 PCOD9044843
Probable space group: P -1
;
_chemical_formula_sum "Si O2"
_cell_formula_units_Z 16
_cell_length_a 5.123477
_cell_length_b 24.112935
_cell_length_c 18.241880
_cell_angle_alpha 20.586876
_cell_angle_beta 104.638857
_cell_angle_gamma 95.231399
_cell_volume 693.158618
_symmetry_space_group_name_H-M "P -1"
_symmetry_group_IT_number 2
_symmetry_cell_setting 'triclinic'
loop_
_space_group_symop_operation_xyz
x,y,z
-x,-y,-z
loop_
_atom_site_type_symbol
_atom_site_label
_atom_site_fract_x
_atom_site_fract_y
_atom_site_fract_z
Si Si1 0.214405 0.038092 0.523631
Si Si2 0.162510 0.244123 0.032847
Si Si3 0.040363 0.914244 0.398260
Si Si4 0.788597 0.535175 0.370021
Si Si5 0.013370 0.147308 0.870850
Si Si6 0.903048 0.631939 0.973058
Si Si7 0.494368 0.450743 0.145896
Si Si8 0.378147 0.867727 0.007904
O O1 0.038396 0.124161 0.478658
O O2 0.291528 0.182081 0.310175
O O3 0.494205 0.862457 0.784027
O O4 0.000000 0.000000 0.500000
O O5 0.985729 0.331526 0.986019
O O6 0.089721 0.088188 0.193077
O O7 0.124246 0.381051 0.797079
O O8 0.328637 0.756980 0.581925
O O9 0.755686 0.967968 0.259004
O O10 0.490298 0.690284 0.187884
O O11 0.000000 0.500000 0.500000
O O12 0.807386 0.346615 0.584751
O O13 0.345739 0.131649 0.926934
O O14 0.880522 0.125128 0.966071
O O15 0.000000 0.000000 0.000000
O O16 0.174665 0.525201 0.069800
O O17 0.698656 0.532835 0.096211
O O18 0.500000 0.500000 0.000000
#
# Coordination Sequence:
#
# PCOD9044843 Si02
#       8
#     2   2   2   2   2   2   2   2
#     4  12  24  45  71 108 145 194 250 306 361 428
#     4  12  26  46  74 107 147 193 252 303 370 432
#     4  12  26  43  76 101 148 193 247 299 359 438
#     4  10  23  47  75 108 141 189 240 305 361 440
#     4  11  25  48  78 106 149 186 234 299 376 436
#     4  12  27  46  69 104 146 195 247 303 365 434
#     4  12  27  46  68 101 146 198 246 298 369 428
#     4  11  24  47  72 112 140 189 244 296 361 441
#
# _framework density 23.082740999999999
#
# number of rings (size 3 to 8) (size 9 to 14) (size 15 to 20)
#    0.000    0.500    3.750    4.500    1.750    2.000 
#    0.000    5.000    0.000    0.000    0.000    0.000 
#    0.000    0.000    0.000    0.000    0.000    0.000 
#
# Total GULP energy -89607.921305 kJ/mol
# GULP energy per Si atom -5600.495082 kJ/mol
# Density = 2.303020 g / cm^3
# Si number density = 23.082741 Si / 1000 Ang^3
#
#
#
# Elastic Constant Matrix: (Units=GPa)
#
#
# Indices 1 2 3 4 5 6 
#
# 1 40.4872 7.1095 -2.4713 3.1435 6.7362 3.3577
# 2 7.1095 90.3244 67.4920 -4.4570 -6.5171 -15.4479
# 3 -2.4713 67.4920 111.4042 0.0082 2.2894 3.1998
# 4 3.1435 -4.4570 0.0082 44.6142 -0.8750 -6.6719
# 5 6.7362 -6.5171 2.2894 -0.8750 42.8885 -1.9727
# 6 3.3577 -15.4479 3.1998 -6.6719 -1.9727 40.2975
#
#
#
# Elastic Compliance Matrix: (Units=1/GPa)
#
#
# Indices 1 2 3 4 5 6 
#
# 1 0.028724 -0.009038 0.006462 -0.004163 -0.006654 -0.007386
# 2 -0.009038 0.028628 -0.018116 0.005816 0.007522 0.014497
# 3 0.006462 -0.018116 0.020494 -0.003873 -0.005401 -0.010016
# 4 -0.004163 0.005816 -0.003873 0.024394 0.002566 0.007048
# 5 -0.006654 0.007522 -0.005401 0.002566 0.026101 0.005570
# 6 -0.007386 0.014497 -0.010016 0.007048 0.005570 0.033223
#
#
# Mechanical properties :
#
#
# Convention : Reuss Voigt Hill
#
# Bulk Modulus (GPa) = 27.42604 42.94179 35.18391
# Shear Modulus (GPa) = 23.24488 36.89909 30.07198
#
# Velocity S-wave (km/s) = 3.17681 4.00253 3.61334
# Velocity P-wave (km/s) = 5.03622 6.32489 5.71698
#
# Compressibility (1/GPa) = 0.03646170
#
# Stress axis : x y z
#
# Youngs Moduli (GPa) = 34.81450 34.93080 48.79568
#
# Poissons Ratio (x) = 0.31571 -0.31532
# Poissons Ratio (y) = 0.31466 0.88396
# Poissons Ratio (z) = -0.22497 0.63279
#
# Static dielectric constant tensor:
#      x y z
#    x 1.907400 0.082110 0.047430 
#    y 0.082110 2.122240 0.117050 
#    z 0.047430 0.117050 1.934500 
# 
# From -- ./inp_files/551219.got.cif
#   From: 2010.05.17/outbox.cif.g08.bks.cpg/sg2_276_cif.got.tgz:551219.got - 2010.06.03 11:33:40.
