data_PCOD9044895
_publ_section_title
;
Structure prediction by ZEFSAII (Michael W. Deem and Ramdas Pophale) SiO2 
 PCOD9044895
Probable space group: P -1
;
_chemical_formula_sum "Si O2"
_cell_formula_units_Z 12
_cell_length_a 7.383637
_cell_length_b 10.585015
_cell_length_c 10.136354
_cell_angle_alpha 42.602420
_cell_angle_beta 118.193791
_cell_angle_gamma 120.825619
_cell_volume 454.272440
_symmetry_space_group_name_H-M "P -1"
_symmetry_group_IT_number 2
_symmetry_cell_setting 'triclinic'
loop_
_space_group_symop_operation_xyz
x,y,z
-x,-y,-z
loop_
_atom_site_type_symbol
_atom_site_label
_atom_site_fract_x
_atom_site_fract_y
_atom_site_fract_z
Si Si1 0.490557 0.710079 0.786902
Si Si2 0.120807 0.714143 0.937367
Si Si3 0.352789 0.643026 0.315671
Si Si4 0.879870 0.943481 0.865356
Si Si5 0.986096 0.310940 0.436627
Si Si6 0.321935 0.123068 0.562471
O O1 0.625822 0.852257 0.835554
O O2 0.241341 0.683951 0.699473
O O3 0.600700 0.807866 0.611926
O O4 0.500000 0.500000 0.000000
O O5 0.201102 0.900322 0.726089
O O6 0.972277 0.790623 0.931217
O O7 0.316794 0.691677 0.114344
O O8 0.000000 0.500000 0.000000
O O9 0.153539 0.245679 0.447817
O O10 0.476252 0.819213 0.313143
O O11 0.118382 0.520288 0.374712
O O12 0.939826 0.144709 0.655140
O O13 0.000000 0.000000 0.000000
O O14 0.500000 0.500000 0.500000
#
# Coordination Sequence:
#
# PCOD9044895 Si02
#       6
#     2   2   2   2   2   2
#     4  12  28  51  82 124 170 229 279 355 435 512
#     4  11  26  50  86 122 164 227 289 354 426 515
#     4  10  23  47  78 121 160 218 275 353 420 504
#     4  11  28  52  80 123 168 224 285 354 433 507
#     4  10  25  51  80 120 169 219 286 357 422 518
#     4  10  26  50  85 121 165 224 292 345 431 512
#
# _framework density 26.415863999999999
#
# number of rings (size 3 to 8) (size 9 to 14) (size 15 to 20)
#    0.000    1.333    0.000    2.000   11.667    2.667 
#    3.000    0.000    0.000    0.000    0.000    0.000 
#    0.000    0.000    0.000    0.000    0.000    0.000 
#
# Total GULP energy -67198.001901 kJ/mol
# GULP energy per Si atom -5599.833492 kJ/mol
# Density = 2.635574 g / cm^3
# Si number density = 26.415864 Si / 1000 Ang^3
#
#
#
# Elastic Constant Matrix: (Units=GPa)
#
#
# Indices 1 2 3 4 5 6 
#
# 1 182.7392 96.3564 82.9242 15.8910 13.1755 32.6422
# 2 96.3564 232.0334 103.8977 9.1612 1.2339 49.8165
# 3 82.9242 103.8977 217.6003 -14.1084 13.4014 20.6614
# 4 15.8910 9.1612 -14.1084 51.4989 21.3760 10.4330
# 5 13.1755 1.2339 13.4014 21.3760 50.0695 1.7904
# 6 32.6422 49.8165 20.6614 10.4330 1.7904 61.3930
#
#
#
# Elastic Compliance Matrix: (Units=1/GPa)
#
#
# Indices 1 2 3 4 5 6 
#
# 1 0.007935 -0.001956 -0.002046 -0.002124 -0.000529 -0.001567
# 2 -0.001956 0.007057 -0.002459 -0.001273 0.001674 -0.003691
# 3 -0.002046 -0.002459 0.007008 0.004255 -0.003096 0.000093
# 4 -0.002124 -0.001273 0.004255 0.027172 -0.012023 -0.003537
# 5 -0.000529 0.001674 -0.003096 -0.012023 0.025987 0.001250
# 6 -0.001567 -0.003691 0.000093 -0.003537 0.001250 0.020650
#
#
# Mechanical properties :
#
#
# Convention : Reuss Voigt Hill
#
# Bulk Modulus (GPa) = 110.17582 133.19215 121.68399
# Shear Modulus (GPa) = 44.73967 55.87191 50.30579
#
# Velocity S-wave (km/s) = 4.11988 4.60400 4.36865
# Velocity P-wave (km/s) = 8.02683 8.87655 8.46236
#
# Compressibility (1/GPa) = 0.00907640
#
# Stress axis : x y z
#
# Youngs Moduli (GPa) = 126.02559 141.70435 142.70380
#
# Poissons Ratio (x) = 0.27713 0.29203
# Poissons Ratio (y) = 0.24647 0.35096
# Poissons Ratio (z) = 0.25790 0.34850
#
# Static dielectric constant tensor:
#      x y z
#    x 2.160940 -0.087830 0.006020 
#    y -0.087830 2.176840 0.024180 
#    z 0.006020 0.024180 2.055890 
# 
# From -- ./inp_files/145054.got.cif
#   From: 2010.05.17/outbox.cif.g08.bks.cpg/sg2_73_cif.got.tgz:145054.got - 2010.06.03 11:33:40.
