data_PCOD9044572
_publ_section_title
;
Structure prediction by ZEFSAII (Michael W. Deem and Ramdas Pophale) SiO2 
 PCOD9044572
Probable space group: P -1
;
_chemical_formula_sum "Si O2"
_cell_formula_units_Z 16
_cell_length_a 9.482061
_cell_length_b 12.145469
_cell_length_c 12.298203
_cell_angle_alpha 68.269958
_cell_angle_beta 108.788341
_cell_angle_gamma 51.635831
_cell_volume 673.251052
_symmetry_space_group_name_H-M "P -1"
_symmetry_group_IT_number 2
_symmetry_cell_setting 'triclinic'
loop_
_space_group_symop_operation_xyz
x,y,z
-x,-y,-z
loop_
_atom_site_type_symbol
_atom_site_label
_atom_site_fract_x
_atom_site_fract_y
_atom_site_fract_z
Si Si1 0.312627 0.519258 0.900576
Si Si2 0.494042 0.814641 0.790499
Si Si3 0.757425 0.870466 0.767865
Si Si4 0.674723 0.672956 0.277303
Si Si5 0.917940 0.919996 0.986563
Si Si6 0.420308 0.403429 0.326465
Si Si7 0.149779 0.695739 0.551847
Si Si8 0.766951 0.670651 0.537977
O O1 0.255477 0.599199 0.735363
O O2 0.014694 0.698867 0.815448
O O3 0.500000 0.500000 0.000000
O O4 0.469677 0.294606 0.056649
O O5 0.710717 0.778871 0.854549
O O6 0.551700 0.695037 0.740352
O O7 0.178541 0.071687 0.616898
O O8 0.818652 0.943412 0.833734
O O9 0.458970 0.088907 0.559424
O O10 0.724335 0.506602 0.397209
O O11 0.734149 0.710854 0.385053
O O12 0.906496 0.535250 0.293777
O O13 0.364786 0.906769 0.078986
O O14 0.181102 0.661529 0.163565
O O15 0.000000 0.000000 0.000000
O O16 0.705684 0.281384 0.460013
O O17 0.330095 0.384130 0.411347
#
# Coordination Sequence:
#
# PCOD9044572 Si02
#       8
#     2   2   2   2   2   2   2   2
#     4  12  26  44  70 108 148 190 233 297 359 424
#     4  12  26  46  74 110 147 186 239 299 360 431
#     4  11  24  46  70 103 145 183 238 297 359 426
#     4  10  23  47  67  98 139 183 242 295 351 424
#     4  11  23  45  71  95 144 186 235 299 345 429
#     4  12  25  44  70 106 139 189 242 288 368 425
#     4  12  25  46  71 107 147 186 239 293 358 431
#     4  10  24  44  72  99 138 187 240 300 355 422
#
# _framework density 23.765280000000001
#
# number of rings (size 3 to 8) (size 9 to 14) (size 15 to 20)
#    0.000    0.750    5.000    1.500    3.500    2.000 
#    2.250    0.000    0.000    0.000    0.000    0.000 
#    0.000    0.000    0.000    0.000    0.000    0.000 
#
# Total GULP energy -89347.832310 kJ/mol
# GULP energy per Si atom -5584.239519 kJ/mol
# Density = 2.371119 g / cm^3
# Si number density = 23.765280 Si / 1000 Ang^3
#
#
#
# Elastic Constant Matrix: (Units=GPa)
#
#
# Indices 1 2 3 4 5 6 
#
# 1 120.2777 11.8787 18.2448 4.3954 24.1062 0.9486
# 2 11.8787 93.7330 34.6835 -10.6620 7.7609 11.8650
# 3 18.2448 34.6835 94.2118 -26.6273 20.1184 -10.8304
# 4 4.3954 -10.6620 -26.6273 36.1790 -4.6525 2.1970
# 5 24.1062 7.7609 20.1184 -4.6525 39.9265 -5.7355
# 6 0.9486 11.8650 -10.8304 2.1970 -5.7355 32.4504
#
#
#
# Elastic Compliance Matrix: (Units=1/GPa)
#
#
# Indices 1 2 3 4 5 6 
#
# 1 0.009852 -0.000345 -0.001635 -0.003136 -0.005637 -0.001492
# 2 -0.000345 0.013752 -0.005573 0.000338 -0.000625 -0.007012
# 3 -0.001635 -0.005573 0.017725 0.010606 -0.004698 0.006453
# 4 -0.003136 0.000338 0.010606 0.035962 0.000850 0.001223
# 5 -0.005637 -0.000625 -0.004698 0.000850 0.031664 0.004364
# 6 -0.001492 -0.007012 0.006453 0.001223 0.004364 0.036266
#
#
# Mechanical properties :
#
#
# Convention : Reuss Voigt Hill
#
# Bulk Modulus (GPa) = 38.13277 48.64849 43.39063
# Shear Modulus (GPa) = 29.57364 37.93886 33.75625
#
# Velocity S-wave (km/s) = 3.53144 3.99983 3.77291
# Velocity P-wave (km/s) = 5.71913 6.46888 6.10552
#
# Compressibility (1/GPa) = 0.02622416
#
# Stress axis : x y z
#
# Youngs Moduli (GPa) = 101.49805 72.71557 56.41618
#
# Poissons Ratio (x) = 0.02506 0.09225
# Poissons Ratio (y) = 0.03498 0.31441
# Poissons Ratio (z) = 0.16597 0.40525
#
# Static dielectric constant tensor:
#      x y z
#    x 1.912640 0.034670 0.032610 
#    y 0.034670 2.015530 -0.000030 
#    z 0.032610 -0.000030 1.995020 
# 
# From -- ./inp_files/306727.got.cif
#   From: 2010.05.17/outbox.cif.g08.bks.cpg/sg2_154_cif.got.tgz:306727.got - 2010.06.03 11:33:40.
