data_PCOD9044292
_publ_section_title
;
Structure prediction by ZEFSAII (Michael W. Deem and Ramdas Pophale) SiO2 
 PCOD9044292
Probable space group: P -1
;
_chemical_formula_sum "Si O2"
_cell_formula_units_Z 14
_cell_length_a 6.648351
_cell_length_b 7.451072
_cell_length_c 11.073806
_cell_angle_alpha 85.347232
_cell_angle_beta 65.738237
_cell_angle_gamma 97.456555
_cell_volume 490.372112
_symmetry_space_group_name_H-M "P -1"
_symmetry_group_IT_number 2
_symmetry_cell_setting 'triclinic'
loop_
_space_group_symop_operation_xyz
x,y,z
-x,-y,-z
loop_
_atom_site_type_symbol
_atom_site_label
_atom_site_fract_x
_atom_site_fract_y
_atom_site_fract_z
Si Si1 0.586359 0.488504 0.676215
Si Si2 0.976653 0.438907 0.761970
Si Si3 0.456557 0.877023 0.399987
Si Si4 0.356401 0.982916 0.895930
Si Si5 0.871820 0.027935 0.825303
Si Si6 0.696432 0.450132 0.041981
Si Si7 0.006685 0.227351 0.402305
O O1 0.749456 0.411640 0.735938
O O2 0.520950 0.335855 0.600138
O O3 0.369123 0.500129 0.809403
O O4 0.756821 0.679836 0.598307
O O5 0.015687 0.232239 0.776003
O O6 0.102024 0.608219 0.642798
O O7 0.914480 0.516166 0.902842
O O8 0.184659 0.867313 0.454463
O O9 0.500000 0.000000 0.500000
O O10 0.628922 0.971424 0.250882
O O11 0.314716 0.766696 0.936610
O O12 0.615305 0.050128 0.861623
O O13 0.183190 0.061239 0.022184
O O14 0.940301 0.893769 0.716163
O O15 0.500000 0.500000 0.000000
#
# Coordination Sequence:
#
# PCOD9044292 Si02
#       7
#     2   2   2   2   2   2   2
#     4   9  18  34  60  84 113 156 197 246 292 344
#     4   8  17  30  59  95 114 136 186 260 308 334
#     4  12  26  41  53  81 132 173 194 229 298 370
#     4  10  19  34  59  93 120 150 194 248 304 358
#     4  10  17  33  65  95 114 135 206 268 303 335
#     4   9  15  31  60  96 114 138 189 264 311 332
#     4  10  21  37  62  91 117 153 200 255 297 346
#
# _framework density 28.549745999999999
#
# number of rings (size 3 to 8) (size 9 to 14) (size 15 to 20)
#    0.857    1.429    2.857    0.429    4.000    0.571 
#    2.571    1.429    0.000    1.714    0.000    0.000 
#    0.000    0.000    0.000    0.000    0.000    0.000 
#
# Total GULP energy -78207.416341 kJ/mol
# GULP energy per Si atom -5586.244024 kJ/mol
# Density = 2.848477 g / cm^3
# Si number density = 28.549746 Si / 1000 Ang^3
#
#
#
# Elastic Constant Matrix: (Units=GPa)
#
#
# Indices 1 2 3 4 5 6 
#
# 1 84.7695 24.1863 29.0192 0.1190 -15.0920 9.8303
# 2 24.1863 176.0739 91.2465 27.7381 -11.9929 4.0975
# 3 29.0192 91.2465 184.9342 9.8463 -22.1687 -10.4225
# 4 0.1190 27.7381 9.8463 65.1238 -3.9245 5.2016
# 5 -15.0920 -11.9929 -22.1687 -3.9245 40.5291 2.3957
# 6 9.8303 4.0975 -10.4225 5.2016 2.3957 34.7972
#
#
#
# Elastic Compliance Matrix: (Units=1/GPa)
#
#
# Indices 1 2 3 4 5 6 
#
# 1 0.013931 -0.000892 -0.001545 0.001240 0.004482 -0.004787
# 2 -0.000892 0.008294 -0.003908 -0.002836 -0.000204 -0.001457
# 3 -0.001545 -0.003908 0.008034 0.000359 0.002516 0.003076
# 4 0.001240 -0.002836 0.000359 0.016805 0.001596 -0.002531
# 5 0.004482 -0.000204 0.002516 0.001596 0.027970 -0.002653
# 6 -0.004787 -0.001457 0.003076 -0.002531 -0.002653 0.031744
#
#
# Mechanical properties :
#
#
# Convention : Reuss Voigt Hill
#
# Bulk Modulus (GPa) = 56.91456 81.63128 69.27292
# Shear Modulus (GPa) = 39.89687 48.17841 44.03764
#
# Velocity S-wave (km/s) = 3.74231 4.11241 3.93171
# Velocity P-wave (km/s) = 6.21704 7.15569 6.70282
#
# Compressibility (1/GPa) = 0.01757020
#
# Stress axis : x y z
#
# Youngs Moduli (GPa) = 71.78086 120.57051 124.47680
#
# Poissons Ratio (x) = 0.10755 0.19226
# Poissons Ratio (y) = 0.06403 0.48643
# Poissons Ratio (z) = 0.11087 0.47117
#
# Static dielectric constant tensor:
#      x y z
#    x 2.429400 -0.009000 0.163440 
#    y -0.009000 2.210090 -0.061810 
#    z 0.163440 -0.061810 2.351180 
# 
# From -- ./inp_files/415114.got.cif
#   From: 2010.05.17/outbox.cif.g08.bks.cpg/sg2_208_cif.got.tgz:415114.got - 2010.06.03 11:33:40.
