data_PCOD9044535
_publ_section_title
;
Structure prediction by ZEFSAII (Michael W. Deem and Ramdas Pophale) SiO2 
 PCOD9044535
Probable space group: P -1
;
_chemical_formula_sum "Si O2"
_cell_formula_units_Z 16
_cell_length_a 29.424609
_cell_length_b 9.376360
_cell_length_c 7.988244
_cell_angle_alpha 48.480249
_cell_angle_beta 44.317491
_cell_angle_gamma 26.523104
_cell_volume 685.759315
_symmetry_space_group_name_H-M "P -1"
_symmetry_group_IT_number 2
_symmetry_cell_setting 'triclinic'
loop_
_space_group_symop_operation_xyz
x,y,z
-x,-y,-z
loop_
_atom_site_type_symbol
_atom_site_label
_atom_site_fract_x
_atom_site_fract_y
_atom_site_fract_z
Si Si1 0.276796 0.992202 0.326426
Si Si2 0.240362 0.771864 0.832317
Si Si3 0.887679 0.797286 0.662354
Si Si4 0.988516 0.338674 0.048939
Si Si5 0.091260 0.819750 0.747206
Si Si6 0.705319 0.695564 0.150447
Si Si7 0.436052 0.349667 0.861240
Si Si8 0.484345 0.621196 0.708169
O O1 0.235071 0.001667 0.602510
O O2 0.405652 0.656631 0.258212
O O3 0.214038 0.026298 0.319590
O O4 0.254910 0.264350 0.138978
O O5 0.310823 0.476099 0.747916
O O6 0.308321 0.607521 0.952759
O O7 0.117622 0.987743 0.959254
O O8 0.000000 0.500000 0.500000
O O9 0.906503 0.614052 0.908988
O O10 0.895094 0.004422 0.504906
O O11 0.000000 0.500000 0.000000
O O12 0.935754 0.257988 0.273050
O O13 0.203974 0.519409 0.778900
O O14 0.000000 0.000000 0.000000
O O15 0.602668 0.045582 0.225648
O O16 0.446634 0.494314 0.857580
O O17 0.485498 0.335124 0.575925
O O18 0.500000 0.000000 0.000000
#
# Coordination Sequence:
#
# PCOD9044535 Si02
#       8
#     2   2   2   2   2   2   2   2
#     4  11  21  39  67  97 126 170 217 272 325 381
#     4  11  24  41  66  97 127 172 224 269 328 399
#     4  12  21  42  70  97 128 176 223 274 328 397
#     4  12  27  44  65 101 138 172 220 281 339 396
#     4  12  22  42  68  98 128 175 224 268 331 398
#     4  12  22  39  66  98 127 167 220 279 318 385
#     4  10  23  47  65  90 138 178 209 266 339 391
#     4  10  25  41  64 101 130 168 225 269 324 396
#
# _framework density 23.331800000000001
#
# number of rings (size 3 to 8) (size 9 to 14) (size 15 to 20)
#    0.000    0.750    6.250    1.125    1.750    3.500 
#    2.250    0.000    0.000    0.000    0.000    0.000 
#    0.000    0.000    0.000    0.000    0.000    0.000 
#
# Total GULP energy -89271.240276 kJ/mol
# GULP energy per Si atom -5579.452517 kJ/mol
# Density = 2.327870 g / cm^3
# Si number density = 23.331800 Si / 1000 Ang^3
#
#
#
# Elastic Constant Matrix: (Units=GPa)
#
#
# Indices 1 2 3 4 5 6 
#
# 1 148.4672 63.3014 10.5065 -7.9048 -17.8959 -22.7687
# 2 63.3014 116.0503 20.2449 -25.4135 -11.6503 -17.2216
# 3 10.5065 20.2449 61.4002 -30.8722 -15.6891 -5.7797
# 4 -7.9048 -25.4135 -30.8722 34.8708 0.7416 2.6157
# 5 -17.8959 -11.6503 -15.6891 0.7416 20.3226 1.1601
# 6 -22.7687 -17.2216 -5.7797 2.6157 1.1601 44.6585
#
#
#
# Elastic Compliance Matrix: (Units=1/GPa)
#
#
# Indices 1 2 3 4 5 6 
#
# 1 0.009961 -0.004357 0.002585 0.000941 0.008038 0.003469
# 2 -0.004357 0.014264 0.005029 0.013479 0.007563 0.002944
# 3 0.002585 0.005029 0.047635 0.045144 0.039959 0.005740
# 4 0.000941 0.013479 0.045144 0.077379 0.040243 0.005942
# 5 0.008038 0.007563 0.039959 0.040243 0.089572 0.007502
# 6 0.003469 0.002944 0.005740 0.005942 0.007502 0.025496
#
#
# Mechanical properties :
#
#
# Convention : Reuss Voigt Hill
#
# Bulk Modulus (GPa) = 12.75913 57.11371 34.93642
# Shear Modulus (GPa) = 17.61081 35.42804 26.51942
#
# Velocity S-wave (km/s) = 2.75034 3.90095 3.37504
# Velocity P-wave (km/s) = 3.94541 6.69492 5.49492
#
# Compressibility (1/GPa) = 0.07837527
#
# Stress axis : x y z
#
# Youngs Moduli (GPa) = 100.39120 70.10721 20.99295
#
# Poissons Ratio (x) = 0.30544 -0.05427
# Poissons Ratio (y) = 0.43738 -0.10558
# Poissons Ratio (z) = -0.25954 -0.35258
#
# Static dielectric constant tensor:
#      x y z
#    x 1.903230 0.052800 0.016420 
#    y 0.052800 1.957740 0.019790 
#    z 0.016420 0.019790 1.969390 
# 
# From -- ./inp_files/356351.got.cif
#   From: 2010.05.17/outbox.cif.g08.bks.cpg/sg2_179_cif.got.tgz:356351.got - 2010.06.03 11:33:40.
