data_PCOD9044697
_publ_section_title
;
Structure prediction by ZEFSAII (Michael W. Deem and Ramdas Pophale) SiO2 
 PCOD9044697
Probable space group: P -1
;
_chemical_formula_sum "Si O2"
_cell_formula_units_Z 14
_cell_length_a 15.776396
_cell_length_b 5.033880
_cell_length_c 26.271517
_cell_angle_alpha 115.277678
_cell_angle_beta 163.046938
_cell_angle_gamma 66.718551
_cell_volume 549.425366
_symmetry_space_group_name_H-M "P -1"
_symmetry_group_IT_number 2
_symmetry_cell_setting 'triclinic'
loop_
_space_group_symop_operation_xyz
x,y,z
-x,-y,-z
loop_
_atom_site_type_symbol
_atom_site_label
_atom_site_fract_x
_atom_site_fract_y
_atom_site_fract_z
Si Si1 0.731316 0.979656 0.402981
Si Si2 0.275335 0.398348 0.720080
Si Si3 0.170795 0.836331 0.936988
Si Si4 0.644284 0.004070 0.138429
Si Si5 0.130389 0.185537 0.042410
Si Si6 0.764381 0.109960 0.543755
Si Si7 0.304709 0.262567 0.426500
O O1 0.480182 0.161967 0.246888
O O2 0.652926 0.966006 0.415833
O O3 0.047231 0.144250 0.589231
O O4 0.729834 0.666312 0.348246
O O5 0.193403 0.696330 0.723700
O O6 0.614580 0.374570 0.927908
O O7 0.395421 0.962197 0.033795
O O8 0.061602 0.052820 0.935647
O O9 0.917440 0.705326 0.745220
O O10 0.898342 0.773784 0.263046
O O11 0.500000 0.000000 0.000000
O O12 0.000000 0.500000 0.000000
O O13 0.000000 0.000000 0.000000
O O14 0.585449 0.400333 0.474091
O O15 0.791337 0.878868 0.585959
O O16 0.500000 0.000000 0.500000
#
# Coordination Sequence:
#
# PCOD9044697 Si02
#       7
#     2   2   2   2   2   2   2
#     4  10  24  46  74 108 146 196 249 309 379 446
#     4  10  23  47  71 110 152 191 244 319 381 446
#     4  11  26  46  73 108 148 195 252 309 385 438
#     4  12  24  43  76 111 153 195 249 319 386 452
#     4  11  29  49  75 105 147 203 253 309 369 455
#     4  12  26  46  74 108 142 196 249 307 376 443
#     4  12  29  48  72 105 151 202 250 307 366 452
#
# _framework density 25.481166999999999
#
# number of rings (size 3 to 8) (size 9 to 14) (size 15 to 20)
#    0.000    0.857    2.857    2.143    8.000    2.857 
#    2.571    0.000    0.000    0.000    0.000    0.000 
#    0.000    0.000    0.000    0.000    0.000    0.000 
#
# Total GULP energy -78268.965428 kJ/mol
# GULP energy per Si atom -5590.640388 kJ/mol
# Density = 2.542317 g / cm^3
# Si number density = 25.481167 Si / 1000 Ang^3
#
#
#
# Elastic Constant Matrix: (Units=GPa)
#
#
# Indices 1 2 3 4 5 6 
#
# 1 181.9881 54.5339 27.4023 19.4211 -26.4748 -30.2712
# 2 54.5339 142.5646 32.6301 -13.3288 -15.1557 -28.4984
# 3 27.4023 32.6301 78.8952 -0.8175 -29.5475 -16.6876
# 4 19.4211 -13.3288 -0.8175 30.3348 -12.5433 -1.3471
# 5 -26.4748 -15.1557 -29.5475 -12.5433 45.7667 9.0012
# 6 -30.2712 -28.4984 -16.6876 -1.3471 9.0012 46.7065
#
#
#
# Elastic Compliance Matrix: (Units=1/GPa)
#
#
# Indices 1 2 3 4 5 6 
#
# 1 0.007557 -0.002594 -0.000624 -0.005425 0.001086 0.002726
# 2 -0.002594 0.009968 -0.001662 0.006950 0.001916 0.003638
# 3 -0.000624 -0.001662 0.018820 0.005310 0.012078 0.003131
# 4 -0.005425 0.006950 0.005310 0.045865 0.014953 0.001063
# 5 0.001086 0.001916 0.012078 0.014953 0.035035 -0.000132
# 6 0.002726 0.003638 0.003131 0.001063 -0.000132 0.026571
#
#
# Mechanical properties :
#
#
# Convention : Reuss Voigt Hill
#
# Bulk Modulus (GPa) = 37.61938 70.28672 53.95305
# Shear Modulus (GPa) = 30.78067 43.82036 37.30051
#
# Velocity S-wave (km/s) = 3.47937 4.15144 3.83018
# Velocity P-wave (km/s) = 5.56210 7.11498 6.38592
#
# Compressibility (1/GPa) = 0.02658205
#
# Stress axis : x y z
#
# Youngs Moduli (GPa) = 132.33444 100.32159 53.13431
#
# Poissons Ratio (x) = 0.26028 0.03318
# Poissons Ratio (y) = 0.34334 0.08833
# Poissons Ratio (z) = 0.08264 0.16678
#
# Static dielectric constant tensor:
#      x y z
#    x 2.118010 -0.020390 0.063980 
#    y -0.020390 2.081950 -0.034590 
#    z 0.063980 -0.034590 2.088010 
# 
# From -- ./inp_files/611343.got.cif
#   From: 2010.05.17/outbox.cif.g08.bks.cpg/sg2_306_cif.got.tgz:611343.got - 2010.06.03 11:33:40.
