data_PCOD9044906
_publ_section_title
;
Structure prediction by ZEFSAII (Michael W. Deem and Ramdas Pophale) SiO2 
 PCOD9044906
Probable space group: P -1
;
_chemical_formula_sum "Si O2"
_cell_formula_units_Z 12
_cell_length_a 9.243109
_cell_length_b 11.851411
_cell_length_c 5.100534
_cell_angle_alpha 77.382469
_cell_angle_beta 100.365408
_cell_angle_gamma 122.583927
_cell_volume 458.100177
_symmetry_space_group_name_H-M "P -1"
_symmetry_group_IT_number 2
_symmetry_cell_setting 'triclinic'
loop_
_space_group_symop_operation_xyz
x,y,z
-x,-y,-z
loop_
_atom_site_type_symbol
_atom_site_label
_atom_site_fract_x
_atom_site_fract_y
_atom_site_fract_z
Si Si1 0.697886 0.620441 0.266071
Si Si2 0.997880 0.865717 0.481313
Si Si3 0.891282 0.489887 0.215475
Si Si4 0.515528 0.326057 0.249038
Si Si5 0.204656 0.884310 0.024812
Si Si6 0.497844 0.101318 0.665860
O O1 0.808406 0.734158 0.454736
O O2 0.843006 0.606176 0.159129
O O3 0.575776 0.460886 0.374607
O O4 0.596792 0.666949 0.022971
O O5 0.095001 0.831825 0.752145
O O6 0.902397 0.103950 0.778985
O O7 0.000000 0.000000 0.500000
O O8 0.701926 0.356136 0.201627
O O9 0.000000 0.500000 0.500000
O O10 0.000000 0.500000 0.000000
O O11 0.438484 0.191556 0.455263
O O12 0.366992 0.026938 0.900539
O O13 0.306724 0.815393 0.205074
O O14 0.500000 0.000000 0.500000
#
# Coordination Sequence:
#
# PCOD9044906 Si02
#       6
#     2   2   2   2   2   2
#     4   9  24  51  83 119 167 213 269 340 417 489
#     4  12  27  49  83 112 166 220 278 339 410 487
#     4  10  23  47  80 118 159 207 263 334 408 487
#     4   9  23  52  81 120 164 214 268 336 418 491
#     4  11  27  50  76 121 157 212 286 336 402 495
#     4  11  24  47  86 114 164 216 273 341 414 483
#
# _framework density 26.195146000000001
#
# number of rings (size 3 to 8) (size 9 to 14) (size 15 to 20)
#    1.000    0.667    1.667    0.500    4.667    4.000 
#    3.000    5.833    7.333    1.000    0.000    0.000 
#    0.000    0.000    0.000    0.000    0.000    0.000 
#
# Total GULP energy -67222.330238 kJ/mol
# GULP energy per Si atom -5601.860853 kJ/mol
# Density = 2.613552 g / cm^3
# Si number density = 26.195146 Si / 1000 Ang^3
#
#
#
# Elastic Constant Matrix: (Units=GPa)
#
#
# Indices 1 2 3 4 5 6 
#
# 1 112.5301 18.1182 66.2767 16.0743 5.7377 -5.7170
# 2 18.1182 120.9415 52.7272 9.8226 12.4670 -2.9717
# 3 66.2767 52.7272 166.6521 7.5314 19.0622 -3.4495
# 4 16.0743 9.8226 7.5314 51.6574 1.6601 5.2356
# 5 5.7377 12.4670 19.0622 1.6601 68.7599 10.3493
# 6 -5.7170 -2.9717 -3.4495 5.2356 10.3493 28.6716
#
#
#
# Elastic Compliance Matrix: (Units=1/GPa)
#
#
# Indices 1 2 3 4 5 6 
#
# 1 0.012286 0.000639 -0.004865 -0.003496 -0.000100 0.002605
# 2 0.000639 0.009831 -0.003123 -0.001728 -0.001154 0.001503
# 3 -0.004865 -0.003123 0.009074 0.000813 -0.001597 0.000226
# 4 -0.003496 -0.001728 0.000813 0.021129 0.000600 -0.004853
# 5 -0.000100 -0.001154 -0.001597 0.000600 0.016132 -0.006264
# 6 0.002605 0.001503 0.000226 -0.004853 -0.006264 0.038727
#
#
# Mechanical properties :
#
#
# Convention : Reuss Voigt Hill
#
# Bulk Modulus (GPa) = 60.63560 74.92974 67.78267
# Shear Modulus (GPa) = 39.25451 47.35123 43.30287
#
# Velocity S-wave (km/s) = 3.87530 4.25624 4.07023
# Velocity P-wave (km/s) = 6.57433 7.26778 6.92974
#
# Compressibility (1/GPa) = 0.01649196
#
# Stress axis : x y z
#
# Youngs Moduli (GPa) = 81.39585 101.72309 110.20656
#
# Poissons Ratio (x) = -0.06496 0.53611
# Poissons Ratio (y) = -0.05198 0.34418
# Poissons Ratio (z) = 0.39596 0.31769
#
# Static dielectric constant tensor:
#      x y z
#    x 0.355860 0.562050 0.055840 
#    y 0.562050 1.990260 -0.042120 
#    z 0.055840 -0.042120 1.982240 
# 
# From -- ./inp_files/69454.got.cif
#   From: 2010.05.17/outbox.cif.g08.bks.cpg/sg2_35_cif.got.tgz:69454.got - 2010.06.03 11:33:40.
