data_PCOD9044550
_publ_section_title
;
Structure prediction by ZEFSAII (Michael W. Deem and Ramdas Pophale) SiO2 
 PCOD9044550
Probable space group: P -1
;
_chemical_formula_sum "Si O2"
_cell_formula_units_Z 14
_cell_length_a 13.074125
_cell_length_b 18.562769
_cell_length_c 10.038121
_cell_angle_alpha 43.722853
_cell_angle_beta 147.595643
_cell_angle_gamma 149.082542
_cell_volume 670.769091
_symmetry_space_group_name_H-M "P -1"
_symmetry_group_IT_number 2
_symmetry_cell_setting 'triclinic'
loop_
_space_group_symop_operation_xyz
x,y,z
-x,-y,-z
loop_
_atom_site_type_symbol
_atom_site_label
_atom_site_fract_x
_atom_site_fract_y
_atom_site_fract_z
Si Si1 0.292073 0.136680 0.671302
Si Si2 0.734577 0.212778 0.871859
Si Si3 0.352497 0.009178 0.125320
Si Si4 0.253323 0.661740 0.549541
Si Si5 0.307828 0.389928 0.322979
Si Si6 0.437599 0.411269 0.917439
Si Si7 0.146129 0.827516 0.381758
O O1 0.497172 0.146643 0.796218
O O2 0.325172 0.270984 0.500637
O O3 0.000000 0.000000 0.500000
O O4 0.341155 0.118636 0.901458
O O5 0.725591 0.101488 0.927572
O O6 0.717294 0.294991 0.629068
O O7 0.009424 0.313724 0.112928
O O8 0.173298 0.928641 0.165882
O O9 0.637555 0.082510 0.388936
O O10 0.221424 0.753747 0.477001
O O11 0.000000 0.500000 0.500000
O O12 0.476391 0.673760 0.839646
O O13 0.500000 0.500000 0.500000
O O14 0.402705 0.476794 0.173906
O O15 0.136406 0.296027 0.710467
O O16 0.500000 0.500000 0.000000
#
# Coordination Sequence:
#
# PCOD9044550 Si02
#       7
#     2   2   2   2   2   2   2
#     4  12  27  43  73  94 134 191 227 267 348 418
#     4  11  24  46  67  97 136 178 227 285 338 411
#     4  10  23  47  66  96 137 175 230 282 341 398
#     4  11  21  39  68  96 129 175 220 276 345 396
#     4  12  29  45  67 108 143 177 230 285 347 415
#     4  12  23  42  71  97 135 178 229 279 344 405
#     4  10  24  42  67 100 132 169 229 293 327 403
#
# _framework density 20.871563999999999
#
# number of rings (size 3 to 8) (size 9 to 14) (size 15 to 20)
#    0.000    0.857    4.286    2.143    6.000    0.571 
#    0.000    2.143    0.000    0.000    0.000    0.000 
#    0.000    0.000    0.000    0.000    0.000    0.000 
#
# Total GULP energy -78286.267746 kJ/mol
# GULP energy per Si atom -5591.876268 kJ/mol
# Density = 2.082406 g / cm^3
# Si number density = 20.871564 Si / 1000 Ang^3
#
#
#
# Elastic Constant Matrix: (Units=GPa)
#
#
# Indices 1 2 3 4 5 6 
#
# 1 40.2507 12.4777 34.5364 13.0716 2.5930 16.5874
# 2 12.4777 83.8797 42.0561 15.2611 -1.1048 19.3855
# 3 34.5364 42.0561 118.3860 -3.6663 -3.6172 12.0817
# 4 13.0716 15.2611 -3.6663 59.8322 4.1068 -2.5324
# 5 2.5930 -1.1048 -3.6172 4.1068 29.8506 6.3327
# 6 16.5874 19.3855 12.0817 -2.5324 6.3327 30.3653
#
#
#
# Elastic Compliance Matrix: (Units=1/GPa)
#
#
# Indices 1 2 3 4 5 6 
#
# 1 0.054856 0.011077 -0.017098 -0.017417 0.002816 -0.032275
# 2 0.011077 0.020385 -0.008909 -0.009132 0.003582 -0.017029
# 3 -0.017098 -0.008909 0.015881 0.007368 0.000092 0.009304
# 4 -0.017417 -0.009132 0.007368 0.024261 -0.004533 0.015381
# 5 0.002816 0.003582 0.000092 -0.004533 0.036539 -0.011860
# 6 -0.032275 -0.017029 0.009304 0.015381 -0.011860 0.061489
#
#
# Mechanical properties :
#
#
# Convention : Reuss Voigt Hill
#
# Bulk Modulus (GPa) = 16.32284 46.73965 31.53124
# Shear Modulus (GPa) = 18.96158 34.23937 26.60048
#
# Velocity S-wave (km/s) = 3.01738 4.05468 3.57386
# Velocity P-wave (km/s) = 4.46957 6.66056 5.67187
#
# Compressibility (1/GPa) = 0.06126386
#
# Stress axis : x y z
#
# Youngs Moduli (GPa) = 18.22953 49.05572 62.96788
#
# Poissons Ratio (x) = -0.54340 1.07661
# Poissons Ratio (y) = -0.20193 0.56096
# Poissons Ratio (z) = 0.31168 0.43702
#
# Static dielectric constant tensor:
#      x y z
#    x 1.735310 0.002680 -0.001690 
#    y 0.002680 1.760950 -0.015750 
#    z -0.001690 -0.015750 1.802850 
# 
# From -- ./inp_files/279153.got.cif
#   From: 2010.05.17/outbox.cif.g08.bks.cpg/sg2_140_cif.got.tgz:279153.got - 2010.06.03 11:33:40.
