data_PCOD9044755
_publ_section_title
;
Structure prediction by ZEFSAII (Michael W. Deem and Ramdas Pophale) SiO2 
 PCOD9044755
Probable space group: P -1
;
_chemical_formula_sum "Si O2"
_cell_formula_units_Z 13
_cell_length_a 14.994793
_cell_length_b 9.051996
_cell_length_c 10.932152
_cell_angle_alpha 51.234460
_cell_angle_beta 146.077194
_cell_angle_gamma 137.240872
_cell_volume 561.653606
_symmetry_space_group_name_H-M "P -1"
_symmetry_group_IT_number 2
_symmetry_cell_setting 'triclinic'
loop_
_space_group_symop_operation_xyz
x,y,z
-x,-y,-z
loop_
_atom_site_type_symbol
_atom_site_label
_atom_site_fract_x
_atom_site_fract_y
_atom_site_fract_z
Si Si1 0.814705 0.411360 0.911901
Si Si2 0.529951 0.847535 0.516734
Si Si3 0.939334 0.696165 0.383731
Si Si4 0.638903 0.965317 0.088477
Si Si5 0.160034 0.248135 0.030124
Si Si6 0.298790 0.757246 0.664188
Si Si7 0.000000 0.000000 0.500000
O O1 0.649382 0.327856 0.668705
O O2 0.830594 0.592193 0.933074
O O3 0.771243 0.194889 0.051876
O O4 0.000000 0.500000 0.000000
O O5 0.646011 0.746069 0.757591
O O6 0.500000 0.000000 0.500000
O O7 0.656981 0.025120 0.468599
O O8 0.803238 0.465802 0.411861
O O9 0.934991 0.886743 0.351692
O O10 0.142575 0.725186 0.600222
O O11 0.880607 0.686801 0.181871
O O12 0.779450 0.901668 0.339583
O O13 0.500000 0.000000 0.000000
O O14 0.491031 0.794274 0.914434
O O15 0.000000 0.000000 0.000000
#
# Coordination Sequence:
#
# PCOD9044755 Si02
#       7
#     2   2   2   2   2   2   1
#     4  11  27  47  75 105 148 196 247 305 371 450
#     4  11  25  47  71 107 147 192 242 302 372 447
#     4  11  25  46  73 109 143 190 251 302 370 439
#     4  11  24  49  72 106 146 190 248 309 368 430
#     4  12  25  45  73 108 149 194 244 304 374 442
#     4  10  23  47  72  97 149 193 231 310 370 432
#     4  12  28  42  78 108 142 198 254 302 362 454
#
# _framework density 23.14594
#
# number of rings (size 3 to 8) (size 9 to 14) (size 15 to 20)
#    0.000    0.923    3.077    2.308    8.615    0.615 
#    8.308    0.000    0.000    0.000    0.000    0.000 
#    0.000    0.000    0.000    0.000    0.000    0.000 
#
# Total GULP energy -72416.459063 kJ/mol
# GULP energy per Si atom -5570.496851 kJ/mol
# Density = 2.309326 g / cm^3
# Si number density = 23.145940 Si / 1000 Ang^3
#
#
#
# Elastic Constant Matrix: (Units=GPa)
#
#
# Indices 1 2 3 4 5 6 
#
# 1 124.7100 54.8809 44.6144 17.7022 4.9581 -32.4558
# 2 54.8809 115.8413 51.3219 28.4679 2.2933 -8.6744
# 3 44.6144 51.3219 111.0515 30.0353 2.1564 -13.5337
# 4 17.7022 28.4679 30.0353 30.7821 -0.7768 3.0645
# 5 4.9581 2.2933 2.1564 -0.7768 29.3676 10.5324
# 6 -32.4558 -8.6744 -13.5337 3.0645 10.5324 51.8792
#
#
#
# Elastic Compliance Matrix: (Units=1/GPa)
#
#
# Indices 1 2 3 4 5 6 
#
# 1 0.013163 -0.004060 -0.001360 -0.003449 -0.004910 0.008402
# 2 -0.004060 0.013558 -0.002634 -0.007592 -0.000213 -0.000468
# 3 -0.001360 -0.002634 0.014235 -0.011076 -0.002164 0.003516
# 4 -0.003449 -0.007592 -0.011076 0.053575 0.007340 -0.010971
# 5 -0.004910 -0.000213 -0.002164 0.007340 0.039606 -0.012146
# 6 0.008402 -0.000468 0.003516 -0.010971 -0.012146 0.028484
#
#
# Mechanical properties :
#
#
# Convention : Reuss Voigt Hill
#
# Bulk Modulus (GPa) = 40.24562 72.58190 56.41376
# Shear Modulus (GPa) = 26.73638 35.79149 31.26394
#
# Velocity S-wave (km/s) = 3.40240 3.93662 3.67922
# Velocity P-wave (km/s) = 5.73241 7.21728 6.51727
#
# Compressibility (1/GPa) = 0.02484742
#
# Stress axis : x y z
#
# Youngs Moduli (GPa) = 75.97078 73.75816 70.25152
#
# Poissons Ratio (x) = 0.29944 0.09554
# Poissons Ratio (y) = 0.30842 0.18506
# Poissons Ratio (z) = 0.10332 0.19430
#
# Static dielectric constant tensor:
#      x y z
#    x 1.887250 -0.020370 -0.010940 
#    y -0.020370 1.931100 -0.034990 
#    z -0.010940 -0.034990 1.952290 
# 
# From -- ./inp_files/153471.got.cif
#   From: 2010.05.17/outbox.cif.g08.bks.cpg/sg2_77_cif.got.tgz:153471.got - 2010.06.03 11:33:40.
