data_PCOD9044608
_publ_section_title
;
Structure prediction by ZEFSAII (Michael W. Deem and Ramdas Pophale) SiO2 
 PCOD9044608
Probable space group: P -1
;
_chemical_formula_sum "Si O2"
_cell_formula_units_Z 16
_cell_length_a 15.159721
_cell_length_b 8.943735
_cell_length_c 8.949871
_cell_angle_alpha 146.048630
_cell_angle_beta 68.428372
_cell_angle_gamma 99.879578
_cell_volume 609.094193
_symmetry_space_group_name_H-M "P -1"
_symmetry_group_IT_number 2
_symmetry_cell_setting 'triclinic'
loop_
_space_group_symop_operation_xyz
x,y,z
-x,-y,-z
loop_
_atom_site_type_symbol
_atom_site_label
_atom_site_fract_x
_atom_site_fract_y
_atom_site_fract_z
Si Si1 0.697709 0.054857 0.406168
Si Si2 0.354874 0.629868 0.774197
Si Si3 0.872004 0.625377 0.075394
Si Si4 0.955767 0.199522 0.056510
Si Si5 0.417807 0.017373 0.838389
Si Si6 0.851515 0.039574 0.708069
Si Si7 0.752610 0.514564 0.548595
Si Si8 0.566508 0.360171 0.978877
O O1 0.774986 0.772489 0.164544
O O2 0.741671 0.247997 0.429085
O O3 0.666089 0.205490 0.707204
O O4 0.597797 0.042549 0.374614
O O5 0.306807 0.460748 0.549298
O O6 0.261632 0.866073 0.089391
O O7 0.407120 0.475410 0.759900
O O8 0.421426 0.771413 0.747090
O O9 0.962523 0.676442 0.968481
O O10 0.869457 0.788955 0.370922
O O11 0.874785 0.306912 0.834416
O O12 0.913595 0.028694 0.813735
O O13 0.865934 0.444596 0.378220
O O14 0.000000 0.000000 0.000000
O O15 0.309714 0.226809 0.107328
O O16 0.504806 0.161875 0.924518
O O17 0.500000 0.500000 0.000000
#
# Coordination Sequence:
#
# PCOD9044608 Si02
#       8
#     2   2   2   2   2   2   2   2
#     4  11  24  44  71 105 140 188 242 302 362 430
#     4  10  25  45  70 103 138 195 236 303 363 437
#     4  12  26  49  75 108 149 193 243 300 367 434
#     4  11  24  46  75 111 143 192 245 298 360 435
#     4  11  25  46  70  98 146 186 244 299 366 436
#     4  11  27  49  75 105 152 193 243 299 367 435
#     4  10  23  47  69 101 145 187 239 294 368 435
#     4  12  24  44  72 103 141 186 248 301 366 431
#
# _framework density 26.268514
#
# number of rings (size 3 to 8) (size 9 to 14) (size 15 to 20)
#    0.000    1.000    3.750    1.500    7.000    0.500 
#    6.750    3.125    0.000    0.000    0.000    0.000 
#    0.000    0.000    0.000    0.000    0.000    0.000 
#
# Total GULP energy -89724.466904 kJ/mol
# GULP energy per Si atom -5607.779182 kJ/mol
# Density = 2.620873 g / cm^3
# Si number density = 26.268514 Si / 1000 Ang^3
#
#
#
# Elastic Constant Matrix: (Units=GPa)
#
#
# Indices 1 2 3 4 5 6 
#
# 1 100.5414 70.5979 16.5030 -15.0480 0.1936 -25.4101
# 2 70.5979 132.4754 29.9977 -8.1878 9.6508 -9.3551
# 3 16.5030 29.9977 90.4090 -17.4067 -1.1446 4.0058
# 4 -15.0480 -8.1878 -17.4067 43.3490 3.3714 -1.6931
# 5 0.1936 9.6508 -1.1446 3.3714 32.7973 -14.0528
# 6 -25.4101 -9.3551 4.0058 -1.6931 -14.0528 71.4504
#
#
#
# Elastic Compliance Matrix: (Units=1/GPa)
#
#
# Indices 1 2 3 4 5 6 
#
# 1 0.019286 -0.010000 0.000505 0.004865 0.005200 0.006659
# 2 -0.010000 0.013621 -0.002990 -0.001814 -0.004994 -0.002631
# 3 0.000505 -0.002990 0.012909 0.004725 0.000534 -0.000719
# 4 0.004865 -0.001814 0.004725 0.026481 -0.001373 0.001585
# 5 0.005200 -0.004994 0.000534 -0.001373 0.035572 0.008129
# 6 0.006659 -0.002631 -0.000719 0.001585 0.008129 0.017696
#
#
# Mechanical properties :
#
#
# Convention : Reuss Voigt Hill
#
# Bulk Modulus (GPa) = 47.97104 61.95812 54.96458
# Shear Modulus (GPa) = 31.74950 43.27450 37.51200
#
# Velocity S-wave (km/s) = 3.48034 4.06321 3.78302
# Velocity P-wave (km/s) = 5.86957 6.75652 6.32860
#
# Compressibility (1/GPa) = 0.02084591
#
# Stress axis : x y z
#
# Youngs Moduli (GPa) = 51.85086 73.41773 77.46571
#
# Poissons Ratio (x) = 0.73418 -0.03912
# Poissons Ratio (y) = 0.51851 0.23161
# Poissons Ratio (z) = -0.02618 0.21951
#
# Static dielectric constant tensor:
#      x y z
#    x 2.028130 -0.009150 -0.020050 
#    y -0.009150 2.017630 0.030820 
#    z -0.020050 0.030820 2.121700 
# 
# From -- ./inp_files/106564.got.cif
#   From: 2010.05.17/outbox.cif.g08.bks.cpg/sg2_54_cif.got.tgz:106564.got - 2010.06.03 11:33:40.
