data_PCOD9044517
_publ_section_title
;
Structure prediction by ZEFSAII (Michael W. Deem and Ramdas Pophale) SiO2 
 PCOD9044517
Probable space group: P -1
;
_chemical_formula_sum "Si O2"
_cell_formula_units_Z 14
_cell_length_a 20.587099
_cell_length_b 5.485621
_cell_length_c 6.707611
_cell_angle_alpha 81.270099
_cell_angle_beta 83.112507
_cell_angle_gamma 123.082322
_cell_volume 608.261839
_symmetry_space_group_name_H-M "P -1"
_symmetry_group_IT_number 2
_symmetry_cell_setting 'triclinic'
loop_
_space_group_symop_operation_xyz
x,y,z
-x,-y,-z
loop_
_atom_site_type_symbol
_atom_site_label
_atom_site_fract_x
_atom_site_fract_y
_atom_site_fract_z
Si Si1 0.270283 0.686843 0.922174
Si Si2 0.016140 0.177966 0.671918
Si Si3 0.826948 0.220438 0.365010
Si Si4 0.725367 0.829105 0.829692
Si Si5 0.443564 0.431351 0.212961
Si Si6 0.564245 0.944982 0.408101
Si Si7 0.927120 0.148427 0.042295
O O1 0.214949 0.650494 0.760619
O O2 0.357517 0.825766 0.776517
O O3 0.245889 0.372094 0.067197
O O4 0.271954 0.924771 0.049862
O O5 0.088756 0.527074 0.592988
O O6 0.049857 0.047112 0.826410
O O7 0.000000 0.000000 0.500000
O O8 0.935852 0.113013 0.808889
O O9 0.851291 0.090608 0.191470
O O10 0.771574 0.995815 0.587787
O O11 0.632506 0.584327 0.833359
O O12 0.507146 0.674051 0.313923
O O13 0.407363 0.127335 0.391046
O O14 0.500000 0.500000 0.000000
O O15 0.500000 0.000000 0.500000
O O16 0.000000 0.500000 0.000000
#
# Coordination Sequence:
#
# PCOD9044517 Si02
#       7
#     2   2   2   2   2   2   2
#     4  12  29  49  73 115 154 204 256 322 385 450
#     4  10  23  46  80 108 144 195 250 303 383 461
#     4  11  27  49  74 109 158 192 254 319 384 455
#     4  12  29  47  78 111 155 205 259 313 392 452
#     4  11  23  45  71 108 144 201 262 310 372 454
#     4  11  25  43  77 102 152 204 256 324 376 445
#     4   9  22  45  72 106 143 189 237 310 367 461
#
# _framework density 23.016404000000001
#
# number of rings (size 3 to 8) (size 9 to 14) (size 15 to 20)
#    0.000    1.143    2.857    0.857    8.000    8.000 
#    0.000    0.000    0.000    0.000    0.000    0.000 
#    0.000    0.000    0.000    0.000    0.000    0.000 
#
# Total GULP energy -78123.402455 kJ/mol
# GULP energy per Si atom -5580.243033 kJ/mol
# Density = 2.296402 g / cm^3
# Si number density = 23.016404 Si / 1000 Ang^3
#
#
#
# Elastic Constant Matrix: (Units=GPa)
#
#
# Indices 1 2 3 4 5 6 
#
# 1 120.6126 39.8551 84.1928 -13.3316 -15.7445 0.4216
# 2 39.8551 66.1420 68.7783 0.2475 -8.9566 0.1538
# 3 84.1928 68.7783 208.7434 -0.2457 -26.3601 -4.4036
# 4 -13.3316 0.2475 -0.2457 44.9047 -4.8288 1.5000
# 5 -15.7445 -8.9566 -26.3601 -4.8288 51.3536 -4.3784
# 6 0.4216 0.1538 -4.4036 1.5000 -4.3784 40.7013
#
#
#
# Elastic Compliance Matrix: (Units=1/GPa)
#
#
# Indices 1 2 3 4 5 6 
#
# 1 0.012758 -0.003556 -0.003766 0.003985 0.001691 -0.000491
# 2 -0.003556 0.024025 -0.006556 -0.001247 -0.000448 -0.000765
# 3 -0.003766 -0.006556 0.008778 -0.000836 0.002239 0.001285
# 4 0.003985 -0.001247 -0.000836 0.023774 0.002750 -0.000707
# 5 0.001691 -0.000448 0.002239 0.002750 0.021529 0.002441
# 6 -0.000491 -0.000765 0.001285 -0.000707 0.002441 0.025005
#
#
# Mechanical properties :
#
#
# Convention : Reuss Voigt Hill
#
# Bulk Modulus (GPa) = 56.16344 86.79450 71.47897
# Shear Modulus (GPa) = 33.43144 40.90338 37.16741
#
# Velocity S-wave (km/s) = 3.81531 4.22019 4.02284
# Velocity P-wave (km/s) = 6.62293 7.84464 7.25953
#
# Compressibility (1/GPa) = 0.01780518
#
# Stress axis : x y z
#
# Youngs Moduli (GPa) = 78.38288 41.62410 113.91545
#
# Poissons Ratio (x) = 0.14802 0.42902
# Poissons Ratio (y) = 0.27873 0.74679
# Poissons Ratio (z) = 0.29520 0.27287
#
# Static dielectric constant tensor:
#      x y z
#    x 2.185520 0.332800 -0.075240 
#    y 0.332800 2.330590 -0.162900 
#    z -0.075240 -0.162900 1.878700 
# 
# From -- ./inp_files/7961.got.cif
#   From: 2010.05.17/outbox.cif.g08.bks.cpg/sg2_4_cif.got.tgz:7961.got - 2010.06.03 11:33:40.
