data_PCOD9044684
_publ_section_title
;
Structure prediction by ZEFSAII (Michael W. Deem and Ramdas Pophale) SiO2 
 PCOD9044684
Probable space group: P -1
;
_chemical_formula_sum "Si O2"
_cell_formula_units_Z 16
_cell_length_a 5.045396
_cell_length_b 12.181327
_cell_length_c 11.996201
_cell_angle_alpha 77.621966
_cell_angle_beta 73.566770
_cell_angle_gamma 57.009004
_cell_volume 591.468499
_symmetry_space_group_name_H-M "P -1"
_symmetry_group_IT_number 2
_symmetry_cell_setting 'triclinic'
loop_
_space_group_symop_operation_xyz
x,y,z
-x,-y,-z
loop_
_atom_site_type_symbol
_atom_site_label
_atom_site_fract_x
_atom_site_fract_y
_atom_site_fract_z
Si Si1 0.073899 0.573865 0.636397
Si Si2 0.459610 0.681019 0.472242
Si Si3 0.496478 0.129839 0.427609
Si Si4 0.505796 0.117777 0.171573
Si Si5 0.627899 0.854751 0.140839
Si Si6 0.816094 0.243746 0.752795
Si Si7 0.234305 0.494116 0.877686
Si Si8 0.888551 0.255672 0.089536
O O1 0.368765 0.600943 0.586511
O O2 0.189637 0.436348 0.588485
O O3 0.037569 0.546715 0.774224
O O4 0.790560 0.714187 0.593830
O O5 0.344626 0.824396 0.506883
O O6 0.250556 0.716126 0.375852
O O7 0.599439 0.089813 0.296004
O O8 0.500000 0.000000 0.500000
O O9 0.679984 0.193258 0.094776
O O10 0.119732 0.193304 0.183769
O O11 0.610054 0.992048 0.110728
O O12 0.287880 0.864193 0.188979
O O13 0.832490 0.792602 0.242915
O O14 0.855227 0.768965 0.032122
O O15 0.551009 0.360254 0.835749
O O16 0.337568 0.594413 0.886331
O O17 0.000000 0.500000 0.000000
#
# Coordination Sequence:
#
# PCOD9044684 Si02
#       8
#     2   2   2   2   2   2   2   2
#     4  10  23  47  71 104 144 190 249 300 369 439
#     4  10  24  46  71 101 145 197 243 303 366 437
#     4  12  26  43  73 107 147 190 245 307 372 433
#     4  12  27  46  72 105 146 197 243 302 368 443
#     4  12  25  47  71 108 146 195 247 296 369 442
#     4  11  26  44  74 109 145 190 248 303 362 442
#     4  11  23  47  74 111 144 192 244 313 367 438
#     4  12  25  47  74 103 149 190 248 300 370 437
#
# _framework density 27.051317999999998
#
# number of rings (size 3 to 8) (size 9 to 14) (size 15 to 20)
#    0.000    0.750    2.500    4.125    3.500    2.000 
#    6.750    0.000    0.000    0.000    0.000    0.000 
#    0.000    0.000    0.000    0.000    0.000    0.000 
#
# Total GULP energy -89482.457863 kJ/mol
# GULP energy per Si atom -5592.653616 kJ/mol
# Density = 2.698975 g / cm^3
# Si number density = 27.051318 Si / 1000 Ang^3
#
#
#
# Elastic Constant Matrix: (Units=GPa)
#
#
# Indices 1 2 3 4 5 6 
#
# 1 80.5789 45.1530 24.1166 -0.6614 -2.9050 11.3802
# 2 45.1530 140.2580 21.2991 21.1909 9.7190 38.4439
# 3 24.1166 21.2991 155.2414 9.5871 6.3966 11.4785
# 4 -0.6614 21.1909 9.5871 47.8523 3.5093 7.5422
# 5 -2.9050 9.7190 6.3966 3.5093 30.9106 -8.6870
# 6 11.3802 38.4439 11.4785 7.5422 -8.6870 43.2419
#
#
#
# Elastic Compliance Matrix: (Units=1/GPa)
#
#
# Indices 1 2 3 4 5 6 
#
# 1 0.016460 -0.006292 -0.002207 0.002791 0.004290 0.002223
# 2 -0.006292 0.013200 0.000527 -0.003738 -0.007541 -0.011083
# 3 -0.002207 0.000527 0.007026 -0.001192 -0.002253 -0.001998
# 4 0.002791 -0.003738 -0.001192 0.023149 -0.001338 -0.001401
# 5 0.004290 -0.007541 -0.002253 -0.001338 0.039791 0.014401
# 6 0.002223 -0.011083 -0.001998 -0.001401 0.014401 0.036061
#
#
# Mechanical properties :
#
#
# Convention : Reuss Voigt Hill
#
# Bulk Modulus (GPa) = 48.20923 61.91286 55.06104
# Shear Modulus (GPa) = 31.53651 43.43496 37.48574
#
# Velocity S-wave (km/s) = 3.41809 4.01140 3.72657
# Velocity P-wave (km/s) = 5.78255 6.66273 6.23818
#
# Compressibility (1/GPa) = 0.02074292
#
# Stress axis : x y z
#
# Youngs Moduli (GPa) = 60.75245 75.75613 142.32265
#
# Poissons Ratio (x) = 0.47666 0.31415
# Poissons Ratio (y) = 0.38226 -0.07506
# Poissons Ratio (z) = 0.13410 -0.03996
#
# Static dielectric constant tensor:
#      x y z
#    x 2.213710 0.003510 0.092270 
#    y 0.003510 2.183600 -0.049470 
#    z 0.092270 -0.049470 2.117160 
# 
# From -- ./inp_files/364262.got.cif
#   From: 2010.05.17/outbox.cif.g08.bks.cpg/sg2_183_cif.got.tgz:364262.got - 2010.06.03 11:33:40.
