data_PCOD9044400
_publ_section_title
;
Structure prediction by ZEFSAII (Michael W. Deem and Ramdas Pophale) SiO2 
 PCOD9044400
Probable space group: P -1
;
_chemical_formula_sum "Si O2"
_cell_formula_units_Z 12
_cell_length_a 13.432175
_cell_length_b 22.525094
_cell_length_c 14.648574
_cell_angle_alpha 17.760654
_cell_angle_beta 30.757693
_cell_angle_gamma 21.705803
_cell_volume 487.098379
_symmetry_space_group_name_H-M "P -1"
_symmetry_group_IT_number 2
_symmetry_cell_setting 'triclinic'
loop_
_space_group_symop_operation_xyz
x,y,z
-x,-y,-z
loop_
_atom_site_type_symbol
_atom_site_label
_atom_site_fract_x
_atom_site_fract_y
_atom_site_fract_z
Si Si1 0.326382 0.213338 0.742551
Si Si2 0.910639 0.015593 0.778104
Si Si3 0.137125 0.021694 0.777989
Si Si4 0.340416 0.919217 0.493967
Si Si5 0.236989 0.573159 0.842411
Si Si6 0.153976 0.388950 0.331297
O O1 0.509577 0.202596 0.543027
O O2 0.073421 0.488044 0.592731
O O3 0.500000 0.000000 0.000000
O O4 0.204581 0.115975 0.926045
O O5 0.714689 0.266607 0.491406
O O6 0.977729 0.075208 0.732748
O O7 0.205863 0.814550 0.788704
O O8 0.109462 0.268101 0.462293
O O9 0.465530 0.741492 0.930819
O O10 0.000000 0.000000 0.000000
O O11 0.553361 0.844951 0.508792
O O12 0.068665 0.251459 0.217560
O O13 0.148613 0.605464 0.970761
#
# Coordination Sequence:
#
# PCOD9044400 Si02
#       6
#     2   2   2   2   2   2
#     4  12  25  48  74 107 144 188 239 293 359 425
#     4  10  26  48  72 107 137 191 240 292 353 419
#     4  12  27  46  73 107 145 186 240 297 355 425
#     4  10  24  45  74 106 140 191 233 298 349 417
#     4  10  23  46  74 101 146 188 237 294 354 419
#     4  12  25  45  72 108 145 188 233 295 360 422
#
# _framework density 24.635679
#
# number of rings (size 3 to 8) (size 9 to 14) (size 15 to 20)
#    1.000    0.000    3.333    2.000    2.333    6.667 
#    0.000    0.000    0.000    0.000    0.000    0.000 
#    0.000    0.000    0.000    0.000    0.000    0.000 
#
# Total GULP energy -66936.589346 kJ/mol
# GULP energy per Si atom -5578.049112 kJ/mol
# Density = 2.457961 g / cm^3
# Si number density = 24.635679 Si / 1000 Ang^3
#
#
#
# Elastic Constant Matrix: (Units=GPa)
#
#
# Indices 1 2 3 4 5 6 
#
# 1 148.1387 16.5791 34.8851 -4.2880 11.0070 3.5132
# 2 16.5791 156.1025 -4.5587 19.2176 2.4439 -2.1040
# 3 34.8851 -4.5587 85.3128 10.9814 31.8017 6.5144
# 4 -4.2880 19.2176 10.9814 43.8163 12.6463 13.0579
# 5 11.0070 2.4439 31.8017 12.6463 30.7066 8.2018
# 6 3.5132 -2.1040 6.5144 13.0579 8.2018 36.4495
#
#
#
# Elastic Compliance Matrix: (Units=1/GPa)
#
#
# Indices 1 2 3 4 5 6 
#
# 1 0.007817 -0.001260 -0.003619 0.002468 0.000334 -0.001139
# 2 -0.001260 0.007107 0.001433 -0.004016 -0.000428 0.001811
# 3 -0.003619 0.001433 0.020939 -0.000757 -0.020618 0.001600
# 4 0.002468 -0.004016 -0.000757 0.030587 -0.009961 -0.009051
# 5 0.000334 -0.000428 -0.020618 -0.009961 0.059596 -0.006214
# 6 -0.001139 0.001811 0.001600 -0.009051 -0.006214 0.032004
#
#
# Mechanical properties :
#
#
# Convention : Reuss Voigt Hill
#
# Bulk Modulus (GPa) = 34.51682 53.70724 44.11203
# Shear Modulus (GPa) = 28.63676 45.03772 36.83724
#
# Velocity S-wave (km/s) = 3.41311 4.28033 3.87108
# Velocity P-wave (km/s) = 5.43818 6.80266 6.15833
#
# Compressibility (1/GPa) = 0.02897138
#
# Stress axis : x y z
#
# Youngs Moduli (GPa) = 127.92031 140.70151 47.75753
#
# Poissons Ratio (x) = 0.17733 0.17284
# Poissons Ratio (y) = 0.16122 -0.06845
# Poissons Ratio (z) = 0.46297 -0.20168
#
# Static dielectric constant tensor:
#      x y z
#    x 1.938470 -0.007770 -0.037390 
#    y -0.007770 1.978820 0.005450 
#    z -0.037390 0.005450 2.047050 
# 
# From -- ./inp_files/535301.got.cif
#   From: 2010.05.17/outbox.cif.g08.bks.cpg/sg2_268_cif.got.tgz:535301.got - 2010.06.03 11:33:40.
