data_PCOD9044778
_publ_section_title
;
Structure prediction by ZEFSAII (Michael W. Deem and Ramdas Pophale) SiO2 
 PCOD9044778
Probable space group: P -1
;
_chemical_formula_sum "Si O2"
_cell_formula_units_Z 14
_cell_length_a 6.560866
_cell_length_b 11.186786
_cell_length_c 7.962912
_cell_angle_alpha 87.042199
_cell_angle_beta 82.139982
_cell_angle_gamma 95.599162
_cell_volume 574.933501
_symmetry_space_group_name_H-M "P -1"
_symmetry_group_IT_number 2
_symmetry_cell_setting 'triclinic'
loop_
_space_group_symop_operation_xyz
x,y,z
-x,-y,-z
loop_
_atom_site_type_symbol
_atom_site_label
_atom_site_fract_x
_atom_site_fract_y
_atom_site_fract_z
Si Si1 0.157031 0.095078 0.253393
Si Si2 0.554951 0.667677 0.348297
Si Si3 0.067681 0.344707 0.094831
Si Si4 0.095935 0.136042 0.649624
Si Si5 0.500000 0.000000 0.000000
Si Si6 0.752687 0.254656 0.852811
Si Si7 0.307088 0.581986 0.688029
Si Si8 0.500000 0.500000 0.000000
O O1 0.129456 0.216254 0.152272
O O2 0.149233 0.116632 0.451681
O O3 0.361559 0.043829 0.168642
O O4 0.964916 0.992400 0.246304
O O5 0.707134 0.787662 0.297026
O O6 0.404843 0.652144 0.203369
O O7 0.412831 0.670016 0.527439
O O8 0.681963 0.554391 0.367885
O O9 0.924914 0.393295 0.250848
O O10 0.261718 0.434905 0.018014
O O11 0.916720 0.318657 0.956091
O O12 0.894389 0.207108 0.691832
O O13 0.378383 0.860782 0.044495
O O14 0.451218 0.589154 0.835438
#
# Coordination Sequence:
#
# PCOD9044778 Si02
#       8
#     2   2   2   2   1   2   2   1
#     4  10  24  48  74 108 149 186 254 303 381 435
#     4  11  25  46  74 105 156 197 243 304 368 448
#     4  12  27  46  76 106 149 194 250 313 360 446
#     4  10  23  47  73 107 146 198 240 307 371 453
#     4  10  26  44  76 112 144 194 238 316 366 442
#     4  11  26  44  74 110 148 195 248 299 378 432
#     4  11  26  46  72 111 144 202 252 298 370 435
#     4  12  26  48  70 104 144 194 248 308 360 424
#
# _framework density 24.350642000000001
#
# number of rings (size 3 to 8) (size 9 to 14) (size 15 to 20)
#    0.000    1.143    0.000    3.857   10.000    2.286 
#    2.571    8.571    0.000    0.000    0.000    0.000 
#    0.000    0.000    0.000    0.000    0.000    0.000 
#
# Total GULP energy -78022.827427 kJ/mol
# GULP energy per Si atom -5573.059102 kJ/mol
# Density = 2.429522 g / cm^3
# Si number density = 24.350642 Si / 1000 Ang^3
#
#
#
# Elastic Constant Matrix: (Units=GPa)
#
#
# Indices 1 2 3 4 5 6 
#
# 1 98.8626 53.1119 46.0720 -4.4981 -28.7633 25.1285
# 2 53.1119 113.5461 18.3551 -12.8118 -14.4344 23.5196
# 3 46.0720 18.3551 109.3559 -2.8237 -36.5114 13.2723
# 4 -4.4981 -12.8118 -2.8237 29.1179 -9.3824 -16.9532
# 5 -28.7633 -14.4344 -36.5114 -9.3824 53.6523 4.4450
# 6 25.1285 23.5196 13.2723 -16.9532 4.4450 49.8690
#
#
#
# Elastic Compliance Matrix: (Units=1/GPa)
#
#
# Indices 1 2 3 4 5 6 
#
# 1 0.018605 -0.006203 -0.004182 -0.002310 0.005604 -0.006621
# 2 -0.006203 0.012602 0.001512 0.004237 0.001997 -0.001958
# 3 -0.004182 0.001512 0.013686 0.002788 0.008134 -0.002025
# 4 -0.002310 0.004237 0.002788 0.046881 0.008872 0.013570
# 5 0.005604 0.001997 0.008134 0.008872 0.029727 -0.005564
# 6 -0.006621 -0.001958 -0.002025 0.013570 -0.005564 0.029960
#
#
# Mechanical properties :
#
#
# Convention : Reuss Voigt Hill
#
# Bulk Modulus (GPa) = 36.83881 61.87141 49.35511
# Shear Modulus (GPa) = 28.04952 40.14289 34.09621
#
# Velocity S-wave (km/s) = 3.39765 4.06462 3.74601
# Velocity P-wave (km/s) = 5.52751 6.89144 6.24681
#
# Compressibility (1/GPa) = 0.02714529
#
# Stress axis : x y z
#
# Youngs Moduli (GPa) = 53.74982 79.35541 73.06695
#
# Poissons Ratio (x) = 0.49226 0.30558
# Poissons Ratio (y) = 0.33343 -0.11047
# Poissons Ratio (z) = 0.22479 -0.11998
#
# Static dielectric constant tensor:
#      x y z
#    x 1.892880 -0.015250 0.037770 
#    y -0.015250 1.720270 -0.110920 
#    z 0.037770 -0.110920 1.837200 
# 
# From -- ./inp_files/131452.got.cif
#   From: 2010.05.17/outbox.cif.g08.bks.cpg/sg2_66_cif.got.tgz:131452.got - 2010.06.03 11:33:40.
