data_PCOD9044540
_publ_section_title
;
Structure prediction by ZEFSAII (Michael W. Deem and Ramdas Pophale) SiO2 
 PCOD9044540
Probable space group: P -1
;
_chemical_formula_sum "Si O2"
_cell_formula_units_Z 16
_cell_length_a 17.015661
_cell_length_b 5.261093
_cell_length_c 13.947870
_cell_angle_alpha 106.332404
_cell_angle_beta 32.337939
_cell_angle_gamma 100.182128
_cell_volume 636.438541
_symmetry_space_group_name_H-M "P -1"
_symmetry_group_IT_number 2
_symmetry_cell_setting 'triclinic'
loop_
_space_group_symop_operation_xyz
x,y,z
-x,-y,-z
loop_
_atom_site_type_symbol
_atom_site_label
_atom_site_fract_x
_atom_site_fract_y
_atom_site_fract_z
Si Si1 0.363984 0.505571 0.537870
Si Si2 0.352466 0.283683 0.743755
Si Si3 0.118926 0.317852 0.495048
Si Si4 0.431298 0.134929 0.257858
Si Si5 0.423111 0.461993 0.973677
Si Si6 0.121135 0.244561 0.272047
Si Si7 0.130295 0.733135 0.096794
Si Si8 0.139213 0.839597 0.884495
O O1 0.357025 0.423331 0.648545
O O2 0.474436 0.718384 0.414380
O O3 0.407771 0.256272 0.400379
O O4 0.197951 0.641129 0.717397
O O5 0.271871 0.020385 0.790498
O O6 0.257986 0.483402 0.935462
O O7 0.279441 0.228803 0.365725
O O8 0.118710 0.162143 0.377420
O O9 0.043660 0.615662 0.570757
O O10 0.004330 0.281754 0.694218
O O11 0.546700 0.292160 0.097572
O O12 0.490468 0.825580 0.174728
O O13 0.500000 0.500000 0.000000
O O14 0.248599 0.442009 0.160127
O O15 0.176622 0.013660 0.114973
O O16 0.089203 0.739567 0.027769
O O17 0.000000 0.000000 0.000000
#
# Coordination Sequence:
#
# PCOD9044540 Si02
#       8
#     2   2   2   2   2   2   2   2
#     4  10  25  43  72 101 139 192 247 305 370 448
#     4  10  23  47  66 100 141 187 249 304 374 450
#     4  11  27  45  73 108 152 195 261 307 387 452
#     4  12  29  48  80 113 152 204 253 322 378 456
#     4  12  28  51  77 111 156 197 257 315 385 448
#     4  11  26  48  74 106 149 201 253 319 381 461
#     4  11  25  42  74 100 143 195 250 306 384 449
#     4  11  26  42  70 103 147 187 242 313 377 455
#
# _framework density 25.139897999999999
#
# number of rings (size 3 to 8) (size 9 to 14) (size 15 to 20)
#    0.000    1.000    1.250    2.625   14.000    1.000 
#    0.000    0.000    0.000    0.000    0.000    0.000 
#    0.000    0.000    0.000    0.000    0.000    0.000 
#
# Total GULP energy -89402.731142 kJ/mol
# GULP energy per Si atom -5587.670696 kJ/mol
# Density = 2.508268 g / cm^3
# Si number density = 25.139898 Si / 1000 Ang^3
#
#
#
# Elastic Constant Matrix: (Units=GPa)
#
#
# Indices 1 2 3 4 5 6 
#
# 1 52.7537 -4.4811 25.0399 -14.0121 7.4839 -7.0167
# 2 -4.4811 49.2488 14.2821 -6.8495 7.4969 -0.6607
# 3 25.0399 14.2821 133.5696 4.8758 17.5526 -4.1215
# 4 -14.0121 -6.8495 4.8758 48.3097 -0.9243 12.7906
# 5 7.4839 7.4969 17.5526 -0.9243 46.8775 6.1694
# 6 -7.0167 -0.6607 -4.1215 12.7906 6.1694 29.9871
#
#
#
# Elastic Compliance Matrix: (Units=1/GPa)
#
#
# Indices 1 2 3 4 5 6 
#
# 1 0.024560 0.005238 -0.004958 0.007629 -0.003089 0.002562
# 2 0.005238 0.022899 -0.003207 0.005090 -0.003167 -0.000230
# 3 -0.004958 -0.003207 0.009274 -0.003409 -0.002500 0.002013
# 4 0.007629 0.005090 -0.003409 0.026697 0.001112 -0.010187
# 5 -0.003089 -0.003167 -0.002500 0.001112 0.024156 -0.006580
# 6 0.002562 -0.000230 0.002013 -0.010187 -0.006580 0.039918
#
#
# Mechanical properties :
#
#
# Convention : Reuss Voigt Hill
#
# Bulk Modulus (GPa) = 19.65464 33.91711 26.78588
# Shear Modulus (GPa) = 29.35720 38.41693 33.88706
#
# Velocity S-wave (km/s) = 3.42095 3.91337 3.67541
# Velocity P-wave (km/s) = 4.84138 5.82579 5.35625
#
# Compressibility (1/GPa) = 0.05087857
#
# Stress axis : x y z
#
# Youngs Moduli (GPa) = 40.71744 43.67079 107.82613
#
# Poissons Ratio (x) = -0.22875 0.53457
# Poissons Ratio (y) = -0.21328 0.34582
# Poissons Ratio (z) = 0.20186 0.14006
#
# Static dielectric constant tensor:
#      x y z
#    x 1.978520 -0.009000 -0.086960 
#    y -0.009000 2.079360 0.020870 
#    z -0.086960 0.020870 1.943290 
# 
# From -- ./inp_files/536392.got.cif
#   From: 2010.05.17/outbox.cif.g08.bks.cpg/sg2_269_cif.got.tgz:536392.got - 2010.06.03 11:33:40.
