data_PCOD9044487
_publ_section_title
;
Structure prediction by ZEFSAII (Michael W. Deem and Ramdas Pophale) SiO2 
 PCOD9044487
Probable space group: P -1
;
_chemical_formula_sum "Si O2"
_cell_formula_units_Z 14
_cell_length_a 9.260851
_cell_length_b 10.803483
_cell_length_c 6.760904
_cell_angle_alpha 83.403602
_cell_angle_beta 52.934060
_cell_angle_gamma 94.937896
_cell_volume 525.781390
_symmetry_space_group_name_H-M "P -1"
_symmetry_group_IT_number 2
_symmetry_cell_setting 'triclinic'
loop_
_space_group_symop_operation_xyz
x,y,z
-x,-y,-z
loop_
_atom_site_type_symbol
_atom_site_label
_atom_site_fract_x
_atom_site_fract_y
_atom_site_fract_z
Si Si1 0.165792 0.742362 0.633177
Si Si2 0.668981 0.553946 0.994804
Si Si3 0.804014 0.681955 0.219888
Si Si4 0.090021 0.646004 0.282623
Si Si5 0.728785 0.841390 0.748974
Si Si6 0.475742 0.146211 0.462196
Si Si7 0.853690 0.089178 0.727927
O O1 0.120970 0.649345 0.495561
O O2 0.352574 0.757351 0.598765
O O3 0.724018 0.701800 0.857497
O O4 0.990152 0.717970 0.926071
O O5 0.805918 0.456860 0.870270
O O6 0.500000 0.500000 0.000000
O O7 0.666940 0.574543 0.229190
O O8 0.701720 0.798632 0.320150
O O9 0.884170 0.630964 0.364488
O O10 0.175225 0.793977 0.136631
O O11 0.560340 0.839688 0.743875
O O12 0.924591 0.891172 0.468191
O O13 0.741360 0.950042 0.885815
O O14 0.806822 0.125685 0.536128
O O15 0.500000 0.000000 0.500000
#
# Coordination Sequence:
#
# PCOD9044487 Si02
#       7
#     2   2   2   2   2   2   2
#     4  10  23  46  77 108 150 198 256 312 390 444
#     4  12  27  47  74 115 156 203 263 310 389 464
#     4  12  26  48  78 112 149 207 261 311 385 471
#     4  10  23  50  74 107 156 199 254 319 374 461
#     4  11  22  45  74 105 156 196 244 328 376 446
#     4  12  24  47  72 114 156 196 256 322 384 454
#     4   9  20  46  75 103 147 199 247 312 395 431
#
# _framework density 26.627033999999998
#
# number of rings (size 3 to 8) (size 9 to 14) (size 15 to 20)
#    0.857    0.286    4.286    1.286    2.000    2.857 
#    5.143    2.857    0.000    0.000    0.000    0.000 
#    0.000    0.000    0.000    0.000    0.000    0.000 
#
# Total GULP energy -78170.689989 kJ/mol
# GULP energy per Si atom -5583.620714 kJ/mol
# Density = 2.656643 g / cm^3
# Si number density = 26.627034 Si / 1000 Ang^3
#
#
#
# Elastic Constant Matrix: (Units=GPa)
#
#
# Indices 1 2 3 4 5 6 
#
# 1 225.7243 78.7212 43.4106 12.2706 1.9581 28.1376
# 2 78.7212 199.1821 55.4198 40.2702 10.3281 -11.9247
# 3 43.4106 55.4198 79.8580 23.4337 -6.3366 3.4691
# 4 12.2706 40.2702 23.4337 38.5987 -2.9600 -5.7175
# 5 1.9581 10.3281 -6.3366 -2.9600 32.7322 16.3919
# 6 28.1376 -11.9247 3.4691 -5.7175 16.3919 64.0082
#
#
#
# Elastic Compliance Matrix: (Units=1/GPa)
#
#
# Indices 1 2 3 4 5 6 
#
# 1 0.005926 -0.002460 -0.001600 0.001304 0.001907 -0.003348
# 2 -0.002460 0.008739 -0.003582 -0.006034 -0.005774 0.003843
# 3 -0.001600 -0.003582 0.018522 -0.007014 0.005707 -0.003056
# 4 0.001304 -0.006034 -0.007014 0.036458 0.003205 0.001119
# 5 0.001907 -0.005774 0.005707 0.003205 0.039717 -0.012108
# 6 -0.003348 0.003843 -0.003056 0.001119 -0.012108 0.021177
#
#
# Mechanical properties :
#
#
# Convention : Reuss Voigt Hill
#
# Bulk Modulus (GPa) = 55.85769 95.54083 75.69926
# Shear Modulus (GPa) = 32.94046 48.88202 40.91124
#
# Velocity S-wave (km/s) = 3.52107 4.28928 3.92402
# Velocity P-wave (km/s) = 6.12812 7.77750 7.00155
#
# Compressibility (1/GPa) = 0.01790264
#
# Stress axis : x y z
#
# Youngs Moduli (GPa) = 168.75717 114.43378 53.99098
#
# Poissons Ratio (x) = 0.28147 0.08639
# Poissons Ratio (y) = 0.41509 0.19338
# Poissons Ratio (z) = 0.27004 0.40988
#
# Static dielectric constant tensor:
#      x y z
#    x 2.091600 0.015160 0.012740 
#    y 0.015160 2.137300 0.001930 
#    z 0.012740 0.001930 2.193760 
# 
# From -- ./inp_files/193590.got.cif
#   From: 2010.05.17/outbox.cif.g08.bks.cpg/sg2_97_cif.got.tgz:193590.got - 2010.06.03 11:33:40.
