data_PCOD9044995
_publ_section_title
;
Structure prediction by ZEFSAII (Michael W. Deem and Ramdas Pophale) SiO2 
 PCOD9044995
Probable space group: P -1
;
_chemical_formula_sum "Si O2"
_cell_formula_units_Z 14
_cell_length_a 12.728035
_cell_length_b 10.517499
_cell_length_c 5.633038
_cell_angle_alpha 54.031343
_cell_angle_beta 66.439222
_cell_angle_gamma 65.779193
_cell_volume 543.552177
_symmetry_space_group_name_H-M "P -1"
_symmetry_group_IT_number 2
_symmetry_cell_setting 'triclinic'
loop_
_space_group_symop_operation_xyz
x,y,z
-x,-y,-z
loop_
_atom_site_type_symbol
_atom_site_label
_atom_site_fract_x
_atom_site_fract_y
_atom_site_fract_z
Si Si1 0.253413 0.457163 0.336144
Si Si2 0.988839 0.864362 0.349016
Si Si3 0.580439 0.849195 0.723180
Si Si4 0.099987 0.259669 0.837556
Si Si5 0.837784 0.298263 0.263671
Si Si6 0.451344 0.583731 0.206940
Si Si7 0.758152 0.001902 0.699535
O O1 0.337574 0.283988 0.375785
O O2 0.156049 0.411902 0.649221
O O3 0.319070 0.566236 0.313876
O O4 0.217580 0.545238 0.018713
O O5 0.110567 0.770616 0.450174
O O6 0.928682 0.736619 0.417762
O O7 0.887795 0.955530 0.512410
O O8 0.000000 0.000000 0.000000
O O9 0.663341 0.917439 0.757510
O O10 0.500000 0.000000 0.500000
O O11 0.485964 0.754088 0.010767
O O12 0.199040 0.095257 0.988768
O O13 0.973233 0.268278 0.060532
O O14 0.736407 0.192689 0.457801
O O15 0.500000 0.500000 0.500000
O O16 0.500000 0.500000 0.000000
#
# Coordination Sequence:
#
# PCOD9044995 Si02
#       7
#     2   2   2   2   2   2   2
#     4  11  24  44  66 100 135 178 224 285 356 403
#     4  11  19  39  64  97 136 176 218 260 333 412
#     4  11  24  45  71  96 129 178 240 292 348 414
#     4  11  21  40  65  97 134 173 217 268 333 425
#     4  11  23  38  65 102 138 171 220 273 335 420
#     4  10  23  48  72 100 139 180 235 300 355 412
#     4  11  21  39  67  94 129 173 223 273 328 410
#
# _framework density 25.756495999999999
#
# number of rings (size 3 to 8) (size 9 to 14) (size 15 to 20)
#    0.000    1.143    4.286    3.000    0.000    0.571 
#    7.714    9.286    0.000    0.000    0.000    0.000 
#    0.000    0.000    0.000    0.000    0.000    0.000 
#
# Total GULP energy -77991.428128 kJ/mol
# GULP energy per Si atom -5570.816295 kJ/mol
# Density = 2.569787 g / cm^3
# Si number density = 25.756496 Si / 1000 Ang^3
#
#
#
# Elastic Constant Matrix: (Units=GPa)
#
#
# Indices 1 2 3 4 5 6 
#
# 1 173.0834 50.7838 70.7910 -26.6626 -8.6920 26.3917
# 2 50.7838 54.0663 48.5719 -30.9957 8.5577 -9.9347
# 3 70.7910 48.5719 174.3728 -47.8285 2.9395 8.2275
# 4 -26.6626 -30.9957 -47.8285 38.5049 7.6364 -1.2711
# 5 -8.6920 8.5577 2.9395 7.6364 68.0171 -17.5004
# 6 26.3917 -9.9347 8.2275 -1.2711 -17.5004 34.0661
#
#
#
# Elastic Compliance Matrix: (Units=1/GPa)
#
#
# Indices 1 2 3 4 5 6 
#
# 1 0.012847 -0.018412 -0.001899 -0.009025 0.001317 -0.014524
# 2 -0.018412 0.069353 -0.001093 0.044310 -0.007650 0.032477
# 3 -0.001899 -0.001093 0.009765 0.010303 -0.002184 -0.001943
# 4 -0.009025 0.044310 0.010303 0.070935 -0.011492 0.014169
# 5 0.001317 -0.007650 -0.002184 -0.011492 0.018905 0.006560
# 6 -0.014524 0.032477 -0.001943 0.014169 0.006560 0.054446
#
#
# Mechanical properties :
#
#
# Convention : Reuss Voigt Hill
#
# Bulk Modulus (GPa) = 20.34340 82.42400 51.38370
# Shear Modulus (GPa) = 16.92353 43.54267 30.23310
#
# Velocity S-wave (km/s) = 2.56610 4.11609 3.42980
# Velocity P-wave (km/s) = 4.08599 7.39326 5.97309
#
# Compressibility (1/GPa) = 0.04915599
#
# Stress axis : x y z
#
# Youngs Moduli (GPa) = 77.83893 14.41889 102.40615
#
# Poissons Ratio (x) = 0.26548 0.19450
# Poissons Ratio (y) = 1.43318 0.11197
# Poissons Ratio (z) = 0.14784 0.01576
#
# Static dielectric constant tensor:
#      x y z
#    x 2.122250 0.051040 -0.059800 
#    y 0.051040 2.336850 0.021180 
#    z -0.059800 0.021180 2.222780 
# 
# From -- ./inp_files/32436.got.cif
#   From: 2010.05.17/outbox.cif.g08.bks.cpg/sg2_17_cif.got.tgz:32436.got - 2010.06.03 11:33:40.
