data_PCOD9044642
_publ_section_title
;
Structure prediction by ZEFSAII (Michael W. Deem and Ramdas Pophale) SiO2 
 PCOD9044642
Probable space group: P -1
;
_chemical_formula_sum "Si O2"
_cell_formula_units_Z 16
_cell_length_a 7.259132
_cell_length_b 14.250810
_cell_length_c 16.568279
_cell_angle_alpha 35.466775
_cell_angle_beta 136.162671
_cell_angle_gamma 111.602250
_cell_volume 577.193071
_symmetry_space_group_name_H-M "P -1"
_symmetry_group_IT_number 2
_symmetry_cell_setting 'triclinic'
loop_
_space_group_symop_operation_xyz
x,y,z
-x,-y,-z
loop_
_atom_site_type_symbol
_atom_site_label
_atom_site_fract_x
_atom_site_fract_y
_atom_site_fract_z
Si Si1 0.268205 0.534210 0.131750
Si Si2 0.633550 0.402402 0.708531
Si Si3 0.810194 0.722650 0.317986
Si Si4 0.252085 0.196222 0.436655
Si Si5 0.424211 0.215032 0.237296
Si Si6 0.038978 0.804440 0.181369
Si Si7 0.396105 0.711350 0.915991
Si Si8 0.940555 0.871063 0.414988
O O1 0.291295 0.634524 0.148299
O O2 0.336513 0.338627 0.327237
O O3 0.102436 0.333001 0.102020
O O4 0.473985 0.542980 0.119914
O O5 0.475223 0.279917 0.728827
O O6 0.377217 0.628859 0.449919
O O7 0.941469 0.311732 0.812305
O O8 0.949358 0.790365 0.385580
O O9 0.000000 0.500000 0.500000
O O10 0.791934 0.836991 0.150808
O O11 0.188055 0.213180 0.499898
O O12 0.930412 0.230873 0.272459
O O13 0.515699 0.981201 0.642622
O O14 0.384115 0.336438 0.058772
O O15 0.728875 0.164249 0.421431
O O16 0.000000 0.000000 0.000000
O O17 0.305910 0.897650 0.810385
#
# Coordination Sequence:
#
# PCOD9044642 Si02
#       8
#     2   2   2   2   2   2   2   2
#     4  12  24  41  70 107 142 182 225 279 350 415
#     4  10  26  46  66 105 145 171 231 291 332 421
#     4  10  23  47  70 100 140 183 229 289 347 398
#     4   9  21  42  69  99 142 182 228 290 332 405
#     4   9  22  47  69 100 144 183 225 282 347 415
#     4  10  24  48  74  96 130 182 237 286 347 395
#     4   9  21  44  64 105 137 178 239 280 341 415
#     4   9  20  43  73  96 138 185 232 287 342 400
#
# _framework density 27.720358999999998
#
# number of rings (size 3 to 8) (size 9 to 14) (size 15 to 20)
#    0.000    2.250    0.000    1.875    7.000    6.500 
#   15.750    1.250    0.000    0.000    0.000    0.000 
#    0.000    0.000    0.000    0.000    0.000    0.000 
#
# Total GULP energy -89586.891493 kJ/mol
# GULP energy per Si atom -5599.180718 kJ/mol
# Density = 2.765727 g / cm^3
# Si number density = 27.720359 Si / 1000 Ang^3
#
#
#
# Elastic Constant Matrix: (Units=GPa)
#
#
# Indices 1 2 3 4 5 6 
#
# 1 104.2625 29.9414 32.5662 18.8319 -19.4319 -19.2333
# 2 29.9414 128.3272 15.9416 14.0585 0.0950 -15.0832
# 3 32.5662 15.9416 107.0739 -4.5331 -19.9001 2.4542
# 4 18.8319 14.0585 -4.5331 30.7211 -10.1295 -6.0400
# 5 -19.4319 0.0950 -19.9001 -10.1295 55.2946 0.4629
# 6 -19.2333 -15.0832 2.4542 -6.0400 0.4629 48.3003
#
#
#
# Elastic Compliance Matrix: (Units=1/GPa)
#
#
# Indices 1 2 3 4 5 6 
#
# 1 0.013639 -0.001452 -0.003923 -0.006729 0.002115 0.004315
# 2 -0.001452 0.008917 -0.001397 -0.003595 -0.001702 0.001844
# 3 -0.003923 -0.001397 0.011752 0.005690 0.003912 -0.001921
# 4 -0.006729 -0.003595 0.005690 0.041789 0.007336 0.001064
# 5 0.002115 -0.001702 0.003912 0.007336 0.021576 0.000822
# 6 0.004315 0.001844 -0.001921 0.001064 0.000822 0.023221
#
#
# Mechanical properties :
#
#
# Convention : Reuss Voigt Hill
#
# Bulk Modulus (GPa) = 48.15840 55.17357 51.66598
# Shear Modulus (GPa) = 35.37104 44.27751 39.82428
#
# Velocity S-wave (km/s) = 3.57598 4.00095 3.79442
# Velocity P-wave (km/s) = 5.87034 6.42575 6.15431
#
# Compressibility (1/GPa) = 0.02076481
#
# Stress axis : x y z
#
# Youngs Moduli (GPa) = 73.31854 112.14829 85.08900
#
# Poissons Ratio (x) = 0.16286 0.33379
# Poissons Ratio (y) = 0.10647 0.11885
# Poissons Ratio (z) = 0.28762 0.15664
#
# Static dielectric constant tensor:
#      x y z
#    x 2.186150 0.040970 0.046120 
#    y 0.040970 2.219170 0.014610 
#    z 0.046120 0.014610 2.156350 
# 
# From -- ./inp_files/237115.got.cif
#   From: 2010.05.17/outbox.cif.g08.bks.cpg/sg2_119_cif.got.tgz:237115.got - 2010.06.03 11:33:40.
