data_PCOD9044463
_publ_section_title
;
Structure prediction by ZEFSAII (Michael W. Deem and Ramdas Pophale) SiO2 
 PCOD9044463
Probable space group: P -1
;
_chemical_formula_sum "Si O2"
_cell_formula_units_Z 12
_cell_length_a 5.589214
_cell_length_b 13.505166
_cell_length_c 9.005051
_cell_angle_alpha 54.362358
_cell_angle_beta 124.561657
_cell_angle_gamma 101.386266
_cell_volume 445.845756
_symmetry_space_group_name_H-M "P -1"
_symmetry_group_IT_number 2
_symmetry_cell_setting 'triclinic'
loop_
_space_group_symop_operation_xyz
x,y,z
-x,-y,-z
loop_
_atom_site_type_symbol
_atom_site_label
_atom_site_fract_x
_atom_site_fract_y
_atom_site_fract_z
Si Si1 0.413975 0.206236 0.992850
Si Si2 0.264836 0.114993 0.743239
Si Si3 0.811704 0.343791 0.898766
Si Si4 0.423410 0.373024 0.142145
Si Si5 0.257634 0.579007 0.516554
Si Si6 0.353756 0.960974 0.334087
O O1 0.272836 0.231129 0.755385
O O2 0.747884 0.213900 0.049751
O O3 0.432524 0.286286 0.077257
O O4 0.286133 0.090115 0.106426
O O5 0.402027 0.122305 0.619604
O O6 0.940855 0.083611 0.676373
O O7 0.500000 0.000000 0.000000
O O8 0.547676 0.466020 0.710190
O O9 0.834626 0.337053 0.734250
O O10 0.082308 0.377512 0.055990
O O11 0.650102 0.342575 0.383238
O O12 0.500000 0.500000 0.000000
O O13 0.000000 0.500000 0.500000
O O14 0.500000 0.000000 0.500000
#
# Coordination Sequence:
#
# PCOD9044463 Si02
#       6
#     2   2   2   2   2   2
#     4  11  25  41  70 100 136 191 233 288 367 416
#     4  10  23  46  75  99 141 184 232 294 366 426
#     4  11  24  41  68  95 139 182 243 285 358 412
#     4  12  24  43  66 100 144 186 237 291 348 429
#     4  11  23  44  66  95 137 189 237 296 348 413
#     4  11  25  48  74 108 142 179 238 305 360 428
#
# _framework density 26.915137000000001
#
# number of rings (size 3 to 8) (size 9 to 14) (size 15 to 20)
#    0.000    1.000    3.333    3.000    7.000    1.333 
#    6.000    0.000    0.000    0.000    0.000    0.000 
#    0.000    0.000    0.000    0.000    0.000    0.000 
#
# Total GULP energy -66912.010408 kJ/mol
# GULP energy per Si atom -5576.000867 kJ/mol
# Density = 2.685388 g / cm^3
# Si number density = 26.915137 Si / 1000 Ang^3
#
#
#
# Elastic Constant Matrix: (Units=GPa)
#
#
# Indices 1 2 3 4 5 6 
#
# 1 168.2111 77.0807 59.8236 40.7246 0.3950 21.3603
# 2 77.0807 142.4694 36.7049 44.3233 7.6117 -1.1103
# 3 59.8236 36.7049 139.2768 52.5788 14.6529 -8.9359
# 4 40.7246 44.3233 52.5788 78.3888 1.7707 -6.8755
# 5 0.3950 7.6117 14.6529 1.7707 51.0912 24.0226
# 6 21.3603 -1.1103 -8.9359 -6.8755 24.0226 61.7048
#
#
#
# Elastic Compliance Matrix: (Units=1/GPa)
#
#
# Indices 1 2 3 4 5 6 
#
# 1 0.010418 -0.004686 -0.003795 -0.000860 0.004621 -0.006135
# 2 -0.004686 0.010708 0.001255 -0.004154 -0.003056 0.002723
# 3 -0.003795 0.001255 0.011595 -0.006005 -0.005359 0.004433
# 4 -0.000860 -0.004154 -0.006005 0.019650 0.001152 0.001094
# 5 0.004621 -0.003056 -0.005359 0.001152 0.027629 -0.013059
# 6 -0.006135 0.002723 0.004433 0.001094 -0.013059 0.024227
#
#
# Mechanical properties :
#
#
# Convention : Reuss Voigt Hill
#
# Bulk Modulus (GPa) = 54.73822 88.57508 71.65665
# Shear Modulus (GPa) = 40.07411 56.66019 48.36715
#
# Velocity S-wave (km/s) = 3.86282 4.59316 4.24373
# Velocity P-wave (km/s) = 6.34639 7.81729 7.11992
#
# Compressibility (1/GPa) = 0.01826877
#
# Stress axis : x y z
#
# Youngs Moduli (GPa) = 95.98416 93.38964 86.24751
#
# Poissons Ratio (x) = 0.43763 0.32733
# Poissons Ratio (y) = 0.44979 -0.10827
# Poissons Ratio (z) = 0.36428 -0.11723
#
# Static dielectric constant tensor:
#      x y z
#    x 2.397590 -0.194790 0.001420 
#    y -0.194790 2.258420 -0.076590 
#    z 0.001420 -0.076590 2.132350 
# 
# From -- ./inp_files/35310.got.cif
#   From: 2010.05.17/outbox.cif.g08.bks.cpg/sg2_18_cif.got.tgz:35310.got - 2010.06.03 11:33:40.
