data_PCOD9044565
_publ_section_title
;
Structure prediction by ZEFSAII (Michael W. Deem and Ramdas Pophale) SiO2 
 PCOD9044565
Probable space group: P -1
;
_chemical_formula_sum "Si O2"
_cell_formula_units_Z 12
_cell_length_a 15.938325
_cell_length_b 7.976859
_cell_length_c 15.512862
_cell_angle_alpha 49.563340
_cell_angle_beta 26.426874
_cell_angle_gamma 66.823860
_cell_volume 556.711269
_symmetry_space_group_name_H-M "P -1"
_symmetry_group_IT_number 2
_symmetry_cell_setting 'triclinic'
loop_
_space_group_symop_operation_xyz
x,y,z
-x,-y,-z
loop_
_atom_site_type_symbol
_atom_site_label
_atom_site_fract_x
_atom_site_fract_y
_atom_site_fract_z
Si Si1 0.558441 0.405172 0.562853
Si Si2 0.702457 0.019406 0.539965
Si Si3 0.985132 0.816452 0.654013
Si Si4 0.461082 0.399945 0.305663
Si Si5 0.795346 0.365421 0.609142
Si Si6 0.735093 0.148339 0.914849
O O1 0.500000 0.500000 0.500000
O O2 0.720671 0.299068 0.428790
O O3 0.616798 0.599057 0.525190
O O4 0.334489 0.133189 0.892469
O O5 0.894920 0.035473 0.416774
O O6 0.664611 0.889378 0.524843
O O7 0.462679 0.823836 0.874648
O O8 0.142118 0.719693 0.506806
O O9 0.732428 0.568729 0.988598
O O10 0.000000 0.000000 0.500000
O O11 0.381106 0.557873 0.270900
O O12 0.720995 0.152062 0.823869
O O13 0.026164 0.620281 0.347412
#
# Coordination Sequence:
#
# PCOD9044565 Si02
#       6
#     2   2   2   2   2   2
#     4  10  23  47  67  91 134 175 225 277 318 385
#     4  10  24  42  64 101 131 170 230 261 326 401
#     4  12  24  38  65 102 137 175 215 265 335 404
#     4  12  25  41  70  96 134 175 214 276 339 385
#     4  11  21  41  66 100 139 169 210 278 334 399
#     4   9  21  40  65  96 133 168 218 267 327 390
#
# _framework density 21.555159
#
# number of rings (size 3 to 8) (size 9 to 14) (size 15 to 20)
#    1.000    0.333    3.333    2.000    7.000    4.000 
#    0.000    1.667    0.000    0.000    0.000    0.000 
#    0.000    0.000    0.000    0.000    0.000    0.000 
#
# Total GULP energy -66992.317627 kJ/mol
# GULP energy per Si atom -5582.693136 kJ/mol
# Density = 2.150610 g / cm^3
# Si number density = 21.555159 Si / 1000 Ang^3
#
#
#
# Elastic Constant Matrix: (Units=GPa)
#
#
# Indices 1 2 3 4 5 6 
#
# 1 155.4721 48.1046 26.0867 -10.0826 4.9367 11.2307
# 2 48.1046 97.7273 12.3663 8.1517 4.1699 25.5042
# 3 26.0867 12.3663 26.6943 16.0780 -14.2488 -4.0984
# 4 -10.0826 8.1517 16.0780 10.6760 0.7073 -0.5486
# 5 4.9367 4.1699 -14.2488 0.7073 32.6206 -4.0558
# 6 11.2307 25.5042 -4.0984 -0.5486 -4.0558 44.3518
#
#
#
# Elastic Compliance Matrix: (Units=1/GPa)
#
#
# Indices 1 2 3 4 5 6 
#
# 1 0.002353 -0.002655 0.017548 -0.022586 0.008518 0.003052
# 2 -0.002655 0.015535 -0.008256 -0.002011 -0.006344 -0.009629
# 3 0.017548 -0.008256 -0.046261 0.093908 -0.024471 -0.005047
# 4 -0.022586 -0.002011 0.093908 -0.069788 0.048587 0.019133
# 5 0.008518 -0.006344 -0.024471 0.048587 0.018626 0.001534
# 6 0.003052 -0.009629 -0.005047 0.019133 0.001534 0.027222
#
#
# Mechanical properties :
#
#
# Convention : Reuss Voigt Hill
#
# Bulk Modulus (GPa) = -66.23628 50.33430 -7.95099
# Shear Modulus (GPa) = -70.80061 30.41875 -20.19093
#
# Velocity S-wave (km/s) = -5.73738 3.76068 -3.06389
# Velocity P-wave (km/s) = 8.64208 6.50069 4.02657
#
# Compressibility (1/GPa) = -0.01509747
#
# Stress axis : x y z
#
# Youngs Moduli (GPa) = 424.91685 64.36884 -21.61625
#
# Poissons Ratio (x) = 0.17090 0.37933
# Poissons Ratio (y) = 1.12813 -0.17846
# Poissons Ratio (z) = -7.45663 0.53142
#
# Static dielectric constant tensor:
#      x y z
#    x 1.771670 0.046090 -0.023190 
#    y 0.046090 1.871420 0.023530 
#    z -0.023190 0.023530 1.763270 
# 
# From -- ./inp_files/168995.got.cif
#   From: 2010.05.17/outbox.cif.g08.bks.cpg/sg2_85_cif.got.tgz:168995.got - 2010.06.03 11:33:40.
