data_PCOD9044329
_publ_section_title
;
Structure prediction by ZEFSAII (Michael W. Deem and Ramdas Pophale) SiO2 
 PCOD9044329
Probable space group: P -1
;
_chemical_formula_sum "Si O2"
_cell_formula_units_Z 14
_cell_length_a 23.457190
_cell_length_b 9.431314
_cell_length_c 18.111555
_cell_angle_alpha 144.573401
_cell_angle_beta 161.681823
_cell_angle_gamma 27.535319
_cell_volume 572.092763
_symmetry_space_group_name_H-M "P -1"
_symmetry_group_IT_number 2
_symmetry_cell_setting 'triclinic'
loop_
_space_group_symop_operation_xyz
x,y,z
-x,-y,-z
loop_
_atom_site_type_symbol
_atom_site_label
_atom_site_fract_x
_atom_site_fract_y
_atom_site_fract_z
Si Si1 0.665797 0.325955 0.468200
Si Si2 0.730836 0.777524 0.801136
Si Si3 0.022944 0.460275 0.755065
Si Si4 0.583124 0.517842 0.290892
Si Si5 0.667632 0.557067 0.775986
Si Si6 0.926932 0.681145 0.565778
Si Si7 0.474572 0.758104 0.028334
O O1 0.622740 0.644624 0.567037
O O2 0.689972 0.294321 0.397786
O O3 0.450712 0.369267 0.258263
O O4 0.883607 0.007275 0.638346
O O5 0.672236 0.769672 0.811342
O O6 0.625318 0.122564 0.795564
O O7 0.000000 0.500000 0.000000
O O8 0.781867 0.520235 0.498900
O O9 0.042297 0.532063 0.723875
O O10 0.223883 0.092344 0.861369
O O11 0.068150 0.634351 0.947003
O O12 0.487196 0.381915 0.065085
O O13 0.500000 0.500000 0.500000
O O14 0.000000 0.500000 0.500000
O O15 0.675074 0.770379 0.304394
O O16 0.500000 0.500000 0.000000
#
# Coordination Sequence:
#
# PCOD9044329 Si02
#       7
#     2   2   2   2   2   2   2
#     4  11  25  46  70 106 151 187 253 305 372 436
#     4  11  25  48  73 105 150 194 252 310 366 446
#     4  12  25  49  77 108 149 199 248 303 376 447
#     4  12  26  44  77 110 144 206 251 298 378 444
#     4  10  23  46  73 101 146 187 240 308 366 433
#     4  12  28  45  74 114 152 195 246 311 377 438
#     4  12  26  47  76 109 156 192 253 306 366 451
#
# _framework density 24.471556
#
# number of rings (size 3 to 8) (size 9 to 14) (size 15 to 20)
#    0.000    0.571    2.857    4.286    6.000    1.143 
#    0.000   10.714    0.000    0.000    0.000    0.000 
#    0.000    0.000    0.000    0.000    0.000    0.000 
#
# Total GULP energy -78016.147357 kJ/mol
# GULP energy per Si atom -5572.581954 kJ/mol
# Density = 2.441586 g / cm^3
# Si number density = 24.471556 Si / 1000 Ang^3
#
#
#
# Elastic Constant Matrix: (Units=GPa)
#
#
# Indices 1 2 3 4 5 6 
#
# 1 121.3508 11.1728 26.3816 -17.5914 -27.7033 24.7427
# 2 11.1728 111.3285 35.7650 -15.7483 -5.8214 2.6435
# 3 26.3816 35.7650 119.0592 -4.1087 -21.1300 5.9175
# 4 -17.5914 -15.7483 -4.1087 37.0751 -4.9816 -4.2844
# 5 -27.7033 -5.8214 -21.1300 -4.9816 56.6035 -7.7884
# 6 24.7427 2.6435 5.9175 -4.2844 -7.7884 35.3267
#
#
#
# Elastic Compliance Matrix: (Units=1/GPa)
#
#
# Indices 1 2 3 4 5 6 
#
# 1 0.011682 0.000447 -0.001355 0.005517 0.004884 -0.006242
# 2 0.000447 0.010566 -0.003020 0.004452 0.000579 0.000070
# 3 -0.001355 -0.003020 0.010079 -0.000434 0.002756 0.000042
# 4 0.005517 0.004452 -0.000434 0.032369 0.006000 0.001124
# 5 0.004884 0.000579 0.002756 0.006000 0.021898 0.001630
# 6 -0.006242 0.000070 0.000042 0.001124 0.001630 0.033163
#
#
# Mechanical properties :
#
#
# Convention : Reuss Voigt Hill
#
# Bulk Modulus (GPa) = 40.86653 55.37526 48.12090
# Shear Modulus (GPa) = 36.82728 44.36234 40.59481
#
# Velocity S-wave (km/s) = 3.88351 4.26233 4.07733
# Velocity P-wave (km/s) = 6.06999 6.84842 6.47092
#
# Compressibility (1/GPa) = 0.02446990
#
# Stress axis : x y z
#
# Youngs Moduli (GPa) = 85.60480 94.64203 99.21809
#
# Poissons Ratio (x) = -0.04232 0.13447
# Poissons Ratio (y) = -0.03828 0.29965
# Poissons Ratio (z) = 0.11602 0.28583
#
# Static dielectric constant tensor:
#      x y z
#    x 2.044680 -0.036100 0.043910 
#    y -0.036100 2.166020 0.152960 
#    z 0.043910 0.152960 2.142940 
# 
# From -- ./inp_files/548279.got.cif
#   From: 2010.05.17/outbox.cif.g08.bks.cpg/sg2_275_cif.got.tgz:548279.got - 2010.06.03 11:33:40.
