data_PCOD9044814
_publ_section_title
;
Structure prediction by ZEFSAII (Michael W. Deem and Ramdas Pophale) SiO2 
 PCOD9044814
Probable space group: P -1
;
_chemical_formula_sum "Si O2"
_cell_formula_units_Z 12
_cell_length_a 8.482403
_cell_length_b 7.068304
_cell_length_c 15.713886
_cell_angle_alpha 118.430051
_cell_angle_beta 36.048398
_cell_angle_gamma 105.163836
_cell_volume 473.507102
_symmetry_space_group_name_H-M "P -1"
_symmetry_group_IT_number 2
_symmetry_cell_setting 'triclinic'
loop_
_space_group_symop_operation_xyz
x,y,z
-x,-y,-z
loop_
_atom_site_type_symbol
_atom_site_label
_atom_site_fract_x
_atom_site_fract_y
_atom_site_fract_z
Si Si1 0.304303 0.749871 0.689133
Si Si2 0.255286 0.346690 0.170588
Si Si3 0.479675 0.235716 0.224366
Si Si4 0.983143 0.740685 0.098320
Si Si5 0.745037 0.823922 0.396193
Si Si6 0.294446 0.832983 0.205279
O O1 0.413780 0.659446 0.715857
O O2 0.580860 0.693025 0.498894
O O3 0.023099 0.697397 0.761417
O O4 0.222368 0.023776 0.785793
O O5 0.244684 0.321796 0.272927
O O6 0.298567 0.594133 0.190938
O O7 0.514600 0.203316 0.971449
O O8 0.419109 0.010048 0.237267
O O9 0.734390 0.207833 0.043543
O O10 0.933013 0.702297 0.211223
O O11 0.000000 0.500000 0.000000
O O12 0.966608 0.936361 0.366480
O O13 0.500000 0.000000 0.500000
#
# Coordination Sequence:
#
# PCOD9044814 Si02
#       6
#     2   2   2   2   2   2
#     4  11  26  46  77 111 153 197 247 314 383 438
#     4  11  25  46  74 113 151 196 252 316 365 447
#     4  12  24  44  75 110 144 196 258 306 362 452
#     4  11  24  42  76 113 144 198 259 300 364 457
#     4  10  23  47  74 108 156 200 239 313 390 435
#     4  11  24  44  75 107 152 200 250 308 378 442
#
# _framework density 25.342807000000001
#
# number of rings (size 3 to 8) (size 9 to 14) (size 15 to 20)
#    0.000    1.000    3.333    3.000    4.667    1.333 
#    0.000    0.833    0.000    0.000    0.000    0.000 
#    0.000    0.000    0.000    0.000    0.000    0.000 
#
# Total GULP energy -66840.441511 kJ/mol
# GULP energy per Si atom -5570.036793 kJ/mol
# Density = 2.528513 g / cm^3
# Si number density = 25.342807 Si / 1000 Ang^3
#
#
#
# Elastic Constant Matrix: (Units=GPa)
#
#
# Indices 1 2 3 4 5 6 
#
# 1 179.2233 47.2879 40.9035 -37.3181 2.8314 4.5058
# 2 47.2879 149.8214 27.2276 -40.3664 -10.0653 21.4699
# 3 40.9035 27.2276 111.0896 -46.5392 -15.4595 13.9935
# 4 -37.3181 -40.3664 -46.5392 46.4445 -3.4846 -8.2748
# 5 2.8314 -10.0653 -15.4595 -3.4846 34.4743 -12.9398
# 6 4.5058 21.4699 13.9935 -8.2748 -12.9398 38.3362
#
#
#
# Elastic Compliance Matrix: (Units=1/GPa)
#
#
# Indices 1 2 3 4 5 6 
#
# 1 0.006846 -0.001149 -0.000859 0.003727 -0.000626 0.000746
# 2 -0.001149 0.010222 0.003860 0.011699 0.004939 -0.002806
# 3 -0.000859 0.003860 0.020053 0.023699 0.012578 -0.000020
# 4 0.003727 0.011699 0.023699 0.060932 0.021713 0.004840
# 5 -0.000626 0.004939 0.012578 0.021713 0.042781 0.011843
# 6 0.000746 -0.002806 -0.000020 0.004840 0.011843 0.032618
#
#
# Mechanical properties :
#
#
# Convention : Reuss Voigt Hill
#
# Bulk Modulus (GPa) = 24.49535 74.55248 49.52392
# Shear Modulus (GPa) = 27.26918 45.49869 36.38393
#
# Velocity S-wave (km/s) = 3.28382 4.24173 3.79314
# Velocity P-wave (km/s) = 4.90556 7.31240 6.22638
#
# Compressibility (1/GPa) = 0.04082407
#
# Stress axis : x y z
#
# Youngs Moduli (GPa) = 146.06793 97.82892 49.86804
#
# Poissons Ratio (x) = 0.11245 0.04282
# Poissons Ratio (y) = 0.16790 -0.19247
# Poissons Ratio (z) = 0.12542 -0.37759
#
# Static dielectric constant tensor:
#      x y z
#    x 2.172940 0.003500 -0.020550 
#    y 0.003500 2.104150 0.103110 
#    z -0.020550 0.103110 2.003030 
# 
# From -- ./inp_files/557404.got.cif
#   From: 2010.05.17/outbox.cif.g08.bks.cpg/sg2_279_cif.got.tgz:557404.got - 2010.06.03 11:33:40.
