data_PCOD9044466
_publ_section_title
;
Structure prediction by ZEFSAII (Michael W. Deem and Ramdas Pophale) SiO2 
 PCOD9044466
Probable space group: P -1
;
_chemical_formula_sum "Si O2"
_cell_formula_units_Z 14
_cell_length_a 8.899095
_cell_length_b 10.768756
_cell_length_c 12.348687
_cell_angle_alpha 81.002669
_cell_angle_beta 142.834776
_cell_angle_gamma 81.424961
_cell_volume 627.427913
_symmetry_space_group_name_H-M "P -1"
_symmetry_group_IT_number 2
_symmetry_cell_setting 'triclinic'
loop_
_space_group_symop_operation_xyz
x,y,z
-x,-y,-z
loop_
_atom_site_type_symbol
_atom_site_label
_atom_site_fract_x
_atom_site_fract_y
_atom_site_fract_z
Si Si1 0.689444 0.527004 0.281738
Si Si2 0.235955 0.674922 0.840442
Si Si3 0.276954 0.644966 0.234031
Si Si4 0.902181 0.573339 0.817091
Si Si5 0.829433 0.993078 0.503956
Si Si6 0.355312 0.835912 0.435466
Si Si7 0.801420 0.931829 0.851024
O O1 0.713409 0.392889 0.242122
O O2 0.508320 0.566937 0.283845
O O3 0.000000 0.500000 0.500000
O O4 0.508644 0.651381 0.072102
O O5 0.116799 0.586864 0.856309
O O6 0.001318 0.835553 0.672936
O O7 0.212266 0.533072 0.277721
O O8 0.328900 0.739880 0.339569
O O9 0.008638 0.766389 0.001728
O O10 0.658897 0.731034 0.666506
O O11 0.000000 0.500000 0.000000
O O12 0.828728 0.110866 0.570705
O O13 0.507517 0.029123 0.283761
O O14 0.000000 0.000000 0.500000
O O15 0.292854 0.984689 0.326649
O O16 0.000000 0.000000 0.000000
#
# Coordination Sequence:
#
# PCOD9044466 Si02
#       7
#     2   2   2   2   2   2   2
#     4  11  25  44  73 107 155 191 243 312 377 446
#     4  11  26  49  74 109 150 204 241 313 394 433
#     4  11  24  45  74 112 142 192 257 304 369 456
#     4  12  23  42  72 106 145 188 252 299 363 453
#     4  12  27  48  77 108 151 196 256 313 384 456
#     4  11  24  43  72 107 145 196 246 309 371 444
#     4  10  23  46  76 107 146 197 251 310 373 456
#
# _framework density 22.313320000000001
#
# number of rings (size 3 to 8) (size 9 to 14) (size 15 to 20)
#    0.000    0.857    2.857    3.429    4.000    2.286 
#    0.000    4.286    0.000    0.000    0.000    0.000 
#    0.000    0.000    0.000    0.000    0.000    0.000 
#
# Total GULP energy -77974.623817 kJ/mol
# GULP energy per Si atom -5569.615987 kJ/mol
# Density = 2.226253 g / cm^3
# Si number density = 22.313320 Si / 1000 Ang^3
#
#
#
# Elastic Constant Matrix: (Units=GPa)
#
#
# Indices 1 2 3 4 5 6 
#
# 1 157.1509 64.4693 55.6425 0.4472 5.2161 -20.6829
# 2 64.4693 113.7008 66.5636 -7.3775 -0.3092 -22.4720
# 3 55.6425 66.5636 177.9018 -1.1370 12.0387 -4.3011
# 4 0.4472 -7.3775 -1.1370 57.0389 -8.6780 -10.7158
# 5 5.2161 -0.3092 12.0387 -8.6780 35.3610 -1.9185
# 6 -20.6829 -22.4720 -4.3011 -10.7158 -1.9185 45.5384
#
#
#
# Elastic Compliance Matrix: (Units=1/GPa)
#
#
# Indices 1 2 3 4 5 6 
#
# 1 0.008632 -0.003916 -0.001132 -0.000410 -0.000928 0.001746
# 2 -0.003916 0.015126 -0.004495 0.003599 0.003463 0.006254
# 3 -0.001132 -0.004495 0.007792 -0.001328 -0.002983 -0.002435
# 4 -0.000410 0.003599 -0.001328 0.020068 0.005818 0.006432
# 5 -0.000928 0.003463 -0.002983 0.005818 0.031090 0.003684
# 6 0.001746 0.006254 -0.002435 0.006432 0.003684 0.027277
#
#
# Mechanical properties :
#
#
# Convention : Reuss Voigt Hill
#
# Bulk Modulus (GPa) = 80.23353 91.34493 85.78923
# Shear Modulus (GPa) = 37.53040 45.05953 41.29496
#
# Velocity S-wave (km/s) = 4.10564 4.49865 4.30663
# Velocity P-wave (km/s) = 7.64923 8.24682 7.95364
#
# Compressibility (1/GPa) = 0.01246362
#
# Stress axis : x y z
#
# Youngs Moduli (GPa) = 115.84241 66.11293 128.34400
#
# Poissons Ratio (x) = 0.25888 0.14535
# Poissons Ratio (y) = 0.45361 0.57688
# Poissons Ratio (z) = 0.13119 0.29716
#
# Static dielectric constant tensor:
#      x y z
#    x 1.812560 0.001470 0.025390 
#    y 0.001470 1.857320 0.052410 
#    z 0.025390 0.052410 1.928350 
# 
# From -- ./inp_files/390108.got.cif
#   From: 2010.05.17/outbox.cif.g08.bks.cpg/sg2_196_cif.got.tgz:390108.got - 2010.06.03 11:33:40.
