data_PCOD9044019
_publ_section_title
;
Structure prediction by ZEFSAII (Michael W. Deem and Ramdas Pophale) SiO2 
 PCOD9044019
Probable space group: P -1
;
_chemical_formula_sum "Si O2"
_cell_formula_units_Z 16
_cell_length_a 6.859141
_cell_length_b 12.127805
_cell_length_c 26.574802
_cell_angle_alpha 27.433013
_cell_angle_beta 48.871480
_cell_angle_gamma 49.499063
_cell_volume 753.289666
_symmetry_space_group_name_H-M "P -1"
_symmetry_group_IT_number 2
_symmetry_cell_setting 'triclinic'
loop_
_space_group_symop_operation_xyz
x,y,z
-x,-y,-z
loop_
_atom_site_type_symbol
_atom_site_label
_atom_site_fract_x
_atom_site_fract_y
_atom_site_fract_z
Si Si1 0.693779 0.926958 0.366583
Si Si2 0.786069 0.345341 0.021686
Si Si3 0.725621 0.781638 0.529296
Si Si4 0.717746 0.106598 0.025975
Si Si5 0.863074 0.873520 0.249097
Si Si6 0.312233 0.580864 0.547392
Si Si7 0.344158 0.496498 0.859772
Si Si8 0.553359 0.319038 0.785613
O O1 0.818041 0.848836 0.431140
O O2 0.860748 0.828672 0.328119
O O3 0.445996 0.787600 0.465937
O O4 0.625766 0.220802 0.257427
O O5 0.799022 0.190764 0.031752
O O6 0.765517 0.159505 0.145182
O O7 0.500000 0.500000 0.000000
O O8 0.040073 0.471610 0.932463
O O9 0.585825 0.548351 0.652992
O O10 0.004568 0.703438 0.542377
O O11 0.500000 0.000000 0.500000
O O12 0.570554 0.879802 0.142017
O O13 0.539227 0.322271 0.935750
O O14 0.000000 0.000000 0.000000
O O15 0.703099 0.692764 0.320820
O O16 0.149726 0.816746 0.199331
O O17 0.500000 0.500000 0.500000
O O18 0.413262 0.403097 0.828441
#
# Coordination Sequence:
#
# PCOD9044019 Si02
#       8
#     2   2   2   2   2   2   2   2
#     4  11  25  44  72  99 140 184 217 285 351 398
#     4  12  27  44  68 105 137 181 233 279 340 413
#     4  11  24  45  69 103 137 177 234 283 342 412
#     4  12  25  43  72  97 132 188 222 277 352 399
#     4  10  23  46  68  98 139 178 227 288 332 408
#     4   9  23  44  66  99 135 177 228 279 334 406
#     4  12  25  46  67 102 147 170 228 291 336 409
#     4  11  23  45  69  99 139 175 228 290 336 403
#
# _framework density 21.240168000000001
#
# number of rings (size 3 to 8) (size 9 to 14) (size 15 to 20)
#    0.000    1.000    3.750    1.875    3.500   10.000 
#    0.000    0.000    0.000    0.000    0.000    0.000 
#    0.000    0.000    0.000    0.000    0.000    0.000 
#
# Total GULP energy -89156.585326 kJ/mol
# GULP energy per Si atom -5572.286583 kJ/mol
# Density = 2.119182 g / cm^3
# Si number density = 21.240168 Si / 1000 Ang^3
#
#
#
# Elastic Constant Matrix: (Units=GPa)
#
#
# Indices 1 2 3 4 5 6 
#
# 1 43.8603 3.0241 30.6129 2.3965 -11.8115 -4.9617
# 2 3.0241 61.6466 5.3362 0.1046 0.2386 -10.7632
# 3 30.6129 5.3362 116.8103 -14.1683 -11.6699 -13.8252
# 4 2.3965 0.1046 -14.1683 34.6892 5.1056 -0.9594
# 5 -11.8115 0.2386 -11.6699 5.1056 46.8625 5.0895
# 6 -4.9617 -10.7632 -13.8252 -0.9594 5.0895 41.6694
#
#
#
# Elastic Compliance Matrix: (Units=1/GPa)
#
#
# Indices 1 2 3 4 5 6 
#
# 1 0.030587 -0.000846 -0.008136 -0.006382 0.006405 -0.000205
# 2 -0.000846 0.017038 -0.000096 0.000210 -0.000822 0.004374
# 3 -0.008136 -0.000096 0.011709 0.005437 -0.000055 0.003023
# 4 -0.006382 0.000210 0.005437 0.032143 -0.004011 0.002328
# 5 0.006405 -0.000822 -0.000055 -0.004011 0.023647 -0.002448
# 6 -0.000205 0.004374 0.003023 0.002328 -0.002448 0.026459
#
#
# Mechanical properties :
#
#
# Convention : Reuss Voigt Hill
#
# Bulk Modulus (GPa) = 24.28422 33.36263 28.82342
# Shear Modulus (GPa) = 28.82442 36.86714 32.84578
#
# Velocity S-wave (km/s) = 3.68784 4.17073 3.93669
# Velocity P-wave (km/s) = 5.43981 6.23977 5.85347
#
# Compressibility (1/GPa) = 0.04117901
#
# Stress axis : x y z
#
# Youngs Moduli (GPa) = 32.69371 58.69332 85.40290
#
# Poissons Ratio (x) = 0.04965 0.69482
# Poissons Ratio (y) = 0.02766 0.00816
# Poissons Ratio (z) = 0.26599 0.00561
#
# Static dielectric constant tensor:
#      x y z
#    x 1.745770 0.015220 0.056400 
#    y 0.015220 1.725240 -0.032050 
#    z 0.056400 -0.032050 1.826030 
# 
# From -- ./inp_files/615472.got.cif
#   From: 2010.05.17/outbox.cif.g08.bks.cpg/sg2_308_cif.got.tgz:615472.got - 2010.06.03 11:33:40.
