data_PCOD9044445
_publ_section_title
;
Structure prediction by ZEFSAII (Michael W. Deem and Ramdas Pophale) SiO2 
 PCOD9044445
Probable space group: P -1
;
_chemical_formula_sum "Si O2"
_cell_formula_units_Z 16
_cell_length_a 8.389184
_cell_length_b 7.851190
_cell_length_c 15.806647
_cell_angle_alpha 71.931591
_cell_angle_beta 102.799646
_cell_angle_gamma 55.274791
_cell_volume 699.907583
_symmetry_space_group_name_H-M "P -1"
_symmetry_group_IT_number 2
_symmetry_cell_setting 'triclinic'
loop_
_space_group_symop_operation_xyz
x,y,z
-x,-y,-z
loop_
_atom_site_type_symbol
_atom_site_label
_atom_site_fract_x
_atom_site_fract_y
_atom_site_fract_z
Si Si1 0.824795 0.476830 0.451801
Si Si2 0.725824 0.974128 0.152923
Si Si3 0.788334 0.010836 0.349414
Si Si4 0.744201 0.225860 0.959264
Si Si5 0.243817 0.357663 0.089008
Si Si6 0.978739 0.588876 0.777811
Si Si7 0.534234 0.034808 0.592808
Si Si8 0.344374 0.491047 0.754509
O O1 0.752841 0.540656 0.334369
O O2 0.000000 0.500000 0.500000
O O3 0.591622 0.685799 0.441996
O O4 0.973347 0.196132 0.542723
O O5 0.805022 0.975787 0.255135
O O6 0.466447 0.102573 0.113792
O O7 0.708553 0.139556 0.053849
O O8 0.901713 0.688727 0.188789
O O9 0.607481 0.002337 0.362662
O O10 0.686622 0.281733 0.311102
O O11 0.708790 0.465303 0.931280
O O12 0.592607 0.278432 0.853561
O O13 0.000000 0.000000 0.000000
O O14 0.189646 0.323072 0.179680
O O15 0.000000 0.500000 0.000000
O O16 0.802779 0.824708 0.661968
O O17 0.190717 0.561164 0.807867
O O18 0.500000 0.000000 0.500000
#
# Coordination Sequence:
#
# PCOD9044445 Si02
#       8
#     2   2   2   2   2   2   2   2
#     4  10  23  46  75 105 145 192 242 309 368 440
#     4  12  25  48  76 105 157 193 250 304 371 440
#     4  11  23  46  74 106 149 193 243 314 372 433
#     4  12  27  49  73 110 149 199 247 310 365 438
#     4  12  27  46  72 103 145 193 253 300 369 441
#     4  12  25  43  69 111 141 198 241 299 367 439
#     4  11  22  45  73 104 145 188 250 301 368 447
#     4  12  26  46  74 109 154 191 252 310 367 439
#
# _framework density 22.860163
#
# number of rings (size 3 to 8) (size 9 to 14) (size 15 to 20)
#    0.000    0.500    3.750    5.250    3.500    1.000 
#    0.000    1.250    0.000    0.000    0.000    0.000 
#    0.000    0.000    0.000    0.000    0.000    0.000 
#
# Total GULP energy -89284.335039 kJ/mol
# GULP energy per Si atom -5580.270940 kJ/mol
# Density = 2.280813 g / cm^3
# Si number density = 22.860163 Si / 1000 Ang^3
#
#
#
# Elastic Constant Matrix: (Units=GPa)
#
#
# Indices 1 2 3 4 5 6 
#
# 1 65.4733 36.1012 46.7773 -5.8091 18.7435 -19.9038
# 2 36.1012 11.9773 16.1038 -5.5716 3.1334 -19.7358
# 3 46.7773 16.1038 148.1080 -3.3918 15.8247 -12.4852
# 4 -5.8091 -5.5716 -3.3918 36.0779 -11.0627 2.1295
# 5 18.7435 3.1334 15.8247 -11.0627 30.9909 -3.2646
# 6 -19.9038 -19.7358 -12.4852 2.1295 -3.2646 41.4554
#
#
#
# Elastic Compliance Matrix: (Units=1/GPa)
#
#
# Indices 1 2 3 4 5 6 
#
# 1 -0.002594 0.046599 -0.002690 0.006118 0.002523 0.020013
# 2 0.046599 -0.076202 -0.005616 -0.010940 -0.023293 -0.016868
# 3 -0.002690 -0.005616 0.008334 -0.001242 -0.002673 -0.001602
# 4 0.006118 -0.010940 -0.001242 0.029633 0.008248 -0.003517
# 5 0.002523 -0.023293 -0.002673 0.008248 0.036539 -0.008229
# 6 0.020013 -0.016868 -0.001602 -0.003517 -0.008229 0.024751
#
#
# Mechanical properties :
#
#
# Convention : Reuss Voigt Hill
#
# Bulk Modulus (GPa) = 163.28074 47.05813 105.16944
# Shear Modulus (GPa) = -92.44882 30.14328 -31.15277
#
# Velocity S-wave (km/s) = -6.36622 3.63518 -3.69555
# Velocity P-wave (km/s) = 4.18838 6.18460 5.28166
#
# Compressibility (1/GPa) = 0.00612442
#
# Stress axis : x y z
#
# Youngs Moduli (GPa) = -385.45161 -13.12305 119.98939
#
# Poissons Ratio (x) = 0.61152 0.32274
# Poissons Ratio (y) = 17.96149 0.67381
# Poissons Ratio (z) = -1.03675 -0.07369
#
# Static dielectric constant tensor:
#      x y z
#    x 1.950550 -0.097530 0.133120 
#    y -0.097530 2.073520 -0.267220 
#    z 0.133120 -0.267220 2.498900 
# 
# From -- ./inp_files/494684.got.cif
#   From: 2010.05.17/outbox.cif.g08.bks.cpg/sg2_248_cif.got.tgz:494684.got - 2010.06.03 11:33:40.
