data_PCOD9044898
_publ_section_title
;
Structure prediction by ZEFSAII (Michael W. Deem and Ramdas Pophale) SiO2 
 PCOD9044898
Probable space group: P -1
;
_chemical_formula_sum "Si O2"
_cell_formula_units_Z 14
_cell_length_a 20.130386
_cell_length_b 20.412109
_cell_length_c 6.274096
_cell_angle_alpha 45.157886
_cell_angle_beta 54.851122
_cell_angle_gamma 20.603116
_cell_volume 605.376693
_symmetry_space_group_name_H-M "P -1"
_symmetry_group_IT_number 2
_symmetry_cell_setting 'triclinic'
loop_
_space_group_symop_operation_xyz
x,y,z
-x,-y,-z
loop_
_atom_site_type_symbol
_atom_site_label
_atom_site_fract_x
_atom_site_fract_y
_atom_site_fract_z
Si Si1 0.343338 0.467802 0.204814
Si Si2 0.424877 0.514371 0.302065
Si Si3 0.561935 0.834668 0.847273
Si Si4 0.704293 0.971454 0.792908
Si Si5 0.216742 0.779350 0.485189
Si Si6 0.826140 0.649426 0.134403
Si Si7 0.112392 0.566448 0.157529
O O1 0.339443 0.512602 0.348509
O O2 0.551955 0.195434 0.436645
O O3 0.161575 0.591495 0.185682
O O4 0.326156 0.571723 0.838996
O O5 0.251284 0.737039 0.263570
O O6 0.636878 0.289302 0.553617
O O7 0.500000 0.500000 0.000000
O O8 0.695080 0.646501 0.858545
O O9 0.500000 0.000000 0.500000
O O10 0.380078 0.961159 0.969144
O O11 0.687685 0.724741 0.081735
O O12 0.716968 0.857130 0.925618
O O13 0.925040 0.780875 0.860425
O O14 0.000000 0.000000 0.500000
O O15 0.909322 0.508350 0.507747
O O16 0.000000 0.500000 0.000000
#
# Coordination Sequence:
#
# PCOD9044898 Si02
#       7
#     2   2   2   2   2   2   2
#     4  11  26  43  70 110 141 176 233 293 350 423
#     4   9  22  48  72 108 142 176 229 282 351 436
#     4  12  23  42  69  92 137 187 242 294 340 415
#     4  12  25  45  66  99 143 185 235 297 350 403
#     4  10  23  47  79 106 139 186 229 280 359 439
#     4  12  23  45  66  94 135 193 246 284 345 412
#     4  12  26  45  65 103 138 186 239 288 354 407
#
# _framework density 23.126094999999999
#
# number of rings (size 3 to 8) (size 9 to 14) (size 15 to 20)
#    0.000    0.857    4.286    2.571    4.000    2.286 
#    0.000    7.143    0.000    0.000    0.000    0.000 
#    0.000    0.000    0.000    0.000    0.000    0.000 
#
# Total GULP energy -78201.433058 kJ/mol
# GULP energy per Si atom -5585.816647 kJ/mol
# Density = 2.307346 g / cm^3
# Si number density = 23.126095 Si / 1000 Ang^3
#
#
#
# Elastic Constant Matrix: (Units=GPa)
#
#
# Indices 1 2 3 4 5 6 
#
# 1 127.9537 11.7467 -9.9183 -1.9175 20.9930 10.7432
# 2 11.7467 144.6721 5.9172 22.1604 3.6617 15.7463
# 3 -9.9183 5.9172 80.3756 -6.7633 -9.9389 10.8380
# 4 -1.9175 22.1604 -6.7633 29.3255 -1.3111 8.1929
# 5 20.9930 3.6617 -9.9389 -1.3111 28.8008 2.8755
# 6 10.7432 15.7463 10.8380 8.1929 2.8755 18.5468
#
#
#
# Elastic Compliance Matrix: (Units=1/GPa)
#
#
# Indices 1 2 3 4 5 6 
#
# 1 0.009475 -0.000433 0.001642 0.002897 -0.005503 -0.006507
# 2 -0.000433 0.008238 -0.000700 -0.005384 -0.000837 -0.003826
# 3 0.001642 -0.000700 0.016195 0.008754 0.006344 -0.014671
# 4 0.002897 -0.005384 0.008754 0.047388 0.006158 -0.024111
# 5 -0.005503 -0.000837 0.006344 0.006158 0.042215 -0.009074
# 6 -0.006507 -0.003826 -0.014671 -0.024111 -0.009074 0.081566
#
#
# Mechanical properties :
#
#
# Convention : Reuss Voigt Hill
#
# Bulk Modulus (GPa) = 28.63241 40.94362 34.78802
# Shear Modulus (GPa) = 23.18022 38.35167 30.76595
#
# Velocity S-wave (km/s) = 3.16941 4.07673 3.65136
# Velocity P-wave (km/s) = 5.07951 6.31685 5.73167
#
# Compressibility (1/GPa) = 0.03492546
#
# Stress axis : x y z
#
# Youngs Moduli (GPa) = 105.54145 121.38475 61.74718
#
# Poissons Ratio (x) = 0.05253 -0.10137
# Poissons Ratio (y) = 0.04567 0.04325
# Poissons Ratio (z) = -0.17327 0.08502
#
# Static dielectric constant tensor:
#      x y z
#    x 1.949180 -0.024430 0.003800 
#    y -0.024430 1.940040 0.028620 
#    z 0.003800 0.028620 1.919640 
# 
# From -- ./inp_files/120346.got.cif
#   From: 2010.05.17/outbox.cif.g08.bks.cpg/sg2_61_cif.got.tgz:120346.got - 2010.06.03 11:33:40.
