data_PCOD9044218
_publ_section_title
;
Structure prediction by ZEFSAII (Michael W. Deem and Ramdas Pophale) SiO2 
 PCOD9044218
Probable space group: P -1
;
_chemical_formula_sum "Si O2"
_cell_formula_units_Z 16
_cell_length_a 19.882970
_cell_length_b 9.778153
_cell_length_c 5.358068
_cell_angle_alpha 111.086944
_cell_angle_beta 71.268097
_cell_angle_gamma 137.210961
_cell_volume 657.561736
_symmetry_space_group_name_H-M "P -1"
_symmetry_group_IT_number 2
_symmetry_cell_setting 'triclinic'
loop_
_space_group_symop_operation_xyz
x,y,z
-x,-y,-z
loop_
_atom_site_type_symbol
_atom_site_label
_atom_site_fract_x
_atom_site_fract_y
_atom_site_fract_z
Si Si1 0.754337 0.498969 0.395628
Si Si2 0.020924 0.438973 0.177484
Si Si3 0.598645 0.067687 0.026815
Si Si4 0.342978 0.367831 0.589875
Si Si5 0.219173 0.709347 0.375249
Si Si6 0.164690 0.961725 0.730107
Si Si7 0.465356 0.326361 0.118591
Si Si8 0.062794 0.068885 0.716804
O O1 0.698567 0.576359 0.526251
O O2 0.793207 0.452949 0.544123
O O3 0.847726 0.685163 0.241208
O O4 0.668590 0.275948 0.233436
O O5 0.137220 0.576037 0.165413
O O6 0.000000 0.500000 0.500000
O O7 0.935461 0.192555 0.088785
O O8 0.000000 0.500000 0.000000
O O9 0.669486 0.128935 0.752010
O O10 0.569820 0.878363 0.083262
O O11 0.500000 0.000000 0.000000
O O12 0.375905 0.269027 0.343545
O O13 0.441785 0.569244 0.739230
O O14 0.262670 0.204014 0.790159
O O15 0.199346 0.842898 0.599305
O O16 0.112541 0.977690 0.577074
O O17 0.500000 0.500000 0.000000
O O18 0.000000 0.000000 0.500000
O O19 0.000000 0.000000 0.000000
#
# Coordination Sequence:
#
# PCOD9044218 Si02
#       8
#     2   2   2   2   2   2   2   2
#     4  11  27  45  75 108 155 200 264 323 410 465
#     4  10  24  43  72 109 149 191 246 313 384 465
#     4  12  27  47  73 111 151 203 266 336 404 467
#     4  10  23  48  65 104 144 198 255 325 388 483
#     4  11  26  45  74 108 153 199 258 326 395 478
#     4  10  23  46  71 106 146 200 251 313 390 468
#     4  11  25  44  74  99 145 196 266 320 404 464
#     4  11  27  51  78 113 160 209 260 322 397 479
#
# _framework density 24.332315000000001
#
# number of rings (size 3 to 8) (size 9 to 14) (size 15 to 20)
#    0.000    1.250    2.500    0.750   10.500    2.500 
#    6.750    0.000    0.000    0.000    0.000    0.000 
#    0.000    0.000    0.000    0.000    0.000    0.000 
#
# Total GULP energy -89233.689736 kJ/mol
# GULP energy per Si atom -5577.105609 kJ/mol
# Density = 2.427693 g / cm^3
# Si number density = 24.332315 Si / 1000 Ang^3
#
#
#
# Elastic Constant Matrix: (Units=GPa)
#
#
# Indices 1 2 3 4 5 6 
#
# 1 176.1937 76.4736 43.7233 -2.0956 23.4274 -3.6785
# 2 76.4736 174.5607 26.5002 -10.2952 5.2047 -15.9678
# 3 43.7233 26.5002 67.1765 -2.5795 19.8321 -0.1444
# 4 -2.0956 -10.2952 -2.5795 30.0065 -7.8580 7.1801
# 5 23.4274 5.2047 19.8321 -7.8580 28.6129 -7.8448
# 6 -3.6785 -15.9678 -0.1444 7.1801 -7.8448 46.9452
#
#
#
# Elastic Compliance Matrix: (Units=1/GPa)
#
#
# Indices 1 2 3 4 5 6 
#
# 1 0.008453 -0.003346 -0.002706 -0.001910 -0.005255 -0.001070
# 2 -0.003346 0.007781 -0.002023 0.002726 0.004205 0.002664
# 3 -0.002706 -0.002023 0.021355 -0.001916 -0.013511 -0.002799
# 4 -0.001910 0.002726 -0.001916 0.037815 0.011955 -0.003014
# 5 -0.005255 0.004205 -0.013511 0.011955 0.053346 0.008063
# 6 -0.001070 0.002664 -0.002799 -0.003014 0.008063 0.023923
#
#
# Mechanical properties :
#
#
# Convention : Reuss Voigt Hill
#
# Bulk Modulus (GPa) = 46.64480 79.03612 62.84046
# Shear Modulus (GPa) = 28.41410 39.19517 33.80463
#
# Velocity S-wave (km/s) = 3.42095 4.01787 3.73136
# Velocity P-wave (km/s) = 5.90045 7.35369 6.66679
#
# Compressibility (1/GPa) = 0.02143862
#
# Stress axis : x y z
#
# Youngs Moduli (GPa) = 118.29889 128.52218 46.82826
#
# Poissons Ratio (x) = 0.43008 0.12672
# Poissons Ratio (y) = 0.39587 0.09471
# Poissons Ratio (z) = 0.32013 0.25994
#
# Static dielectric constant tensor:
#      x y z
#    x 2.020940 -0.048940 -0.079390 
#    y -0.048940 1.958280 -0.019220 
#    z -0.079390 -0.019220 1.959650 
# 
# From -- ./inp_files/107198.got.cif
#   From: 2010.05.17/outbox.cif.g08.bks.cpg/sg2_54_cif.got.tgz:107198.got - 2010.06.03 11:33:40.
