data_PCOD9044883
_publ_section_title
;
Structure prediction by ZEFSAII (Michael W. Deem and Ramdas Pophale) SiO2 
 PCOD9044883
Probable space group: P -1
;
_chemical_formula_sum "Si O2"
_cell_formula_units_Z 12
_cell_length_a 12.543281
_cell_length_b 11.649685
_cell_length_c 4.988703
_cell_angle_alpha 114.546030
_cell_angle_beta 74.305588
_cell_angle_gamma 136.728275
_cell_volume 453.927714
_symmetry_space_group_name_H-M "P -1"
_symmetry_group_IT_number 2
_symmetry_cell_setting 'triclinic'
loop_
_space_group_symop_operation_xyz
x,y,z
-x,-y,-z
loop_
_atom_site_type_symbol
_atom_site_label
_atom_site_fract_x
_atom_site_fract_y
_atom_site_fract_z
Si Si1 0.615236 0.085833 0.751754
Si Si2 0.774047 0.073246 0.234117
Si Si3 0.291353 0.351985 0.764974
Si Si4 0.756318 0.346405 0.291066
Si Si5 0.894031 0.716251 0.666811
Si Si6 0.535231 0.732632 0.685840
O O1 0.722167 0.055685 0.560671
O O2 0.500000 0.000000 0.500000
O O3 0.730333 0.294667 0.940954
O O4 0.500000 0.000000 0.000000
O O5 0.790689 0.232939 0.268971
O O6 0.934300 0.126722 0.184064
O O7 0.646482 0.898605 0.974415
O O8 0.148575 0.257586 0.563393
O O9 0.424037 0.555794 0.774188
O O10 0.366927 0.277482 0.587129
O O11 0.231455 0.333076 0.083004
O O12 0.878355 0.551857 0.475104
O O13 0.591764 0.285514 0.409266
#
# Coordination Sequence:
#
# PCOD9044883 Si02
#       6
#     2   2   2   2   2   2
#     4  12  24  41  65 107 136 177 231 280 350 401
#     4  12  26  45  72 110 142 183 225 295 356 414
#     4  10  26  51  70 104 132 198 232 286 343 403
#     4  11  24  45  71 107 140 185 224 291 351 415
#     4  11  28  47  71 100 150 182 233 280 355 423
#     4  10  23  47  78 100 141 179 248 290 331 416
#
# _framework density 26.435922999999999
#
# number of rings (size 3 to 8) (size 9 to 14) (size 15 to 20)
#    0.000    1.000    3.333    1.000    9.333    8.000 
#    3.000    0.000    0.000    0.000    0.000    0.000 
#    0.000    0.000    0.000    0.000    0.000    0.000 
#
# Total GULP energy -67124.249931 kJ/mol
# GULP energy per Si atom -5593.687494 kJ/mol
# Density = 2.637575 g / cm^3
# Si number density = 26.435923 Si / 1000 Ang^3
#
#
#
# Elastic Constant Matrix: (Units=GPa)
#
#
# Indices 1 2 3 4 5 6 
#
# 1 114.7234 23.4339 17.6475 23.6031 -2.1137 8.4680
# 2 23.4339 40.4689 22.7325 9.8746 -0.4947 6.7767
# 3 17.6475 22.7325 154.2030 -7.0243 -4.0369 -0.0377
# 4 23.6031 9.8746 -7.0243 40.4795 2.3598 2.4667
# 5 -2.1137 -0.4947 -4.0369 2.3598 49.1486 6.4875
# 6 8.4680 6.7767 -0.0377 2.4667 6.4875 48.2505
#
#
#
# Elastic Compliance Matrix: (Units=1/GPa)
#
#
# Indices 1 2 3 4 5 6 
#
# 1 0.010952 -0.004339 -0.000842 -0.005449 0.000770 -0.001138
# 2 -0.004339 0.031711 -0.004430 -0.005792 0.000505 -0.003467
# 3 -0.000842 -0.004430 0.007370 0.002796 0.000312 0.000591
# 4 -0.005449 -0.005792 0.002796 0.029842 -0.001556 0.000456
# 5 0.000770 0.000505 0.000312 -0.001556 0.020872 -0.002933
# 6 -0.001138 -0.003467 0.000591 0.000456 -0.002933 0.021783
#
#
# Mechanical properties :
#
#
# Convention : Reuss Voigt Hill
#
# Bulk Modulus (GPa) = 32.45553 48.55812 40.50682
# Shear Modulus (GPa) = 32.88967 43.94781 38.41874
#
# Velocity S-wave (km/s) = 3.53105 4.08171 3.81632
# Velocity P-wave (km/s) = 5.37848 6.37353 5.89703
#
# Compressibility (1/GPa) = 0.03081139
#
# Stress axis : x y z
#
# Youngs Moduli (GPa) = 91.30968 31.53433 135.68413
#
# Poissons Ratio (x) = 0.13683 0.11425
# Poissons Ratio (y) = 0.39620 0.60105
# Poissons Ratio (z) = 0.07688 0.13969
#
# Static dielectric constant tensor:
#      x y z
#    x 2.154750 -0.114870 0.021840 
#    y -0.114870 2.372140 -0.008400 
#    z 0.021840 -0.008400 2.071460 
# 
# From -- ./inp_files/96696.got.cif
#   From: 2010.05.17/outbox.cif.g08.bks.cpg/sg2_49_cif.got.tgz:96696.got - 2010.06.03 11:33:40.
