data_PCOD9044984
_publ_section_title
;
Structure prediction by ZEFSAII (Michael W. Deem and Ramdas Pophale) SiO2 
 PCOD9044984
Probable space group: P -1
;
_chemical_formula_sum "Si O2"
_cell_formula_units_Z 10
_cell_length_a 11.380561
_cell_length_b 12.656991
_cell_length_c 18.853317
_cell_angle_alpha 160.991119
_cell_angle_beta 151.962958
_cell_angle_gamma 38.804968
_cell_volume 387.778686
_symmetry_space_group_name_H-M "P -1"
_symmetry_group_IT_number 2
_symmetry_cell_setting 'triclinic'
loop_
_space_group_symop_operation_xyz
x,y,z
-x,-y,-z
loop_
_atom_site_type_symbol
_atom_site_label
_atom_site_fract_x
_atom_site_fract_y
_atom_site_fract_z
Si Si1 0.504137 0.107567 0.753306
Si Si2 0.180647 0.833778 0.707217
Si Si3 0.846255 0.043793 0.015078
Si Si4 0.074592 0.144409 0.710691
Si Si5 0.105321 0.824125 0.122402
O O1 0.690143 0.041791 0.749780
O O2 0.212211 0.854729 0.416755
O O3 0.500000 0.500000 0.000000
O O4 0.581431 0.054512 0.842136
O O5 0.028579 0.425703 0.383293
O O6 0.164057 0.912570 0.664827
O O7 0.988184 0.997185 0.749381
O O8 0.500000 0.000000 0.000000
O O9 0.835088 0.758670 0.887143
O O10 0.000000 0.000000 0.000000
O O11 0.000000 0.000000 0.500000
O O12 0.232059 0.551678 0.048199
#
# Coordination Sequence:
#
# PCOD9044984 Si02
#       5
#     2   2   2   2   2
#     4  11  22  46  76 102 143 189 250 287 347 440
#     4  12  28  47  70 112 150 183 239 304 365 417
#     4  10  23  48  71 103 140 196 239 285 356 431
#     4  12  25  48  75 106 141 196 243 290 356 435
#     4  11  26  44  72 106 145 188 233 304 360 410
#
# _framework density 25.787906
#
# number of rings (size 3 to 8) (size 9 to 14) (size 15 to 20)
#    0.000    0.800    4.000    2.400    8.400    1.600 
#    3.600    0.000    0.000    0.000    0.000    0.000 
#    0.000    0.000    0.000    0.000    0.000    0.000 
#
# Total GULP energy -55694.113405 kJ/mol
# GULP energy per Si atom -5569.411341 kJ/mol
# Density = 2.572921 g / cm^3
# Si number density = 25.787906 Si / 1000 Ang^3
#
#
#
# Elastic Constant Matrix: (Units=GPa)
#
#
# Indices 1 2 3 4 5 6 
#
# 1 132.8828 9.7602 13.4145 0.2957 -32.1325 -4.1003
# 2 9.7602 118.1533 5.1467 -9.1793 -2.7116 25.8083
# 3 13.4145 5.1467 59.6166 0.7573 -3.7440 -4.2582
# 4 0.2957 -9.1793 0.7573 45.9574 -11.0173 -5.9008
# 5 -32.1325 -2.7116 -3.7440 -11.0173 36.6976 2.9354
# 6 -4.1003 25.8083 -4.2582 -5.9008 2.9354 49.2073
#
#
#
# Elastic Compliance Matrix: (Units=1/GPa)
#
#
# Indices 1 2 3 4 5 6 
#
# 1 0.009938 -0.000526 -0.001599 0.002122 0.009082 0.000678
# 2 -0.000526 0.009827 -0.001053 0.001570 0.001042 -0.005163
# 3 -0.001599 -0.001053 0.017367 -0.000225 0.000075 0.001891
# 4 0.002122 0.001570 -0.000225 0.024481 0.009163 0.001723
# 5 0.009082 0.001042 0.000075 0.009163 0.038114 -0.000958
# 6 0.000678 -0.005163 0.001891 0.001723 -0.000958 0.023514
#
#
# Mechanical properties :
#
#
# Convention : Reuss Voigt Hill
#
# Bulk Modulus (GPa) = 32.49371 40.81061 36.65216
# Shear Modulus (GPa) = 35.75121 45.19455 40.47288
#
# Velocity S-wave (km/s) = 3.72742 4.19089 3.96593
# Velocity P-wave (km/s) = 5.58145 6.26721 5.93424
#
# Compressibility (1/GPa) = 0.03077519
#
# Stress axis : x y z
#
# Youngs Moduli (GPa) = 100.62477 101.76524 57.57998
#
# Poissons Ratio (x) = 0.05355 0.09206
# Poissons Ratio (y) = 0.05295 0.06064
# Poissons Ratio (z) = 0.16088 0.10718
#
# Static dielectric constant tensor:
#      x y z
#    x 2.094430 -0.002190 0.147450 
#    y -0.002190 2.245840 0.065050 
#    z 0.147450 0.065050 2.328890 
# 
# From -- ./inp_files/36276.got.cif
#   From: 2010.05.17/outbox.cif.g08.bks.cpg/sg2_19_cif.got.tgz:36276.got - 2010.06.03 11:33:40.
