data_PCOD9044621
_publ_section_title
;
Structure prediction by ZEFSAII (Michael W. Deem and Ramdas Pophale) SiO2 
 PCOD9044621
Probable space group: P -1
;
_chemical_formula_sum "Si O2"
_cell_formula_units_Z 10
_cell_length_a 9.403343
_cell_length_b 7.553893
_cell_length_c 10.103506
_cell_angle_alpha 35.239405
_cell_angle_beta 81.060315
_cell_angle_gamma 65.393137
_cell_volume 352.382407
_symmetry_space_group_name_H-M "P -1"
_symmetry_group_IT_number 2
_symmetry_cell_setting 'triclinic'
loop_
_space_group_symop_operation_xyz
x,y,z
-x,-y,-z
loop_
_atom_site_type_symbol
_atom_site_label
_atom_site_fract_x
_atom_site_fract_y
_atom_site_fract_z
Si Si1 0.099202 0.185362 0.508417
Si Si2 0.800570 0.277869 0.752485
Si Si3 0.899488 0.414356 0.962203
Si Si4 0.464072 0.668248 0.050417
Si Si5 0.299064 0.496522 0.635178
O O1 0.139373 0.436846 0.440426
O O2 0.901293 0.340153 0.413746
O O3 0.160363 0.816325 0.803149
O O4 0.180912 0.228282 0.333988
O O5 0.685214 0.368898 0.840723
O O6 0.699748 0.293014 0.625047
O O7 0.959550 0.887338 0.967777
O O8 0.000000 0.500000 0.000000
O O9 0.608444 0.513912 0.236659
O O10 0.500000 0.500000 0.000000
O O11 0.392130 0.090290 0.814820
#
# Coordination Sequence:
#
# PCOD9044621 Si02
#       5
#     2   2   2   2   2
#     4  11  24  45  76 109 150 190 245 310 378 444
#     4  11  24  46  74 104 152 192 246 311 372 447
#     4  11  23  42  69 114 150 190 240 310 380 443
#     4  11  25  46  73 101 147 201 253 301 371 446
#     4  10  23  47  69 106 147 194 247 309 372 446
#
# _framework density 28.378260999999998
#
# number of rings (size 3 to 8) (size 9 to 14) (size 15 to 20)
#    0.000    1.200    2.000    4.200    2.800    2.400 
#    7.200    0.000    0.000    0.000    0.000    0.000 
#    0.000    0.000    0.000    0.000    0.000    0.000 
#
# Total GULP energy -55902.875053 kJ/mol
# GULP energy per Si atom -5590.287505 kJ/mol
# Density = 2.831367 g / cm^3
# Si number density = 28.378261 Si / 1000 Ang^3
#
#
#
# Elastic Constant Matrix: (Units=GPa)
#
#
# Indices 1 2 3 4 5 6 
#
# 1 125.4032 60.0828 61.9468 -4.4068 -1.0423 1.4862
# 2 60.0828 229.2793 69.4517 31.5906 -2.6034 8.9365
# 3 61.9468 69.4517 221.3338 17.1597 -2.0274 -0.1688
# 4 -4.4068 31.5906 17.1597 61.0863 -0.8292 -3.6931
# 5 -1.0423 -2.6034 -2.0274 -0.8292 68.0542 8.1113
# 6 1.4862 8.9365 -0.1688 -3.6931 8.1113 48.6399
#
#
#
# Elastic Compliance Matrix: (Units=1/GPa)
#
#
# Indices 1 2 3 4 5 6 
#
# 1 0.010372 -0.002382 -0.002362 0.002662 -0.000008 0.000316
# 2 -0.002382 0.005715 -0.000897 -0.002947 0.000268 -0.001249
# 3 -0.002362 -0.000897 0.005559 -0.001258 0.000062 0.000150
# 4 0.002662 -0.002947 -0.001258 0.018552 -0.000108 0.001882
# 5 -0.000008 0.000268 0.000062 -0.000108 0.015010 -0.002560
# 6 0.000316 -0.001249 0.000150 0.001882 -0.002560 0.021349
#
#
# Mechanical properties :
#
#
# Convention : Reuss Voigt Hill
#
# Bulk Modulus (GPa) = 96.47714 106.55322 101.51518
# Shear Modulus (GPa) = 54.76885 61.19175 57.98030
#
# Velocity S-wave (km/s) = 4.39789 4.64862 4.52500
# Velocity P-wave (km/s) = 7.73688 8.15119 7.94674
#
# Compressibility (1/GPa) = 0.01036515
#
# Stress axis : x y z
#
# Youngs Moduli (GPa) = 96.41505 174.97579 179.89937
#
# Poissons Ratio (x) = 0.41675 0.42487
# Poissons Ratio (y) = 0.22964 0.16132
# Poissons Ratio (z) = 0.22771 0.15690
#
# Static dielectric constant tensor:
#      x y z
#    x 2.290200 0.051850 0.009990 
#    y 0.051850 2.286650 0.029220 
#    z 0.009990 0.029220 2.208220 
# 
# From -- ./inp_files/373275.got.cif
#   From: 2010.05.17/outbox.cif.g08.bks.cpg/sg2_187_cif.got.tgz:373275.got - 2010.06.03 11:33:40.
