data_PCOD9044075
_publ_section_title
;
Structure prediction by ZEFSAII (Michael W. Deem and Ramdas Pophale) SiO2 
 PCOD9044075
Probable space group: P -1
;
_chemical_formula_sum "Si O2"
_cell_formula_units_Z 14
_cell_length_a 13.179900
_cell_length_b 22.535525
_cell_length_c 12.112101
_cell_angle_alpha 21.852897
_cell_angle_beta 145.020296
_cell_angle_gamma 152.703536
_cell_volume 613.781099
_symmetry_space_group_name_H-M "P -1"
_symmetry_group_IT_number 2
_symmetry_cell_setting 'triclinic'
loop_
_space_group_symop_operation_xyz
x,y,z
-x,-y,-z
loop_
_atom_site_type_symbol
_atom_site_label
_atom_site_fract_x
_atom_site_fract_y
_atom_site_fract_z
Si Si1 0.687222 0.986876 0.245297
Si Si2 0.308050 0.942190 0.615940
Si Si3 0.342683 0.637669 0.862716
Si Si4 0.820969 0.672571 0.561783
Si Si5 0.368730 0.611948 0.306797
Si Si6 0.093072 0.422076 0.801661
Si Si7 0.441191 0.559845 0.694256
O O1 0.667728 0.976378 0.378425
O O2 0.647091 0.788260 0.506898
O O3 0.919374 0.189635 0.070855
O O4 0.500000 0.000000 0.000000
O O5 0.508105 0.125901 0.407237
O O6 0.068799 0.854125 0.502675
O O7 0.332596 0.766669 0.958080
O O8 0.163546 0.543928 0.767587
O O9 0.235790 0.514119 0.092074
O O10 0.498631 0.577783 0.063335
O O11 0.625566 0.693991 0.377418
O O12 0.782721 0.596118 0.534535
O O13 0.320277 0.581749 0.445869
O O14 0.301450 0.471958 0.832112
O O15 0.000000 0.500000 0.500000
#
# Coordination Sequence:
#
# PCOD9044075 Si02
#       7
#     2   2   2   2   2   2   2
#     4  12  22  39  63  95 133 169 214 260 326 396
#     4  12  22  43  68  97 129 173 218 269 327 386
#     4  11  25  42  62  98 131 163 225 267 317 395
#     4  10  24  47  68  95 130 174 219 272 327 378
#     4  10  23  46  69  93 134 172 219 271 323 390
#     4  12  22  38  63  93 130 171 207 264 326 381
#     4  11  24  42  61  96 133 168 210 269 321 387
#
# _framework density 22.809435000000001
#
# number of rings (size 3 to 8) (size 9 to 14) (size 15 to 20)
#    0.000    0.857    5.714    0.857    0.000    3.429 
#    0.000    7.857    0.000    0.000    0.000    0.000 
#    0.000    0.000    0.000    0.000    0.000    0.000 
#
# Total GULP energy -78356.349956 kJ/mol
# GULP energy per Si atom -5596.882140 kJ/mol
# Density = 2.275752 g / cm^3
# Si number density = 22.809435 Si / 1000 Ang^3
#
#
#
# Elastic Constant Matrix: (Units=GPa)
#
#
# Indices 1 2 3 4 5 6 
#
# 1 51.4898 26.5679 4.6629 -11.1833 -5.4204 -20.5146
# 2 26.5679 151.5862 20.5893 -0.0409 -4.4860 -2.1329
# 3 4.6629 20.5893 64.6554 -7.2632 -1.5337 14.2701
# 4 -11.1833 -0.0409 -7.2632 37.8127 12.8962 0.0902
# 5 -5.4204 -4.4860 -1.5337 12.8962 31.3972 -2.7907
# 6 -20.5146 -2.1329 14.2701 0.0902 -2.7907 34.6701
#
#
#
# Elastic Compliance Matrix: (Units=1/GPa)
#
#
# Indices 1 2 3 4 5 6 
#
# 1 0.032746 -0.004705 -0.004625 0.007529 0.003552 0.021257
# 2 -0.004705 0.007702 -0.002016 -0.002081 0.000920 -0.001401
# 3 -0.004625 -0.002016 0.019156 0.003162 -0.002423 -0.010949
# 4 0.007529 -0.002081 0.003162 0.033515 -0.012437 0.001937
# 5 0.003552 0.000920 -0.002423 -0.012437 0.038141 0.006258
# 6 0.021257 -0.001401 -0.010949 0.001937 0.006258 0.046340
#
#
# Mechanical properties :
#
#
# Convention : Reuss Voigt Hill
#
# Bulk Modulus (GPa) = 27.09082 41.26353 34.17718
# Shear Modulus (GPa) = 23.51869 35.17010 29.34440
#
# Velocity S-wave (km/s) = 3.21455 3.93098 3.59068
# Velocity P-wave (km/s) = 5.06760 6.22361 5.67511
#
# Compressibility (1/GPa) = 0.03691287
#
# Stress axis : x y z
#
# Youngs Moduli (GPa) = 30.53805 129.83094 52.20176
#
# Poissons Ratio (x) = 0.61084 0.24143
# Poissons Ratio (y) = 0.14368 0.10525
# Poissons Ratio (z) = 0.14123 0.26177
#
# Static dielectric constant tensor:
#      x y z
#    x 1.859720 0.062420 0.012190 
#    y 0.062420 2.003690 0.052590 
#    z 0.012190 0.052590 1.828030 
# 
# From -- ./inp_files/535469.got.cif
#   From: 2010.05.17/outbox.cif.g08.bks.cpg/sg2_268_cif.got.tgz:535469.got - 2010.06.03 11:33:40.
