data_PCOD9044935
_publ_section_title
;
Structure prediction by ZEFSAII (Michael W. Deem and Ramdas Pophale) SiO2 
 PCOD9044935
Probable space group: P -1
;
_chemical_formula_sum "Si O2"
_cell_formula_units_Z 15
_cell_length_a 5.511919
_cell_length_b 9.371215
_cell_length_c 14.399073
_cell_angle_alpha 74.663562
_cell_angle_beta 72.540436
_cell_angle_gamma 54.781243
_cell_volume 575.620958
_symmetry_space_group_name_H-M "P -1"
_symmetry_group_IT_number 2
_symmetry_cell_setting 'triclinic'
loop_
_space_group_symop_operation_xyz
x,y,z
-x,-y,-z
loop_
_atom_site_type_symbol
_atom_site_label
_atom_site_fract_x
_atom_site_fract_y
_atom_site_fract_z
Si Si1 0.188597 0.724977 0.567285
Si Si2 0.588467 0.082979 0.235915
Si Si3 0.628031 0.892451 0.097523
Si Si4 0.557834 0.072620 0.573104
Si Si5 0.597742 0.580292 0.091058
Si Si6 0.366315 0.443295 0.292274
Si Si7 0.826577 0.234289 0.049987
Si Si8 0.000000 0.500000 0.500000
O O1 0.448364 0.752877 0.485823
O O2 0.338840 0.625490 0.663245
O O3 0.095543 0.630400 0.520871
O O4 0.900689 0.920883 0.589825
O O5 0.390248 0.268748 0.278665
O O6 0.830408 0.108458 0.149487
O O7 0.461198 0.021167 0.179026
O O8 0.666358 0.932938 0.327283
O O9 0.640393 0.713221 0.123194
O O10 0.967474 0.841585 0.051010
O O11 0.500000 0.000000 0.000000
O O12 0.500000 0.000000 0.500000
O O13 0.377073 0.548138 0.185505
O O14 0.863954 0.379804 0.072017
O O15 0.492600 0.661070 0.985560
O O16 0.099885 0.535515 0.380395
#
# Coordination Sequence:
#
# PCOD9044935 Si02
#       8
#     2   2   2   2   2   2   2   1
#     4  11  24  45  73  95 142 180 237 295 349 427
#     4  11  23  44  71  98 146 179 235 290 359 417
#     4  12  25  44  71 106 140 184 239 298 353 423
#     4  11  23  47  69 104 137 183 235 292 362 417
#     4  10  24  46  71  99 139 184 239 284 359 425
#     4  11  25  47  68 103 138 197 229 292 362 422
#     4  10  23  48  68  99 142 184 230 297 350 426
#     4  12  24  46  68  98 146 176 242 290 348 430
#
# _framework density 26.058814000000002
#
# number of rings (size 3 to 8) (size 9 to 14) (size 15 to 20)
#    0.000    1.067    4.000    1.200    1.867    3.200 
#    7.200    0.000    0.000    0.000    0.000    0.000 
#    0.000    0.000    0.000    0.000    0.000    0.000 
#
# Total GULP energy -83553.378205 kJ/mol
# GULP energy per Si atom -5570.225214 kJ/mol
# Density = 2.599950 g / cm^3
# Si number density = 26.058814 Si / 1000 Ang^3
#
#
#
# Elastic Constant Matrix: (Units=GPa)
#
#
# Indices 1 2 3 4 5 6 
#
# 1 64.3740 30.9453 29.2418 -5.9919 1.8709 30.6107
# 2 30.9453 129.1174 52.2160 11.7458 3.3445 42.2830
# 3 29.2418 52.2160 177.9992 -0.0670 6.1530 17.3489
# 4 -5.9919 11.7458 -0.0670 54.1708 13.5230 3.6708
# 5 1.8709 3.3445 6.1530 13.5230 34.5669 0.2905
# 6 30.6107 42.2830 17.3489 3.6708 0.2905 49.1395
#
#
#
# Elastic Compliance Matrix: (Units=1/GPa)
#
#
# Indices 1 2 3 4 5 6 
#
# 1 0.023955 -0.000574 -0.002326 0.004313 -0.002397 -0.013915
# 2 -0.000574 0.012037 -0.002575 -0.002129 0.000233 -0.008933
# 3 -0.002326 -0.002575 0.006666 0.000474 -0.001008 0.001282
# 4 0.004313 -0.002129 0.000474 0.021719 -0.008587 -0.002593
# 5 -0.002397 0.000233 -0.001008 -0.008587 0.032557 0.002098
# 6 -0.013915 -0.008933 0.001282 -0.002593 0.002098 0.036434
#
#
# Mechanical properties :
#
#
# Convention : Reuss Voigt Hill
#
# Bulk Modulus (GPa) = 31.53854 66.25520 48.89687
# Shear Modulus (GPa) = 32.28185 44.84795 38.56490
#
# Velocity S-wave (km/s) = 3.52349 4.15303 3.85114
# Velocity P-wave (km/s) = 5.35559 6.96256 6.21127
#
# Compressibility (1/GPa) = 0.03170724
#
# Stress axis : x y z
#
# Youngs Moduli (GPa) = 41.74556 83.07883 150.02477
#
# Poissons Ratio (x) = 0.04767 0.34899
# Poissons Ratio (y) = 0.02395 0.38630
# Poissons Ratio (z) = 0.09711 0.21392
#
# Static dielectric constant tensor:
#      x y z
#    x 0.693490 1.089110 -0.015650 
#    y 1.089110 1.169950 -0.059140 
#    z -0.015650 -0.059140 1.940960 
# 
# From -- ./inp_files/480275.got.cif
#   From: 2010.05.17/outbox.cif.g08.bks.cpg/sg2_241_cif.got.tgz:480275.got - 2010.06.03 11:33:40.
