data_PCOD9044962
_publ_section_title
;
Structure prediction by ZEFSAII (Michael W. Deem and Ramdas Pophale) SiO2 
 PCOD9044962
Probable space group: P -1
;
_chemical_formula_sum "Si O2"
_cell_formula_units_Z 16
_cell_length_a 16.145393
_cell_length_b 6.849777
_cell_length_c 8.533269
_cell_angle_alpha 72.818819
_cell_angle_beta 46.723691
_cell_angle_gamma 76.500822
_cell_volume 655.767081
_symmetry_space_group_name_H-M "P -1"
_symmetry_group_IT_number 2
_symmetry_cell_setting 'triclinic'
loop_
_space_group_symop_operation_xyz
x,y,z
-x,-y,-z
loop_
_atom_site_type_symbol
_atom_site_label
_atom_site_fract_x
_atom_site_fract_y
_atom_site_fract_z
Si Si1 0.544404 0.506367 0.620464
Si Si2 0.688945 0.873095 0.261575
Si Si3 0.891805 0.362395 0.208852
Si Si4 0.337881 0.718573 0.972861
Si Si5 0.839146 0.921062 0.348991
Si Si6 0.796832 0.560523 0.994534
Si Si7 0.375877 0.903168 0.217072
Si Si8 0.041328 0.502016 0.620547
O O1 0.500000 0.500000 0.500000
O O2 0.612402 0.714647 0.488470
O O3 0.440763 0.552478 0.862570
O O4 0.601206 0.291183 0.651321
O O5 0.795255 0.892157 0.235525
O O6 0.718708 0.758942 0.085310
O O7 0.643742 0.098524 0.219535
O O8 0.797069 0.434843 0.187806
O O9 0.863494 0.396006 0.420667
O O10 0.908760 0.124440 0.218168
O O11 0.000000 0.500000 0.000000
O O12 0.234238 0.588906 0.070748
O O13 0.334143 0.818239 0.124058
O O14 0.922178 0.733173 0.336002
O O15 0.725514 0.956979 0.599463
O O16 0.925709 0.620948 0.802217
O O17 0.500000 0.000000 0.000000
O O18 0.000000 0.500000 0.500000
#
# Coordination Sequence:
#
# PCOD9044962 Si02
#       8
#     2   2   2   2   2   2   2   2
#     4  12  24  47  76 106 149 193 250 303 368 442
#     4  12  24  45  78 108 144 196 253 304 364 450
#     4  10  23  48  70 104 143 188 250 303 359 435
#     4  12  26  45  75 108 151 190 244 311 374 435
#     4  12  26  47  78 105 146 199 248 301 374 444
#     4  11  24  45  71 107 143 190 245 302 366 437
#     4  12  29  49  73 113 153 197 246 307 380 442
#     4  11  28  44  71 104 150 191 241 304 371 436
#
# _framework density 24.398904999999999
#
# number of rings (size 3 to 8) (size 9 to 14) (size 15 to 20)
#    0.000    0.500    3.750    3.750    3.500    4.500 
#    0.000    0.000    0.000    0.000    0.000    0.000 
#    0.000    0.000    0.000    0.000    0.000    0.000 
#
# Total GULP energy -89249.204903 kJ/mol
# GULP energy per Si atom -5578.075306 kJ/mol
# Density = 2.434337 g / cm^3
# Si number density = 24.398905 Si / 1000 Ang^3
#
#
#
# Elastic Constant Matrix: (Units=GPa)
#
#
# Indices 1 2 3 4 5 6 
#
# 1 111.1075 36.6973 16.3711 -8.0309 32.6820 27.8666
# 2 36.6973 108.5404 -3.6934 -5.3506 -3.4105 11.3419
# 3 16.3711 -3.6934 69.3855 4.3877 -7.4371 11.9172
# 4 -8.0309 -5.3506 4.3877 41.2473 8.0924 0.8435
# 5 32.6820 -3.4105 -7.4371 8.0924 55.8492 10.1894
# 6 27.8666 11.3419 11.9172 0.8435 10.1894 55.4654
#
#
#
# Elastic Compliance Matrix: (Units=1/GPa)
#
#
# Indices 1 2 3 4 5 6 
#
# 1 0.015745 -0.005131 -0.004689 0.004969 -0.010129 -0.004069
# 2 -0.005131 0.011245 0.002488 -0.000628 0.004301 -0.001037
# 3 -0.004689 0.002488 0.017040 -0.003562 0.006211 -0.002901
# 4 0.004969 -0.000628 -0.003562 0.026935 -0.007198 -0.000690
# 5 -0.010129 0.004301 0.006211 -0.007198 0.026302 -0.001847
# 6 -0.004069 -0.001037 -0.002901 -0.000690 -0.001847 0.021258
#
#
# Mechanical properties :
#
#
# Convention : Reuss Voigt Hill
#
# Bulk Modulus (GPa) = 34.05349 43.08704 38.57026
# Shear Modulus (GPa) = 34.96992 46.48960 40.72976
#
# Velocity S-wave (km/s) = 3.78995 4.36982 4.09017
# Velocity P-wave (km/s) = 5.75664 6.56949 6.17645
#
# Compressibility (1/GPa) = 0.02936557
#
# Stress axis : x y z
#
# Youngs Moduli (GPa) = 63.51187 88.92712 58.68465
#
# Poissons Ratio (x) = 0.45630 0.27519
# Poissons Ratio (y) = 0.32589 -0.14600
# Poissons Ratio (z) = 0.29782 -0.22125
#
# Static dielectric constant tensor:
#      x y z
#    x 1.420240 -0.362200 -1.355910 
#    y -0.362200 1.636580 -0.882690 
#    z -1.355910 -0.882690 -0.879420 
# 
# From -- ./inp_files/99800.got.cif
#   From: 2010.05.17/outbox.cif.g08.bks.cpg/sg2_50_cif.got.tgz:99800.got - 2010.06.03 11:33:40.
