data_PCOD9044884
_publ_section_title
;
Structure prediction by ZEFSAII (Michael W. Deem and Ramdas Pophale) SiO2 
 PCOD9044884
Probable space group: P -1
;
_chemical_formula_sum "Si O2"
_cell_formula_units_Z 12
_cell_length_a 9.260537
_cell_length_b 9.458547
_cell_length_c 7.983503
_cell_angle_alpha 68.849851
_cell_angle_beta 63.458689
_cell_angle_gamma 50.196586
_cell_volume 477.753635
_symmetry_space_group_name_H-M "P -1"
_symmetry_group_IT_number 2
_symmetry_cell_setting 'triclinic'
loop_
_space_group_symop_operation_xyz
x,y,z
-x,-y,-z
loop_
_atom_site_type_symbol
_atom_site_label
_atom_site_fract_x
_atom_site_fract_y
_atom_site_fract_z
Si Si1 0.043691 0.624448 0.528768
Si Si2 0.699927 0.218699 0.249983
Si Si3 0.552573 0.148081 0.024518
Si Si4 0.198682 0.486122 0.862942
Si Si5 0.914094 0.085782 0.693660
Si Si6 0.393477 0.990818 0.394834
O O1 0.175349 0.506865 0.667104
O O2 0.000000 0.500000 0.500000
O O3 0.840045 0.297979 0.647143
O O4 0.173926 0.183404 0.407621
O O5 0.764298 0.357547 0.174065
O O6 0.611435 0.185596 0.479091
O O7 0.581451 0.238232 0.137369
O O8 0.908261 0.018565 0.222752
O O9 0.370187 0.309258 0.947114
O O10 0.746175 0.062447 0.847602
O O11 0.482559 0.000864 0.821834
O O12 0.000000 0.500000 0.000000
O O13 0.000000 0.000000 0.500000
O O14 0.500000 0.000000 0.500000
#
# Coordination Sequence:
#
# PCOD9044884 Si02
#       6
#     2   2   2   2   2   2
#     4  11  25  47  70 102 157 197 235 305 373 430
#     4  10  23  47  78 102 154 190 245 311 367 431
#     4  11  24  45  77 112 141 199 245 303 373 440
#     4  12  25  46  72 114 151 188 249 307 362 447
#     4  11  24  48  75 106 148 191 253 307 362 436
#     4   9  21  46  73 109 140 193 247 299 362 443
#
# _framework density 25.117549
#
# number of rings (size 3 to 8) (size 9 to 14) (size 15 to 20)
#    0.000    1.333    3.333    1.000    2.333    3.333 
#    9.000    4.167    0.000    0.000    0.000    0.000 
#    0.000    0.000    0.000    0.000    0.000    0.000 
#
# Total GULP energy -67084.119149 kJ/mol
# GULP energy per Si atom -5590.343262 kJ/mol
# Density = 2.506038 g / cm^3
# Si number density = 25.117549 Si / 1000 Ang^3
#
#
#
# Elastic Constant Matrix: (Units=GPa)
#
#
# Indices 1 2 3 4 5 6 
#
# 1 182.6502 73.8470 74.5868 -23.0568 8.8038 11.7168
# 2 73.8470 117.1221 85.5232 -30.5960 7.3850 31.1576
# 3 74.5868 85.5232 142.3005 -33.8976 -2.9692 3.0481
# 4 -23.0568 -30.5960 -33.8976 40.2917 2.1245 8.0852
# 5 8.8038 7.3850 -2.9692 2.1245 74.6992 -14.1810
# 6 11.7168 31.1576 3.0481 8.0852 -14.1810 73.7432
#
#
#
# Elastic Compliance Matrix: (Units=1/GPa)
#
#
# Indices 1 2 3 4 5 6 
#
# 1 0.007683 -0.003327 -0.001996 0.000200 -0.000638 0.000123
# 2 -0.003327 0.023986 -0.010065 0.010354 -0.004809 -0.011250
# 3 -0.001996 -0.010065 0.014711 0.002623 0.002530 0.004160
# 4 0.000200 0.010354 0.002623 0.037068 -0.003763 -0.009302
# 5 -0.000638 -0.004809 0.002530 -0.003763 0.015162 0.005357
# 6 0.000123 -0.011250 0.004160 -0.009302 0.005357 0.020172
#
#
# Mechanical properties :
#
#
# Convention : Reuss Voigt Hill
#
# Bulk Modulus (GPa) = 64.08322 101.10963 82.59643
# Shear Modulus (GPa) = 32.30812 51.62122 41.96467
#
# Velocity S-wave (km/s) = 3.59036 4.53833 4.09189
# Velocity P-wave (km/s) = 6.53883 8.23431 7.43506
#
# Compressibility (1/GPa) = 0.01560471
#
# Stress axis : x y z
#
# Youngs Moduli (GPa) = 130.15180 41.69106 67.97637
#
# Poissons Ratio (x) = 0.13872 0.13567
# Poissons Ratio (y) = 0.43305 0.68416
# Poissons Ratio (z) = 0.25976 0.41961
#
# Static dielectric constant tensor:
#      x y z
#    x 2.087520 0.069480 -0.087610 
#    y 0.069480 1.995110 0.001300 
#    z -0.087610 0.001300 2.097020 
# 
# From -- ./inp_files/159228.got.cif
#   From: 2010.05.17/outbox.cif.g08.bks.cpg/sg2_80_cif.got.tgz:159228.got - 2010.06.03 11:33:40.
