data_PCOD9044168
_publ_section_title
;
Structure prediction by ZEFSAII (Michael W. Deem and Ramdas Pophale) SiO2 
 PCOD9044168
Probable space group: P -1
;
_chemical_formula_sum "Si O2"
_cell_formula_units_Z 11
_cell_length_a 8.958915
_cell_length_b 12.181640
_cell_length_c 9.624137
_cell_angle_alpha 143.978249
_cell_angle_beta 59.157552
_cell_angle_gamma 139.106506
_cell_volume 390.854821
_symmetry_space_group_name_H-M "P -1"
_symmetry_group_IT_number 2
_symmetry_cell_setting 'triclinic'
loop_
_space_group_symop_operation_xyz
x,y,z
-x,-y,-z
loop_
_atom_site_type_symbol
_atom_site_label
_atom_site_fract_x
_atom_site_fract_y
_atom_site_fract_z
Si Si1 0.500000 0.000000 0.000000
Si Si2 0.234571 0.130963 0.736697
Si Si3 0.370950 0.592585 0.538653
Si Si4 0.982031 0.591759 0.248376
Si Si5 0.734975 0.886652 0.983727
Si Si6 0.253423 0.534597 0.248656
O O1 0.416256 0.109580 0.262013
O O2 0.327237 0.976253 0.931823
O O3 0.466423 0.297865 0.703889
O O4 0.032031 0.848337 0.488686
O O5 0.338831 0.146046 0.853979
O O6 0.153788 0.283405 0.957195
O O7 0.390999 0.384283 0.308554
O O8 0.190420 0.495559 0.399639
O O9 0.257263 0.614723 0.756168
O O10 0.184070 0.659320 0.320553
O O11 0.000000 0.500000 0.000000
O O12 0.000000 0.000000 0.000000
#
# Coordination Sequence:
#
# PCOD9044168 Si02
#       6
#     1   2   2   2   2   2
#     4  12  28  42  74 112 144 188 240 298 368 422
#     4  10  23  46  70  98 139 190 239 297 354 428
#     4  11  26  45  71 106 143 193 243 296 357 437
#     4  12  26  40  69 104 146 183 240 301 359 421
#     4  11  24  48  76 105 145 189 245 298 357 435
#     4  10  24  45  72  97 139 196 240 285 367 430
#
# _framework density 28.143443999999999
#
# number of rings (size 3 to 8) (size 9 to 14) (size 15 to 20)
#    0.000    1.091    1.818    2.727   10.182    0.727 
#    3.273    0.000    0.000    0.000    0.000    0.000 
#    0.000    0.000    0.000    0.000    0.000    0.000 
#
# Total GULP energy -61313.599482 kJ/mol
# GULP energy per Si atom -5573.963589 kJ/mol
# Density = 2.807939 g / cm^3
# Si number density = 28.143444 Si / 1000 Ang^3
#
#
#
# Elastic Constant Matrix: (Units=GPa)
#
#
# Indices 1 2 3 4 5 6 
#
# 1 113.2765 35.5952 22.8455 11.0340 -19.2331 -7.9868
# 2 35.5952 65.7839 34.1736 -14.0495 1.5196 -2.2966
# 3 22.8455 34.1736 243.1309 2.0273 -13.9645 -21.5995
# 4 11.0340 -14.0495 2.0273 50.1762 -8.7195 -4.2189
# 5 -19.2331 1.5196 -13.9645 -8.7195 42.8687 10.9933
# 6 -7.9868 -2.2966 -21.5995 -4.2189 10.9933 39.5004
#
#
#
# Elastic Compliance Matrix: (Units=1/GPa)
#
#
# Indices 1 2 3 4 5 6 
#
# 1 0.012540 -0.007911 0.000294 -0.004070 0.005075 0.000389
# 2 -0.007911 0.022582 -0.002700 0.007532 -0.003717 0.000076
# 3 0.000294 -0.002700 0.004721 -0.000644 0.001093 0.002111
# 4 -0.004070 0.007532 -0.000644 0.023434 0.002165 0.001163
# 5 0.005075 -0.003717 0.001093 0.002165 0.028118 -0.006187
# 6 0.000389 0.000076 0.002111 0.001163 -0.006187 0.028400
#
#
# Mechanical properties :
#
#
# Convention : Reuss Voigt Hill
#
# Bulk Modulus (GPa) = 52.06289 67.49108 59.77699
# Shear Modulus (GPa) = 34.05272 48.48087 41.26680
#
# Velocity S-wave (km/s) = 3.48224 4.15497 3.83339
# Velocity P-wave (km/s) = 5.89128 6.85941 6.39370
#
# Compressibility (1/GPa) = 0.01920754
#
# Stress axis : x y z
#
# Youngs Moduli (GPa) = 79.74465 44.28395 211.83681
#
# Poissons Ratio (x) = 0.35032 -0.06219
# Poissons Ratio (y) = 0.63083 0.57200
# Poissons Ratio (z) = -0.02341 0.11958
#
# Static dielectric constant tensor:
#      x y z
#    x 1.943800 0.492170 0.423660 
#    y 0.492170 -0.332680 -2.419920 
#    z 0.423660 -2.419920 0.626760 
# 
# From -- ./inp_files/183541.got.cif
#   From: 2010.05.17/outbox.cif.g08.bks.cpg/sg2_92_cif.got.tgz:183541.got - 2010.06.03 11:33:40.
