data_PCOD9044419
_publ_section_title
;
Structure prediction by ZEFSAII (Michael W. Deem and Ramdas Pophale) SiO2 
 PCOD9044419
Probable space group: P -1
;
_chemical_formula_sum "Si O2"
_cell_formula_units_Z 13
_cell_length_a 14.861701
_cell_length_b 6.182072
_cell_length_c 13.134031
_cell_angle_alpha 111.496049
_cell_angle_beta 152.042211
_cell_angle_gamma 64.106325
_cell_volume 508.399127
_symmetry_space_group_name_H-M "P -1"
_symmetry_group_IT_number 2
_symmetry_cell_setting 'triclinic'
loop_
_space_group_symop_operation_xyz
x,y,z
-x,-y,-z
loop_
_atom_site_type_symbol
_atom_site_label
_atom_site_fract_x
_atom_site_fract_y
_atom_site_fract_z
Si Si1 0.231481 0.999014 0.731781
Si Si2 0.508584 0.160308 0.637766
Si Si3 0.172375 0.595766 0.308716
Si Si4 0.500000 0.500000 0.000000
Si Si5 0.235250 0.072486 0.519134
Si Si6 0.882678 0.495219 0.271976
Si Si7 0.869414 0.271390 0.935358
O O1 0.294485 0.080941 0.697529
O O2 0.203742 0.238190 0.813855
O O3 0.377801 0.741154 0.853589
O O4 0.000000 0.000000 0.500000
O O5 0.354581 0.414769 0.511985
O O6 0.423840 0.048648 0.630591
O O7 0.717972 0.224715 0.859666
O O8 0.500000 0.000000 0.500000
O O9 0.230060 0.639130 0.257356
O O10 0.138122 0.851732 0.371188
O O11 0.995610 0.464527 0.111741
O O12 0.682438 0.423157 0.085902
O O13 0.059728 0.309477 0.359407
O O14 0.000000 0.500000 0.500000
O O15 0.000000 0.000000 0.000000
#
# Coordination Sequence:
#
# PCOD9044419 Si02
#       7
#     2   2   2   1   2   2   2
#     4  11  24  48  82 107 155 201 252 324 392 459
#     4  12  24  44  73 105 154 205 248 317 391 450
#     4  11  24  43  75 103 147 200 261 318 374 456
#     4  12  22  46  84 108 144 208 250 314 408 444
#     4  11  25  44  76 112 151 205 258 320 391 461
#     4  10  23  46  74 107 152 193 247 320 387 460
#     4  11  23  45  71 103 145 204 257 314 380 449
#
# _framework density 25.570457999999999
#
# number of rings (size 3 to 8) (size 9 to 14) (size 15 to 20)
#    0.000    0.923    6.154    0.923    2.154    0.000 
#    0.000   13.846    0.000    0.000    0.000    0.000 
#    0.000    0.000    0.000    0.000    0.000    0.000 
#
# Total GULP energy -72405.800906 kJ/mol
# GULP energy per Si atom -5569.676993 kJ/mol
# Density = 2.551226 g / cm^3
# Si number density = 25.570458 Si / 1000 Ang^3
#
#
#
# Elastic Constant Matrix: (Units=GPa)
#
#
# Indices 1 2 3 4 5 6 
#
# 1 152.7105 31.4680 34.8354 -2.7916 32.9000 12.0403
# 2 31.4680 115.6475 28.0122 -19.5193 6.9287 -2.3687
# 3 34.8354 28.0122 91.2574 -13.3530 30.6205 -0.5412
# 4 -2.7916 -19.5193 -13.3530 52.7867 14.7440 -1.2789
# 5 32.9000 6.9287 30.6205 14.7440 51.4192 -2.4960
# 6 12.0403 -2.3687 -0.5412 -1.2789 -2.4960 36.3325
#
#
#
# Elastic Compliance Matrix: (Units=1/GPa)
#
#
# Indices 1 2 3 4 5 6 
#
# 1 0.008469 -0.001692 -0.000887 0.000941 -0.005090 -0.003247
# 2 -0.001692 0.010154 -0.002027 0.003163 0.000078 0.001309
# 3 -0.000887 -0.002027 0.016481 0.006390 -0.010811 -0.000110
# 4 0.000941 0.003163 0.006390 0.025144 -0.012041 0.000048
# 5 -0.005090 0.000078 -0.010811 -0.012041 0.032748 0.003357
# 6 -0.003247 0.001309 -0.000110 0.000048 0.003357 0.028915
#
#
# Mechanical properties :
#
#
# Convention : Reuss Voigt Hill
#
# Bulk Modulus (GPa) = 38.62238 60.91629 49.76933
# Shear Modulus (GPa) = 35.77709 45.79433 40.78571
#
# Velocity S-wave (km/s) = 3.74459 4.23650 3.99812
# Velocity P-wave (km/s) = 5.81662 6.91413 6.38899
#
# Compressibility (1/GPa) = 0.02589172
#
# Stress axis : x y z
#
# Youngs Moduli (GPa) = 118.07485 98.48064 60.67731
#
# Poissons Ratio (x) = 0.16667 0.05383
# Poissons Ratio (y) = 0.19983 0.12297
# Poissons Ratio (z) = 0.10475 0.19958
#
# Static dielectric constant tensor:
#      x y z
#    x 2.085750 -0.007220 -0.029090 
#    y -0.007220 2.148630 0.109420 
#    z -0.029090 0.109420 2.047910 
# 
# From -- ./inp_files/525442.got.cif
#   From: 2010.05.17/outbox.cif.g08.bks.cpg/sg2_263_cif.got.tgz:525442.got - 2010.06.03 11:33:40.
