data_PCOD9044410
_publ_section_title
;
Structure prediction by ZEFSAII (Michael W. Deem and Ramdas Pophale) SiO2 
 PCOD9044410
Probable space group: P -1
;
_chemical_formula_sum "Si O2"
_cell_formula_units_Z 11
_cell_length_a 14.081385
_cell_length_b 15.519453
_cell_length_c 12.672393
_cell_angle_alpha 150.191449
_cell_angle_beta 148.631757
_cell_angle_gamma 19.614120
_cell_volume 450.934774
_symmetry_space_group_name_H-M "P -1"
_symmetry_group_IT_number 2
_symmetry_cell_setting 'triclinic'
loop_
_space_group_symop_operation_xyz
x,y,z
-x,-y,-z
loop_
_atom_site_type_symbol
_atom_site_label
_atom_site_fract_x
_atom_site_fract_y
_atom_site_fract_z
Si Si1 0.756736 0.815927 0.131875
Si Si2 0.000000 0.000000 0.500000
Si Si3 0.222073 0.405865 0.493109
Si Si4 0.845681 0.256554 0.056059
Si Si5 0.660245 0.373146 0.783617
Si Si6 0.627691 0.794096 0.217760
O O1 0.635448 0.851025 0.165802
O O2 0.903099 0.894176 0.352047
O O3 0.000000 0.500000 0.000000
O O4 0.500000 0.000000 0.000000
O O5 0.813074 0.246787 0.680513
O O6 0.104759 0.596543 0.685754
O O7 0.425354 0.394770 0.608005
O O8 0.948445 0.563537 0.327359
O O9 0.420636 0.096835 0.388813
O O10 0.500000 0.500000 0.000000
O O11 0.892349 0.191392 0.907072
O O12 0.000000 0.000000 0.000000
O O13 0.536664 0.659751 0.988288
#
# Coordination Sequence:
#
# PCOD9044410 Si02
#       6
#     2   1   2   2   2   2
#     4  12  27  48  69 104 147 190 243 293 351 430
#     4  12  26  46  78 104 144 200 232 296 372 410
#     4  11  25  47  74 104 147 187 235 301 359 417
#     4  10  23  46  74 105 143 187 238 296 353 427
#     4  11  26  46  75 109 144 192 243 293 361 427
#     4  12  26  45  75 109 142 189 241 296 357 432
#
# _framework density 24.39377
#
# number of rings (size 3 to 8) (size 9 to 14) (size 15 to 20)
#    0.000    0.727    3.636    3.273    0.000    8.000 
#    0.000    0.000    0.000    0.000    0.000    0.000 
#    0.000    0.000    0.000    0.000    0.000    0.000 
#
# Total GULP energy -61323.987987 kJ/mol
# GULP energy per Si atom -5574.907999 kJ/mol
# Density = 2.433825 g / cm^3
# Si number density = 24.393770 Si / 1000 Ang^3
#
#
#
# Elastic Constant Matrix: (Units=GPa)
#
#
# Indices 1 2 3 4 5 6 
#
# 1 131.5795 29.8509 21.3206 -6.9601 10.0136 3.5597
# 2 29.8509 179.7778 65.1051 10.4888 23.2803 16.1993
# 3 21.3206 65.1051 114.3746 34.9415 28.6265 2.4276
# 4 -6.9601 10.4888 34.9415 47.9773 23.0114 3.8498
# 5 10.0136 23.2803 28.6265 23.0114 47.3659 9.3183
# 6 3.5597 16.1993 2.4276 3.8498 9.3183 37.2973
#
#
#
# Elastic Compliance Matrix: (Units=1/GPa)
#
#
# Indices 1 2 3 4 5 6 
#
# 1 0.008404 -0.000670 -0.001779 0.003698 -0.002120 -0.000247
# 2 -0.000670 0.007623 -0.004536 0.002496 -0.001519 -0.002830
# 3 -0.001779 -0.004536 0.015057 -0.009229 -0.002552 0.002750
# 4 0.003698 0.002496 -0.009229 0.033673 -0.012559 -0.001174
# 5 -0.002120 -0.001519 -0.002552 -0.012559 0.031018 -0.005425
# 6 -0.000247 -0.002830 0.002750 -0.001174 -0.005425 0.029362
#
#
# Mechanical properties :
#
#
# Convention : Reuss Voigt Hill
#
# Bulk Modulus (GPa) = 58.43702 73.14281 65.78991
# Shear Modulus (GPa) = 34.52786 47.15844 40.84315
#
# Velocity S-wave (km/s) = 3.76631 4.40161 4.09629
# Velocity P-wave (km/s) = 6.55143 7.47539 7.02861
#
# Compressibility (1/GPa) = 0.01711244
#
# Stress axis : x y z
#
# Youngs Moduli (GPa) = 118.99245 131.19050 66.41593
#
# Poissons Ratio (x) = 0.08791 0.11815
# Poissons Ratio (y) = 0.07974 0.30128
# Poissons Ratio (z) = 0.21169 0.59511
#
# Static dielectric constant tensor:
#      x y z
#    x 2.007360 -0.063980 0.005690 
#    y -0.063980 1.879520 0.030470 
#    z 0.005690 0.030470 2.015060 
# 
# From -- ./inp_files/322251.got.cif
#   From: 2010.05.17/outbox.cif.g08.bks.cpg/sg2_162_cif.got.tgz:322251.got - 2010.06.03 11:33:40.
