data_PCOD9044992
_publ_section_title
;
Structure prediction by ZEFSAII (Michael W. Deem and Ramdas Pophale) SiO2 
 PCOD9044992
Probable space group: P -1
;
_chemical_formula_sum "Si O2"
_cell_formula_units_Z 14
_cell_length_a 19.691051
_cell_length_b 9.043834
_cell_length_c 6.417253
_cell_angle_alpha 56.964831
_cell_angle_beta 111.881533
_cell_angle_gamma 143.157985
_cell_volume 569.842218
_symmetry_space_group_name_H-M "P -1"
_symmetry_group_IT_number 2
_symmetry_cell_setting 'triclinic'
loop_
_space_group_symop_operation_xyz
x,y,z
-x,-y,-z
loop_
_atom_site_type_symbol
_atom_site_label
_atom_site_fract_x
_atom_site_fract_y
_atom_site_fract_z
Si Si1 0.060085 0.334195 0.387127
Si Si2 0.218364 0.940389 0.179771
Si Si3 0.220306 0.350561 0.794664
Si Si4 0.576795 0.271479 0.572875
Si Si5 0.395931 0.389481 0.336405
Si Si6 0.092471 0.177502 0.155757
Si Si7 0.561475 0.852507 0.844663
O O1 0.108017 0.611845 0.293151
O O2 0.143735 0.342849 0.579735
O O3 0.072845 0.310637 0.176380
O O4 0.938180 0.048885 0.561534
O O5 0.280927 0.079246 0.369802
O O6 0.317802 0.024199 0.096397
O O7 0.191715 0.089145 0.959948
O O8 0.340640 0.589467 0.638499
O O9 0.207436 0.385264 0.993519
O O10 0.630399 0.493588 0.636838
O O11 0.466926 0.157046 0.423333
O O12 0.563182 0.047083 0.805572
O O13 0.500000 0.500000 0.500000
O O14 0.459432 0.559050 0.063454
O O15 0.000000 0.000000 0.000000
#
# Coordination Sequence:
#
# PCOD9044992 Si02
#       7
#     2   2   2   2   2   2   2
#     4  10  23  48  71  98 132 171 216 278 345 398
#     4  12  24  42  66 101 136 174 227 275 324 401
#     4  11  23  42  68 101 131 170 226 274 331 402
#     4  11  23  42  66  92 138 185 228 276 325 392
#     4  12  24  41  63  93 140 187 225 275 325 382
#     4   9  22  49  75  95 132 169 213 280 344 411
#     4  11  23  44  61  93 140 184 231 271 329 388
#
# _framework density 24.568201999999999
#
# number of rings (size 3 to 8) (size 9 to 14) (size 15 to 20)
#    0.000    1.143    4.286    1.714    2.000    0.571 
#   18.000    6.429    0.000    0.000    0.000    0.000 
#    0.000    0.000    0.000    0.000    0.000    0.000 
#
# Total GULP energy -78177.582188 kJ/mol
# GULP energy per Si atom -5584.113013 kJ/mol
# Density = 2.451228 g / cm^3
# Si number density = 24.568202 Si / 1000 Ang^3
#
#
#
# Elastic Constant Matrix: (Units=GPa)
#
#
# Indices 1 2 3 4 5 6 
#
# 1 65.2823 0.3663 23.1604 7.7671 -8.1354 -8.7098
# 2 0.3663 113.7290 17.2251 1.1524 -11.5299 -43.0097
# 3 23.1604 17.2251 59.1255 8.6697 2.1145 -11.3454
# 4 7.7671 1.1524 8.6697 43.2096 -0.8341 1.3590
# 5 -8.1354 -11.5299 2.1145 -0.8341 54.6749 5.5521
# 6 -8.7098 -43.0097 -11.3454 1.3590 5.5521 39.1899
#
#
#
# Elastic Compliance Matrix: (Units=1/GPa)
#
#
# Indices 1 2 3 4 5 6 
#
# 1 0.019323 0.003552 -0.007305 -0.002218 0.003295 0.005687
# 2 0.003552 0.015936 -0.002656 -0.001029 0.002226 0.017229
# 3 -0.007305 -0.002656 0.021514 -0.003054 -0.002748 0.002185
# 4 -0.002218 -0.001029 -0.003054 0.024294 0.000286 -0.003390
# 5 0.003295 0.002226 -0.002748 0.000286 0.019399 -0.000378
# 6 0.005687 0.017229 0.002185 -0.003390 -0.000378 0.046493
#
#
# Mechanical properties :
#
#
# Convention : Reuss Voigt Hill
#
# Bulk Modulus (GPa) = 22.75162 35.51561 29.13361
# Shear Modulus (GPa) = 28.66486 40.57387 34.61937
#
# Velocity S-wave (km/s) = 3.41947 4.06825 3.75789
# Velocity P-wave (km/s) = 4.98709 6.04606 5.54193
#
# Compressibility (1/GPa) = 0.04395292
#
# Stress axis : x y z
#
# Youngs Moduli (GPa) = 51.75133 62.75234 46.48148
#
# Poissons Ratio (x) = -0.22287 0.33956
# Poissons Ratio (y) = -0.18380 0.12347
# Poissons Ratio (z) = 0.37805 0.16669
#
# Static dielectric constant tensor:
#      x y z
#    x 2.117000 0.075650 0.023630 
#    y 0.075650 2.067090 0.013800 
#    z 0.023630 0.013800 1.966160 
# 
# From -- ./inp_files/89469.got.cif
#   From: 2010.05.17/outbox.cif.g08.bks.cpg/sg2_45_cif.got.tgz:89469.got - 2010.06.03 11:33:40.
