data_PCOD9044910
_publ_section_title
;
Structure prediction by ZEFSAII (Michael W. Deem and Ramdas Pophale) SiO2 
 PCOD9044910
Probable space group: P -1
;
_chemical_formula_sum "Si O2"
_cell_formula_units_Z 16
_cell_length_a 22.107965
_cell_length_b 5.128508
_cell_length_c 8.951552
_cell_angle_alpha 68.794628
_cell_angle_beta 44.359753
_cell_angle_gamma 60.520727
_cell_volume 617.652228
_symmetry_space_group_name_H-M "P -1"
_symmetry_group_IT_number 2
_symmetry_cell_setting 'triclinic'
loop_
_space_group_symop_operation_xyz
x,y,z
-x,-y,-z
loop_
_atom_site_type_symbol
_atom_site_label
_atom_site_fract_x
_atom_site_fract_y
_atom_site_fract_z
Si Si1 0.993387 0.428497 0.792601
Si Si2 0.641723 0.802072 0.083762
Si Si3 0.564537 0.763110 0.655307
Si Si4 0.299327 0.429216 0.297934
Si Si5 0.156619 0.211688 0.776845
Si Si6 0.081758 0.686595 0.343143
Si Si7 0.795044 0.980722 0.811561
Si Si8 0.656768 0.254439 0.361671
O O1 0.967876 0.241545 0.744668
O O2 0.077921 0.227994 0.789195
O O3 0.022098 0.680278 0.598179
O O4 0.904137 0.593488 0.019573
O O5 0.605375 0.466063 0.546643
O O6 0.714479 0.883860 0.042353
O O7 0.544281 0.068947 0.200882
O O8 0.682709 0.732967 0.859413
O O9 0.602597 0.669192 0.773197
O O10 0.610402 0.005822 0.477113
O O11 0.224230 0.354385 0.545804
O O12 0.152500 0.849877 0.219424
O O13 0.255673 0.780820 0.273989
O O14 0.233456 0.900400 0.761757
O O15 0.134852 0.329384 0.307787
O O16 0.636509 0.492011 0.214921
#
# Coordination Sequence:
#
# PCOD9044910 Si02
#       8
#     2   2   2   2   2   2   2   2
#     4  10  23  47  85 112 155 205 262 321 386 467
#     4  12  27  49  84 113 154 213 256 314 385 469
#     4  11  28  49  79 117 158 200 260 320 384 456
#     4  11  26  48  76 115 159 201 256 323 380 465
#     4  10  23  52  77 119 156 209 251 326 393 452
#     4  11  26  48  77 119 152 201 261 325 379 461
#     4  12  26  46  78 112 158 195 261 316 383 456
#     4  11  28  50  78 115 161 200 256 321 385 462
#
# _framework density 25.904544999999999
#
# number of rings (size 3 to 8) (size 9 to 14) (size 15 to 20)
#    0.000    1.000    2.500    1.125   10.500    3.500 
#    0.000    3.125    0.000    0.750    0.000    0.000 
#    0.000    0.000    0.000    0.000    0.000    0.000 
#
# Total GULP energy -89718.296010 kJ/mol
# GULP energy per Si atom -5607.393501 kJ/mol
# Density = 2.584559 g / cm^3
# Si number density = 25.904545 Si / 1000 Ang^3
#
#
#
# Elastic Constant Matrix: (Units=GPa)
#
#
# Indices 1 2 3 4 5 6 
#
# 1 103.3122 23.9952 45.9894 15.6842 1.3103 -12.3417
# 2 23.9952 109.0626 33.2797 31.7716 -0.1653 -18.3938
# 3 45.9894 33.2797 112.3110 26.2659 14.7169 -7.7477
# 4 15.6842 31.7716 26.2659 50.1661 -7.1542 -10.9137
# 5 1.3103 -0.1653 14.7169 -7.1542 35.5930 8.6947
# 6 -12.3417 -18.3938 -7.7477 -10.9137 8.6947 45.8793
#
#
#
# Elastic Compliance Matrix: (Units=1/GPa)
#
#
# Indices 1 2 3 4 5 6 
#
# 1 0.012219 -0.000857 -0.004679 -0.000276 0.000960 0.001905
# 2 -0.000857 0.012117 -0.001399 -0.006175 -0.001351 0.003178
# 3 -0.004679 -0.001399 0.013418 -0.005533 -0.006587 0.000378
# 4 -0.000276 -0.006175 -0.005533 0.028296 0.007511 0.001823
# 5 0.000960 -0.001351 -0.006587 0.007511 0.033754 -0.006006
# 6 0.001905 0.003178 0.000378 0.001823 -0.006006 0.025219
#
#
# Mechanical properties :
#
#
# Convention : Reuss Voigt Hill
#
# Bulk Modulus (GPa) = 41.87122 59.02384 50.44753
# Shear Modulus (GPa) = 34.04718 41.08911 37.56814
#
# Velocity S-wave (km/s) = 3.62930 3.98700 3.81235
# Velocity P-wave (km/s) = 5.81044 6.63547 6.23661
#
# Compressibility (1/GPa) = 0.02388275
#
# Stress axis : x y z
#
# Youngs Moduli (GPa) = 81.84129 82.52559 74.52823
#
# Poissons Ratio (x) = 0.07075 0.34873
# Poissons Ratio (y) = 0.07016 0.10427
# Poissons Ratio (z) = 0.38295 0.11546
#
# Static dielectric constant tensor:
#      x y z
#    x 2.055330 0.002220 0.012080 
#    y 0.002220 2.029730 -0.005460 
#    z 0.012080 -0.005460 2.085710 
# 
# From -- ./inp_files/351197.got.cif
#   From: 2010.05.17/outbox.cif.g08.bks.cpg/sg2_176_cif.got.tgz:351197.got - 2010.06.03 11:33:40.
