data_PCOD9044231
_publ_section_title
;
Structure prediction by ZEFSAII (Michael W. Deem and Ramdas Pophale) SiO2 
 PCOD9044231
Probable space group: P -1
;
_chemical_formula_sum "Si O2"
_cell_formula_units_Z 14
_cell_length_a 7.738510
_cell_length_b 19.177576
_cell_length_c 5.632188
_cell_angle_alpha 53.198300
_cell_angle_beta 68.123878
_cell_angle_gamma 51.187983
_cell_volume 521.498926
_symmetry_space_group_name_H-M "P -1"
_symmetry_group_IT_number 2
_symmetry_cell_setting 'triclinic'
loop_
_space_group_symop_operation_xyz
x,y,z
-x,-y,-z
loop_
_atom_site_type_symbol
_atom_site_label
_atom_site_fract_x
_atom_site_fract_y
_atom_site_fract_z
Si Si1 0.098020 0.267147 0.900813
Si Si2 0.509657 0.732825 0.138051
Si Si3 0.685970 0.100556 0.434672
Si Si4 0.034926 0.402599 0.039299
Si Si5 0.407790 0.563836 0.666241
Si Si6 0.708978 0.901105 0.222001
Si Si7 0.007480 0.113990 0.507249
O O1 0.017719 0.213525 0.236933
O O2 0.987484 0.384968 0.819886
O O3 0.353507 0.234303 0.840552
O O4 0.115149 0.202776 0.793639
O O5 0.458623 0.653711 0.444155
O O6 0.302572 0.830846 0.919596
O O7 0.697367 0.669552 0.963501
O O8 0.438273 0.126612 0.486269
O O9 0.768099 0.132650 0.557454
O O10 0.844156 0.977579 0.570022
O O11 0.854707 0.389330 0.292868
O O12 0.000000 0.500000 0.000000
O O13 0.500000 0.500000 0.500000
O O14 0.500000 0.500000 0.000000
O O15 0.851564 0.932550 0.233502
O O16 0.500000 0.000000 0.000000
#
# Coordination Sequence:
#
# PCOD9044231 Si02
#       7
#     2   2   2   2   2   2   2
#     4  10  23  46  71 113 153 212 269 333 411 493
#     4  10  24  50  79 117 158 216 278 343 432 499
#     4  11  24  47  76 110 169 211 284 340 412 508
#     4  10  23  53  80 118 157 212 275 352 427 507
#     4  12  27  53  85 119 160 213 281 359 440 517
#     4  12  22  42  76 106 162 219 269 341 413 494
#     4  11  24  47  70 114 160 218 276 335 413 495
#
# _framework density 26.845694000000002
#
# number of rings (size 3 to 8) (size 9 to 14) (size 15 to 20)
#    0.857    0.286    4.286    1.286    0.000    4.571 
#   15.429    0.000    0.000    0.000    0.000    0.000 
#    0.000    0.000    0.000    0.000    0.000    0.000 
#
# Total GULP energy -77992.762143 kJ/mol
# GULP energy per Si atom -5570.911582 kJ/mol
# Density = 2.678459 g / cm^3
# Si number density = 26.845694 Si / 1000 Ang^3
#
#
#
# Elastic Constant Matrix: (Units=GPa)
#
#
# Indices 1 2 3 4 5 6 
#
# 1 139.7377 41.2037 37.6066 3.0887 -22.9231 22.6742
# 2 41.2037 123.1344 36.4819 1.3969 -10.9949 21.5079
# 3 37.6066 36.4819 111.9060 -24.3122 -11.1825 2.0867
# 4 3.0887 1.3969 -24.3122 51.6624 0.5053 -11.8386
# 5 -22.9231 -10.9949 -11.1825 0.5053 45.9942 15.7037
# 6 22.6742 21.5079 2.0867 -11.8386 15.7037 52.4244
#
#
#
# Elastic Compliance Matrix: (Units=1/GPa)
#
#
# Indices 1 2 3 4 5 6 
#
# 1 0.010611 -0.000658 -0.003391 -0.003904 0.006772 -0.007095
# 2 -0.000658 0.010727 -0.003542 -0.003261 0.003364 -0.005719
# 3 -0.003391 -0.003542 0.012620 0.007248 -0.001038 0.004365
# 4 -0.003904 -0.003261 0.007248 0.025391 -0.004606 0.009852
# 5 0.006772 0.003364 -0.001038 -0.004606 0.030668 -0.014495
# 6 -0.007095 -0.005719 0.004365 0.009852 -0.014495 0.030883
#
#
# Mechanical properties :
#
#
# Convention : Reuss Voigt Hill
#
# Bulk Modulus (GPa) = 53.25562 67.26250 60.25906
# Shear Modulus (GPa) = 35.12716 47.31527 41.22122
#
# Velocity S-wave (km/s) = 3.62122 4.20276 3.92278
# Velocity P-wave (km/s) = 6.11270 6.97571 6.55841
#
# Compressibility (1/GPa) = 0.01877736
#
# Stress axis : x y z
#
# Youngs Moduli (GPa) = 94.23974 93.22230 79.24212
#
# Poissons Ratio (x) = 0.06133 0.26868
# Poissons Ratio (y) = 0.06200 0.28065
# Poissons Ratio (z) = 0.31954 0.33016
#
# Static dielectric constant tensor:
#      x y z
#    x 2.127560 0.017500 0.082390 
#    y 0.017500 2.148800 0.080870 
#    z 0.082390 0.080870 2.377200 
# 
# From -- ./inp_files/43204.got.cif
#   From: 2010.05.17/outbox.cif.g08.bks.cpg/sg2_22_cif.got.tgz:43204.got - 2010.06.03 11:33:40.
