data_PCOD9044838
_publ_section_title
;
Structure prediction by ZEFSAII (Michael W. Deem and Ramdas Pophale) SiO2 
 PCOD9044838
Probable space group: P -1
;
_chemical_formula_sum "Si O2"
_cell_formula_units_Z 16
_cell_length_a 14.555535
_cell_length_b 12.187796
_cell_length_c 16.789817
_cell_angle_alpha 129.622229
_cell_angle_beta 148.309006
_cell_angle_gamma 28.810319
_cell_volume 682.217127
_symmetry_space_group_name_H-M "P -1"
_symmetry_group_IT_number 2
_symmetry_cell_setting 'triclinic'
loop_
_space_group_symop_operation_xyz
x,y,z
-x,-y,-z
loop_
_atom_site_type_symbol
_atom_site_label
_atom_site_fract_x
_atom_site_fract_y
_atom_site_fract_z
Si Si1 0.314211 0.191134 0.024348
Si Si2 0.861246 0.244791 0.485527
Si Si3 0.357764 0.771347 0.140905
Si Si4 0.819012 0.713120 0.265741
Si Si5 0.304696 0.856605 0.968248
Si Si6 0.086579 0.762603 0.659697
Si Si7 0.179767 0.598698 0.141639
Si Si8 0.267897 0.237810 0.498032
O O1 0.252183 0.398693 0.062684
O O2 0.527040 0.022021 0.182187
O O3 0.993667 0.327272 0.869599
O O4 0.500000 0.000000 0.000000
O O5 0.003415 0.170654 0.467272
O O6 0.496775 0.468281 0.323610
O O7 0.939035 0.346762 0.629080
O O8 0.000000 0.000000 0.500000
O O9 0.551140 0.518983 0.208996
O O10 0.520022 0.805638 0.309029
O O11 0.414665 0.707523 0.060127
O O12 0.000000 0.000000 0.000000
O O13 0.025927 0.501084 0.391496
O O14 0.609359 0.717691 0.087593
O O15 0.092239 0.906409 0.777354
O O16 0.079200 0.129861 0.964058
O O17 0.911210 0.759405 0.579644
O O18 0.500000 0.000000 0.500000
#
# Coordination Sequence:
#
# PCOD9044838 Si02
#       8
#     2   2   2   2   2   2   2   2
#     4  10  23  47  75 105 144 198 253 311 376 443
#     4  12  25  46  74 104 148 197 243 317 378 445
#     4  12  24  43  72 103 145 194 247 308 377 448
#     4  11  24  45  71 100 148 193 242 312 371 434
#     4  11  25  43  73 107 145 193 252 305 374 457
#     4  12  26  47  74 106 149 199 249 307 387 445
#     4  10  24  44  71 105 149 185 251 306 367 448
#     4  12  27  47  72 108 152 194 252 313 379 458
#
# _framework density 23.452945
#
# number of rings (size 3 to 8) (size 9 to 14) (size 15 to 20)
#    0.000    0.750    3.750    3.000    7.000    1.000 
#    2.250    1.250    0.000    0.000    0.000    0.000 
#    0.000    0.000    0.000    0.000    0.000    0.000 
#
# Total GULP energy -89124.503383 kJ/mol
# GULP energy per Si atom -5570.281461 kJ/mol
# Density = 2.339956 g / cm^3
# Si number density = 23.452945 Si / 1000 Ang^3
#
#
#
# Elastic Constant Matrix: (Units=GPa)
#
#
# Indices 1 2 3 4 5 6 
#
# 1 111.6685 59.1019 55.5381 -4.7579 19.6223 3.9494
# 2 59.1019 115.5579 43.5604 5.0507 2.4690 2.1265
# 3 55.5381 43.5604 127.7538 -9.3106 28.7251 7.0119
# 4 -4.7579 5.0507 -9.3106 31.9364 3.7902 0.0186
# 5 19.6223 2.4690 28.7251 3.7902 49.0607 0.6326
# 6 3.9494 2.1265 7.0119 0.0186 0.6326 43.2460
#
#
#
# Elastic Compliance Matrix: (Units=1/GPa)
#
#
# Indices 1 2 3 4 5 6 
#
# 1 0.014702 -0.006378 -0.003101 0.002764 -0.003951 -0.000470
# 2 -0.006378 0.013115 -0.002919 -0.004342 0.003931 0.000355
# 3 -0.003101 -0.002919 0.011870 0.004157 -0.005866 -0.001414
# 4 0.002764 -0.004342 0.004157 0.034331 -0.005965 -0.000640
# 5 -0.003951 0.003931 -0.005866 -0.005965 0.025651 0.000746
# 6 -0.000470 0.000355 -0.001414 -0.000640 0.000746 0.023368
#
#
# Mechanical properties :
#
#
# Convention : Reuss Voigt Hill
#
# Bulk Modulus (GPa) = 67.15243 74.59790 70.87517
# Shear Modulus (GPa) = 32.72328 37.96728 35.34528
#
# Velocity S-wave (km/s) = 3.73939 4.02788 3.88631
# Velocity P-wave (km/s) = 6.88034 7.31494 7.10096
#
# Compressibility (1/GPa) = 0.01489149
#
# Stress axis : x y z
#
# Youngs Moduli (GPa) = 68.02012 76.24708 84.24286
#
# Poissons Ratio (x) = 0.48630 0.26123
# Poissons Ratio (y) = 0.43383 0.24591
# Poissons Ratio (z) = 0.21092 0.22257
#
# Static dielectric constant tensor:
#      x y z
#    x 1.973000 0.013290 -0.062690 
#    y 0.013290 1.951880 0.069030 
#    z -0.062690 0.069030 2.021590 
# 
# From -- ./inp_files/573628.got.cif
#   From: 2010.05.17/outbox.cif.g08.bks.cpg/sg2_287_cif.got.tgz:573628.got - 2010.06.03 11:33:40.
