data_PCOD9044710
_publ_section_title
;
Structure prediction by ZEFSAII (Michael W. Deem and Ramdas Pophale) SiO2 
 PCOD9044710
Probable space group: P -1
;
_chemical_formula_sum "Si O2"
_cell_formula_units_Z 16
_cell_length_a 9.251921
_cell_length_b 4.938700
_cell_length_c 25.338109
_cell_angle_alpha 99.151332
_cell_angle_beta 146.624397
_cell_angle_gamma 85.069004
_cell_volume 626.461893
_symmetry_space_group_name_H-M "P -1"
_symmetry_group_IT_number 2
_symmetry_cell_setting 'triclinic'
loop_
_space_group_symop_operation_xyz
x,y,z
-x,-y,-z
loop_
_atom_site_type_symbol
_atom_site_label
_atom_site_fract_x
_atom_site_fract_y
_atom_site_fract_z
Si Si1 0.046345 0.146701 0.423261
Si Si2 0.599095 0.820784 0.331016
Si Si3 0.375236 0.632274 0.758379
Si Si4 0.309090 0.309745 0.834969
Si Si5 0.229188 0.514603 0.281320
Si Si6 0.409921 0.661041 0.528976
Si Si7 0.841301 0.873697 0.852054
Si Si8 0.576325 0.872700 0.963506
O O1 0.189863 0.447889 0.481738
O O2 0.853866 0.162610 0.313686
O O3 0.264669 0.927948 0.476978
O O4 0.848417 0.039361 0.406477
O O5 0.660409 0.544528 0.311794
O O6 0.467840 0.733559 0.343217
O O7 0.362752 0.932012 0.229210
O O8 0.331234 0.420651 0.785755
O O9 0.679363 0.754519 0.849948
O O10 0.500970 0.547050 0.930467
O O11 0.014571 0.339919 0.765759
O O12 0.405833 0.017435 0.871573
O O13 0.348214 0.318654 0.355175
O O14 0.133458 0.351145 0.193807
O O15 0.500000 0.500000 0.500000
O O16 0.119449 0.037453 0.951903
O O17 0.500000 0.000000 0.000000
#
# Coordination Sequence:
#
# PCOD9044710 Si02
#       8
#     2   2   2   2   2   2   2   2
#     4  11  24  47  71  99 144 184 227 289 349 410
#     4  10  23  47  72 100 144 191 228 290 350 421
#     4  10  24  47  72 105 143 187 231 290 356 413
#     4  12  28  44  76 104 138 188 236 292 353 416
#     4  11  26  44  71 103 140 187 238 284 359 419
#     4  12  27  45  71 108 144 183 235 295 344 415
#     4  10  24  45  71 100 146 184 232 292 355 418
#     4  12  26  46  71 105 145 182 238 291 349 419
#
# _framework density 25.540258999999999
#
# number of rings (size 3 to 8) (size 9 to 14) (size 15 to 20)
#    0.000    1.000    2.500    2.250    8.750    2.000 
#    0.000    0.000    0.000    0.000    0.000    0.000 
#    0.000    0.000    0.000    0.000    0.000    0.000 
#
# Total GULP energy -89627.012602 kJ/mol
# GULP energy per Si atom -5601.688288 kJ/mol
# Density = 2.548213 g / cm^3
# Si number density = 25.540259 Si / 1000 Ang^3
#
#
#
# Elastic Constant Matrix: (Units=GPa)
#
#
# Indices 1 2 3 4 5 6 
#
# 1 105.5664 -1.5273 35.9265 -7.8607 12.5080 15.7464
# 2 -1.5273 72.0969 -10.5116 -10.5589 1.0969 0.9301
# 3 35.9265 -10.5116 88.6241 -16.7050 8.3848 3.3390
# 4 -7.8607 -10.5589 -16.7050 49.1704 0.2402 2.6197
# 5 12.5080 1.0969 8.3848 0.2402 40.9606 -3.3030
# 6 15.7464 0.9301 3.3390 2.6197 -3.3030 31.8856
#
#
#
# Elastic Compliance Matrix: (Units=1/GPa)
#
#
# Indices 1 2 3 4 5 6 
#
# 1 0.012293 -0.000117 -0.004298 0.000818 -0.003362 -0.006033
# 2 -0.000117 0.014910 0.002744 0.004180 -0.001040 -0.001115
# 3 -0.004298 0.002744 0.014426 0.004814 -0.001746 -0.000045
# 4 0.000818 0.004180 0.004814 0.023176 -0.001734 -0.003114
# 5 -0.003362 -0.001040 -0.001746 -0.001734 0.026217 0.004732
# 6 -0.006033 -0.001115 -0.000045 -0.003114 0.004732 0.035124
#
#
# Mechanical properties :
#
#
# Convention : Reuss Voigt Hill
#
# Bulk Modulus (GPa) = 26.11845 34.89584 30.50714
# Shear Modulus (GPa) = 35.14945 40.56330 37.85638
#
# Velocity S-wave (km/s) = 3.71379 3.98956 3.85414
# Velocity P-wave (km/s) = 5.35147 5.90888 5.63707
#
# Compressibility (1/GPa) = 0.03828712
#
# Stress axis : x y z
#
# Youngs Moduli (GPa) = 81.34937 67.06799 69.32126
#
# Poissons Ratio (x) = 0.00788 0.29792
# Poissons Ratio (y) = 0.00955 -0.19024
# Poissons Ratio (z) = 0.34961 -0.18406
#
# Static dielectric constant tensor:
#      x y z
#    x 2.059360 -0.028330 -0.056360 
#    y -0.028330 2.047920 0.035200 
#    z -0.056360 0.035200 2.028590 
# 
# From -- ./inp_files/616347.got.cif
#   From: 2010.05.17/outbox.cif.g08.bks.cpg/sg2_309_cif.got.tgz:616347.got - 2010.06.03 11:33:40.
