data_PCOD9044628
_publ_section_title
;
Structure prediction by ZEFSAII (Michael W. Deem and Ramdas Pophale) SiO2 
 PCOD9044628
Probable space group: P -1
;
_chemical_formula_sum "Si O2"
_cell_formula_units_Z 14
_cell_length_a 6.798886
_cell_length_b 18.679985
_cell_length_c 18.742125
_cell_angle_alpha 21.302052
_cell_angle_beta 131.392386
_cell_angle_gamma 134.313344
_cell_volume 618.248219
_symmetry_space_group_name_H-M "P -1"
_symmetry_group_IT_number 2
_symmetry_cell_setting 'triclinic'
loop_
_space_group_symop_operation_xyz
x,y,z
-x,-y,-z
loop_
_atom_site_type_symbol
_atom_site_label
_atom_site_fract_x
_atom_site_fract_y
_atom_site_fract_z
Si Si1 0.070506 0.613535 0.851391
Si Si2 0.270827 0.780807 0.504356
Si Si3 0.851574 0.864455 0.639800
Si Si4 0.877933 0.455105 0.806470
Si Si5 0.948055 0.566864 0.504167
Si Si6 0.289380 0.200784 0.172149
Si Si7 0.515864 0.230501 0.808274
O O1 0.861928 0.524200 0.819339
O O2 0.393786 0.671613 0.857719
O O3 0.060580 0.875177 0.605120
O O4 0.053894 0.364946 0.116640
O O5 0.543915 0.777672 0.614001
O O6 0.005657 0.657558 0.601259
O O7 0.223791 0.670060 0.519619
O O8 0.286344 0.019701 0.284320
O O9 0.831474 0.895674 0.691379
O O10 0.615831 0.306748 0.841487
O O11 0.108855 0.337101 0.973050
O O12 0.748383 0.374935 0.677968
O O13 0.773850 0.728843 0.310647
O O14 0.000000 0.500000 0.500000
O O15 0.500000 0.000000 0.000000
#
# Coordination Sequence:
#
# PCOD9044628 Si02
#       7
#     2   2   2   2   2   2   2
#     4  12  23  39  60  93 131 168 212 255 313 387
#     4  11  23  42  67  91 128 173 211 258 330 378
#     4  12  23  39  63  94 127 172 215 252 315 388
#     4  11  23  41  68  91 129 174 206 264 326 376
#     4  10  24  46  68  97 130 167 220 283 326 388
#     4  12  23  44  61  94 138 164 211 269 308 390
#     4  10  23  47  69  96 129 169 222 276 333 388
#
# _framework density 22.644625000000001
#
# number of rings (size 3 to 8) (size 9 to 14) (size 15 to 20)
#    0.000    0.857    4.286    3.429    2.000    0.571 
#    7.714    0.000    0.000    0.000    0.000    0.000 
#    0.000    0.000    0.000    0.000    0.000    0.000 
#
# Total GULP energy -78227.682923 kJ/mol
# GULP energy per Si atom -5587.691637 kJ/mol
# Density = 2.259308 g / cm^3
# Si number density = 22.644625 Si / 1000 Ang^3
#
#
#
# Elastic Constant Matrix: (Units=GPa)
#
#
# Indices 1 2 3 4 5 6 
#
# 1 45.6698 4.8335 18.1861 -9.5070 -7.9588 -17.9656
# 2 4.8335 139.6223 25.4326 -1.3432 -1.5738 -26.2664
# 3 18.1861 25.4326 112.5740 -19.3156 2.2608 -9.2179
# 4 -9.5070 -1.3432 -19.3156 29.8190 -1.4425 3.0915
# 5 -7.9588 -1.5738 2.2608 -1.4425 44.1066 2.5837
# 6 -17.9656 -26.2664 -9.2179 3.0915 2.5837 40.2649
#
#
#
# Elastic Compliance Matrix: (Units=1/GPa)
#
#
# Indices 1 2 3 4 5 6 
#
# 1 0.030548 0.002201 -0.003310 0.006549 0.005185 0.013473
# 2 0.002201 0.008599 -0.001935 -0.000785 0.000415 0.006182
# 3 -0.003310 -0.001935 0.010833 0.005894 -0.000991 -0.000648
# 4 0.006549 -0.000785 0.005894 0.039446 0.002107 0.000595
# 5 0.005185 0.000415 -0.000991 0.002107 0.023703 0.000675
# 6 0.013473 0.006182 -0.000648 0.000595 0.000675 0.034642
#
#
# Mechanical properties :
#
#
# Convention : Reuss Voigt Hill
#
# Bulk Modulus (GPa) = 22.78256 43.86336 33.32296
# Shear Modulus (GPa) = 29.67549 39.46568 34.57059
#
# Velocity S-wave (km/s) = 3.62399 4.17925 3.91149
# Velocity P-wave (km/s) = 5.25298 6.53456 5.92851
#
# Compressibility (1/GPa) = 0.04389323
#
# Stress axis : x y z
#
# Youngs Moduli (GPa) = 32.73521 116.29841 92.31031
#
# Poissons Ratio (x) = -0.25602 0.30551
# Poissons Ratio (y) = -0.07206 0.17863
# Poissons Ratio (z) = 0.10834 0.22504
#
# Static dielectric constant tensor:
#      x y z
#    x 1.809720 -0.026890 0.004450 
#    y -0.026890 1.790120 -0.050420 
#    z 0.004450 -0.050420 2.056840 
# 
# From -- ./inp_files/591642.got.cif
#   From: 2010.05.17/outbox.cif.g08.bks.cpg/sg2_296_cif.got.tgz:591642.got - 2010.06.03 11:33:40.
