data_PCOD9044573
_publ_section_title
;
Structure prediction by ZEFSAII (Michael W. Deem and Ramdas Pophale) SiO2 
 PCOD9044573
Probable space group: P -1
;
_chemical_formula_sum "Si O2"
_cell_formula_units_Z 16
_cell_length_a 11.516029
_cell_length_b 20.905413
_cell_length_c 9.026652
_cell_angle_alpha 42.251347
_cell_angle_beta 49.218400
_cell_angle_gamma 28.426207
_cell_volume 695.546858
_symmetry_space_group_name_H-M "P -1"
_symmetry_group_IT_number 2
_symmetry_cell_setting 'triclinic'
loop_
_space_group_symop_operation_xyz
x,y,z
-x,-y,-z
loop_
_atom_site_type_symbol
_atom_site_label
_atom_site_fract_x
_atom_site_fract_y
_atom_site_fract_z
Si Si1 0.997519 0.042405 0.264131
Si Si2 0.504877 0.883232 0.180600
Si Si3 0.760327 0.563517 0.026445
Si Si4 0.906555 0.884540 0.481914
Si Si5 0.393396 0.188662 0.438847
Si Si6 0.148102 0.631584 0.485538
Si Si7 0.015006 0.314706 0.006121
Si Si8 0.712544 0.370897 0.929961
O O1 0.259791 0.966085 0.165608
O O2 0.000000 0.000000 0.500000
O O3 0.965497 0.966615 0.316671
O O4 0.792844 0.222511 0.113991
O O5 0.545711 0.823615 0.416017
O O6 0.730915 0.753670 0.106716
O O7 0.500000 0.000000 0.000000
O O8 0.706771 0.513314 0.284887
O O9 0.832610 0.468623 0.983794
O O10 0.589255 0.728105 0.825375
O O11 0.000000 0.500000 0.000000
O O12 0.969749 0.790776 0.734654
O O13 0.057127 0.765015 0.429140
O O14 0.612996 0.016320 0.493952
O O15 0.115935 0.284951 0.488779
O O16 0.313671 0.580899 0.296954
O O17 0.934431 0.324526 0.893608
O O18 0.500000 0.500000 0.000000
#
# Coordination Sequence:
#
# PCOD9044573 Si02
#       8
#     2   2   2   2   2   2   2   2
#     4  12  23  44  67 105 143 171 234 292 346 407
#     4  12  20  39  72 104 132 177 231 293 337 403
#     4   9  23  43  61 100 143 174 225 287 338 415
#     4  11  23  42  73 102 140 181 225 295 351 407
#     4  11  19  39  72 104 138 179 232 285 342 413
#     4  10  23  47  67  98 143 183 237 277 352 418
#     4  11  22  44  70  97 135 185 232 279 353 410
#     4  12  26  44  70  98 139 187 229 281 355 418
#
# _framework density 23.003482999999999
#
# number of rings (size 3 to 8) (size 9 to 14) (size 15 to 20)
#    0.000    1.000    6.250    0.375    1.750    1.000 
#    4.500    3.750    0.000    0.000    0.000    0.000 
#    0.000    0.000    0.000    0.000    0.000    0.000 
#
# Total GULP energy -89447.309966 kJ/mol
# GULP energy per Si atom -5590.456873 kJ/mol
# Density = 2.295113 g / cm^3
# Si number density = 23.003483 Si / 1000 Ang^3
#
#
#
# Elastic Constant Matrix: (Units=GPa)
#
#
# Indices 1 2 3 4 5 6 
#
# 1 102.9793 14.4528 24.9120 1.6843 -7.3588 1.8406
# 2 14.4528 72.1114 48.2295 22.8060 4.6040 2.7438
# 3 24.9120 48.2295 126.5700 3.2589 15.4660 24.4514
# 4 1.6843 22.8060 3.2589 34.5633 0.4750 1.0654
# 5 -7.3588 4.6040 15.4660 0.4750 28.9219 6.1280
# 6 1.8406 2.7438 24.4514 1.0654 6.1280 36.5056
#
#
#
# Elastic Compliance Matrix: (Units=1/GPa)
#
#
# Indices 1 2 3 4 5 6 
#
# 1 0.010679 -0.000941 -0.002319 0.000251 0.004017 0.000404
# 2 -0.000941 0.025886 -0.010350 -0.016231 0.000284 0.005460
# 3 -0.002319 -0.010350 0.014309 0.005909 -0.004991 -0.008024
# 4 0.000251 -0.016231 0.005909 0.039196 -0.000343 -0.003837
# 5 0.004017 0.000284 -0.004991 -0.000343 0.038950 -0.003409
# 6 0.000404 0.005460 -0.008024 -0.003837 -0.003409 0.033021
#
#
# Mechanical properties :
#
#
# Convention : Reuss Voigt Hill
#
# Bulk Modulus (GPa) = 42.27583 52.98323 47.62953
# Shear Modulus (GPa) = 25.36203 34.26924 29.81563
#
# Velocity S-wave (km/s) = 3.32404 3.86390 3.60409
# Velocity P-wave (km/s) = 5.75762 6.55660 6.17006
#
# Compressibility (1/GPa) = 0.02365418
#
# Stress axis : x y z
#
# Youngs Moduli (GPa) = 93.63787 38.63133 69.88632
#
# Poissons Ratio (x) = 0.03635 0.16205
# Poissons Ratio (y) = 0.08810 0.72334
# Poissons Ratio (z) = 0.21713 0.39984
#
# Static dielectric constant tensor:
#      x y z
#    x 1.930930 -0.070270 -0.029900 
#    y -0.070270 1.894000 0.017400 
#    z -0.029900 0.017400 1.847830 
# 
# From -- ./inp_files/282697.got.cif
#   From: 2010.05.17/outbox.cif.g08.bks.cpg/sg2_142_cif.got.tgz:282697.got - 2010.06.03 11:33:40.
