data_PCOD9044629
_publ_section_title
;
Structure prediction by ZEFSAII (Michael W. Deem and Ramdas Pophale) SiO2 
 PCOD9044629
Probable space group: P -1
;
_chemical_formula_sum "Si O2"
_cell_formula_units_Z 12
_cell_length_a 15.211120
_cell_length_b 12.428344
_cell_length_c 5.583870
_cell_angle_alpha 78.551314
_cell_angle_beta 60.772499
_cell_angle_gamma 37.103955
_cell_volume 517.907847
_symmetry_space_group_name_H-M "P -1"
_symmetry_group_IT_number 2
_symmetry_cell_setting 'triclinic'
loop_
_space_group_symop_operation_xyz
x,y,z
-x,-y,-z
loop_
_atom_site_type_symbol
_atom_site_label
_atom_site_fract_x
_atom_site_fract_y
_atom_site_fract_z
Si Si1 0.844248 0.744116 0.333480
Si Si2 0.756829 0.155910 0.691028
Si Si3 0.639726 0.462536 0.425602
Si Si4 0.560620 0.169882 0.607468
Si Si5 0.227227 0.319946 0.042019
Si Si6 0.108027 0.837433 0.122796
O O1 0.794037 0.729640 0.659906
O O2 0.056310 0.552030 0.144109
O O3 0.737864 0.952984 0.382053
O O4 0.784846 0.737456 0.167381
O O5 0.732012 0.305648 0.570824
O O6 0.618930 0.198858 0.733952
O O7 0.764002 0.179533 0.946640
O O8 0.952370 0.939485 0.460375
O O9 0.500000 0.500000 0.500000
O O10 0.544568 0.660574 0.517764
O O11 0.777466 0.355989 0.073122
O O12 0.414994 0.211253 0.855175
O O13 0.000000 0.000000 0.000000
#
# Coordination Sequence:
#
# PCOD9044629 Si02
#       6
#     2   2   2   2   2   2
#     4  10  23  47  69  97 133 172 218 278 346 391
#     4   9  20  39  60  90 130 175 213 265 314 383
#     4   9  20  37  55  91 131 166 211 263 313 382
#     4  11  22  38  66  98 124 173 225 265 332 400
#     4  10  23  47  69  96 134 170 218 286 333 398
#     4   9  18  39  59  81 130 175 211 262 319 367
#
# _framework density 23.170142999999999
#
# number of rings (size 3 to 8) (size 9 to 14) (size 15 to 20)
#    0.000    2.333    0.000    1.000    2.333    2.667 
#   24.000    5.000    0.000    0.000    0.000    0.000 
#    0.000    0.000    0.000    0.000    0.000    0.000 
#
# Total GULP energy -66836.606488 kJ/mol
# GULP energy per Si atom -5569.717207 kJ/mol
# Density = 2.311741 g / cm^3
# Si number density = 23.170143 Si / 1000 Ang^3
#
#
#
# Elastic Constant Matrix: (Units=GPa)
#
#
# Indices 1 2 3 4 5 6 
#
# 1 115.2575 30.0444 28.2463 -5.0752 17.1718 -14.5611
# 2 30.0444 136.0162 35.9573 40.3879 14.6992 5.2072
# 3 28.2463 35.9573 80.1077 7.6948 18.0784 1.3520
# 4 -5.0752 40.3879 7.6948 24.0243 -4.1167 3.6956
# 5 17.1718 14.6992 18.0784 -4.1167 23.8019 1.8638
# 6 -14.5611 5.2072 1.3520 3.6956 1.8638 30.8751
#
#
#
# Elastic Compliance Matrix: (Units=1/GPa)
#
#
# Indices 1 2 3 4 5 6 
#
# 1 0.012193 -0.005283 -0.002622 0.011091 -0.002058 0.005553
# 2 -0.005283 0.023496 -0.000474 -0.043499 -0.017850 -0.000149
# 3 -0.002622 -0.000474 0.017018 -0.007209 -0.011964 -0.000317
# 4 0.011091 -0.043499 -0.007209 0.128263 0.046937 -0.005303
# 5 -0.002058 -0.017850 -0.011964 0.046937 0.072308 -0.007420
# 6 0.005553 -0.000149 -0.000317 -0.005303 -0.007420 0.036129
#
#
# Mechanical properties :
#
#
# Convention : Reuss Voigt Hill
#
# Bulk Modulus (GPa) = 27.81842 57.76416 42.79129
# Shear Modulus (GPa) = 15.71593 31.54914 23.63253
#
# Velocity S-wave (km/s) = 2.60721 3.69403 3.19714
# Velocity P-wave (km/s) = 4.59300 6.57107 5.66898
#
# Compressibility (1/GPa) = 0.03594740
#
# Stress axis : x y z
#
# Youngs Moduli (GPa) = 82.01677 42.56110 58.76022
#
# Poissons Ratio (x) = 0.22486 0.15408
# Poissons Ratio (y) = 0.43332 0.02786
# Poissons Ratio (z) = 0.21506 0.02018
#
# Static dielectric constant tensor:
#      x y z
#    x 1.892120 -0.041440 0.036640 
#    y -0.041440 1.951590 -0.071820 
#    z 0.036640 -0.071820 2.172400 
# 
# From -- ./inp_files/25003.got.cif
#   From: 2010.05.17/outbox.cif.g08.bks.cpg/sg2_13_cif.got.tgz:25003.got - 2010.06.03 11:33:40.
