data_PCOD9044370
_publ_section_title
;
Structure prediction by ZEFSAII (Michael W. Deem and Ramdas Pophale) SiO2 
 PCOD9044370
Probable space group: P -1
;
_chemical_formula_sum "Si O2"
_cell_formula_units_Z 15
_cell_length_a 4.977534
_cell_length_b 10.488130
_cell_length_c 16.270986
_cell_angle_alpha 49.690734
_cell_angle_beta 83.923621
_cell_angle_gamma 104.708090
_cell_volume 582.996312
_symmetry_space_group_name_H-M "P -1"
_symmetry_group_IT_number 2
_symmetry_cell_setting 'triclinic'
loop_
_space_group_symop_operation_xyz
x,y,z
-x,-y,-z
loop_
_atom_site_type_symbol
_atom_site_label
_atom_site_fract_x
_atom_site_fract_y
_atom_site_fract_z
Si Si1 0.993600 0.356354 0.241537
Si Si2 0.448712 0.327904 0.829556
Si Si3 0.618364 0.196618 0.620209
Si Si4 0.999008 0.823894 0.954906
Si Si5 0.000000 0.500000 0.000000
Si Si6 0.336425 0.928143 0.158802
Si Si7 0.592192 0.383122 0.392524
Si Si8 0.049861 0.044711 0.612273
O O1 0.317216 0.513940 0.187389
O O2 0.912281 0.410914 0.133056
O O3 0.782749 0.358690 0.322261
O O4 0.996720 0.157653 0.323675
O O5 0.574055 0.177264 0.871120
O O6 0.426612 0.427026 0.705137
O O7 0.139426 0.247443 0.921467
O O8 0.726574 0.204418 0.705171
O O9 0.716921 0.372611 0.483563
O O10 0.260643 0.101918 0.662988
O O11 0.746878 0.065081 0.625907
O O12 0.907016 0.992961 0.876452
O O13 0.875675 0.659182 0.962028
O O14 0.353503 0.891787 0.909279
O O15 0.269274 0.206734 0.477433
#
# Coordination Sequence:
#
# PCOD9044370 Si02
#       8
#     2   2   2   2   1   2   2   2
#     4  12  25  46  72 113 151 195 249 308 379 437
#     4  12  28  46  76 110 155 200 249 305 368 454
#     4  10  23  46  73 108 140 201 246 305 367 432
#     4  12  28  51  76 112 147 198 246 314 380 438
#     4  12  26  48  80 112 146 186 250 316 370 448
#     4  12  27  50  79 108 153 201 252 298 372 451
#     4  10  25  45  71 111 149 196 251 302 376 434
#     4  10  24  45  74 104 152 195 248 308 372 439
#
# _framework density 25.729147999999999
#
# number of rings (size 3 to 8) (size 9 to 14) (size 15 to 20)
#    0.800    0.000    1.333    5.200    3.733    4.800 
#    0.000    1.333    0.000    0.000    0.000    0.000 
#    0.000    0.000    0.000    0.000    0.000    0.000 
#
# Total GULP energy -83750.265610 kJ/mol
# GULP energy per Si atom -5583.351041 kJ/mol
# Density = 2.567059 g / cm^3
# Si number density = 25.729148 Si / 1000 Ang^3
#
#
#
# Elastic Constant Matrix: (Units=GPa)
#
#
# Indices 1 2 3 4 5 6 
#
# 1 70.2881 23.8997 30.3897 -1.0170 3.4623 -20.7227
# 2 23.8997 42.0172 24.2100 -9.5946 2.3371 -18.3903
# 3 30.3897 24.2100 145.3906 7.5364 11.6108 -6.1735
# 4 -1.0170 -9.5946 7.5364 37.9636 -12.7814 4.6067
# 5 3.4623 2.3371 11.6108 -12.7814 41.8693 -1.8341
# 6 -20.7227 -18.3903 -6.1735 4.6067 -1.8341 35.5223
#
#
#
# Elastic Compliance Matrix: (Units=1/GPa)
#
#
# Indices 1 2 3 4 5 6 
#
# 1 0.019990 -0.006852 -0.002539 -0.001920 -0.000808 0.007880
# 2 -0.006852 0.039090 -0.005293 0.010238 0.003599 0.014178
# 3 -0.002539 -0.005293 0.008646 -0.003908 -0.003189 -0.002376
# 4 -0.001920 0.010238 -0.003908 0.033332 0.010835 -0.000263
# 5 -0.000808 0.003599 -0.003189 0.010835 0.027980 0.000877
# 6 0.007880 0.014178 -0.002376 -0.000263 0.000877 0.039755
#
#
# Mechanical properties :
#
#
# Convention : Reuss Voigt Hill
#
# Bulk Modulus (GPa) = 26.06949 46.07718 36.07334
# Shear Modulus (GPa) = 23.70245 35.01745 29.35995
#
# Velocity S-wave (km/s) = 3.03847 3.69318 3.38171
# Velocity P-wave (km/s) = 4.73962 6.01112 5.41283
#
# Compressibility (1/GPa) = 0.03835902
#
# Stress axis : x y z
#
# Youngs Moduli (GPa) = 50.02505 25.58170 115.65545
#
# Poissons Ratio (x) = 0.17529 0.29361
# Poissons Ratio (y) = 0.34278 0.61216
# Poissons Ratio (z) = 0.12700 0.13540
#
# Static dielectric constant tensor:
#      x y z
#    x 2.006840 0.070600 0.036790 
#    y 0.070600 1.992540 0.018760 
#    z 0.036790 0.018760 2.036790 
# 
# From -- ./inp_files/549037.got.cif
#   From: 2010.05.17/outbox.cif.g08.bks.cpg/sg2_275_cif.got.tgz:549037.got - 2010.06.03 11:33:40.
