data_PCOD9044480
_publ_section_title
;
Structure prediction by ZEFSAII (Michael W. Deem and Ramdas Pophale) SiO2 
 PCOD9044480
Probable space group: P -1
;
_chemical_formula_sum "Si O2"
_cell_formula_units_Z 16
_cell_length_a 15.870298
_cell_length_b 15.316643
_cell_length_c 15.144808
_cell_angle_alpha 44.390793
_cell_angle_beta 150.604099
_cell_angle_gamma 154.247365
_cell_volume 741.445805
_symmetry_space_group_name_H-M "P -1"
_symmetry_group_IT_number 2
_symmetry_cell_setting 'triclinic'
loop_
_space_group_symop_operation_xyz
x,y,z
-x,-y,-z
loop_
_atom_site_type_symbol
_atom_site_label
_atom_site_fract_x
_atom_site_fract_y
_atom_site_fract_z
Si Si1 0.761352 0.355155 0.308765
Si Si2 0.596725 0.914331 0.663090
Si Si3 0.244982 0.364030 0.936895
Si Si4 0.488162 0.504886 0.733296
Si Si5 0.103347 0.456645 0.012175
Si Si6 0.366835 0.695523 0.435501
Si Si7 0.164882 0.869008 0.550975
Si Si8 0.405873 0.860239 0.096034
O O1 0.466932 0.164667 0.237241
O O2 0.778683 0.499084 0.173020
O O3 0.804892 0.258739 0.357489
O O4 0.000000 0.500000 0.500000
O O5 0.389943 0.722465 0.542756
O O6 0.500000 0.000000 0.500000
O O7 0.940908 0.121800 0.806552
O O8 0.500000 0.500000 0.000000
O O9 0.329248 0.354525 0.114082
O O10 0.672847 0.507898 0.851642
O O11 0.424671 0.583922 0.553886
O O12 0.168087 0.282767 0.639066
O O13 0.286871 0.661520 0.090560
O O14 0.913126 0.417774 0.791408
O O15 0.859135 0.250212 0.002308
O O16 0.639042 0.937733 0.476797
O O17 0.314712 0.982628 0.699388
O O18 0.500000 0.000000 0.000000
#
# Coordination Sequence:
#
# PCOD9044480 Si02
#       8
#     2   2   2   2   2   2   2   2
#     4  12  24  41  70  97 141 186 232 284 337 409
#     4  12  22  40  69  95 135 194 230 273 344 404
#     4  12  27  43  61 106 145 182 239 285 335 406
#     4  12  27  42  71 101 141 185 227 289 339 408
#     4  10  25  47  70 106 132 176 234 282 353 412
#     4  11  23  46  68  98 143 178 233 284 341 408
#     4  11  25  44  68 104 134 185 231 279 351 411
#     4  10  23  46  76  99 136 176 226 291 351 415
#
# _framework density 21.579460000000001
#
# number of rings (size 3 to 8) (size 9 to 14) (size 15 to 20)
#    0.000    0.750    2.500    4.500    5.250    4.500 
#    0.000    8.750    0.000    0.000    0.000    0.000 
#    0.000    0.000    0.000    0.000    0.000    0.000 
#
# Total GULP energy -89443.388523 kJ/mol
# GULP energy per Si atom -5590.211783 kJ/mol
# Density = 2.153034 g / cm^3
# Si number density = 21.579460 Si / 1000 Ang^3
#
#
#
# Elastic Constant Matrix: (Units=GPa)
#
#
# Indices 1 2 3 4 5 6 
#
# 1 118.5640 18.1962 61.5732 7.8938 6.8792 -2.4390
# 2 18.1962 78.4786 36.1076 0.5670 1.8077 3.4809
# 3 61.5732 36.1076 121.0227 8.2555 9.2032 -12.0085
# 4 7.8938 0.5670 8.2555 49.2324 -3.1489 -4.0034
# 5 6.8792 1.8077 9.2032 -3.1489 39.4343 -1.3140
# 6 -2.4390 3.4809 -12.0085 -4.0034 -1.3140 33.4923
#
#
#
# Elastic Compliance Matrix: (Units=1/GPa)
#
#
# Indices 1 2 3 4 5 6 
#
# 1 0.011588 0.000143 -0.005954 -0.001029 -0.000769 -0.001459
# 2 0.000143 0.015129 -0.004966 0.000392 0.000363 -0.003281
# 3 -0.005954 -0.004966 0.013445 -0.000974 -0.001792 0.004716
# 4 -0.001029 0.000392 -0.000974 0.020945 0.002132 0.002122
# 5 -0.000769 0.000363 -0.001792 0.002132 0.026083 0.000542
# 6 -0.001459 -0.003281 0.004716 0.002122 0.000542 0.032058
#
#
# Mechanical properties :
#
#
# Convention : Reuss Voigt Hill
#
# Bulk Modulus (GPa) = 53.74780 61.09103 57.41942
# Shear Modulus (GPa) = 34.01287 37.91104 35.96195
#
# Velocity S-wave (km/s) = 3.97441 4.19598 4.08670
# Velocity P-wave (km/s) = 6.78397 7.20044 6.99530
#
# Compressibility (1/GPa) = 0.01860541
#
# Stress axis : x y z
#
# Youngs Moduli (GPa) = 86.29907 66.10039 74.37978
#
# Poissons Ratio (x) = -0.00943 0.44286
# Poissons Ratio (y) = -0.01231 0.36938
# Poissons Ratio (z) = 0.51383 0.32826
#
# Static dielectric constant tensor:
#      x y z
#    x 1.900320 -0.003330 -0.023430 
#    y -0.003330 1.839390 0.011050 
#    z -0.023430 0.011050 1.839100 
# 
# From -- ./inp_files/534338.got.cif
#   From: 2010.05.17/outbox.cif.g08.bks.cpg/sg2_268_cif.got.tgz:534338.got - 2010.06.03 11:33:40.
