data_PCOD9044305
_publ_section_title
;
Structure prediction by ZEFSAII (Michael W. Deem and Ramdas Pophale) SiO2 
 PCOD9044305
Probable space group: P -1
;
_chemical_formula_sum "Si O2"
_cell_formula_units_Z 16
_cell_length_a 13.493005
_cell_length_b 15.808962
_cell_length_c 6.161396
_cell_angle_alpha 95.964134
_cell_angle_beta 71.827157
_cell_angle_gamma 143.849700
_cell_volume 710.513116
_symmetry_space_group_name_H-M "P -1"
_symmetry_group_IT_number 2
_symmetry_cell_setting 'triclinic'
loop_
_space_group_symop_operation_xyz
x,y,z
-x,-y,-z
loop_
_atom_site_type_symbol
_atom_site_label
_atom_site_fract_x
_atom_site_fract_y
_atom_site_fract_z
Si Si1 0.376521 0.496906 0.009040
Si Si2 0.684713 0.949644 0.340526
Si Si3 0.721318 0.129656 0.631897
Si Si4 0.611923 0.342982 0.242651
Si Si5 0.076990 0.035253 0.706948
Si Si6 0.508279 0.138956 0.946019
Si Si7 0.138878 0.391799 0.530202
Si Si8 0.285616 0.339188 0.650549
O O1 0.277369 0.483988 0.258220
O O2 0.500000 0.500000 0.000000
O O3 0.467718 0.629722 0.830454
O O4 0.237352 0.352825 0.913076
O O5 0.522643 0.793870 0.536862
O O6 0.637756 0.907034 0.109579
O O7 0.700693 0.060319 0.410388
O O8 0.860393 0.019960 0.332285
O O9 0.627525 0.158600 0.713823
O O10 0.933431 0.277132 0.584942
O O11 0.610902 0.998924 0.848128
O O12 0.778280 0.493352 0.306259
O O13 0.640769 0.289063 0.029930
O O14 0.243956 0.213327 0.649305
O O15 0.000000 0.000000 0.500000
O O16 0.000000 0.000000 0.000000
O O17 0.161020 0.307905 0.562224
O O18 0.500000 0.500000 0.500000
#
# Coordination Sequence:
#
# PCOD9044305 Si02
#       8
#     2   2   2   2   2   2   2   2
#     4  11  23  38  66  94 134 181 226 280 348 424
#     4  11  24  43  70  94 142 181 239 285 363 437
#     4  10  24  44  70  99 133 175 241 297 367 424
#     4  10  24  42  65  99 129 181 229 291 358 431
#     4  12  30  45  69 110 153 193 242 309 368 436
#     4  10  23  46  72  96 130 184 232 300 366 432
#     4  11  23  41  65  99 137 174 236 291 354 426
#     4  11  24  42  65  96 137 194 238 283 358 438
#
# _framework density 22.518937999999999
#
# number of rings (size 3 to 8) (size 9 to 14) (size 15 to 20)
#    0.000    1.250    1.250    3.375   10.500    1.500 
#    0.000    2.500    0.000    0.000    0.000    0.000 
#    0.000    0.000    0.000    0.000    0.000    0.000 
#
# Total GULP energy -89167.072772 kJ/mol
# GULP energy per Si atom -5572.942048 kJ/mol
# Density = 2.246768 g / cm^3
# Si number density = 22.518938 Si / 1000 Ang^3
#
#
#
# Elastic Constant Matrix: (Units=GPa)
#
#
# Indices 1 2 3 4 5 6 
#
# 1 69.0208 35.5865 22.8956 7.4370 -2.7948 5.5032
# 2 35.5865 121.7041 45.6286 17.2402 -11.8035 -5.6017
# 3 22.8956 45.6286 79.8272 21.3868 -0.6365 2.8157
# 4 7.4370 17.2402 21.3868 35.4543 -5.4479 -2.0943
# 5 -2.7948 -11.8035 -0.6365 -5.4479 30.2205 3.6687
# 6 5.5032 -5.6017 2.8157 -2.0943 3.6687 38.8557
#
#
#
# Elastic Compliance Matrix: (Units=1/GPa)
#
#
# Indices 1 2 3 4 5 6 
#
# 1 0.017832 -0.004384 -0.002421 -0.000296 0.000199 -0.003017
# 2 -0.004384 0.012169 -0.005493 -0.000965 0.003771 0.002365
# 3 -0.002421 -0.005493 0.018751 -0.008757 -0.003314 -0.001967
# 4 -0.000296 -0.000965 -0.008757 0.034974 0.005485 0.001905
# 5 0.000199 0.003771 -0.003314 0.005485 0.035783 -0.002327
# 6 -0.003017 0.002365 -0.001967 0.001905 -0.002327 0.026969
#
#
# Mechanical properties :
#
#
# Convention : Reuss Voigt Hill
#
# Bulk Modulus (GPa) = 41.39978 53.19707 47.29843
# Shear Modulus (GPa) = 27.91291 32.00219 29.95755
#
# Velocity S-wave (km/s) = 3.52452 3.77387 3.65132
# Velocity P-wave (km/s) = 5.91501 6.53177 6.23102
#
# Compressibility (1/GPa) = 0.02415472
#
# Stress axis : x y z
#
# Youngs Moduli (GPa) = 56.07741 82.17330 53.33161
#
# Poissons Ratio (x) = 0.36026 0.12914
# Poissons Ratio (y) = 0.24585 0.29297
# Poissons Ratio (z) = 0.13579 0.45140
#
# Static dielectric constant tensor:
#      x y z
#    x 1.888410 0.007320 0.032860 
#    y 0.007320 1.820210 0.017290 
#    z 0.032860 0.017290 2.017620 
# 
# From -- ./inp_files/99802.got.cif
#   From: 2010.05.17/outbox.cif.g08.bks.cpg/sg2_50_cif.got.tgz:99802.got - 2010.06.03 11:33:40.
