data_PCOD9044005
_publ_section_title
;
Structure prediction by ZEFSAII (Michael W. Deem and Ramdas Pophale) SiO2 
 PCOD9044005
Probable space group: P -1
;
_chemical_formula_sum "Si O2"
_cell_formula_units_Z 16
_cell_length_a 13.181110
_cell_length_b 14.089624
_cell_length_c 12.310576
_cell_angle_alpha 27.968570
_cell_angle_beta 60.211484
_cell_angle_gamma 44.993739
_cell_volume 699.544501
_symmetry_space_group_name_H-M "P -1"
_symmetry_group_IT_number 2
_symmetry_cell_setting 'triclinic'
loop_
_space_group_symop_operation_xyz
x,y,z
-x,-y,-z
loop_
_atom_site_type_symbol
_atom_site_label
_atom_site_fract_x
_atom_site_fract_y
_atom_site_fract_z
Si Si1 0.635297 0.495832 0.967145
Si Si2 0.654091 0.299692 0.696977
Si Si3 0.157632 0.088263 0.616431
Si Si4 0.915961 0.786725 0.699291
Si Si5 0.544534 0.738172 0.008840
Si Si6 0.672035 0.781956 0.479588
Si Si7 0.887921 0.297030 0.703360
Si Si8 0.814809 0.204539 0.503432
O O1 0.629905 0.695592 0.692043
O O2 0.500000 0.500000 0.000000
O O3 0.612385 0.568518 0.032126
O O4 0.790339 0.197224 0.153781
O O5 0.500000 0.500000 0.500000
O O6 0.602436 0.194445 0.919356
O O7 0.731497 0.385881 0.641924
O O8 0.789061 0.121691 0.715180
O O9 0.158566 0.200885 0.386372
O O10 0.280315 0.052927 0.667034
O O11 0.993438 0.276767 0.574419
O O12 0.033064 0.833048 0.553448
O O13 0.808204 0.031106 0.594160
O O14 0.000000 0.500000 0.000000
O O15 0.683679 0.527849 0.229032
O O16 0.475673 0.030056 0.711937
O O17 0.821721 0.522424 0.601380
O O18 0.000000 0.000000 0.000000
#
# Coordination Sequence:
#
# PCOD9044005 Si02
#       8
#     2   2   2   2   2   2   2   2
#     4  12  24  44  69 102 144 183 227 288 359 422
#     4  10  23  47  72 100 140 193 235 290 361 418
#     4  12  25  44  71 106 140 185 230 294 357 424
#     4  11  25  41  70 102 134 182 235 286 355 414
#     4  11  23  43  70 100 138 183 231 287 351 415
#     4  12  27  43  72 108 139 184 239 289 353 436
#     4  12  24  46  72 102 144 187 239 294 359 419
#     4  10  23  46  68  96 140 183 231 294 345 423
#
# _framework density 22.872026999999999
#
# number of rings (size 3 to 8) (size 9 to 14) (size 15 to 20)
#    0.000    0.750    5.000    2.250    1.750    2.000 
#    4.500    1.250    0.000    0.000    0.000    0.000 
#    0.000    0.000    0.000    0.000    0.000    0.000 
#
# Total GULP energy -89249.334322 kJ/mol
# GULP energy per Si atom -5578.083395 kJ/mol
# Density = 2.281997 g / cm^3
# Si number density = 22.872027 Si / 1000 Ang^3
#
#
#
# Elastic Constant Matrix: (Units=GPa)
#
#
# Indices 1 2 3 4 5 6 
#
# 1 54.3209 9.7571 11.0245 2.2923 7.7563 -2.5627
# 2 9.7571 135.7683 32.4341 16.5850 -14.3037 16.3567
# 3 11.0245 32.4341 116.5981 1.3103 5.8325 14.2068
# 4 2.2923 16.5850 1.3103 46.8039 0.8720 -1.2163
# 5 7.7563 -14.3037 5.8325 0.8720 19.6537 2.8264
# 6 -2.5627 16.3567 14.2068 -1.2163 2.8264 30.3252
#
#
#
# Elastic Compliance Matrix: (Units=1/GPa)
#
#
# Indices 1 2 3 4 5 6 
#
# 1 0.020962 -0.003008 -0.001216 0.000405 -0.010837 0.004990
# 2 -0.003008 0.010437 -0.002382 -0.003834 0.010509 -0.005901
# 3 -0.001216 -0.002382 0.009912 0.000617 -0.003780 -0.003084
# 4 0.000405 -0.003834 0.000617 0.022855 -0.004601 0.003159
# 5 -0.010837 0.010509 -0.003780 -0.004601 0.065731 -0.011124
# 6 0.004990 -0.005901 -0.003084 0.003159 -0.011124 0.039189
#
#
# Mechanical properties :
#
#
# Convention : Reuss Voigt Hill
#
# Bulk Modulus (GPa) = 35.58935 45.90207 40.74571
# Shear Modulus (GPa) = 26.08716 36.25468 31.17092
#
# Velocity S-wave (km/s) = 3.38090 3.98566 3.69567
# Velocity P-wave (km/s) = 5.55289 6.42599 6.00533
#
# Compressibility (1/GPa) = 0.02809829
#
# Stress axis : x y z
#
# Youngs Moduli (GPa) = 47.70571 95.81108 100.88699
#
# Poissons Ratio (x) = 0.28823 0.12264
# Poissons Ratio (y) = 0.14352 0.24036
# Poissons Ratio (z) = 0.05799 0.22827
#
# Static dielectric constant tensor:
#      x y z
#    x 1.912160 0.007950 0.028870 
#    y 0.007950 1.886610 -0.010780 
#    z 0.028870 -0.010780 1.905230 
# 
# From -- ./inp_files/455384.got.cif
#   From: 2010.05.17/outbox.cif.g08.bks.cpg/sg2_228_cif.got.tgz:455384.got - 2010.06.03 11:33:40.
