data_PCOD9044470
_publ_section_title
;
Structure prediction by ZEFSAII (Michael W. Deem and Ramdas Pophale) SiO2 
 PCOD9044470
Probable space group: P -1
;
_chemical_formula_sum "Si O2"
_cell_formula_units_Z 16
_cell_length_a 12.991878
_cell_length_b 11.835594
_cell_length_c 5.417556
_cell_angle_alpha 73.836763
_cell_angle_beta 83.007345
_cell_angle_gamma 125.137695
_cell_volume 610.695424
_symmetry_space_group_name_H-M "P -1"
_symmetry_group_IT_number 2
_symmetry_cell_setting 'triclinic'
loop_
_space_group_symop_operation_xyz
x,y,z
-x,-y,-z
loop_
_atom_site_type_symbol
_atom_site_label
_atom_site_fract_x
_atom_site_fract_y
_atom_site_fract_z
Si Si1 0.628964 0.327561 0.926167
Si Si2 0.219727 0.891984 0.687414
Si Si3 0.539549 0.431664 0.248178
Si Si4 0.974326 0.646922 0.204835
Si Si5 0.199914 0.702506 0.434186
Si Si6 0.650514 0.844350 0.159348
Si Si7 0.157564 0.097244 0.341343
Si Si8 0.241641 0.351947 0.556900
O O1 0.707170 0.271854 0.837668
O O2 0.473665 0.221411 0.947845
O O3 0.712654 0.494127 0.679327
O O4 0.618347 0.371007 0.175430
O O5 0.282318 0.839736 0.522543
O O6 0.297819 0.995456 0.841236
O O7 0.195864 0.996906 0.492121
O O8 0.074653 0.734164 0.896261
O O9 0.419109 0.281539 0.524758
O O10 0.360147 0.430766 0.678916
O O11 0.500000 0.500000 0.000000
O O12 0.075084 0.687890 0.374171
O O13 0.871061 0.463789 0.324749
O O14 0.897875 0.714112 0.230268
O O15 0.775758 0.867444 0.974045
O O16 0.217581 0.245170 0.403279
O O17 0.000000 0.000000 0.500000
#
# Coordination Sequence:
#
# PCOD9044470 Si02
#       8
#     2   2   2   2   2   2   2   2
#     4  10  25  46  72 110 145 198 256 311 376 450
#     4  12  25  44  72 106 147 204 251 309 382 449
#     4  11  27  48  75 110 153 201 257 317 378 455
#     4  10  23  46  76 109 144 198 254 323 379 448
#     4  10  23  47  74 106 151 192 259 317 378 453
#     4  11  27  48  72 108 152 202 251 315 383 448
#     4  12  28  50  73 111 157 201 254 310 384 464
#     4  10  25  46  76 111 150 201 253 311 387 451
#
# _framework density 26.199641
#
# number of rings (size 3 to 8) (size 9 to 14) (size 15 to 20)
#    0.000    1.250    0.000    3.375    5.250   12.000 
#    2.250    4.375    0.000    0.000    0.000    0.000 
#    0.000    0.000    0.000    0.000    0.000    0.000 
#
# Total GULP energy -89448.749957 kJ/mol
# GULP energy per Si atom -5590.546872 kJ/mol
# Density = 2.614001 g / cm^3
# Si number density = 26.199641 Si / 1000 Ang^3
#
#
#
# Elastic Constant Matrix: (Units=GPa)
#
#
# Indices 1 2 3 4 5 6 
#
# 1 84.0108 52.8702 25.7680 2.5828 -18.1811 3.4075
# 2 52.8702 191.4016 65.1384 32.8175 -15.8384 -19.5539
# 3 25.7680 65.1384 135.7942 4.9333 -16.4333 -4.2080
# 4 2.5828 32.8175 4.9333 48.9892 -9.6942 -8.6592
# 5 -18.1811 -15.8384 -16.4333 -9.6942 37.1233 -3.8535
# 6 3.4075 -19.5539 -4.2080 -8.6592 -3.8535 35.0804
#
#
#
# Elastic Compliance Matrix: (Units=1/GPa)
#
#
# Indices 1 2 3 4 5 6 
#
# 1 0.016353 -0.004711 -0.000267 0.003096 0.006400 -0.002779
# 2 -0.004711 0.008706 -0.003095 -0.004789 -0.000833 0.003665
# 3 -0.000267 -0.003095 0.009218 0.001812 0.003123 0.000197
# 4 0.003096 -0.004789 0.001812 0.025507 0.007388 0.004355
# 5 0.006400 -0.000833 0.003123 0.007388 0.033526 0.004795
# 6 -0.002779 0.003665 0.000197 0.004355 0.004795 0.032444
#
#
# Mechanical properties :
#
#
# Convention : Reuss Voigt Hill
#
# Bulk Modulus (GPa) = 55.16084 77.63998 66.40041
# Shear Modulus (GPa) = 33.79658 42.06727 37.93192
#
# Velocity S-wave (km/s) = 3.59550 4.01139 3.80913
# Velocity P-wave (km/s) = 6.19166 7.15216 6.68917
#
# Compressibility (1/GPa) = 0.01812880
#
# Stress axis : x y z
#
# Youngs Moduli (GPa) = 61.15156 114.86216 108.48631
#
# Poissons Ratio (x) = 0.54115 0.02898
# Poissons Ratio (y) = 0.28810 0.33581
# Poissons Ratio (z) = 0.01634 0.35555
#
# Static dielectric constant tensor:
#      x y z
#    x 2.176550 -0.018390 0.038450 
#    y -0.018390 2.026980 0.017940 
#    z 0.038450 0.017940 2.224740 
# 
# From -- ./inp_files/94907.got.cif
#   From: 2010.05.17/outbox.cif.g08.bks.cpg/sg2_48_cif.got.tgz:94907.got - 2010.06.03 11:33:40.
