data_PCOD9044053
_publ_section_title
;
Structure prediction by ZEFSAII (Michael W. Deem and Ramdas Pophale) SiO2 
 PCOD9044053
Probable space group: P -1
;
_chemical_formula_sum "Si O2"
_cell_formula_units_Z 16
_cell_length_a 5.958094
_cell_length_b 28.623540
_cell_length_c 6.425564
_cell_angle_alpha 131.610334
_cell_angle_beta 106.934228
_cell_angle_gamma 54.337557
_cell_volume 657.330383
_symmetry_space_group_name_H-M "P -1"
_symmetry_group_IT_number 2
_symmetry_cell_setting 'triclinic'
loop_
_space_group_symop_operation_xyz
x,y,z
-x,-y,-z
loop_
_atom_site_type_symbol
_atom_site_label
_atom_site_fract_x
_atom_site_fract_y
_atom_site_fract_z
Si Si1 0.316663 0.526548 0.735812
Si Si2 0.955801 0.262724 0.340425
Si Si3 0.386272 0.411855 0.723052
Si Si4 0.733498 0.225834 0.815577
Si Si5 0.030720 0.973316 0.163914
Si Si6 0.147565 0.127984 0.304419
Si Si7 0.621731 0.119197 0.689167
Si Si8 0.200221 0.354281 0.845528
O O1 0.500000 0.500000 0.500000
O O2 0.295343 0.460444 0.633264
O O3 0.477957 0.551701 0.001764
O O4 0.006862 0.600246 0.885236
O O5 0.630444 0.326768 0.486732
O O6 0.074888 0.192858 0.315842
O O7 0.118916 0.301802 0.555314
O O8 0.955777 0.236693 0.029357
O O9 0.176067 0.409038 0.817597
O O10 0.603525 0.194864 0.852354
O O11 0.506313 0.302263 0.869629
O O12 0.882946 0.164188 0.495665
O O13 0.334573 0.906208 0.132770
O O14 0.921551 0.049739 0.484060
O O15 0.836943 0.939216 0.012411
O O16 0.000000 0.000000 0.000000
O O17 0.401705 0.112461 0.473658
#
# Coordination Sequence:
#
# PCOD9044053 Si02
#       8
#     2   2   2   2   2   2   2   2
#     4  10  24  46  73 106 143 188 240 290 354 426
#     4  11  25  43  68 103 142 182 234 296 349 427
#     4  10  23  46  69 104 145 183 237 295 353 422
#     4  12  25  43  69 104 136 186 241 282 358 430
#     4  11  24  45  70  99 139 180 236 293 347 427
#     4  12  24  43  68  99 144 179 235 295 353 420
#     4  11  25  44  69 101 133 186 234 286 360 417
#     4  11  24  47  75 103 144 189 238 297 357 419
#
# _framework density 24.340878
#
# number of rings (size 3 to 8) (size 9 to 14) (size 15 to 20)
#    0.000    1.000    5.000    0.750    1.750    4.000 
#    6.750    0.000    0.000    0.000    0.000    0.000 
#    0.000    0.000    0.000    0.000    0.000    0.000 
#
# Total GULP energy -89441.348442 kJ/mol
# GULP energy per Si atom -5590.084278 kJ/mol
# Density = 2.428548 g / cm^3
# Si number density = 24.340878 Si / 1000 Ang^3
#
#
#
# Elastic Constant Matrix: (Units=GPa)
#
#
# Indices 1 2 3 4 5 6 
#
# 1 46.6654 31.4804 11.6559 0.1763 16.5729 14.3927
# 2 31.4804 141.0533 28.2177 -7.3957 9.1068 18.2990
# 3 11.6559 28.2177 105.1194 -1.6718 15.4195 3.0572
# 4 0.1763 -7.3957 -1.6718 31.5374 -2.2540 13.9376
# 5 16.5729 9.1068 15.4195 -2.2540 51.2539 -2.0940
# 6 14.3927 18.2990 3.0572 13.9376 -2.0940 39.2561
#
#
#
# Elastic Compliance Matrix: (Units=1/GPa)
#
#
# Indices 1 2 3 4 5 6 
#
# 1 0.031443 -0.004774 -0.000455 0.002753 -0.009500 -0.010752
# 2 -0.004774 0.009165 -0.001835 0.003740 0.000481 -0.003681
# 3 -0.000455 -0.001835 0.010443 -0.000112 -0.002669 0.000106
# 4 0.002753 0.003740 -0.000112 0.040037 -0.000454 -0.016983
# 5 -0.009500 0.000481 -0.002669 -0.000454 0.023479 0.004880
# 6 -0.010752 -0.003681 0.000106 -0.016983 0.004880 0.037413
#
#
# Mechanical properties :
#
#
# Convention : Reuss Voigt Hill
#
# Bulk Modulus (GPa) = 27.08374 48.39402 37.73888
# Shear Modulus (GPa) = 28.02462 39.17508 33.59985
#
# Velocity S-wave (km/s) = 3.39682 4.01613 3.71939
# Velocity P-wave (km/s) = 5.15127 6.43667 5.82950
#
# Compressibility (1/GPa) = 0.03692253
#
# Stress axis : x y z
#
# Youngs Moduli (GPa) = 31.80384 109.11610 95.76147
#
# Poissons Ratio (x) = 0.52091 0.04357
# Poissons Ratio (y) = 0.15183 0.17571
# Poissons Ratio (z) = 0.01447 0.20021
#
# Static dielectric constant tensor:
#      x y z
#    x 1.961000 0.005740 -0.071360 
#    y 0.005740 2.000470 -0.041900 
#    z -0.071360 -0.041900 2.023690 
# 
# From -- ./inp_files/14725.got.cif
#   From: 2010.05.17/outbox.cif.g08.bks.cpg/sg2_8_cif.got.tgz:14725.got - 2010.06.03 11:33:40.
