data_PCOD9044983
_publ_section_title
;
Structure prediction by ZEFSAII (Michael W. Deem and Ramdas Pophale) SiO2 
 PCOD9044983
Probable space group: P -1
;
_chemical_formula_sum "Si O2"
_cell_formula_units_Z 14
_cell_length_a 11.388399
_cell_length_b 11.177089
_cell_length_c 6.880071
_cell_angle_alpha 69.760934
_cell_angle_beta 55.120107
_cell_angle_gamma 51.250376
_cell_volume 560.197349
_symmetry_space_group_name_H-M "P -1"
_symmetry_group_IT_number 2
_symmetry_cell_setting 'triclinic'
loop_
_space_group_symop_operation_xyz
x,y,z
-x,-y,-z
loop_
_atom_site_type_symbol
_atom_site_label
_atom_site_fract_x
_atom_site_fract_y
_atom_site_fract_z
Si Si1 0.169810 0.253737 0.695049
Si Si2 0.818240 0.468599 0.042799
Si Si3 0.176921 0.804599 0.620551
Si Si4 0.529730 0.623015 0.496172
Si Si5 0.339536 0.016780 0.026501
Si Si6 0.031549 0.136797 0.560380
Si Si7 0.574277 0.691865 0.816800
O O1 0.270285 0.130714 0.841656
O O2 0.073568 0.205991 0.660859
O O3 0.307029 0.262716 0.431882
O O4 0.010047 0.415694 0.839082
O O5 0.837607 0.308919 0.161907
O O6 0.710601 0.579016 0.264130
O O7 0.691996 0.563936 0.933116
O O8 0.362415 0.778741 0.489727
O O9 0.141411 0.766756 0.459458
O O10 0.043518 0.982315 0.692807
O O11 0.500000 0.500000 0.500000
O O12 0.521056 0.624892 0.732568
O O13 0.414241 0.846091 0.973027
O O14 0.180643 0.087176 0.286054
O O15 0.500000 0.000000 0.000000
#
# Coordination Sequence:
#
# PCOD9044983 Si02
#       7
#     2   2   2   2   2   2   2
#     4  12  27  46  75 111 143 189 248 295 368 431
#     4  11  26  47  70 110 143 194 237 297 364 428
#     4  10  23  48  71 102 147 194 237 304 352 427
#     4  10  25  47  69 102 150 188 241 290 354 436
#     4  12  26  48  76 109 143 191 239 303 370 427
#     4  11  24  47  75 107 148 186 246 304 356 430
#     4  12  27  45  77 107 146 193 241 301 364 427
#
# _framework density 24.991192000000002
#
# number of rings (size 3 to 8) (size 9 to 14) (size 15 to 20)
#    0.000    0.857    2.857    2.571    8.000    3.429 
#   10.286    0.000    0.000    0.000    0.000    0.000 
#    0.000    0.000    0.000    0.000    0.000    0.000 
#
# Total GULP energy -78372.800220 kJ/mol
# GULP energy per Si atom -5598.057159 kJ/mol
# Density = 2.493431 g / cm^3
# Si number density = 24.991192 Si / 1000 Ang^3
#
#
#
# Elastic Constant Matrix: (Units=GPa)
#
#
# Indices 1 2 3 4 5 6 
#
# 1 113.2050 28.0710 36.3011 9.2125 19.8359 -12.3880
# 2 28.0710 91.8115 49.4332 -18.6373 26.2705 -26.8334
# 3 36.3011 49.4332 134.2574 -0.5866 16.8196 -14.8740
# 4 9.2125 -18.6373 -0.5866 52.8542 -7.1270 2.9548
# 5 19.8359 26.2705 16.8196 -7.1270 49.3581 5.1032
# 6 -12.3880 -26.8334 -14.8740 2.9548 5.1032 39.7354
#
#
#
# Elastic Compliance Matrix: (Units=1/GPa)
#
#
# Indices 1 2 3 4 5 6 
#
# 1 0.010894 -0.001052 -0.001775 -0.002973 -0.003926 0.002747
# 2 -0.001052 0.021882 -0.004994 0.005732 -0.010085 0.013449
# 3 -0.001775 -0.004994 0.009761 -0.001353 -0.000134 -0.000154
# 4 -0.002973 0.005732 -0.001353 0.021635 0.001665 0.000615
# 5 -0.003926 -0.010085 -0.000134 0.001665 0.028722 -0.011897
# 6 0.002747 0.013449 -0.000154 0.000615 -0.011897 0.036529
#
#
# Mechanical properties :
#
#
# Convention : Reuss Voigt Hill
#
# Bulk Modulus (GPa) = 37.18226 62.98714 50.08470
# Shear Modulus (GPa) = 32.46115 43.42079 37.94097
#
# Velocity S-wave (km/s) = 3.60794 4.17279 3.90060
# Velocity P-wave (km/s) = 5.68038 6.96237 6.35379
#
# Compressibility (1/GPa) = 0.02689454
#
# Stress axis : x y z
#
# Youngs Moduli (GPa) = 91.79288 45.69891 102.44947
#
# Poissons Ratio (x) = 0.04809 0.18184
# Poissons Ratio (y) = 0.09660 0.51164
# Poissons Ratio (z) = 0.16292 0.22822
#
# Static dielectric constant tensor:
#      x y z
#    x 2.108170 -0.037120 -0.048030 
#    y -0.037120 2.025930 0.031160 
#    z -0.048030 0.031160 1.982590 
# 
# From -- ./inp_files/69666.got.cif
#   From: 2010.05.17/outbox.cif.g08.bks.cpg/sg2_35_cif.got.tgz:69666.got - 2010.06.03 11:33:40.
