data_PCOD9044739
_publ_section_title
;
Structure prediction by ZEFSAII (Michael W. Deem and Ramdas Pophale) SiO2 
 PCOD9044739
Probable space group: P -1
;
_chemical_formula_sum "Si O2"
_cell_formula_units_Z 14
_cell_length_a 10.397004
_cell_length_b 10.347417
_cell_length_c 11.970301
_cell_angle_alpha 37.800880
_cell_angle_beta 74.774299
_cell_angle_gamma 100.948275
_cell_volume 563.998401
_symmetry_space_group_name_H-M "P -1"
_symmetry_group_IT_number 2
_symmetry_cell_setting 'triclinic'
loop_
_space_group_symop_operation_xyz
x,y,z
-x,-y,-z
loop_
_atom_site_type_symbol
_atom_site_label
_atom_site_fract_x
_atom_site_fract_y
_atom_site_fract_z
Si Si1 0.181602 0.922341 0.198241
Si Si2 0.020866 0.136762 0.521638
Si Si3 0.644629 0.408348 0.973156
Si Si4 0.546630 0.558110 0.696227
Si Si5 0.114840 0.423851 0.985862
Si Si6 0.618236 0.242420 0.500609
Si Si7 0.779047 0.517627 0.506211
O O1 0.238654 0.747246 0.273742
O O2 0.122939 0.872264 0.376677
O O3 0.995431 0.779986 0.274607
O O4 0.347523 0.255589 0.922977
O O5 0.185928 0.467652 0.230214
O O6 0.000000 0.000000 0.500000
O O7 0.013787 0.918485 0.750277
O O8 0.727711 0.479548 0.028737
O O9 0.477599 0.076954 0.228659
O O10 0.592082 0.568599 0.810082
O O11 0.537356 0.788883 0.505045
O O12 0.678101 0.562796 0.584215
O O13 0.214935 0.590273 0.736037
O O14 0.000000 0.500000 0.000000
O O15 0.683980 0.429075 0.469194
#
# Coordination Sequence:
#
# PCOD9044739 Si02
#       7
#     2   2   2   2   2   2   2
#     4  11  23  46  75 108 145 197 248 302 373 439
#     4  10  23  47  72 106 142 196 244 300 368 441
#     4  11  26  46  78 104 150 196 247 310 372 437
#     4  12  25  48  73 107 151 193 254 301 374 438
#     4  11  27  48  73 111 149 192 254 307 375 445
#     4  12  27  47  72 112 147 196 247 309 374 443
#     4  11  26  44  75 110 151 197 248 305 370 448
#
# _framework density 24.822766000000001
#
# number of rings (size 3 to 8) (size 9 to 14) (size 15 to 20)
#    0.000    0.857    4.286    1.286    6.000    1.143 
#    0.000    0.000    0.000    0.000    0.000    0.000 
#    0.000    0.000    0.000    0.000    0.000    0.000 
#
# Total GULP energy -78215.094937 kJ/mol
# GULP energy per Si atom -5586.792496 kJ/mol
# Density = 2.476627 g / cm^3
# Si number density = 24.822766 Si / 1000 Ang^3
#
#
#
# Elastic Constant Matrix: (Units=GPa)
#
#
# Indices 1 2 3 4 5 6 
#
# 1 88.5543 17.5484 16.3718 11.9224 6.8011 4.3317
# 2 17.5484 114.4138 30.3593 14.1038 -0.9818 16.7083
# 3 16.3718 30.3593 145.0469 6.9778 -12.2499 -0.6212
# 4 11.9224 14.1038 6.9778 35.5836 2.9223 -4.9793
# 5 6.8011 -0.9818 -12.2499 2.9223 35.4020 5.2523
# 6 4.3317 16.7083 -0.6212 -4.9793 5.2523 54.2971
#
#
#
# Elastic Compliance Matrix: (Units=1/GPa)
#
#
# Indices 1 2 3 4 5 6 
#
# 1 0.012413 -0.001072 -0.001223 -0.003398 -0.002446 -0.000749
# 2 -0.001072 0.010404 -0.001820 -0.003967 0.000722 -0.003570
# 3 -0.001223 -0.001820 0.007680 -0.000548 0.002825 0.000422
# 4 -0.003398 -0.003967 -0.000548 0.031821 -0.002969 0.004691
# 5 -0.002446 0.000722 0.002825 -0.002969 0.030436 -0.003211
# 6 -0.000749 -0.003570 0.000422 0.004691 -0.003211 0.020321
#
#
# Mechanical properties :
#
#
# Convention : Reuss Voigt Hill
#
# Bulk Modulus (GPa) = 44.90961 52.95265 48.93113
# Shear Modulus (GPa) = 38.84150 43.97224 41.40687
#
# Velocity S-wave (km/s) = 3.95999 4.21342 4.08867
# Velocity P-wave (km/s) = 6.24820 6.71187 6.48418
#
# Compressibility (1/GPa) = 0.02226695
#
# Stress axis : x y z
#
# Youngs Moduli (GPa) = 80.56013 96.11549 130.20760
#
# Poissons Ratio (x) = 0.10303 0.15925
# Poissons Ratio (y) = 0.08636 0.23700
# Poissons Ratio (z) = 0.09853 0.17495
#
# Static dielectric constant tensor:
#      x y z
#    x 2.086890 0.045480 -0.016530 
#    y 0.045480 2.013650 -0.019170 
#    z -0.016530 -0.019170 1.940810 
# 
# From -- ./inp_files/427389.got.cif
#   From: 2010.05.17/outbox.cif.g08.bks.cpg/sg2_214_cif.got.tgz:427389.got - 2010.06.03 11:33:40.
