data_PCOD9044230
_publ_section_title
;
Structure prediction by ZEFSAII (Michael W. Deem and Ramdas Pophale) SiO2 
 PCOD9044230
Probable space group: P -1
;
_chemical_formula_sum "Si O2"
_cell_formula_units_Z 14
_cell_length_a 11.588491
_cell_length_b 6.458749
_cell_length_c 15.393809
_cell_angle_alpha 61.736747
_cell_angle_beta 133.823499
_cell_angle_gamma 133.664264
_cell_volume 601.317917
_symmetry_space_group_name_H-M "P -1"
_symmetry_group_IT_number 2
_symmetry_cell_setting 'triclinic'
loop_
_space_group_symop_operation_xyz
x,y,z
-x,-y,-z
loop_
_atom_site_type_symbol
_atom_site_label
_atom_site_fract_x
_atom_site_fract_y
_atom_site_fract_z
Si Si1 0.299076 0.184983 0.075982
Si Si2 0.540445 0.069008 0.109689
Si Si3 0.155060 0.309248 0.479051
Si Si4 0.070854 0.186624 0.256478
Si Si5 0.443677 0.491347 0.263455
Si Si6 0.036397 0.406172 0.713812
Si Si7 0.979990 0.618703 0.105192
O O1 0.424146 0.195360 0.060492
O O2 0.420143 0.304561 0.204260
O O3 0.120404 0.855159 0.062148
O O4 0.202491 0.360809 0.983920
O O5 0.763422 0.301416 0.210364
O O6 0.471554 0.778589 0.183431
O O7 0.500000 0.000000 0.000000
O O8 0.143888 0.277864 0.375013
O O9 0.366914 0.426765 0.601215
O O10 0.083720 0.514302 0.423111
O O11 0.000000 0.000000 0.500000
O O12 0.253731 0.325530 0.258801
O O13 0.952900 0.319477 0.138560
O O14 0.944431 0.842567 0.259432
O O15 0.919260 0.279300 0.768443
#
# Coordination Sequence:
#
# PCOD9044230 Si02
#       7
#     2   2   2   2   2   2   2
#     4  11  25  45  78 106 149 196 251 300 381 439
#     4  12  28  49  75 112 154 195 244 311 378 455
#     4  11  26  47  73 111 149 195 254 311 369 438
#     4  11  25  47  78 107 151 195 251 309 373 444
#     4  12  25  48  74 110 149 197 253 307 366 449
#     4  11  25  47  74 106 147 196 247 305 385 432
#     4  10  23  46  71 113 143 192 249 310 364 445
#
# _framework density 23.282194
#
# number of rings (size 3 to 8) (size 9 to 14) (size 15 to 20)
#    0.000    0.857    4.286    1.286    2.000    8.571 
#    0.000    0.714    0.000    0.000    0.000    0.000 
#    0.000    0.000    0.000    0.000    0.000    0.000 
#
# Total GULP energy -78326.853365 kJ/mol
# GULP energy per Si atom -5594.775240 kJ/mol
# Density = 2.322920 g / cm^3
# Si number density = 23.282194 Si / 1000 Ang^3
#
#
#
# Elastic Constant Matrix: (Units=GPa)
#
#
# Indices 1 2 3 4 5 6 
#
# 1 143.1751 51.7560 60.9880 3.9566 6.6706 -11.6387
# 2 51.7560 146.0622 62.6768 -19.0706 8.4996 -12.9031
# 3 60.9880 62.6768 139.5080 -10.7813 7.5244 -13.7128
# 4 3.9566 -19.0706 -10.7813 37.5497 -6.0704 -2.2998
# 5 6.6706 8.4996 7.5244 -6.0704 42.3504 0.2654
# 6 -11.6387 -12.9031 -13.7128 -2.2998 0.2654 37.7677
#
#
#
# Elastic Compliance Matrix: (Units=1/GPa)
#
#
# Indices 1 2 3 4 5 6 
#
# 1 0.009345 -0.002225 -0.003203 -0.003134 -0.000910 0.000772
# 2 -0.002225 0.009591 -0.002794 0.004340 -0.000467 0.001844
# 3 -0.003203 -0.002794 0.010179 0.001877 -0.000486 0.001872
# 4 -0.003134 0.004340 0.001877 0.030479 0.003639 0.003029
# 5 -0.000910 -0.000467 -0.000486 0.003639 0.024461 -0.000567
# 6 0.000772 0.001844 0.001872 0.003029 -0.000567 0.028214
#
#
# Mechanical properties :
#
#
# Convention : Reuss Voigt Hill
#
# Bulk Modulus (GPa) = 78.92464 86.62077 82.77271
# Shear Modulus (GPa) = 37.61228 40.42186 39.01707
#
# Velocity S-wave (km/s) = 4.02368 4.17126 4.09814
# Velocity P-wave (km/s) = 7.45382 7.77719 7.61722
#
# Compressibility (1/GPa) = 0.01267031
#
# Stress axis : x y z
#
# Youngs Moduli (GPa) = 107.01083 104.26875 98.24294
#
# Poissons Ratio (x) = 0.23199 0.31466
# Poissons Ratio (y) = 0.23809 0.27451
# Poissons Ratio (z) = 0.34274 0.29135
#
# Static dielectric constant tensor:
#      x y z
#    x 1.891320 -0.010970 -0.000070 
#    y -0.010970 1.913310 -0.017050 
#    z -0.000070 -0.017050 1.874960 
# 
# From -- ./inp_files/27500.got.cif
#   From: 2010.05.17/outbox.cif.g08.bks.cpg/sg2_14_cif.got.tgz:27500.got - 2010.06.03 11:33:40.
