data_PCOD9044721
_publ_section_title
;
Structure prediction by ZEFSAII (Michael W. Deem and Ramdas Pophale) SiO2 
 PCOD9044721
Probable space group: P -1
;
_chemical_formula_sum "Si O2"
_cell_formula_units_Z 16
_cell_length_a 5.180612
_cell_length_b 20.014098
_cell_length_c 10.990075
_cell_angle_alpha 41.231886
_cell_angle_beta 98.751917
_cell_angle_gamma 111.050601
_cell_volume 687.924496
_symmetry_space_group_name_H-M "P -1"
_symmetry_group_IT_number 2
_symmetry_cell_setting 'triclinic'
loop_
_space_group_symop_operation_xyz
x,y,z
-x,-y,-z
loop_
_atom_site_type_symbol
_atom_site_label
_atom_site_fract_x
_atom_site_fract_y
_atom_site_fract_z
Si Si1 0.979474 0.632323 0.190865
Si Si2 0.314613 0.540908 0.017573
Si Si3 0.858583 0.854751 0.415094
Si Si4 0.336513 0.030187 0.338312
Si Si5 0.172070 0.344104 0.435016
Si Si6 0.414365 0.958115 0.187888
Si Si7 0.262462 0.631455 0.462093
Si Si8 0.529188 0.725058 0.945160
O O1 0.139847 0.661008 0.290970
O O2 0.857256 0.500418 0.354823
O O3 0.218342 0.686582 0.033612
O O4 0.728794 0.675279 0.098305
O O5 0.290256 0.471027 0.233800
O O6 0.500000 0.500000 0.000000
O O7 0.463463 0.668062 0.886179
O O8 0.000000 0.500000 0.000000
O O9 0.076007 0.900269 0.253803
O O10 0.828567 0.729530 0.580930
O O11 0.582406 0.880293 0.340227
O O12 0.039531 0.929225 0.435133
O O13 0.323576 0.145386 0.214058
O O14 0.500000 0.000000 0.500000
O O15 0.476478 0.039191 0.199829
O O16 0.401611 0.326987 0.563871
O O17 0.872908 0.323491 0.500727
O O18 0.500000 0.000000 0.000000
#
# Coordination Sequence:
#
# PCOD9044721 Si02
#       8
#     2   2   2   2   2   2   2   2
#     4  11  23  43  67 105 137 182 220 283 352 424
#     4  12  26  43  67  97 131 179 227 286 343 412
#     4  10  25  44  69 100 137 182 230 290 344 422
#     4  10  28  48  71 102 141 191 242 294 354 417
#     4  12  23  43  66 101 135 176 228 278 349 416
#     4  10  23  47  72 102 138 182 239 296 352 416
#     4  11  22  41  70 101 146 173 224 281 352 431
#     4  12  25  46  70  97 141 180 236 281 350 425
#
# _framework density 23.258365000000001
#
# number of rings (size 3 to 8) (size 9 to 14) (size 15 to 20)
#    0.750    0.250    2.500    3.375    3.500    6.500 
#    0.000    0.000    0.000    0.000    0.000    0.000 
#    0.000    0.000    0.000    0.000    0.000    0.000 
#
# Total GULP energy -89397.027943 kJ/mol
# GULP energy per Si atom -5587.314246 kJ/mol
# Density = 2.320543 g / cm^3
# Si number density = 23.258365 Si / 1000 Ang^3
#
#
#
# Elastic Constant Matrix: (Units=GPa)
#
#
# Indices 1 2 3 4 5 6 
#
# 1 95.9757 29.6602 13.5104 2.7761 16.6872 1.3176
# 2 29.6602 142.3080 53.4471 -14.8463 18.7879 -1.6365
# 3 13.5104 53.4471 49.0160 -1.3311 19.6431 -3.6009
# 4 2.7761 -14.8463 -1.3311 37.5373 -6.3110 7.4069
# 5 16.6872 18.7879 19.6431 -6.3110 39.3308 4.9068
# 6 1.3176 -1.6365 -3.6009 7.4069 4.9068 43.9134
#
#
#
# Elastic Compliance Matrix: (Units=1/GPa)
#
#
# Indices 1 2 3 4 5 6 
#
# 1 0.012013 -0.002791 0.001807 -0.002960 -0.005237 0.000768
# 2 -0.002791 0.013532 -0.015446 0.006043 0.003667 -0.002108
# 3 0.001807 -0.015446 0.044039 -0.008917 -0.017618 0.006454
# 4 -0.002960 0.006043 -0.008917 0.031737 0.008757 -0.006749
# 5 -0.005237 0.003667 -0.017618 0.008757 0.036943 -0.006756
# 6 0.000768 -0.002108 0.006454 -0.006749 -0.006756 0.025093
#
#
# Mechanical properties :
#
#
# Convention : Reuss Voigt Hill
#
# Bulk Modulus (GPa) = 27.23101 53.39278 40.31190
# Shear Modulus (GPa) = 23.98559 36.86844 30.42702
#
# Velocity S-wave (km/s) = 3.21482 3.98574 3.62085
# Velocity P-wave (km/s) = 5.05109 6.64738 5.90344
#
# Compressibility (1/GPa) = 0.03672283
#
# Stress axis : x y z
#
# Youngs Moduli (GPa) = 83.24243 73.89869 22.70729
#
# Poissons Ratio (x) = 0.20625 -0.04103
# Poissons Ratio (y) = 0.23233 0.35074
# Poissons Ratio (z) = -0.15041 1.14147
#
# Static dielectric constant tensor:
#      x y z
#    x 1.842400 -0.014800 -0.047600 
#    y -0.014800 1.930530 -0.007520 
#    z -0.047600 -0.007520 1.885210 
# 
# From -- ./inp_files/370360.got.cif
#   From: 2010.05.17/outbox.cif.g08.bks.cpg/sg2_186_cif.got.tgz:370360.got - 2010.06.03 11:33:40.
