data_PCOD9044556
_publ_section_title
;
Structure prediction by ZEFSAII (Michael W. Deem and Ramdas Pophale) SiO2 
 PCOD9044556
Probable space group: P -1
;
_chemical_formula_sum "Si O2"
_cell_formula_units_Z 16
_cell_length_a 7.629376
_cell_length_b 26.905516
_cell_length_c 12.516640
_cell_angle_alpha 21.392105
_cell_angle_beta 128.408667
_cell_angle_gamma 129.419597
_cell_volume 719.847795
_symmetry_space_group_name_H-M "P -1"
_symmetry_group_IT_number 2
_symmetry_cell_setting 'triclinic'
loop_
_space_group_symop_operation_xyz
x,y,z
-x,-y,-z
loop_
_atom_site_type_symbol
_atom_site_label
_atom_site_fract_x
_atom_site_fract_y
_atom_site_fract_z
Si Si1 0.740569 0.724754 0.218242
Si Si2 0.675795 0.141547 0.117600
Si Si3 0.619553 0.382802 0.324577
Si Si4 0.988553 0.392571 0.613922
Si Si5 0.950518 0.346398 0.338551
Si Si6 0.667622 0.903154 0.216821
Si Si7 0.276246 0.932704 0.293999
Si Si8 0.929161 0.029399 0.632051
O O1 0.786946 0.622083 0.343587
O O2 0.834551 0.677872 0.460378
O O3 0.501145 0.772424 0.061704
O O4 0.912415 0.864677 0.964016
O O5 0.810624 0.074388 0.393550
O O6 0.539146 0.018466 0.235960
O O7 0.858470 0.247568 0.906062
O O8 0.810274 0.436577 0.375516
O O9 0.751280 0.331475 0.379627
O O10 0.443863 0.247636 0.567062
O O11 0.500000 0.500000 0.000000
O O12 0.000000 0.500000 0.500000
O O13 0.840860 0.226822 0.454184
O O14 0.000000 0.500000 0.000000
O O15 0.821294 0.888106 0.408020
O O16 0.500000 0.000000 0.000000
O O17 0.796399 0.987640 0.997014
O O18 0.208536 0.947032 0.361628
#
# Coordination Sequence:
#
# PCOD9044556 Si02
#       8
#     2   2   2   2   2   2   2   2
#     4  10  23  47  67 101 142 178 236 294 347 420
#     4  11  26  46  70 102 147 180 234 296 350 424
#     4  11  26  44  66 103 141 175 239 298 352 420
#     4  11  26  47  70  98 141 191 231 284 359 424
#     4  11  25  41  70 104 137 183 236 290 356 424
#     4  12  22  44  74 102 134 183 237 296 349 417
#     4  11  22  43  71 100 134 186 233 282 353 412
#     4  11  25  42  69 107 139 177 233 294 349 422
#
# _framework density 22.226921999999998
#
# number of rings (size 3 to 8) (size 9 to 14) (size 15 to 20)
#    0.000    1.000    3.750    2.625    7.000    2.000 
#    6.750    0.000    0.000    0.000    0.000    0.000 
#    0.000    0.000    0.000    0.000    0.000    0.000 
#
# Total GULP energy -89217.466328 kJ/mol
# GULP energy per Si atom -5576.091645 kJ/mol
# Density = 2.217633 g / cm^3
# Si number density = 22.226922 Si / 1000 Ang^3
#
#
#
# Elastic Constant Matrix: (Units=GPa)
#
#
# Indices 1 2 3 4 5 6 
#
# 1 78.3554 27.3434 12.8156 -1.3918 -10.9169 -14.0979
# 2 27.3434 90.4100 37.6667 -3.1954 4.2472 -24.2736
# 3 12.8156 37.6667 123.5568 12.6835 -7.9795 1.9919
# 4 -1.3918 -3.1954 12.6835 45.1428 6.3316 1.3079
# 5 -10.9169 4.2472 -7.9795 6.3316 23.5348 1.4793
# 6 -14.0979 -24.2736 1.9919 1.3079 1.4793 34.8031
#
#
#
# Elastic Compliance Matrix: (Units=1/GPa)
#
#
# Indices 1 2 3 4 5 6 
#
# 1 0.016021 -0.004684 0.000399 -0.001234 0.008563 0.002883
# 2 -0.004684 0.019027 -0.006548 0.004051 -0.009671 0.012006
# 3 0.000399 -0.006548 0.010999 -0.004315 0.006581 -0.005153
# 4 -0.001234 0.004051 -0.004315 0.024899 -0.009594 0.002044
# 5 0.008563 -0.009671 0.006581 -0.009594 0.053370 -0.005561
# 6 0.002883 0.012006 -0.005153 0.002044 -0.005561 0.038729
#
#
# Mechanical properties :
#
#
# Convention : Reuss Voigt Hill
#
# Bulk Modulus (GPa) = 41.01467 49.77485 45.39476
# Shear Modulus (GPa) = 25.92844 34.99591 30.46217
#
# Velocity S-wave (km/s) = 3.41916 3.97228 3.70605
# Velocity P-wave (km/s) = 5.83783 6.59403 6.22742
#
# Compressibility (1/GPa) = 0.02438152
#
# Stress axis : x y z
#
# Youngs Moduli (GPa) = 62.41680 52.55821 90.91392
#
# Poissons Ratio (x) = 0.24617 -0.03631
# Poissons Ratio (y) = 0.29235 0.59534
# Poissons Ratio (z) = -0.02493 0.34417
#
# Static dielectric constant tensor:
#      x y z
#    x 1.956370 0.058890 0.042070 
#    y 0.058890 1.900660 -0.039960 
#    z 0.042070 -0.039960 1.808650 
# 
# From -- ./inp_files/392907.got.cif
#   From: 2010.05.17/outbox.cif.g08.bks.cpg/sg2_197_cif.got.tgz:392907.got - 2010.06.03 11:33:40.
