data_PCOD9044411
_publ_section_title
;
Structure prediction by ZEFSAII (Michael W. Deem and Ramdas Pophale) SiO2 
 PCOD9044411
Probable space group: P -1
;
_chemical_formula_sum "Si O2"
_cell_formula_units_Z 11
_cell_length_a 14.181761
_cell_length_b 8.331358
_cell_length_c 13.220351
_cell_angle_alpha 118.352352
_cell_angle_beta 31.231916
_cell_angle_gamma 138.749395
_cell_volume 465.112832
_symmetry_space_group_name_H-M "P -1"
_symmetry_group_IT_number 2
_symmetry_cell_setting 'triclinic'
loop_
_space_group_symop_operation_xyz
x,y,z
-x,-y,-z
loop_
_atom_site_type_symbol
_atom_site_label
_atom_site_fract_x
_atom_site_fract_y
_atom_site_fract_z
Si Si1 0.940861 0.341591 0.731654
Si Si2 0.449569 0.259209 0.174963
Si Si3 0.642521 0.764638 0.515612
Si Si4 0.504280 0.042676 0.627452
Si Si5 0.833606 0.042886 0.931308
Si Si6 0.500000 0.500000 0.000000
O O1 0.974191 0.294693 0.802593
O O2 0.225092 0.626614 0.509432
O O3 0.806586 0.072815 0.712306
O O4 0.724862 0.344392 0.936678
O O5 0.423245 0.308724 0.328367
O O6 0.455977 0.426215 0.139117
O O7 0.500000 0.500000 0.500000
O O8 0.974566 0.991436 0.261993
O O9 0.546222 0.888170 0.604223
O O10 0.500000 0.000000 0.500000
O O11 0.231774 0.930991 0.891067
O O12 0.551692 0.760756 0.052452
#
# Coordination Sequence:
#
# PCOD9044411 Si02
#       6
#     2   2   2   2   2   1
#     4  10  23  47  73 102 141 187 239 295 353 419
#     4  10  23  46  74 105 144 186 238 297 351 420
#     4  12  28  46  73 105 147 191 233 295 356 426
#     4  12  28  46  74 103 145 195 233 292 357 424
#     4  11  26  46  72 108 141 186 240 294 350 426
#     4  10  24  42  74 110 136 184 240 292 350 418
#
# _framework density 23.650175000000001
#
# number of rings (size 3 to 8) (size 9 to 14) (size 15 to 20)
#    0.000    1.091    1.818    2.182   10.182    4.364 
#    0.000    0.000    0.000    0.000    0.000    0.000 
#    0.000    0.000    0.000    0.000    0.000    0.000 
#
# Total GULP energy -61365.525815 kJ/mol
# GULP energy per Si atom -5578.684165 kJ/mol
# Density = 2.359635 g / cm^3
# Si number density = 23.650175 Si / 1000 Ang^3
#
#
#
# Elastic Constant Matrix: (Units=GPa)
#
#
# Indices 1 2 3 4 5 6 
#
# 1 105.9881 26.1250 56.7762 12.5951 41.7868 -7.8628
# 2 26.1250 86.7269 35.0608 -2.6625 28.7989 -10.8577
# 3 56.7762 35.0608 112.2421 21.4531 29.1366 1.3312
# 4 12.5951 -2.6625 21.4531 35.0544 3.1394 10.5160
# 5 41.7868 28.7989 29.1366 3.1394 49.1603 6.0645
# 6 -7.8628 -10.8577 1.3312 10.5160 6.0645 38.1577
#
#
#
# Elastic Compliance Matrix: (Units=1/GPa)
#
#
# Indices 1 2 3 4 5 6 
#
# 1 0.018886 0.002484 -0.005763 -0.004238 -0.014849 0.008328
# 2 0.002484 0.016838 -0.004276 0.001965 -0.010376 0.006560
# 3 -0.005763 -0.004276 0.014685 -0.006906 -0.000749 -0.000894
# 4 -0.004238 0.001965 -0.006906 0.037299 0.005549 -0.011235
# 5 -0.014849 -0.010376 -0.000749 0.005549 0.040860 -0.014009
# 6 0.008328 0.006560 -0.000894 -0.011235 -0.014009 0.035144
#
#
# Mechanical properties :
#
#
# Convention : Reuss Voigt Hill
#
# Bulk Modulus (GPa) = 28.32953 60.09789 44.21371
# Shear Modulus (GPa) = 26.23474 36.94083 31.58779
#
# Velocity S-wave (km/s) = 3.33420 3.95646 3.65859
# Velocity P-wave (km/s) = 5.17949 6.80719 6.04834
#
# Compressibility (1/GPa) = 0.03529885
#
# Stress axis : x y z
#
# Youngs Moduli (GPa) = 52.94963 59.39031 68.09640
#
# Poissons Ratio (x) = -0.14754 0.39245
# Poissons Ratio (y) = -0.13154 0.29118
# Poissons Ratio (z) = 0.30515 0.25395
#
# Static dielectric constant tensor:
#      x y z
#    x 1.738980 0.021710 0.060910 
#    y 0.021710 1.939490 -0.016390 
#    z 0.060910 -0.016390 1.875870 
# 
# From -- ./inp_files/22138.got.cif
#   From: 2010.05.17/outbox.cif.g08.bks.cpg/sg2_12_cif.got.tgz:22138.got - 2010.06.03 11:33:40.
