data_PCOD9044274
_publ_section_title
;
Structure prediction by ZEFSAII (Michael W. Deem and Ramdas Pophale) SiO2 
 PCOD9044274
Probable space group: P -1
;
_chemical_formula_sum "Si O2"
_cell_formula_units_Z 12
_cell_length_a 8.960097
_cell_length_b 11.179329
_cell_length_c 7.020011
_cell_angle_alpha 100.445381
_cell_angle_beta 50.423483
_cell_angle_gamma 83.812090
_cell_volume 509.358748
_symmetry_space_group_name_H-M "P -1"
_symmetry_group_IT_number 2
_symmetry_cell_setting 'triclinic'
loop_
_space_group_symop_operation_xyz
x,y,z
-x,-y,-z
loop_
_atom_site_type_symbol
_atom_site_label
_atom_site_fract_x
_atom_site_fract_y
_atom_site_fract_z
Si Si1 0.668170 0.053137 0.282786
Si Si2 0.997792 0.080390 0.329428
Si Si3 0.664906 0.577655 0.926343
Si Si4 0.210318 0.391262 0.761021
Si Si5 0.528496 0.304873 0.224721
Si Si6 0.063153 0.682691 0.297997
O O1 0.817473 0.070884 0.334442
O O2 0.566044 0.186320 0.298766
O O3 0.500000 0.000000 0.500000
O O4 0.803854 0.967731 0.979084
O O5 0.964776 0.221178 0.477972
O O6 0.000000 0.000000 0.500000
O O7 0.597709 0.691902 0.865000
O O8 0.869756 0.460714 0.717660
O O9 0.500000 0.500000 0.000000
O O10 0.677617 0.637468 0.138389
O O11 0.372763 0.422274 0.496430
O O12 0.127779 0.291158 0.680428
O O13 0.000000 0.500000 0.000000
O O14 0.747965 0.311459 0.986468
#
# Coordination Sequence:
#
# PCOD9044274 Si02
#       6
#     2   2   2   2   2   2
#     4  11  28  48  73 105 143 188 244 302 354 421
#     4  11  25  50  73 104 143 190 245 294 357 419
#     4   9  22  44  70 105 139 181 230 287 353 421
#     4  10  24  43  66 107 144 184 232 283 357 427
#     4  11  24  45  71 104 141 186 233 294 358 417
#     4  10  23  46  72 103 143 187 235 293 351 425
#
# _framework density 23.559031999999998
#
# number of rings (size 3 to 8) (size 9 to 14) (size 15 to 20)
#    0.000    1.667    1.667    0.000    7.000   10.667 
#    6.000    0.000    0.000    0.000    0.000    0.000 
#    0.000    0.000    0.000    0.000    0.000    0.000 
#
# Total GULP energy -66975.647019 kJ/mol
# GULP energy per Si atom -5581.303918 kJ/mol
# Density = 2.350541 g / cm^3
# Si number density = 23.559032 Si / 1000 Ang^3
#
#
#
# Elastic Constant Matrix: (Units=GPa)
#
#
# Indices 1 2 3 4 5 6 
#
# 1 177.7000 52.1559 108.4230 -15.8606 22.6657 -9.8423
# 2 52.1559 66.2448 47.7517 -22.0075 -1.8721 -7.5357
# 3 108.4230 47.7517 203.1900 -8.3127 -1.3549 12.1627
# 4 -15.8606 -22.0075 -8.3127 44.8662 -1.9986 10.5970
# 5 22.6657 -1.8721 -1.3549 -1.9986 47.0886 -5.9058
# 6 -9.8423 -7.5357 12.1627 10.5970 -5.9058 37.4286
#
#
#
# Elastic Compliance Matrix: (Units=1/GPa)
#
#
# Indices 1 2 3 4 5 6 
#
# 1 0.010809 -0.005027 -0.004798 -0.000399 -0.005222 0.002678
# 2 -0.005027 0.024613 -0.002845 0.009347 0.004033 0.002548
# 3 -0.004798 -0.002845 0.008390 -0.000478 0.001900 -0.004126
# 4 -0.000399 0.009347 -0.000478 0.028072 0.001007 -0.005857
# 5 -0.005222 0.004033 0.001900 0.001007 0.024305 0.002371
# 6 0.002678 0.002548 -0.004126 -0.005857 0.002371 0.031308
#
#
# Mechanical properties :
#
#
# Convention : Reuss Voigt Hill
#
# Bulk Modulus (GPa) = 54.13437 95.97735 75.05586
# Shear Modulus (GPa) = 31.44743 41.79697 36.62220
#
# Velocity S-wave (km/s) = 3.65750 4.21662 3.94698
# Velocity P-wave (km/s) = 6.39253 8.03331 7.25943
#
# Compressibility (1/GPa) = 0.01847255
#
# Stress axis : x y z
#
# Youngs Moduli (GPa) = 92.51435 40.62830 119.18475
#
# Poissons Ratio (x) = 0.20425 0.57182
# Poissons Ratio (y) = 0.46509 0.33909
# Poissons Ratio (z) = 0.44387 0.11559
#
# Static dielectric constant tensor:
#      x y z
#    x 1.919630 0.014750 -0.055700 
#    y 0.014750 1.975800 -0.011480 
#    z -0.055700 -0.011480 2.021660 
# 
# From -- ./inp_files/28013.got.cif
#   From: 2010.05.17/outbox.cif.g08.bks.cpg/sg2_15_cif.got.tgz:28013.got - 2010.06.03 11:33:40.
