data_PCOD9044631
_publ_section_title
;
Structure prediction by ZEFSAII (Michael W. Deem and Ramdas Pophale) SiO2 
 PCOD9044631
Probable space group: P -1
;
_chemical_formula_sum "Si O2"
_cell_formula_units_Z 16
_cell_length_a 20.386751
_cell_length_b 12.857955
_cell_length_c 8.925334
_cell_angle_alpha 28.874854
_cell_angle_beta 132.803559
_cell_angle_gamma 143.152565
_cell_volume 675.694652
_symmetry_space_group_name_H-M "P -1"
_symmetry_group_IT_number 2
_symmetry_cell_setting 'triclinic'
loop_
_space_group_symop_operation_xyz
x,y,z
-x,-y,-z
loop_
_atom_site_type_symbol
_atom_site_label
_atom_site_fract_x
_atom_site_fract_y
_atom_site_fract_z
Si Si1 0.781794 0.473280 0.745420
Si Si2 0.061391 0.241340 0.676254
Si Si3 0.422117 0.084895 0.819459
Si Si4 0.257890 0.348499 0.012917
Si Si5 0.705300 0.803829 0.045100
Si Si6 0.114611 0.707781 0.099630
Si Si7 0.493065 0.630997 0.093363
Si Si8 0.897508 0.908269 0.620015
O O1 0.719686 0.592286 0.422037
O O2 0.844055 0.435303 0.758101
O O3 0.855897 0.664467 0.753558
O O4 0.697990 0.179943 0.047999
O O5 0.019197 0.431417 0.375566
O O6 0.180423 0.407128 0.731899
O O7 0.017679 0.053816 0.695869
O O8 0.000000 0.000000 0.000000
O O9 0.448623 0.335724 0.451252
O O10 0.445289 0.177958 0.910810
O O11 0.500000 0.000000 0.000000
O O12 0.381445 0.599866 0.919715
O O13 0.194274 0.196772 0.258412
O O14 0.272260 0.191086 0.102412
O O15 0.583842 0.722358 0.992265
O O16 0.796049 0.078938 0.916756
O O17 0.093348 0.866901 0.750625
#
# Coordination Sequence:
#
# PCOD9044631 Si02
#       8
#     2   2   2   2   2   2   2   2
#     4  11  21  41  69  98 134 175 223 279 328 396
#     4  10  23  47  69  97 138 172 223 283 341 395
#     4  11  21  38  66  99 133 176 229 276 322 386
#     4  11  23  45  65  97 142 177 215 284 329 397
#     4  11  23  42  65  98 142 174 219 273 335 403
#     4  11  22  45  71  99 131 178 224 277 333 403
#     4  11  23  39  66  99 139 179 223 268 329 406
#     4  10  24  44  72  98 130 175 235 278 331 394
#
# _framework density 23.679334000000001
#
# number of rings (size 3 to 8) (size 9 to 14) (size 15 to 20)
#    0.000    1.250    3.750    2.250    3.500    0.500 
#   13.500    2.500    0.000    0.000    0.000    0.000 
#    0.000    0.000    0.000    0.000    0.000    0.000 
#
# Total GULP energy -89337.633320 kJ/mol
# GULP energy per Si atom -5583.602083 kJ/mol
# Density = 2.362544 g / cm^3
# Si number density = 23.679334 Si / 1000 Ang^3
#
#
#
# Elastic Constant Matrix: (Units=GPa)
#
#
# Indices 1 2 3 4 5 6 
#
# 1 93.9924 19.0649 17.1610 1.6007 -10.5960 -16.0268
# 2 19.0649 131.5276 60.0826 -2.9412 -5.8486 -13.4828
# 3 17.1610 60.0826 88.2061 -17.2166 -2.0284 -13.9661
# 4 1.6007 -2.9412 -17.2166 35.9188 -3.1049 2.4633
# 5 -10.5960 -5.8486 -2.0284 -3.1049 25.1290 6.6571
# 6 -16.0268 -13.4828 -13.9661 2.4633 6.6571 36.4657
#
#
#
# Elastic Compliance Matrix: (Units=1/GPa)
#
#
# Indices 1 2 3 4 5 6 
#
# 1 0.012138 -0.000509 -0.001552 -0.001282 0.003664 0.003969
# 2 -0.000509 0.011456 -0.008098 -0.002877 0.001208 0.000884
# 3 -0.001552 -0.008098 0.019289 0.008354 -0.000823 0.003297
# 4 -0.001282 -0.002877 0.008354 0.032080 0.003768 -0.001282
# 5 0.003664 0.001208 -0.000823 0.003768 0.043741 -0.006498
# 6 0.003969 0.000884 0.003297 -0.001282 -0.006498 0.032030
#
#
# Mechanical properties :
#
#
# Convention : Reuss Voigt Hill
#
# Bulk Modulus (GPa) = 44.31869 56.26033 50.28951
# Shear Modulus (GPa) = 27.99954 33.99722 30.99838
#
# Velocity S-wave (km/s) = 3.44240 3.79322 3.62206
# Velocity P-wave (km/s) = 5.87852 6.55710 6.22706
#
# Compressibility (1/GPa) = 0.02256384
#
# Stress axis : x y z
#
# Youngs Moduli (GPa) = 82.38888 87.28995 51.84320
#
# Poissons Ratio (x) = 0.04445 0.08046
# Poissons Ratio (y) = 0.04195 0.41983
# Poissons Ratio (z) = 0.12787 0.70689
#
# Static dielectric constant tensor:
#      x y z
#    x 1.869130 0.027260 0.162660 
#    y 0.027260 1.890590 0.035240 
#    z 0.162660 0.035240 1.612540 
# 
# From -- ./inp_files/345810.got.cif
#   From: 2010.05.17/outbox.cif.g08.bks.cpg/sg2_173_cif.got.tgz:345810.got - 2010.06.03 11:33:40.
