data_PCOD9044183
_publ_section_title
;
Structure prediction by ZEFSAII (Michael W. Deem and Ramdas Pophale) SiO2 
 PCOD9044183
Probable space group: P -1
;
_chemical_formula_sum "Si O2"
_cell_formula_units_Z 14
_cell_length_a 10.012413
_cell_length_b 11.955344
_cell_length_c 24.933661
_cell_angle_alpha 23.913317
_cell_angle_beta 27.063632
_cell_angle_gamma 37.821808
_cell_volume 545.709137
_symmetry_space_group_name_H-M "P -1"
_symmetry_group_IT_number 2
_symmetry_cell_setting 'triclinic'
loop_
_space_group_symop_operation_xyz
x,y,z
-x,-y,-z
loop_
_atom_site_type_symbol
_atom_site_label
_atom_site_fract_x
_atom_site_fract_y
_atom_site_fract_z
Si Si1 0.720022 0.076037 0.672556
Si Si2 0.862677 0.291801 0.935052
Si Si3 0.827679 0.210029 0.166701
Si Si4 0.173431 0.340091 0.318618
Si Si5 0.787804 0.870414 0.435915
Si Si6 0.739425 0.072061 0.928075
Si Si7 0.545017 0.648379 0.265771
O O1 0.564035 0.328920 0.643966
O O2 0.888301 0.132957 0.531224
O O3 0.966286 0.057851 0.638357
O O4 0.458415 0.818618 0.877917
O O5 0.843745 0.503677 0.800092
O O6 0.128761 0.444756 0.809175
O O7 0.000000 0.000000 0.000000
O O8 0.487025 0.233734 0.264797
O O9 0.988123 0.094444 0.109196
O O10 0.866275 0.998200 0.293787
O O11 0.000000 0.500000 0.000000
O O12 0.167850 0.602420 0.245857
O O13 0.678462 0.546766 0.605753
O O14 0.500000 0.000000 0.500000
O O15 0.585328 0.951757 0.090674
O O16 0.500000 0.000000 0.000000
#
# Coordination Sequence:
#
# PCOD9044183 Si02
#       7
#     2   2   2   2   2   2   2
#     4  11  22  43  73 102 139 181 235 293 348 418
#     4  10  23  46  71 100 143 189 234 286 354 427
#     4  12  24  41  67 105 142 184 234 292 353 421
#     4  12  23  44  72 102 140 188 236 289 355 417
#     4  12  23  43  66 101 142 174 233 293 352 410
#     4  12  22  41  70 102 142 181 233 292 352 416
#     4  11  24  45  69 103 137 188 236 284 357 422
#
# _framework density 25.654693000000002
#
# number of rings (size 3 to 8) (size 9 to 14) (size 15 to 20)
#    0.000    0.571    5.714    4.714    0.000    2.286 
#    2.571    3.571    0.000    0.000    0.000    0.000 
#    0.000    0.000    0.000    0.000    0.000    0.000 
#
# Total GULP energy -78397.545268 kJ/mol
# GULP energy per Si atom -5599.824662 kJ/mol
# Density = 2.559630 g / cm^3
# Si number density = 25.654693 Si / 1000 Ang^3
#
#
#
# Elastic Constant Matrix: (Units=GPa)
#
#
# Indices 1 2 3 4 5 6 
#
# 1 101.4348 15.6038 49.3583 18.7872 2.1169 -38.9456
# 2 15.6038 110.3760 58.8206 21.9972 -8.4849 -1.2958
# 3 49.3583 58.8206 172.2303 29.2173 5.6573 -26.3110
# 4 18.7872 21.9972 29.2173 50.6771 -1.1849 -3.3186
# 5 2.1169 -8.4849 5.6573 -1.1849 54.6949 7.1075
# 6 -38.9456 -1.2958 -26.3110 -3.3186 7.1075 44.2292
#
#
#
# Elastic Compliance Matrix: (Units=1/GPa)
#
#
# Indices 1 2 3 4 5 6 
#
# 1 0.017003 -0.000694 -0.001705 -0.004159 -0.002502 0.014028
# 2 -0.000694 0.012028 -0.004026 -0.002796 0.002676 -0.003293
# 3 -0.001705 -0.004026 0.008716 -0.002450 -0.001994 0.003702
# 4 -0.004159 -0.002796 -0.002450 0.023689 0.000959 -0.003578
# 5 -0.002502 0.002676 -0.001994 0.000959 0.019858 -0.006430
# 6 0.014028 -0.003293 0.003702 -0.003578 -0.006430 0.037832
#
#
# Mechanical properties :
#
#
# Convention : Reuss Voigt Hill
#
# Bulk Modulus (GPa) = 40.16361 70.17850 55.17106
# Shear Modulus (GPa) = 35.64426 47.27080 41.45753
#
# Velocity S-wave (km/s) = 3.73149 4.29718 4.02429
# Velocity P-wave (km/s) = 5.85276 7.21356 6.56850
#
# Compressibility (1/GPa) = 0.02489816
#
# Stress axis : x y z
#
# Youngs Moduli (GPa) = 58.81160 83.14246 114.72587
#
# Poissons Ratio (x) = 0.05768 0.19564
# Poissons Ratio (y) = 0.04080 0.46184
# Poissons Ratio (z) = 0.10029 0.33470
#
# Static dielectric constant tensor:
#      x y z
#    x 2.050610 0.054590 -0.031230 
#    y 0.054590 2.033490 0.065230 
#    z -0.031230 0.065230 2.028560 
# 
# From -- ./inp_files/428031.got.cif
#   From: 2010.05.17/outbox.cif.g08.bks.cpg/sg2_215_cif.got.tgz:428031.got - 2010.06.03 11:33:40.
