data_PCOD9044468
_publ_section_title
;
Structure prediction by ZEFSAII (Michael W. Deem and Ramdas Pophale) SiO2 
 PCOD9044468
Probable space group: P -1
;
_chemical_formula_sum "Si O2"
_cell_formula_units_Z 14
_cell_length_a 5.164361
_cell_length_b 12.582933
_cell_length_c 8.850690
_cell_angle_alpha 93.841853
_cell_angle_beta 96.396244
_cell_angle_gamma 113.090539
_cell_volume 521.903809
_symmetry_space_group_name_H-M "P -1"
_symmetry_group_IT_number 2
_symmetry_cell_setting 'triclinic'
loop_
_space_group_symop_operation_xyz
x,y,z
-x,-y,-z
loop_
_atom_site_type_symbol
_atom_site_label
_atom_site_fract_x
_atom_site_fract_y
_atom_site_fract_z
Si Si1 0.474703 0.073915 0.646409
Si Si2 0.676830 0.233464 0.278258
Si Si3 0.123759 0.678319 0.262315
Si Si4 0.722003 0.494783 0.895316
Si Si5 0.034648 0.095129 0.264543
Si Si6 0.398908 0.537045 0.649034
Si Si7 0.811331 0.161036 0.970363
O O1 0.663226 0.207278 0.628681
O O2 0.855349 0.973713 0.325764
O O3 0.611329 0.071185 0.823666
O O4 0.500000 0.000000 0.500000
O O5 0.712523 0.360739 0.343689
O O6 0.911624 0.185318 0.334884
O O7 0.136890 0.423014 0.684645
O O8 0.670386 0.217119 0.091598
O O9 0.337841 0.622289 0.212224
O O10 0.632407 0.852688 0.693807
O O11 0.012956 0.731355 0.117982
O O12 0.685473 0.580275 0.775919
O O13 0.500000 0.500000 0.000000
O O14 0.000000 0.500000 0.000000
O O15 0.962410 0.101522 0.082971
O O16 0.500000 0.500000 0.500000
#
# Coordination Sequence:
#
# PCOD9044468 Si02
#       7
#     2   2   2   2   2   2   2
#     4  10  23  46  76 107 152 199 251 319 378 461
#     4  10  25  43  79 108 145 195 253 309 382 459
#     4  10  25  46  70 117 152 201 258 317 389 463
#     4  12  26  48  80 116 153 203 256 320 387 469
#     4  10  23  48  74 109 144 195 254 306 378 448
#     4  12  29  48  77 114 163 206 256 325 400 469
#     4   8  22  43  72 106 139 193 246 308 369 445
#
# _framework density 26.824864000000002
#
# number of rings (size 3 to 8) (size 9 to 14) (size 15 to 20)
#    1.714    0.000    1.429    1.286    6.000    3.429 
#    2.571    0.714    0.000    0.000    0.000    0.000 
#    0.000    0.000    0.000    0.000    0.000    0.000 
#
# Total GULP energy -78200.509886 kJ/mol
# GULP energy per Si atom -5585.750706 kJ/mol
# Density = 2.676381 g / cm^3
# Si number density = 26.824864 Si / 1000 Ang^3
#
#
#
# Elastic Constant Matrix: (Units=GPa)
#
#
# Indices 1 2 3 4 5 6 
#
# 1 167.7571 80.7727 68.9167 9.1844 -24.8676 15.8265
# 2 80.7727 151.7176 45.9311 24.4994 -14.6364 16.8044
# 3 68.9167 45.9311 148.2449 13.8557 -13.6440 -6.3474
# 4 9.1844 24.4994 13.8557 53.2552 -11.2585 -4.9511
# 5 -24.8676 -14.6364 -13.6440 -11.2585 46.4901 -4.7290
# 6 15.8265 16.8044 -6.3474 -4.9511 -4.7290 61.1841
#
#
#
# Elastic Compliance Matrix: (Units=1/GPa)
#
#
# Indices 1 2 3 4 5 6 
#
# 1 0.009718 -0.003995 -0.003185 0.001548 0.003241 -0.001371
# 2 -0.003995 0.009822 -0.000958 -0.003878 -0.000480 -0.002115
# 3 -0.003185 -0.000958 0.008748 -0.000994 0.000520 0.001954
# 4 0.001548 -0.003878 -0.000994 0.021836 0.004879 0.002706
# 5 0.003241 -0.000480 0.000520 0.004879 0.024594 0.001643
# 6 -0.001371 -0.002115 0.001954 0.002706 0.001643 0.017828
#
#
# Mechanical properties :
#
#
# Convention : Reuss Voigt Hill
#
# Bulk Modulus (GPa) = 83.25501 95.44006 89.34753
# Shear Modulus (GPa) = 44.31560 50.32583 47.32072
#
# Velocity S-wave (km/s) = 4.06893 4.33608 4.20463
# Velocity P-wave (km/s) = 7.29238 7.79263 7.54665
#
# Compressibility (1/GPa) = 0.01201129
#
# Stress axis : x y z
#
# Youngs Moduli (GPa) = 102.90122 101.80795 114.31612
#
# Poissons Ratio (x) = 0.40672 0.36411
# Poissons Ratio (y) = 0.41109 0.10955
# Poissons Ratio (z) = 0.32775 0.09757
#
# Static dielectric constant tensor:
#      x y z
#    x 2.108160 0.055630 0.045340 
#    y 0.055630 2.195440 -0.057900 
#    z 0.045340 -0.057900 2.223320 
# 
# From -- ./inp_files/136315.got.cif
#   From: 2010.05.17/outbox.cif.g08.bks.cpg/sg2_69_cif.got.tgz:136315.got - 2010.06.03 11:33:40.
