data_PCOD9044644
_publ_section_title
;
Structure prediction by ZEFSAII (Michael W. Deem and Ramdas Pophale) SiO2 
 PCOD9044644
Probable space group: P -1
;
_chemical_formula_sum "Si O2"
_cell_formula_units_Z 13
_cell_length_a 17.173694
_cell_length_b 9.142676
_cell_length_c 5.270656
_cell_angle_alpha 96.316190
_cell_angle_beta 103.785605
_cell_angle_gamma 38.563714
_cell_volume 497.034566
_symmetry_space_group_name_H-M "P -1"
_symmetry_group_IT_number 2
_symmetry_cell_setting 'triclinic'
loop_
_space_group_symop_operation_xyz
x,y,z
-x,-y,-z
loop_
_atom_site_type_symbol
_atom_site_label
_atom_site_fract_x
_atom_site_fract_y
_atom_site_fract_z
Si Si1 0.133391 0.403904 0.015841
Si Si2 0.909123 0.211799 0.770821
Si Si3 0.000000 0.500000 0.500000
Si Si4 0.367060 0.920674 0.399319
Si Si5 0.633900 0.355413 0.937982
Si Si6 0.138498 0.995817 0.567519
Si Si7 0.497060 0.179043 0.011944
O O1 0.142561 0.561901 0.115040
O O2 0.243102 0.170078 0.217497
O O3 0.000000 0.500000 0.000000
O O4 0.125116 0.397114 0.709697
O O5 0.821236 0.205347 0.601475
O O6 0.005085 0.134588 0.617181
O O7 0.000000 0.000000 0.000000
O O8 0.910189 0.780671 0.540312
O O9 0.360239 0.753710 0.328921
O O10 0.402388 0.912072 0.709938
O O11 0.473822 0.823512 0.259391
O O12 0.625680 0.543868 0.954215
O O13 0.500000 0.500000 0.000000
O O14 0.755489 0.134265 0.158721
O O15 0.500000 0.000000 0.000000
#
# Coordination Sequence:
#
# PCOD9044644 Si02
#       7
#     2   2   1   2   2   2   2
#     4  12  25  41  68 102 139 186 234 289 357 428
#     4  11  24  42  64 102 140 179 228 290 360 422
#     4  12  22  42  70  98 140 178 242 282 358 418
#     4  11  25  46  72 101 139 190 237 291 352 429
#     4  10  23  47  70 101 137 188 239 290 353 425
#     4  11  24  44  69 102 139 180 235 294 353 425
#     4  11  26  47  71 103 141 184 241 296 359 416
#
# _framework density 26.155123
#
# number of rings (size 3 to 8) (size 9 to 14) (size 15 to 20)
#    0.000    0.923    4.615    0.923    4.308    1.231 
#   11.077    0.000    0.000    0.000    0.000    0.000 
#    0.000    0.000    0.000    0.000    0.000    0.000 
#
# Total GULP energy -72432.802183 kJ/mol
# GULP energy per Si atom -5571.754014 kJ/mol
# Density = 2.609559 g / cm^3
# Si number density = 26.155123 Si / 1000 Ang^3
#
#
#
# Elastic Constant Matrix: (Units=GPa)
#
#
# Indices 1 2 3 4 5 6 
#
# 1 82.7949 51.0084 5.3633 20.7129 5.6014 40.6903
# 2 51.0084 179.7214 46.1882 -1.0944 6.5936 54.3156
# 3 5.3633 46.1882 119.2742 -0.5383 30.8164 16.5964
# 4 20.7129 -1.0944 -0.5383 56.2127 12.3081 13.8177
# 5 5.6014 6.5936 30.8164 12.3081 29.8722 1.3012
# 6 40.6903 54.3156 16.5964 13.8177 1.3012 51.1075
#
#
#
# Elastic Compliance Matrix: (Units=1/GPa)
#
#
# Indices 1 2 3 4 5 6 
#
# 1 0.021799 -0.002369 0.003263 -0.003314 -0.004917 -0.014876
# 2 -0.002369 0.009290 -0.002332 0.003031 -0.000099 -0.008046
# 3 0.003263 -0.002332 0.013956 0.003622 -0.015758 -0.005229
# 4 -0.003314 0.003031 0.003622 0.023961 -0.013312 -0.007898
# 5 -0.004917 -0.000099 -0.015758 -0.013312 0.055668 0.011319
# 6 -0.014876 -0.008046 -0.005229 -0.007898 0.011319 0.043507
#
#
# Mechanical properties :
#
#
# Convention : Reuss Voigt Hill
#
# Bulk Modulus (GPa) = 23.71529 65.21227 44.46378
# Shear Modulus (GPa) = 27.01042 46.05388 36.53215
#
# Velocity S-wave (km/s) = 3.21705 4.20074 3.74137
# Velocity P-wave (km/s) = 4.78394 6.96529 5.97501
#
# Compressibility (1/GPa) = 0.04216688
#
# Stress axis : x y z
#
# Youngs Moduli (GPa) = 45.87349 107.64509 71.65474
#
# Poissons Ratio (x) = 0.25506 -0.23379
# Poissons Ratio (y) = 0.10870 0.16710
# Poissons Ratio (z) = -0.14967 0.25104
#
# Static dielectric constant tensor:
#      x y z
#    x 2.184800 -0.092120 -0.050310 
#    y -0.092120 2.172400 0.090610 
#    z -0.050310 0.090610 1.953260 
# 
# From -- ./inp_files/116305.got.cif
#   From: 2010.05.17/outbox.cif.g08.bks.cpg/sg2_59_cif.got.tgz:116305.got - 2010.06.03 11:33:40.
