data_PCOD9044124
_publ_section_title
;
Structure prediction by ZEFSAII (Michael W. Deem and Ramdas Pophale) SiO2 
 PCOD9044124
Probable space group: P -1
;
_chemical_formula_sum "Si O2"
_cell_formula_units_Z 13
_cell_length_a 8.648314
_cell_length_b 9.393286
_cell_length_c 12.053580
_cell_angle_alpha 116.315295
_cell_angle_beta 37.328809
_cell_angle_gamma 99.087230
_cell_volume 496.965949
_symmetry_space_group_name_H-M "P -1"
_symmetry_group_IT_number 2
_symmetry_cell_setting 'triclinic'
loop_
_space_group_symop_operation_xyz
x,y,z
-x,-y,-z
loop_
_atom_site_type_symbol
_atom_site_label
_atom_site_fract_x
_atom_site_fract_y
_atom_site_fract_z
Si Si1 0.220940 0.014314 0.108445
Si Si2 0.119626 0.652053 0.682133
Si Si3 0.601558 0.108095 0.282957
Si Si4 0.153395 0.276357 0.916077
Si Si5 0.500000 0.500000 0.000000
Si Si6 0.985524 0.154221 0.641595
Si Si7 0.431298 0.518355 0.785080
O O1 0.084157 0.910924 0.224118
O O2 0.292412 0.941713 0.919266
O O3 0.047335 0.213656 0.267142
O O4 0.500000 0.000000 0.000000
O O5 0.283657 0.754177 0.687778
O O6 0.335696 0.494077 0.441944
O O7 0.908109 0.638669 0.893218
O O8 0.277655 0.171491 0.492563
O O9 0.728580 0.926147 0.210302
O O10 0.381767 0.338278 0.754679
O O11 0.868267 0.359956 0.043459
O O12 0.761441 0.322024 0.778458
O O13 0.511224 0.544882 0.872970
O O14 0.000000 0.000000 0.500000
#
# Coordination Sequence:
#
# PCOD9044124 Si02
#       7
#     2   2   2   2   1   2   2
#     4  11  23  42  73 103 144 191 238 298 357 432
#     4  11  25  44  73 108 137 187 247 294 368 428
#     4  11  25  43  77 107 134 189 247 295 362 428
#     4  10  23  46  70 104 142 183 234 303 356 431
#     4  12  30  46  72 112 140 198 244 292 364 442
#     4  12  26  50  73 103 151 191 238 296 364 431
#     4  11  26  46  68 100 150 183 234 301 362 426
#
# _framework density 26.158735
#
# number of rings (size 3 to 8) (size 9 to 14) (size 15 to 20)
#    0.000    0.923    1.538    5.077   10.769    1.231 
#    0.000    1.538    0.000    0.000    0.000    0.000 
#    0.000    0.000    0.000    0.000    0.000    0.000 
#
# Total GULP energy -72732.007500 kJ/mol
# GULP energy per Si atom -5594.769808 kJ/mol
# Density = 2.609920 g / cm^3
# Si number density = 26.158735 Si / 1000 Ang^3
#
#
#
# Elastic Constant Matrix: (Units=GPa)
#
#
# Indices 1 2 3 4 5 6 
#
# 1 82.6726 23.1832 29.0704 20.5553 -9.4922 -36.4541
# 2 23.1832 107.5236 29.3909 -7.9046 -12.8787 -28.1939
# 3 29.0704 29.3909 126.7111 4.6269 -15.2862 -17.4322
# 4 20.5553 -7.9046 4.6269 48.6847 -5.0695 -8.4454
# 5 -9.4922 -12.8787 -15.2862 -5.0695 52.3189 5.0722
# 6 -36.4541 -28.1939 -17.4322 -8.4454 5.0722 51.6341
#
#
#
# Elastic Compliance Matrix: (Units=1/GPa)
#
#
# Indices 1 2 3 4 5 6 
#
# 1 0.020033 -0.000934 -0.002427 -0.006250 0.000956 0.011698
# 2 -0.000934 0.011980 -0.001659 0.003708 0.002099 0.005722
# 3 -0.002427 -0.001659 0.009085 0.000129 0.001790 0.000293
# 4 -0.006250 0.003708 0.000129 0.024226 0.002026 0.001419
# 5 0.000956 0.002099 0.001790 0.002026 0.020451 0.000748
# 6 0.011698 0.005722 0.000293 0.001419 0.000748 0.031008
#
#
# Mechanical properties :
#
#
# Convention : Reuss Voigt Hill
#
# Bulk Modulus (GPa) = 32.19713 53.35513 42.77613
# Shear Modulus (GPa) = 36.44981 46.21174 41.33077
#
# Velocity S-wave (km/s) = 3.73689 4.20764 3.97923
# Velocity P-wave (km/s) = 5.56365 6.63676 6.12376
#
# Compressibility (1/GPa) = 0.03105866
#
# Stress axis : x y z
#
# Youngs Moduli (GPa) = 49.91742 83.47496 110.07000
#
# Poissons Ratio (x) = 0.07793 0.26709
# Poissons Ratio (y) = 0.04660 0.18265
# Poissons Ratio (z) = 0.12113 0.13852
#
# Static dielectric constant tensor:
#      x y z
#    x 1.883840 -0.025910 0.136770 
#    y -0.025910 2.031060 0.007760 
#    z 0.136770 0.007760 1.986030 
# 
# From -- ./inp_files/163314.got.cif
#   From: 2010.05.17/outbox.cif.g08.bks.cpg/sg2_82_cif.got.tgz:163314.got - 2010.06.03 11:33:40.
