data_PCOD9044024
_publ_section_title
;
Structure prediction by ZEFSAII (Michael W. Deem and Ramdas Pophale) SiO2 
 PCOD9044024
Probable space group: P -1
;
_chemical_formula_sum "Si O2"
_cell_formula_units_Z 14
_cell_length_a 13.606190
_cell_length_b 8.133025
_cell_length_c 14.254793
_cell_angle_alpha 52.907402
_cell_angle_beta 28.835559
_cell_angle_gamma 69.880066
_cell_volume 532.651139
_symmetry_space_group_name_H-M "P -1"
_symmetry_group_IT_number 2
_symmetry_cell_setting 'triclinic'
loop_
_space_group_symop_operation_xyz
x,y,z
-x,-y,-z
loop_
_atom_site_type_symbol
_atom_site_label
_atom_site_fract_x
_atom_site_fract_y
_atom_site_fract_z
Si Si1 0.742157 0.806906 0.109343
Si Si2 0.842906 0.092056 0.170516
Si Si3 0.815718 0.307084 0.647826
Si Si4 0.088455 0.547698 0.173213
Si Si5 0.500443 0.252567 0.093418
Si Si6 0.393256 0.728505 0.568512
Si Si7 0.964767 0.936539 0.681236
O O1 0.501148 0.782032 0.356214
O O2 0.706737 0.544426 0.235251
O O3 0.839724 0.918856 0.890769
O O4 0.943156 0.949660 0.968353
O O5 0.780568 0.176429 0.291801
O O6 0.610452 0.866707 0.409542
O O7 0.908101 0.307544 0.970604
O O8 0.000000 0.500000 0.500000
O O9 0.857705 0.446697 0.466579
O O10 0.894856 0.112447 0.625949
O O11 0.581879 0.208393 0.938218
O O12 0.122274 0.327849 0.188373
O O13 0.304816 0.707318 0.005331
O O14 0.500000 0.500000 0.000000
O O15 0.243515 0.066635 0.403684
#
# Coordination Sequence:
#
# PCOD9044024 Si02
#       7
#     2   2   2   2   2   2   2
#     4  11  25  43  68 100 135 178 223 266 337 389
#     4  11  24  44  68  97 138 175 218 276 330 389
#     4  10  23  46  68  99 133 171 224 277 332 397
#     4  11  25  45  68 103 136 171 230 275 324 406
#     4  11  25  46  70  96 132 179 219 273 345 388
#     4  10  24  44  64  95 134 177 224 272 319 397
#     4  12  25  44  70  98 139 175 219 283 324 399
#
# _framework density 26.283619999999999
#
# number of rings (size 3 to 8) (size 9 to 14) (size 15 to 20)
#    0.000    1.143    4.286    1.286    8.000    0.571 
#    5.143    0.000    0.000    0.000    0.000    0.000 
#    0.000    0.000    0.000    0.000    0.000    0.000 
#
# Total GULP energy -78491.144508 kJ/mol
# GULP energy per Si atom -5606.510322 kJ/mol
# Density = 2.622380 g / cm^3
# Si number density = 26.283620 Si / 1000 Ang^3
#
#
#
# Elastic Constant Matrix: (Units=GPa)
#
#
# Indices 1 2 3 4 5 6 
#
# 1 80.4582 0.2287 48.3643 6.1618 23.9573 6.8550
# 2 0.2287 113.0552 25.2667 3.9432 -17.9388 9.7755
# 3 48.3643 25.2667 173.2212 22.2032 7.2627 7.5845
# 4 6.1618 3.9432 22.2032 59.2451 7.6264 -1.6959
# 5 23.9573 -17.9388 7.2627 7.6264 31.1488 3.1993
# 6 6.8550 9.7755 7.5845 -1.6959 3.1993 31.3835
#
#
#
# Elastic Compliance Matrix: (Units=1/GPa)
#
#
# Indices 1 2 3 4 5 6 
#
# 1 0.019866 -0.001330 -0.004895 0.001786 -0.015230 -0.001093
# 2 -0.001330 0.010787 -0.001220 -0.001285 0.008213 -0.003681
# 3 -0.004895 -0.001220 0.007591 -0.002531 0.001986 -0.000724
# 4 0.001786 -0.001285 -0.002531 0.018605 -0.006312 0.002270
# 5 -0.015230 0.008213 0.001986 -0.006312 0.050160 -0.005166
# 6 -0.001093 -0.003681 -0.000724 0.002270 -0.005166 0.034073
#
#
# Mechanical properties :
#
#
# Convention : Reuss Voigt Hill
#
# Bulk Modulus (GPa) = 42.82386 57.16156 49.99271
# Shear Modulus (GPa) = 30.53282 43.88048 37.20665
#
# Velocity S-wave (km/s) = 3.41202 4.09038 3.76651
# Velocity P-wave (km/s) = 5.64366 6.64105 6.16256
#
# Compressibility (1/GPa) = 0.02335147
#
# Stress axis : x y z
#
# Youngs Moduli (GPa) = 50.33650 92.70489 131.74212
#
# Poissons Ratio (x) = 0.12334 0.64491
# Poissons Ratio (y) = 0.06697 0.16078
# Poissons Ratio (z) = 0.24641 0.11314
#
# Static dielectric constant tensor:
#      x y z
#    x 2.076020 0.060340 0.014480 
#    y 0.060340 2.094960 0.055030 
#    z 0.014480 0.055030 2.044270 
# 
# From -- ./inp_files/529366.got.cif
#   From: 2010.05.17/outbox.cif.g08.bks.cpg/sg2_265_cif.got.tgz:529366.got - 2010.06.03 11:33:40.
