data_PCOD9044328
_publ_section_title
;
Structure prediction by ZEFSAII (Michael W. Deem and Ramdas Pophale) SiO2 
 PCOD9044328
Probable space group: P -1
;
_chemical_formula_sum "Si O2"
_cell_formula_units_Z 6
_cell_length_a 9.535539
_cell_length_b 5.112676
_cell_length_c 8.796856
_cell_angle_alpha 103.498550
_cell_angle_beta 31.008315
_cell_angle_gamma 102.070432
_cell_volume 214.797128
_symmetry_space_group_name_H-M "P -1"
_symmetry_group_IT_number 2
_symmetry_cell_setting 'triclinic'
loop_
_space_group_symop_operation_xyz
x,y,z
-x,-y,-z
loop_
_atom_site_type_symbol
_atom_site_label
_atom_site_fract_x
_atom_site_fract_y
_atom_site_fract_z
Si Si1 0.227685 0.552166 0.669917
Si Si2 0.445754 0.845351 0.257767
Si Si3 0.800533 0.305039 0.846461
O O1 0.500000 0.500000 0.500000
O O2 0.281347 0.831035 0.566865
O O3 0.000000 0.500000 0.000000
O O4 0.109703 0.360066 0.617974
O O5 0.643795 0.587030 0.041911
O O6 0.645563 0.093406 0.070319
O O7 0.242220 0.799594 0.298876
#
# Coordination Sequence:
#
# PCOD9044328 Si02
#       3
#     2   2   2
#     4  12  25  46  71 104 146 184 228 288 351 420
#     4  10  23  46  73 101 137 183 236 287 341 411
#     4  10  23  46  73 101 137 183 236 287 341 411
#
# _framework density 27.933336000000001
#
# number of rings (size 3 to 8) (size 9 to 14) (size 15 to 20)
#    0.000    1.333    3.333    1.000    0.000    5.333 
#    0.000   10.000    0.000    0.000    0.000    0.000 
#    0.000    0.000    0.000    0.000    0.000    0.000 
#
# Total GULP energy -33678.882215 kJ/mol
# GULP energy per Si atom -5613.147036 kJ/mol
# Density = 2.786976 g / cm^3
# Si number density = 27.933336 Si / 1000 Ang^3
#
#
#
# Elastic Constant Matrix: (Units=GPa)
#
#
# Indices 1 2 3 4 5 6 
#
# 1 182.2473 64.2159 86.6724 -41.2545 -35.5566 -15.2653
# 2 64.2159 181.4641 56.3109 -37.2941 -7.3655 -22.1184
# 3 86.6724 56.3109 184.9622 -48.1922 -25.8799 -22.5609
# 4 -41.2545 -37.2941 -48.1922 60.2579 0.4361 15.7432
# 5 -35.5566 -7.3655 -25.8799 0.4361 82.0192 -23.5602
# 6 -15.2653 -22.1184 -22.5609 15.7432 -23.5602 52.8565
#
#
#
# Elastic Compliance Matrix: (Units=1/GPa)
#
#
# Indices 1 2 3 4 5 6 
#
# 1 0.008391 -0.001423 -0.002143 0.002719 0.003267 0.001560
# 2 -0.001423 0.006897 -0.000565 0.002412 0.000283 0.001642
# 3 -0.002143 -0.000565 0.008293 0.004149 0.002329 0.002487
# 4 0.002719 0.002412 0.004149 0.023983 0.001777 -0.002786
# 5 0.003267 0.000283 0.002329 0.001777 0.016971 0.009092
# 6 0.001560 0.001642 0.002487 -0.002786 0.009092 0.026001
#
#
# Mechanical properties :
#
#
# Convention : Reuss Voigt Hill
#
# Bulk Modulus (GPa) = 65.27448 107.00800 86.14124
# Shear Modulus (GPa) = 48.12157 61.79165 54.95661
#
# Velocity S-wave (km/s) = 4.15508 4.70841 4.44037
# Velocity P-wave (km/s) = 6.81456 8.24320 7.56269
#
# Compressibility (1/GPa) = 0.01531992
#
# Stress axis : x y z
#
# Youngs Moduli (GPa) = 119.17235 144.99583 120.58426
#
# Poissons Ratio (x) = 0.20631 0.25841
# Poissons Ratio (y) = 0.16957 0.06809
# Poissons Ratio (z) = 0.25538 0.08187
#
# Static dielectric constant tensor:
#      x y z
#    x 2.135130 0.014670 0.076140 
#    y 0.014670 2.215030 0.111140 
#    z 0.076140 0.111140 2.199850 
# 
# From -- ./inp_files/62249.got.cif
#   From: 2010.05.17/outbox.cif.g08.bks.cpg/sg2_32_cif.got.tgz:62249.got - 2010.06.03 11:33:40.
