data_PCOD9044664
_publ_section_title
;
Structure prediction by ZEFSAII (Michael W. Deem and Ramdas Pophale) SiO2 
 PCOD9044664
Probable space group: P -1
;
_chemical_formula_sum "Si O2"
_cell_formula_units_Z 16
_cell_length_a 12.401466
_cell_length_b 15.477020
_cell_length_c 15.605916
_cell_angle_alpha 153.136407
_cell_angle_beta 36.440841
_cell_angle_gamma 126.821884
_cell_volume 721.632138
_symmetry_space_group_name_H-M "P -1"
_symmetry_group_IT_number 2
_symmetry_cell_setting 'triclinic'
loop_
_space_group_symop_operation_xyz
x,y,z
-x,-y,-z
loop_
_atom_site_type_symbol
_atom_site_label
_atom_site_fract_x
_atom_site_fract_y
_atom_site_fract_z
Si Si1 0.065770 0.398853 0.276076
Si Si2 0.226133 0.157216 0.219228
Si Si3 0.446097 0.483937 0.619193
Si Si4 0.815233 0.728548 0.333417
Si Si5 0.219783 0.162800 0.743617
Si Si6 0.115375 0.814130 0.901449
Si Si7 0.550271 0.697193 0.148145
Si Si8 0.305734 0.943982 0.166040
O O1 0.000000 0.500000 0.500000
O O2 0.934611 0.598001 0.473287
O O3 0.020021 0.201182 0.103684
O O4 0.302365 0.320219 0.040067
O O5 0.238740 0.070972 0.231615
O O6 0.457030 0.117699 0.020153
O O7 0.153812 0.017273 0.079850
O O8 0.500000 0.500000 0.500000
O O9 0.345053 0.328414 0.563414
O O10 0.665515 0.374689 0.424833
O O11 0.307439 0.716370 0.949919
O O12 0.759337 0.818061 0.353146
O O13 0.832696 0.905587 0.538329
O O14 0.000000 0.500000 0.000000
O O15 0.319903 0.295725 0.846271
O O16 0.349762 0.917480 0.470460
O O17 0.995733 0.227249 0.980651
O O18 0.500000 0.500000 0.000000
#
# Coordination Sequence:
#
# PCOD9044664 Si02
#       8
#     2   2   2   2   2   2   2   2
#     4  11  26  40  68 100 129 167 233 288 330 402
#     4  11  22  41  69  98 128 176 223 274 341 399
#     4  12  22  43  70 100 134 180 224 278 342 401
#     4  12  28  43  66 104 146 176 220 284 338 410
#     4  10  25  44  66 100 134 177 230 274 340 411
#     4  11  22  42  71  93 132 176 219 279 335 399
#     4  10  23  47  70  90 135 184 222 280 344 400
#     4  11  24  40  69 101 132 178 227 266 338 416
#
# _framework density 22.171962000000001
#
# number of rings (size 3 to 8) (size 9 to 14) (size 15 to 20)
#    0.000    1.000    3.750    2.250    5.250    3.000 
#    0.000    0.000    0.000    0.000    0.000    0.000 
#    0.000    0.000    0.000    0.000    0.000    0.000 
#
# Total GULP energy -89432.448816 kJ/mol
# GULP energy per Si atom -5589.528051 kJ/mol
# Density = 2.212150 g / cm^3
# Si number density = 22.171962 Si / 1000 Ang^3
#
#
#
# Elastic Constant Matrix: (Units=GPa)
#
#
# Indices 1 2 3 4 5 6 
#
# 1 71.8489 24.2990 23.1656 7.8543 30.6091 18.4079
# 2 24.2990 43.5965 7.0084 5.6080 9.1361 19.5742
# 3 23.1656 7.0084 116.0194 6.8652 20.8499 5.3103
# 4 7.8543 5.6080 6.8652 36.4916 3.0916 9.7760
# 5 30.6091 9.1361 20.8499 3.0916 48.9428 1.1142
# 6 18.4079 19.5742 5.3103 9.7760 1.1142 33.0485
#
#
#
# Elastic Compliance Matrix: (Units=1/GPa)
#
#
# Indices 1 2 3 4 5 6 
#
# 1 0.024708 -0.006628 -0.001714 -0.000448 -0.013253 -0.008982
# 2 -0.006628 0.034544 0.000348 0.000782 -0.002114 -0.016984
# 3 -0.001714 0.000348 0.009560 -0.001136 -0.002986 -0.000351
# 4 -0.000448 0.000782 -0.001136 0.030066 -0.001079 -0.008888
# 5 -0.013253 -0.002114 -0.002986 -0.001079 0.030263 0.008412
# 6 -0.008982 -0.016984 -0.000351 -0.008888 0.008412 0.047723
#
#
# Mechanical properties :
#
#
# Convention : Reuss Voigt Hill
#
# Bulk Modulus (GPa) = 18.93092 37.82341 28.37717
# Shear Modulus (GPa) = 23.75724 35.49604 29.62664
#
# Velocity S-wave (km/s) = 3.27693 4.00552 3.65940
# Velocity P-wave (km/s) = 4.78272 6.20390 5.53908
#
# Compressibility (1/GPa) = 0.05282364
#
# Stress axis : x y z
#
# Youngs Moduli (GPa) = 40.47204 28.94854 104.59855
#
# Poissons Ratio (x) = 0.19188 0.17927
# Poissons Ratio (y) = 0.26827 -0.03638
# Poissons Ratio (z) = 0.06936 -0.01007
#
# Static dielectric constant tensor:
#      x y z
#    x 1.818910 0.008240 -0.018720 
#    y 0.008240 1.847520 -0.003540 
#    z -0.018720 -0.003540 1.801000 
# 
# From -- ./inp_files/522570.got.cif
#   From: 2010.05.17/outbox.cif.g08.bks.cpg/sg2_262_cif.got.tgz:522570.got - 2010.06.03 11:33:40.
