data_PCOD9044748
_publ_section_title
;
Structure prediction by ZEFSAII (Michael W. Deem and Ramdas Pophale) SiO2 
 PCOD9044748
Probable space group: P -1
;
_chemical_formula_sum "Si O2"
_cell_formula_units_Z 16
_cell_length_a 7.948891
_cell_length_b 12.059553
_cell_length_c 10.661175
_cell_angle_alpha 62.287495
_cell_angle_beta 88.065835
_cell_angle_gamma 129.546101
_cell_volume 610.825850
_symmetry_space_group_name_H-M "P -1"
_symmetry_group_IT_number 2
_symmetry_cell_setting 'triclinic'
loop_
_space_group_symop_operation_xyz
x,y,z
-x,-y,-z
loop_
_atom_site_type_symbol
_atom_site_label
_atom_site_fract_x
_atom_site_fract_y
_atom_site_fract_z
Si Si1 0.232676 0.187820 0.823423
Si Si2 0.545576 0.165683 0.962305
Si Si3 0.131743 0.028823 0.253396
Si Si4 0.515200 0.440633 0.392319
Si Si5 0.531671 0.950506 0.656521
Si Si6 0.726403 0.640220 0.823924
Si Si7 0.230729 0.678599 0.482016
Si Si8 0.976415 0.436204 0.191643
O O1 0.469386 0.228730 0.824679
O O2 0.270332 0.349495 0.782083
O O3 0.132899 0.142910 0.708334
O O4 0.000000 0.000000 0.000000
O O5 0.831760 0.342872 0.906516
O O6 0.351884 0.103486 0.110654
O O7 0.500000 0.000000 0.000000
O O8 0.221762 0.997932 0.383186
O O9 0.123459 0.166399 0.218258
O O10 0.500000 0.500000 0.500000
O O11 0.330160 0.353620 0.323483
O O12 0.608756 0.352220 0.460152
O O13 0.291849 0.723671 0.787356
O O14 0.500000 0.000000 0.500000
O O15 0.595203 0.104388 0.667093
O O16 0.861221 0.582987 0.861123
O O17 0.500000 0.500000 0.000000
O O18 0.000000 0.500000 0.500000
O O19 0.081420 0.640534 0.627292
#
# Coordination Sequence:
#
# PCOD9044748 Si02
#       8
#     2   2   2   2   2   2   2   2
#     4  10  23  47  72 109 149 198 261 317 383 470
#     4  11  25  44  74 111 149 193 264 314 390 463
#     4  11  24  45  71 105 146 203 249 319 384 461
#     4  12  26  46  77 110 153 206 262 319 396 469
#     4  10  24  47  67 105 147 190 254 312 391 466
#     4  12  23  47  72 108 158 200 260 322 390 477
#     4  11  25  45  74 105 149 201 257 316 389 473
#     4  11  24  46  71 105 151 197 250 318 387 452
#
# _framework density 26.194047000000001
#
# number of rings (size 3 to 8) (size 9 to 14) (size 15 to 20)
#    0.000    1.000    2.500    3.750    5.250    3.500 
#    4.500    3.750    0.000    0.000    0.000    0.000 
#    0.000    0.000    0.000    0.000    0.000    0.000 
#
# Total GULP energy -89217.416486 kJ/mol
# GULP energy per Si atom -5576.088530 kJ/mol
# Density = 2.613443 g / cm^3
# Si number density = 26.194047 Si / 1000 Ang^3
#
#
#
# Elastic Constant Matrix: (Units=GPa)
#
#
# Indices 1 2 3 4 5 6 
#
# 1 90.3442 43.8904 19.4258 -22.9814 4.5316 6.9544
# 2 43.8904 217.4797 43.1272 -53.7541 -3.1625 15.0526
# 3 19.4258 43.1272 57.9054 -7.6603 -5.4363 8.7768
# 4 -22.9814 -53.7541 -7.6603 64.6521 -5.2162 8.8575
# 5 4.5316 -3.1625 -5.4363 -5.2162 42.4069 3.9330
# 6 6.9544 15.0526 8.7768 8.8575 3.9330 59.1527
#
#
#
# Elastic Compliance Matrix: (Units=1/GPa)
#
#
# Indices 1 2 3 4 5 6 
#
# 1 0.013344 -0.001153 -0.003097 0.003478 -0.001366 -0.001246
# 2 -0.001153 0.007053 -0.003764 0.005360 0.001009 -0.001970
# 3 -0.003097 -0.003764 0.021504 -0.001197 0.002834 -0.001878
# 4 0.003478 0.005360 -0.001197 0.021961 0.003048 -0.005086
# 5 -0.001366 0.001009 0.002834 0.003048 0.024783 -0.002621
# 6 -0.001246 -0.001970 -0.001878 -0.005086 -0.002621 0.018768
#
#
# Mechanical properties :
#
#
# Convention : Reuss Voigt Hill
#
# Bulk Modulus (GPa) = 38.64932 64.29067 51.47000
# Shear Modulus (GPa) = 37.85993 50.52807 44.19400
#
# Velocity S-wave (km/s) = 3.80592 4.39679 4.11198
# Velocity P-wave (km/s) = 5.83955 7.09739 6.49898
#
# Compressibility (1/GPa) = 0.02587367
#
# Stress axis : x y z
#
# Youngs Moduli (GPa) = 74.94020 141.78476 46.50228
#
# Poissons Ratio (x) = 0.16343 0.14403
# Poissons Ratio (y) = 0.08638 0.17503
# Poissons Ratio (z) = 0.23211 0.53366
#
# Static dielectric constant tensor:
#      x y z
#    x 2.044310 0.128940 0.126780 
#    y 0.128940 1.949670 -0.029810 
#    z 0.126780 -0.029810 2.370640 
# 
# From -- ./inp_files/392364.got.cif
#   From: 2010.05.17/outbox.cif.g08.bks.cpg/sg2_197_cif.got.tgz:392364.got - 2010.06.03 11:33:40.
