data_PCOD9044791
_publ_section_title
;
Structure prediction by ZEFSAII (Michael W. Deem and Ramdas Pophale) SiO2 
 PCOD9044791
Probable space group: P -1
;
_chemical_formula_sum "Si O2"
_cell_formula_units_Z 16
_cell_length_a 11.420020
_cell_length_b 12.450321
_cell_length_c 14.603887
_cell_angle_alpha 19.342042
_cell_angle_beta 103.656677
_cell_angle_gamma 105.577386
_cell_volume 661.492143
_symmetry_space_group_name_H-M "P -1"
_symmetry_group_IT_number 2
_symmetry_cell_setting 'triclinic'
loop_
_space_group_symop_operation_xyz
x,y,z
-x,-y,-z
loop_
_atom_site_type_symbol
_atom_site_label
_atom_site_fract_x
_atom_site_fract_y
_atom_site_fract_z
Si Si1 0.518167 0.533727 0.615979
Si Si2 0.248367 0.793036 0.581402
Si Si3 0.029384 0.455045 0.277302
Si Si4 0.692834 0.435405 0.026678
Si Si5 0.360702 0.866545 0.181885
Si Si6 0.494596 0.672162 0.699687
Si Si7 0.910196 0.225130 0.150183
Si Si8 0.081855 0.722769 0.262970
O O1 0.453717 0.790736 0.339504
O O2 0.620958 0.401711 0.678418
O O3 0.558116 0.672270 0.612470
O O4 0.415375 0.216375 0.868053
O O5 0.114301 0.630833 0.664233
O O6 0.351546 0.610475 0.701721
O O7 0.264522 0.179496 0.253566
O O8 0.273618 0.752383 0.726560
O O9 0.091595 0.539725 0.316395
O O10 0.075405 0.119673 0.524527
O O11 0.051777 0.736942 0.979053
O O12 0.555391 0.425551 0.973943
O O13 0.775316 0.313436 0.061800
O O14 0.223779 0.842823 0.214806
O O15 0.500000 0.000000 0.500000
O O16 0.000000 0.500000 0.000000
O O17 0.000000 0.500000 0.500000
O O18 0.000000 0.000000 0.000000
#
# Coordination Sequence:
#
# PCOD9044791 Si02
#       8
#     2   2   2   2   2   2   2   2
#     4  10  23  47  74 100 137 187 229 299 341 422
#     4  11  22  40  62  92 137 176 223 262 338 420
#     4  12  25  42  67 100 129 186 222 277 353 409
#     4  11  23  40  62  94 137 176 219 276 327 409
#     4  10  24  47  73 103 136 181 243 281 361 403
#     4  10  25  43  68 103 138 179 231 284 354 408
#     4  12  22  42  66  97 137 178 228 269 338 423
#     4  12  28  48  72 106 142 176 238 303 355 422
#
# _framework density 24.187740000000002
#
# number of rings (size 3 to 8) (size 9 to 14) (size 15 to 20)
#    0.000    1.000    2.500    3.000    5.250    4.000 
#    4.500    0.000    0.000    0.000    0.000    0.000 
#    0.000    0.000    0.000    0.000    0.000    0.000 
#
# Total GULP energy -89510.174027 kJ/mol
# GULP energy per Si atom -5594.385877 kJ/mol
# Density = 2.413269 g / cm^3
# Si number density = 24.187740 Si / 1000 Ang^3
#
#
#
# Elastic Constant Matrix: (Units=GPa)
#
#
# Indices 1 2 3 4 5 6 
#
# 1 135.4481 -14.9121 19.4084 -0.5386 14.8227 2.4308
# 2 -14.9121 96.2164 -0.0954 1.9567 -1.3306 -5.8303
# 3 19.4084 -0.0954 65.6520 9.7366 1.7860 7.5223
# 4 -0.5386 1.9567 9.7366 30.8542 -9.0855 -1.8765
# 5 14.8227 -1.3306 1.7860 -9.0855 35.7436 8.1463
# 6 2.4308 -5.8303 7.5223 -1.8765 8.1463 23.2580
#
#
#
# Elastic Compliance Matrix: (Units=1/GPa)
#
#
# Indices 1 2 3 4 5 6 
#
# 1 0.008256 0.001323 -0.002497 -0.000128 -0.003633 0.001538
# 2 0.001323 0.010781 -0.000616 -0.000562 -0.000955 0.003053
# 3 -0.002497 -0.000616 0.017537 -0.005902 0.000014 -0.006046
# 4 -0.000128 -0.000562 -0.005902 0.037176 0.009441 0.001474
# 5 -0.003633 -0.000955 0.000014 0.009441 0.034387 -0.011147
# 6 0.001538 0.003053 -0.006046 0.001474 -0.011147 0.049579
#
#
# Mechanical properties :
#
#
# Convention : Reuss Voigt Hill
#
# Bulk Modulus (GPa) = 30.30963 34.01312 32.16138
# Shear Modulus (GPa) = 29.02012 37.49889 33.25950
#
# Velocity S-wave (km/s) = 3.46755 3.94169 3.71220
# Velocity P-wave (km/s) = 5.34697 5.89988 5.63021
#
# Compressibility (1/GPa) = 0.03299281
#
# Stress axis : x y z
#
# Youngs Moduli (GPa) = 121.12746 92.75741 57.02262
#
# Poissons Ratio (x) = -0.12268 0.14240
# Poissons Ratio (y) = -0.16021 0.03511
# Poissons Ratio (z) = 0.30248 0.05712
#
# Static dielectric constant tensor:
#      x y z
#    x 2.005750 -0.016850 -0.063120 
#    y -0.016850 1.916380 -0.057960 
#    z -0.063120 -0.057960 1.937640 
# 
# From -- ./inp_files/519468.got.cif
#   From: 2010.05.17/outbox.cif.g08.bks.cpg/sg2_260_cif.got.tgz:519468.got - 2010.06.03 11:33:40.
