data_PCOD9044422
_publ_section_title
;
Structure prediction by ZEFSAII (Michael W. Deem and Ramdas Pophale) SiO2 
 PCOD9044422
Probable space group: P -1
;
_chemical_formula_sum "Si O2"
_cell_formula_units_Z 11
_cell_length_a 9.106021
_cell_length_b 6.736307
_cell_length_c 7.109191
_cell_angle_alpha 87.103050
_cell_angle_beta 64.266270
_cell_angle_gamma 93.391140
_cell_volume 390.735220
_symmetry_space_group_name_H-M "P -1"
_symmetry_group_IT_number 2
_symmetry_cell_setting 'triclinic'
loop_
_space_group_symop_operation_xyz
x,y,z
-x,-y,-z
loop_
_atom_site_type_symbol
_atom_site_label
_atom_site_fract_x
_atom_site_fract_y
_atom_site_fract_z
Si Si1 0.644650 0.379669 0.004431
Si Si2 0.500000 0.000000 0.500000
Si Si3 0.702601 0.371297 0.422273
Si Si4 0.053696 0.360993 0.144415
Si Si5 0.808262 0.821165 0.440288
Si Si6 0.824045 0.018407 0.830559
O O1 0.651367 0.382980 0.228433
O O2 0.500000 0.500000 0.000000
O O3 0.808860 0.501938 0.832161
O O4 0.676428 0.150989 0.953193
O O5 0.434918 0.792879 0.421281
O O6 0.687997 0.948983 0.383979
O O7 0.728880 0.594842 0.473605
O O8 0.885656 0.301702 0.347142
O O9 0.136498 0.164484 0.047460
O O10 0.000000 0.500000 0.000000
O O11 0.000436 0.850178 0.284263
O O12 0.792499 0.902963 0.657257
#
# Coordination Sequence:
#
# PCOD9044422 Si02
#       6
#     2   1   2   2   2   2
#     4  11  27  47  77 112 152 199 260 321 376 456
#     4  12  26  46  74 110 154 204 254 306 384 452
#     4  11  25  48  74 110 151 203 252 314 383 457
#     4  10  23  46  74 108 150 199 250 314 381 455
#     4  11  26  45  75 112 153 201 253 318 378 460
#     4  11  25  48  77 113 151 201 257 315 389 450
#
# _framework density 28.152056000000002
#
# number of rings (size 3 to 8) (size 9 to 14) (size 15 to 20)
#    0.000    1.091    3.636    0.545    5.091    8.727 
#    0.000    0.000    0.000    0.000    0.000    0.000 
#    0.000    0.000    0.000    0.000    0.000    0.000 
#
# Total GULP energy -61366.895403 kJ/mol
# GULP energy per Si atom -5578.808673 kJ/mol
# Density = 2.808798 g / cm^3
# Si number density = 28.152056 Si / 1000 Ang^3
#
#
#
# Elastic Constant Matrix: (Units=GPa)
#
#
# Indices 1 2 3 4 5 6 
#
# 1 168.5967 81.6217 37.0314 15.4332 -22.6956 -41.4437
# 2 81.6217 223.0149 36.7258 31.2980 -5.5158 -15.1353
# 3 37.0314 36.7258 70.4197 22.4003 24.6893 -18.5029
# 4 15.4332 31.2980 22.4003 46.8771 -0.7695 -4.7470
# 5 -22.6956 -5.5158 24.6893 -0.7695 44.8933 -5.5536
# 6 -41.4437 -15.1353 -18.5029 -4.7470 -5.5536 77.4453
#
#
#
# Elastic Compliance Matrix: (Units=1/GPa)
#
#
# Indices 1 2 3 4 5 6 
#
# 1 0.011082 -0.002583 -0.007554 0.002304 0.010033 0.004482
# 2 -0.002583 0.005923 -0.000981 -0.002703 -0.000164 -0.000637
# 3 -0.007554 -0.000981 0.029561 -0.011248 -0.020305 0.000683
# 4 0.002304 -0.002703 -0.011248 0.027904 0.007530 0.000268
# 5 0.010033 -0.000164 -0.020305 0.007530 0.039087 0.003751
# 6 0.004482 -0.000637 0.000683 0.000268 0.003751 0.015635
#
#
# Mechanical properties :
#
#
# Convention : Reuss Voigt Hill
#
# Bulk Modulus (GPa) = 41.10042 85.86545 63.48293
# Shear Modulus (GPa) = 31.34067 54.28662 42.81365
#
# Velocity S-wave (km/s) = 3.34018 4.39605 3.90397
# Velocity P-wave (km/s) = 5.43202 7.50558 6.55136
#
# Compressibility (1/GPa) = 0.02433065
#
# Stress axis : x y z
#
# Youngs Moduli (GPa) = 90.23243 168.83450 33.82890
#
# Poissons Ratio (x) = 0.43613 0.25554
# Poissons Ratio (y) = 0.23309 0.03317
# Poissons Ratio (z) = 0.68160 0.16556
#
# Static dielectric constant tensor:
#      x y z
#    x 2.155850 -0.035980 0.055860 
#    y -0.035980 2.309450 -0.089830 
#    z 0.055860 -0.089830 2.448710 
# 
# From -- ./inp_files/34605.got.cif
#   From: 2010.05.17/outbox.cif.g08.bks.cpg/sg2_18_cif.got.tgz:34605.got - 2010.06.03 11:33:40.
