data_PCOD9044675
_publ_section_title
;
Structure prediction by ZEFSAII (Michael W. Deem and Ramdas Pophale) SiO2 
 PCOD9044675
Probable space group: P -1
;
_chemical_formula_sum "Si O2"
_cell_formula_units_Z 14
_cell_length_a 9.227518
_cell_length_b 11.123642
_cell_length_c 9.398623
_cell_angle_alpha 126.878061
_cell_angle_beta 52.273976
_cell_angle_gamma 106.790519
_cell_volume 605.664891
_symmetry_space_group_name_H-M "P -1"
_symmetry_group_IT_number 2
_symmetry_cell_setting 'triclinic'
loop_
_space_group_symop_operation_xyz
x,y,z
-x,-y,-z
loop_
_atom_site_type_symbol
_atom_site_label
_atom_site_fract_x
_atom_site_fract_y
_atom_site_fract_z
Si Si1 0.974625 0.408138 0.142603
Si Si2 0.576643 0.167427 0.962769
Si Si3 0.306219 0.597485 0.155176
Si Si4 0.184577 0.286218 0.670434
Si Si5 0.534417 0.064777 0.371724
Si Si6 0.133696 0.778424 0.659194
Si Si7 0.795025 0.879658 0.739254
O O1 0.149514 0.491221 0.143373
O O2 0.833454 0.541482 0.252294
O O3 0.898273 0.333797 0.273490
O O4 0.053070 0.290633 0.890003
O O5 0.664634 0.299300 0.925937
O O6 0.513755 0.058142 0.799530
O O7 0.716498 0.055568 0.894110
O O8 0.384686 0.209154 0.191425
O O9 0.246698 0.695748 0.400500
O O10 0.500000 0.500000 0.000000
O O11 0.389686 0.214254 0.538086
O O12 0.122231 0.183745 0.506202
O O13 0.742685 0.100164 0.268422
O O14 0.500000 0.000000 0.500000
O O15 0.941303 0.845418 0.751103
#
# Coordination Sequence:
#
# PCOD9044675 Si02
#       7
#     2   2   2   2   2   2   2
#     4  11  25  45  69 102 137 183 229 277 347 404
#     4  10  24  46  70 101 139 183 224 284 346 401
#     4  12  24  41  71 103 137 179 226 284 338 407
#     4  10  24  48  67  95 144 180 228 283 337 412
#     4  11  24  45  68 101 137 178 229 281 343 398
#     4  12  25  43  74 102 134 181 231 288 332 408
#     4  10  23  47  71 101 136 179 238 279 336 407
#
# _framework density 23.115093000000002
#
# number of rings (size 3 to 8) (size 9 to 14) (size 15 to 20)
#    0.000    1.143    2.857    2.143    4.000    2.857 
#   15.429    0.000    0.000    0.000    0.000    0.000 
#    0.000    0.000    0.000    0.000    0.000    0.000 
#
# Total GULP energy -78441.735886 kJ/mol
# GULP energy per Si atom -5602.981135 kJ/mol
# Density = 2.306248 g / cm^3
# Si number density = 23.115093 Si / 1000 Ang^3
#
#
#
# Elastic Constant Matrix: (Units=GPa)
#
#
# Indices 1 2 3 4 5 6 
#
# 1 88.4666 37.9780 21.3304 0.4740 -2.9771 -15.1176
# 2 37.9780 112.8703 10.9053 -40.4451 -11.6705 -3.7031
# 3 21.3304 10.9053 84.9192 1.3581 -2.6384 -10.3463
# 4 0.4740 -40.4451 1.3581 30.9278 -2.7575 2.3536
# 5 -2.9771 -11.6705 -2.6384 -2.7575 29.5021 -0.0248
# 6 -15.1176 -3.7031 -10.3463 2.3536 -0.0248 44.6288
#
#
#
# Elastic Compliance Matrix: (Units=1/GPa)
#
#
# Indices 1 2 3 4 5 6 
#
# 1 0.017951 -0.012271 -0.002145 -0.017074 -0.004826 0.005463
# 2 -0.012271 0.028206 -0.001245 0.038639 0.013416 -0.004135
# 3 -0.002145 -0.001245 0.012793 -0.002309 0.000221 0.002258
# 4 -0.017074 0.038639 -0.002309 0.085711 0.021360 -0.007621
# 5 -0.004826 0.013416 0.000221 0.021360 0.040731 -0.001574
# 6 0.005463 -0.004135 0.002258 -0.007621 -0.001574 0.024839
#
#
# Mechanical properties :
#
#
# Convention : Reuss Voigt Hill
#
# Bulk Modulus (GPa) = 36.19206 47.40928 41.80067
# Shear Modulus (GPa) = 19.93926 35.41457 27.67691
#
# Velocity S-wave (km/s) = 2.94020 3.91845 3.46403
# Velocity P-wave (km/s) = 5.21706 6.40523 5.84143
#
# Compressibility (1/GPa) = 0.02763037
#
# Stress axis : x y z
#
# Youngs Moduli (GPa) = 55.70679 35.45336 78.16561
#
# Poissons Ratio (x) = 0.43504 0.16763
# Poissons Ratio (y) = 0.68356 0.09731
# Poissons Ratio (z) = 0.11946 0.04414
#
# Static dielectric constant tensor:
#      x y z
#    x 1.858490 0.002720 0.012340 
#    y 0.002720 1.831280 -0.003060 
#    z 0.012340 -0.003060 1.933240 
# 
# From -- ./inp_files/189645.got.cif
#   From: 2010.05.17/outbox.cif.g08.bks.cpg/sg2_95_cif.got.tgz:189645.got - 2010.06.03 11:33:40.
