data_PCOD9044264
_publ_section_title
;
Structure prediction by ZEFSAII (Michael W. Deem and Ramdas Pophale) SiO2 
 PCOD9044264
Probable space group: P -1
;
_chemical_formula_sum "Si O2"
_cell_formula_units_Z 14
_cell_length_a 20.393212
_cell_length_b 9.314337
_cell_length_c 14.182811
_cell_angle_alpha 139.254801
_cell_angle_beta 20.822006
_cell_angle_gamma 136.644409
_cell_volume 622.949467
_symmetry_space_group_name_H-M "P -1"
_symmetry_group_IT_number 2
_symmetry_cell_setting 'triclinic'
loop_
_space_group_symop_operation_xyz
x,y,z
-x,-y,-z
loop_
_atom_site_type_symbol
_atom_site_label
_atom_site_fract_x
_atom_site_fract_y
_atom_site_fract_z
Si Si1 0.499209 0.198622 0.024961
Si Si2 0.743021 0.474568 0.564714
Si Si3 0.100033 0.345409 0.363552
Si Si4 0.462853 0.149065 0.344702
Si Si5 0.092296 0.241552 0.971366
Si Si6 0.740876 0.395171 0.947156
Si Si7 0.566500 0.914414 0.267481
O O1 0.312827 0.303992 0.300185
O O2 0.605404 0.298664 0.163601
O O3 0.500000 0.000000 0.000000
O O4 0.568038 0.086576 0.783234
O O5 0.778021 0.525204 0.653972
O O6 0.580773 0.285072 0.667779
O O7 0.930566 0.388173 0.229987
O O8 0.373294 0.612472 0.999804
O O9 0.000000 0.500000 0.500000
O O10 0.916095 0.251815 0.622530
O O11 0.261895 0.234601 0.668896
O O12 0.546935 0.107013 0.312770
O O13 0.178533 0.364385 0.009284
O O14 0.000000 0.000000 0.000000
O O15 0.771763 0.829611 0.940984
O O16 0.500000 0.000000 0.500000
#
# Coordination Sequence:
#
# PCOD9044264 Si02
#       7
#     2   2   2   2   2   2   2
#     4  10  23  46  72 101 143 194 243 302 369 435
#     4  11  24  44  71 101 145 192 248 301 363 431
#     4  11  25  43  73 104 142 192 250 302 358 441
#     4  11  24  47  72 104 153 192 241 312 369 430
#     4  11  24  44  72 105 146 194 238 303 365 435
#     4  10  25  45  76 104 144 195 248 300 373 430
#     4  12  27  42  71 110 148 191 246 302 374 436
#
# _framework density 22.473731999999998
#
# number of rings (size 3 to 8) (size 9 to 14) (size 15 to 20)
#    0.000    1.143    2.857    1.714    8.000    1.714 
#    2.571    2.857    0.000    0.000    0.000    0.000 
#    0.000    0.000    0.000    0.000    0.000    0.000 
#
# Total GULP energy -78213.051831 kJ/mol
# GULP energy per Si atom -5586.646559 kJ/mol
# Density = 2.242258 g / cm^3
# Si number density = 22.473732 Si / 1000 Ang^3
#
#
#
# Elastic Constant Matrix: (Units=GPa)
#
#
# Indices 1 2 3 4 5 6 
#
# 1 147.3540 50.4285 64.3264 6.6459 2.1325 -2.5318
# 2 50.4285 80.2351 49.0957 0.5167 -2.2640 0.0506
# 3 64.3264 49.0957 254.7200 7.0685 -5.8919 -14.4103
# 4 6.6459 0.5167 7.0685 35.9881 -7.6772 -3.9079
# 5 2.1325 -2.2640 -5.8919 -7.6772 37.3846 2.4122
# 6 -2.5318 0.0506 -14.4103 -3.9079 2.4122 33.9315
#
#
#
# Elastic Compliance Matrix: (Units=1/GPa)
#
#
# Indices 1 2 3 4 5 6 
#
# 1 0.009167 -0.004969 -0.001342 -0.001648 -0.001376 0.000030
# 2 -0.004969 0.016885 -0.002073 0.001229 0.001311 -0.001228
# 3 -0.001342 -0.002073 0.004791 -0.000352 0.000514 0.001861
# 4 -0.001648 0.001229 -0.000352 0.029727 0.006042 0.002720
# 5 -0.001376 0.001311 0.000514 0.006042 0.028306 -0.001203
# 6 0.000030 -0.001228 0.001861 0.002720 -0.001203 0.030664
#
#
# Mechanical properties :
#
#
# Convention : Reuss Voigt Hill
#
# Bulk Modulus (GPa) = 71.04259 90.00114 80.52186
# Shear Modulus (GPa) = 35.46106 42.69142 39.07624
#
# Velocity S-wave (km/s) = 3.97657 4.36318 4.17436
# Velocity P-wave (km/s) = 7.26390 8.09428 7.69030
#
# Compressibility (1/GPa) = 0.01407606
#
# Stress axis : x y z
#
# Youngs Moduli (GPa) = 109.08218 59.22558 208.71775
#
# Poissons Ratio (x) = 0.29429 0.28005
# Poissons Ratio (y) = 0.54203 0.43263
# Poissons Ratio (z) = 0.14636 0.12276
#
# Static dielectric constant tensor:
#      x y z
#    x 1.852760 0.016510 0.008750 
#    y 0.016510 1.918220 -0.028130 
#    z 0.008750 -0.028130 1.870850 
# 
# From -- ./inp_files/460720.got.cif
#   From: 2010.05.17/outbox.cif.g08.bks.cpg/sg2_231_cif.got.tgz:460720.got - 2010.06.03 11:33:40.
