data_PCOD9044712
_publ_section_title
;
Structure prediction by ZEFSAII (Michael W. Deem and Ramdas Pophale) SiO2 
 PCOD9044712
Probable space group: P -1
;
_chemical_formula_sum "Si O2"
_cell_formula_units_Z 14
_cell_length_a 7.065724
_cell_length_b 11.635155
_cell_length_c 12.208997
_cell_angle_alpha 129.173400
_cell_angle_beta 102.432804
_cell_angle_gamma 114.115763
_cell_volume 527.853897
_symmetry_space_group_name_H-M "P -1"
_symmetry_group_IT_number 2
_symmetry_cell_setting 'triclinic'
loop_
_space_group_symop_operation_xyz
x,y,z
-x,-y,-z
loop_
_atom_site_type_symbol
_atom_site_label
_atom_site_fract_x
_atom_site_fract_y
_atom_site_fract_z
Si Si1 0.965556 0.885149 0.198673
Si Si2 0.320778 0.210196 0.686422
Si Si3 0.531803 0.039904 0.701779
Si Si4 0.418608 0.410797 0.203056
Si Si5 0.344364 0.791599 0.933220
Si Si6 0.217907 0.178386 0.232129
Si Si7 0.186788 0.607680 0.479047
O O1 0.236342 0.945622 0.307148
O O2 0.714201 0.746240 0.168475
O O3 0.042779 0.083259 0.266010
O O4 0.859913 0.735536 0.991390
O O5 0.505205 0.166258 0.696221
O O6 0.403305 0.363718 0.692669
O O7 0.000000 0.000000 0.500000
O O8 0.241614 0.791644 0.532082
O O9 0.603734 0.138784 0.892359
O O10 0.541461 0.312269 0.140058
O O11 0.361538 0.390866 0.312504
O O12 0.016472 0.599575 0.749255
O O13 0.500000 0.000000 0.000000
O O14 0.495584 0.243467 0.346027
O O15 0.000000 0.000000 0.000000
O O16 0.000000 0.500000 0.500000
#
# Coordination Sequence:
#
# PCOD9044712 Si02
#       7
#     2   2   2   2   2   2   2
#     4  10  23  47  72 100 148 189 241 316 363 433
#     4  12  27  46  74 104 146 202 245 297 375 454
#     4  11  25  46  71 104 151 192 249 305 375 439
#     4  11  22  45  72 102 149 192 243 300 370 446
#     4  12  22  39  75 108 141 199 246 302 380 436
#     4   9  20  41  74 101 147 189 227 314 373 407
#     4  11  20  39  71 109 146 190 250 309 363 443
#
# _framework density 26.522487999999999
#
# number of rings (size 3 to 8) (size 9 to 14) (size 15 to 20)
#    0.000    1.143    4.286    2.143    0.000    1.143 
#    5.143    0.714    0.000    0.000    0.000    0.000 
#    0.000    0.000    0.000    0.000    0.000    0.000 
#
# Total GULP energy -78171.234670 kJ/mol
# GULP energy per Si atom -5583.659619 kJ/mol
# Density = 2.646212 g / cm^3
# Si number density = 26.522488 Si / 1000 Ang^3
#
#
#
# Elastic Constant Matrix: (Units=GPa)
#
#
# Indices 1 2 3 4 5 6 
#
# 1 105.6767 38.7988 21.3352 0.8835 16.8932 -29.3987
# 2 38.7988 215.6196 51.5281 23.8567 0.0278 -23.7771
# 3 21.3352 51.5281 138.4968 -7.1887 -2.5969 -2.4466
# 4 0.8835 23.8567 -7.1887 51.5951 7.3336 -2.6466
# 5 16.8932 0.0278 -2.5969 7.3336 37.2630 -4.8863
# 6 -29.3987 -23.7771 -2.4466 -2.6466 -4.8863 34.1519
#
#
#
# Elastic Compliance Matrix: (Units=1/GPa)
#
#
# Indices 1 2 3 4 5 6 
#
# 1 0.013941 -0.001131 -0.001572 0.001358 -0.005327 0.010444
# 2 -0.001131 0.006033 -0.002153 -0.003109 0.001367 0.003028
# 3 -0.001572 -0.002153 0.008343 0.001991 0.000640 -0.002008
# 4 0.001358 -0.003109 0.001991 0.021755 -0.004736 0.000155
# 5 -0.005327 0.001367 0.000640 -0.004736 0.030276 0.000377
# 6 0.010444 0.003028 -0.002008 0.000155 0.000377 0.040301
#
#
# Mechanical properties :
#
#
# Convention : Reuss Voigt Hill
#
# Bulk Modulus (GPa) = 53.74348 75.90193 64.82270
# Shear Modulus (GPa) = 36.61319 47.81073 42.21196
#
# Velocity S-wave (km/s) = 3.71948 4.25037 3.99376
# Velocity P-wave (km/s) = 6.22522 7.26413 6.76465
#
# Compressibility (1/GPa) = 0.01860691
#
# Stress axis : x y z
#
# Youngs Moduli (GPa) = 71.73146 165.74204 119.85602
#
# Poissons Ratio (x) = 0.18742 0.18838
# Poissons Ratio (y) = 0.08111 0.25803
# Poissons Ratio (z) = 0.11274 0.35682
#
# Static dielectric constant tensor:
#      x y z
#    x 1.561750 -0.755910 -0.178870 
#    y -0.755910 1.386490 -0.033120 
#    z -0.178870 -0.033120 2.397630 
# 
# From -- ./inp_files/500734.got.cif
#   From: 2010.05.17/outbox.cif.g08.bks.cpg/sg2_251_cif.got.tgz:500734.got - 2010.06.03 11:33:40.
