data_PCOD9044868
_publ_section_title
;
Structure prediction by ZEFSAII (Michael W. Deem and Ramdas Pophale) SiO2 
 PCOD9044868
Probable space group: P -1
;
_chemical_formula_sum "Si O2"
_cell_formula_units_Z 12
_cell_length_a 9.533344
_cell_length_b 7.123780
_cell_length_c 13.043011
_cell_angle_alpha 68.743088
_cell_angle_beta 50.520514
_cell_angle_gamma 105.097629
_cell_volume 465.689227
_symmetry_space_group_name_H-M "P -1"
_symmetry_group_IT_number 2
_symmetry_cell_setting 'triclinic'
loop_
_space_group_symop_operation_xyz
x,y,z
-x,-y,-z
loop_
_atom_site_type_symbol
_atom_site_label
_atom_site_fract_x
_atom_site_fract_y
_atom_site_fract_z
Si Si1 0.605802 0.261293 0.298669
Si Si2 0.941940 0.578334 0.267387
Si Si3 0.195481 0.472442 0.328702
Si Si4 0.892763 0.882574 0.386056
Si Si5 0.570329 0.035866 0.157450
Si Si6 0.349778 0.454541 0.962195
O O1 0.762294 0.352413 0.309618
O O2 0.339611 0.153738 0.470523
O O3 0.592262 0.063269 0.265417
O O4 0.734635 0.531821 0.114264
O O5 0.037096 0.478806 0.320622
O O6 0.949377 0.792965 0.478894
O O7 0.182467 0.844976 0.040859
O O8 0.170467 0.325420 0.632890
O O9 0.418618 0.516402 0.164890
O O10 0.339434 0.737794 0.282847
O O11 0.124438 0.185170 0.179374
O O12 0.555578 0.261813 0.092343
#
# Coordination Sequence:
#
# PCOD9044868 Si02
#       6
#     2   2   2   2   2   2
#     4   9  24  47  71 109 146 189 245 307 360 437
#     4  12  23  45  77 107 146 194 242 305 371 430
#     4  11  24  48  74 109 145 193 244 304 364 442
#     4  11  23  47  73 107 149 193 242 301 369 440
#     4  10  23  47  77 104 143 196 247 293 369 441
#     4   9  23  47  74 104 146 192 244 295 372 428
#
# _framework density 25.768256000000001
#
# number of rings (size 3 to 8) (size 9 to 14) (size 15 to 20)
#    1.000    0.667    1.667    2.000    0.000    2.667 
#    3.000    3.333    0.000    0.000    4.333    0.000 
#    0.000    0.000    0.000    0.000    0.000    0.000 
#
# Total GULP energy -67306.542900 kJ/mol
# GULP energy per Si atom -5608.878575 kJ/mol
# Density = 2.570961 g / cm^3
# Si number density = 25.768256 Si / 1000 Ang^3
#
#
#
# Elastic Constant Matrix: (Units=GPa)
#
#
# Indices 1 2 3 4 5 6 
#
# 1 97.0859 38.3238 48.2052 -12.8404 19.0016 34.2295
# 2 38.3238 146.1591 42.3201 -0.9718 9.4850 20.5909
# 3 48.2052 42.3201 192.3232 -2.4665 26.1928 -0.7615
# 4 -12.8404 -0.9718 -2.4665 47.9086 -8.2865 2.9898
# 5 19.0016 9.4850 26.1928 -8.2865 35.3978 6.6002
# 6 34.2295 20.5909 -0.7615 2.9898 6.6002 41.7554
#
#
#
# Elastic Compliance Matrix: (Units=1/GPa)
#
#
# Indices 1 2 3 4 5 6 
#
# 1 0.019732 -0.001562 -0.004197 0.005500 -0.002906 -0.015417
# 2 -0.001562 0.008032 -0.001418 -0.000121 0.000216 -0.002732
# 3 -0.004197 -0.001418 0.007102 -0.001790 -0.003979 0.005026
# 4 0.005500 -0.000121 -0.001790 0.023594 0.005232 -0.006999
# 5 -0.002906 0.000216 -0.003979 0.005232 0.034600 -0.003641
# 6 -0.015417 -0.002732 0.005026 -0.006999 -0.003641 0.039102
#
#
# Mechanical properties :
#
#
# Convention : Reuss Voigt Hill
#
# Bulk Modulus (GPa) = 48.74790 77.02959 62.88874
# Shear Modulus (GPa) = 32.60432 45.46029 39.03230
#
# Velocity S-wave (km/s) = 3.56095 4.20479 3.89619
# Velocity P-wave (km/s) = 5.98883 7.31654 6.68573
#
# Compressibility (1/GPa) = 0.02051371
#
# Stress axis : x y z
#
# Youngs Moduli (GPa) = 50.67893 124.50357 140.79920
#
# Poissons Ratio (x) = 0.19443 0.59091
# Poissons Ratio (y) = 0.07914 0.19963
# Poissons Ratio (z) = 0.21269 0.17652
#
# Static dielectric constant tensor:
#      x y z
#    x 1.983310 0.020110 0.043090 
#    y 0.020110 2.043500 0.040220 
#    z 0.043090 0.040220 2.036380 
# 
# From -- ./inp_files/514176.got.cif
#   From: 2010.05.17/outbox.cif.g08.bks.cpg/sg2_258_cif.got.tgz:514176.got - 2010.06.03 11:33:40.
