data_PCOD9044968
_publ_section_title
;
Structure prediction by ZEFSAII (Michael W. Deem and Ramdas Pophale) SiO2 
 PCOD9044968
Probable space group: P -1
;
_chemical_formula_sum "Si O2"
_cell_formula_units_Z 16
_cell_length_a 26.931819
_cell_length_b 6.368287
_cell_length_c 5.781264
_cell_angle_alpha 105.758310
_cell_angle_beta 102.492140
_cell_angle_gamma 45.746428
_cell_volume 682.991784
_symmetry_space_group_name_H-M "P -1"
_symmetry_group_IT_number 2
_symmetry_cell_setting 'triclinic'
loop_
_space_group_symop_operation_xyz
x,y,z
-x,-y,-z
loop_
_atom_site_type_symbol
_atom_site_label
_atom_site_fract_x
_atom_site_fract_y
_atom_site_fract_z
Si Si1 0.556313 0.774717 0.181380
Si Si2 0.156365 0.863845 0.488591
Si Si3 0.216253 0.981560 0.204068
Si Si4 0.964818 0.546545 0.227834
Si Si5 0.546408 0.194363 0.590899
Si Si6 0.236144 0.454836 0.824369
Si Si7 0.664799 0.113626 0.934647
Si Si8 0.115779 0.605289 0.035453
O O1 0.510165 0.765794 0.303247
O O2 0.580281 0.924921 0.370745
O O3 0.622267 0.446890 0.075007
O O4 0.500000 0.000000 0.000000
O O5 0.189139 0.973676 0.419907
O O6 0.220850 0.544044 0.567619
O O7 0.114011 0.824004 0.264328
O O8 0.105398 0.105447 0.705714
O O9 0.281361 0.951607 0.221164
O O10 0.153415 0.304259 0.129862
O O11 0.236458 0.695038 0.011472
O O12 0.000000 0.500000 0.500000
O O13 0.947772 0.338319 0.126531
O O14 0.000000 0.500000 0.000000
O O15 0.500000 0.500000 0.500000
O O16 0.606368 0.128726 0.776984
O O17 0.167600 0.529484 0.865043
O O18 0.296732 0.128724 0.892944
#
# Coordination Sequence:
#
# PCOD9044968 Si02
#       8
#     2   2   2   2   2   2   2   2
#     4  11  25  47  71  97 145 190 230 305 365 435
#     4  11  25  49  77 104 154 193 246 307 387 430
#     4  10  23  48  70 107 145 192 244 313 369 441
#     4  12  28  48  79 117 152 203 259 309 370 464
#     4  11  25  47  70 102 139 194 237 299 380 435
#     4  10  24  46  72 105 141 195 239 309 370 441
#     4  11  25  47  70 108 144 182 257 292 371 456
#     4  10  24  48  74 103 153 195 239 311 380 432
#
# _framework density 23.426342000000002
#
# number of rings (size 3 to 8) (size 9 to 14) (size 15 to 20)
#    0.000    1.250    2.500    1.125    7.000    1.000 
#   18.000    0.000    0.000    0.000    0.000    0.000 
#    0.000    0.000    0.000    0.000    0.000    0.000 
#
# Total GULP energy -89437.840056 kJ/mol
# GULP energy per Si atom -5589.865003 kJ/mol
# Density = 2.337302 g / cm^3
# Si number density = 23.426342 Si / 1000 Ang^3
#
#
#
# Elastic Constant Matrix: (Units=GPa)
#
#
# Indices 1 2 3 4 5 6 
#
# 1 91.5346 33.6140 36.6634 -1.2455 6.2971 6.2587
# 2 33.6140 140.5337 49.0178 -1.6837 -11.4019 6.9201
# 3 36.6634 49.0178 87.5019 5.3941 -1.8621 2.6323
# 4 -1.2455 -1.6837 5.3941 56.2214 11.4406 -5.3560
# 5 6.2971 -11.4019 -1.8621 11.4406 29.5580 -7.4870
# 6 6.2587 6.9201 2.6323 -5.3560 -7.4870 35.0202
#
#
#
# Elastic Compliance Matrix: (Units=1/GPa)
#
#
# Indices 1 2 3 4 5 6 
#
# 1 0.014216 -0.001942 -0.005000 0.001576 -0.005384 -0.002691
# 2 -0.001942 0.009423 -0.004365 -0.000139 0.003723 -0.000412
# 3 -0.005000 -0.004365 0.016104 -0.002002 0.001302 0.000518
# 4 0.001576 -0.000139 -0.002002 0.019722 -0.007835 0.001237
# 5 -0.005384 0.003723 0.001302 -0.007835 0.041507 0.007804
# 6 -0.002691 -0.000412 0.000518 0.001237 0.007804 0.030936
#
#
# Mechanical properties :
#
#
# Convention : Reuss Voigt Hill
#
# Bulk Modulus (GPa) = 58.37506 62.01785 60.19645
# Shear Modulus (GPa) = 31.20474 37.51157 34.35815
#
# Velocity S-wave (km/s) = 3.65367 4.00591 3.83384
# Velocity P-wave (km/s) = 6.54001 6.92297 6.73421
#
# Compressibility (1/GPa) = 0.01713060
#
# Stress axis : x y z
#
# Youngs Moduli (GPa) = 70.34125 106.11814 62.09650
#
# Poissons Ratio (x) = 0.20608 0.31046
# Poissons Ratio (y) = 0.13660 0.27105
# Poissons Ratio (z) = 0.35168 0.46321
#
# Static dielectric constant tensor:
#      x y z
#    x 1.903660 -0.046900 0.011570 
#    y -0.046900 1.898120 0.007500 
#    z 0.011570 0.007500 1.934130 
# 
# From -- ./inp_files/114583.got.cif
#   From: 2010.05.17/outbox.cif.g08.bks.cpg/sg2_58_cif.got.tgz:114583.got - 2010.06.03 11:33:40.
