data_PCOD9044811
_publ_section_title
;
Structure prediction by ZEFSAII (Michael W. Deem and Ramdas Pophale) SiO2 
 PCOD9044811
Probable space group: P -1
;
_chemical_formula_sum "Si O2"
_cell_formula_units_Z 16
_cell_length_a 9.066537
_cell_length_b 18.492224
_cell_length_c 19.855162
_cell_angle_alpha 19.098749
_cell_angle_beta 39.058384
_cell_angle_gamma 42.998738
_cell_volume 686.281265
_symmetry_space_group_name_H-M "P -1"
_symmetry_group_IT_number 2
_symmetry_cell_setting 'triclinic'
loop_
_space_group_symop_operation_xyz
x,y,z
-x,-y,-z
loop_
_atom_site_type_symbol
_atom_site_label
_atom_site_fract_x
_atom_site_fract_y
_atom_site_fract_z
Si Si1 0.963826 0.460482 0.127461
Si Si2 0.651840 0.291243 0.967847
Si Si3 0.752099 0.869225 0.605375
Si Si4 0.343109 0.217854 0.438869
Si Si5 0.180069 0.702847 0.247449
Si Si6 0.262409 0.946565 0.371134
Si Si7 0.975334 0.980802 0.863534
Si Si8 0.687932 0.828885 0.977167
O O1 0.193168 0.351621 0.176822
O O2 0.884321 0.676744 0.006289
O O3 0.988212 0.007944 0.416204
O O4 0.000000 0.500000 0.000000
O O5 0.568015 0.538062 0.791011
O O6 0.781009 0.272217 0.867355
O O7 0.439066 0.116320 0.193864
O O8 0.846906 0.221514 0.013376
O O9 0.742571 0.798347 0.593305
O O10 0.533519 0.028740 0.549538
O O11 0.757108 0.283845 0.378881
O O12 0.123478 0.169466 0.606876
O O13 0.091938 0.915792 0.132192
O O14 0.448526 0.687477 0.191452
O O15 0.000000 0.500000 0.500000
O O16 0.335385 0.968178 0.247309
O O17 0.767749 0.910428 0.949780
#
# Coordination Sequence:
#
# PCOD9044811 Si02
#       8
#     2   2   2   2   2   2   2   2
#     4  10  23  47  74 107 150 188 249 294 359 433
#     4  11  25  44  74 107 142 193 236 312 361 430
#     4   9  22  46  71 107 147 196 239 296 358 443
#     4  11  22  46  73 103 154 190 244 297 365 435
#     4  11  25  47  72 104 144 187 241 311 373 424
#     4   9  23  46  68 106 146 186 245 290 357 427
#     4  12  24  46  71 105 144 188 252 300 365 435
#     4  11  24  47  74 103 144 199 238 303 364 436
#
# _framework density 23.314057999999999
#
# number of rings (size 3 to 8) (size 9 to 14) (size 15 to 20)
#    0.750    0.750    2.500    1.500    1.750    3.000 
#    9.000    2.500    0.000    2.250    0.000    0.000 
#    0.000    0.000    0.000    0.000    0.000    0.000 
#
# Total GULP energy -89365.295649 kJ/mol
# GULP energy per Si atom -5585.330978 kJ/mol
# Density = 2.326099 g / cm^3
# Si number density = 23.314058 Si / 1000 Ang^3
#
#
#
# Elastic Constant Matrix: (Units=GPa)
#
#
# Indices 1 2 3 4 5 6 
#
# 1 113.1767 23.5638 40.4487 10.0914 2.3133 -7.4496
# 2 23.5638 99.9992 39.7534 -3.1959 4.0447 6.6672
# 3 40.4487 39.7534 115.8763 10.5551 1.0388 5.3833
# 4 10.0914 -3.1959 10.5551 40.6156 -6.2207 -2.1990
# 5 2.3133 4.0447 1.0388 -6.2207 28.6269 -1.6881
# 6 -7.4496 6.6672 5.3833 -2.1990 -1.6881 34.7864
#
#
#
# Elastic Compliance Matrix: (Units=1/GPa)
#
#
# Indices 1 2 3 4 5 6 
#
# 1 0.010650 -0.001473 -0.003167 -0.001902 -0.000780 0.002895
# 2 -0.001473 0.012061 -0.003703 0.001996 -0.001134 -0.001983
# 3 -0.003167 -0.003703 0.011334 -0.002600 -0.000309 -0.001902
# 4 -0.001902 0.001996 -0.002600 0.026918 0.005910 0.001601
# 5 -0.000780 -0.001134 -0.000309 0.005910 0.036583 0.002247
# 6 0.002895 -0.001983 -0.001902 0.001601 0.002247 0.030251
#
#
# Mechanical properties :
#
#
# Convention : Reuss Voigt Hill
#
# Bulk Modulus (GPa) = 57.60527 59.62045 58.61286
# Shear Modulus (GPa) = 33.27337 35.82486 34.54911
#
# Velocity S-wave (km/s) = 3.78190 3.92423 3.85372
# Velocity P-wave (km/s) = 6.62060 6.79419 6.70796
#
# Compressibility (1/GPa) = 0.01735952
#
# Stress axis : x y z
#
# Youngs Moduli (GPa) = 93.89462 82.91038 88.23271
#
# Poissons Ratio (x) = 0.12213 0.27939
# Poissons Ratio (y) = 0.13831 0.32674
# Poissons Ratio (z) = 0.29732 0.30703
#
# Static dielectric constant tensor:
#      x y z
#    x 1.879980 -0.010580 0.031670 
#    y -0.010580 1.904040 0.008180 
#    z 0.031670 0.008180 1.898140 
# 
# From -- ./inp_files/591161.got.cif
#   From: 2010.05.17/outbox.cif.g08.bks.cpg/sg2_296_cif.got.tgz:591161.got - 2010.06.03 11:33:40.
