data_PCOD9044524
_publ_section_title
;
Structure prediction by ZEFSAII (Michael W. Deem and Ramdas Pophale) SiO2 
 PCOD9044524
Probable space group: P -1
;
_chemical_formula_sum "Si O2"
_cell_formula_units_Z 14
_cell_length_a 10.178807
_cell_length_b 7.994295
_cell_length_c 8.070903
_cell_angle_alpha 116.454503
_cell_angle_beta 116.742647
_cell_angle_gamma 67.530846
_cell_volume 511.344177
_symmetry_space_group_name_H-M "P -1"
_symmetry_group_IT_number 2
_symmetry_cell_setting 'triclinic'
loop_
_space_group_symop_operation_xyz
x,y,z
-x,-y,-z
loop_
_atom_site_type_symbol
_atom_site_label
_atom_site_fract_x
_atom_site_fract_y
_atom_site_fract_z
Si Si1 0.479910 0.353185 0.280113
Si Si2 0.177013 0.829003 0.576529
Si Si3 0.106467 0.611779 0.769217
Si Si4 0.228175 0.159190 0.583523
Si Si5 0.134206 0.475863 0.196993
Si Si6 0.826125 0.075506 0.875866
Si Si7 0.527728 0.137230 0.925457
O O1 0.500000 0.500000 0.500000
O O2 0.641024 0.207837 0.342202
O O3 0.301962 0.356780 0.197889
O O4 0.501431 0.346992 0.089716
O O5 0.144285 0.685762 0.354967
O O6 0.861020 0.942791 0.374816
O O7 0.207786 0.026827 0.356328
O O8 0.125166 0.743547 0.679700
O O9 0.934620 0.625361 0.735331
O O10 0.166928 0.388442 0.662715
O O11 0.187429 0.694270 0.005960
O O12 0.404699 0.140204 0.715211
O O13 0.000000 0.500000 0.000000
O O14 0.693675 0.053896 0.915328
O O15 0.000000 0.000000 0.000000
O O16 0.500000 0.000000 0.000000
#
# Coordination Sequence:
#
# PCOD9044524 Si02
#       7
#     2   2   2   2   2   2   2
#     4  10  23  46  84 113 163 224 275 342 417 495
#     4  11  25  54  82 118 169 221 283 352 418 505
#     4  12  28  54  85 122 170 222 282 351 426 502
#     4  12  29  54  89 123 170 227 285 345 435 512
#     4  11  25  47  80 125 167 221 282 348 433 501
#     4  12  31  53  84 129 171 218 286 356 424 514
#     4  12  25  54  82 118 170 220 278 349 418 503
#
# _framework density 27.378820000000001
#
# number of rings (size 3 to 8) (size 9 to 14) (size 15 to 20)
#    0.000    0.571    2.857    2.571    6.000    3.429 
#   15.429    1.429    0.000    1.714    0.000    0.000 
#    0.000    0.000    0.000    0.000    0.000    0.000 
#
# Total GULP energy -78138.843781 kJ/mol
# GULP energy per Si atom -5581.345984 kJ/mol
# Density = 2.731650 g / cm^3
# Si number density = 27.378820 Si / 1000 Ang^3
#
#
#
# Elastic Constant Matrix: (Units=GPa)
#
#
# Indices 1 2 3 4 5 6 
#
# 1 224.2590 71.5794 68.0553 -6.8469 6.6665 -30.7068
# 2 71.5794 157.9223 68.1103 26.6893 -12.8668 16.3139
# 3 68.0553 68.1103 268.2881 47.8726 17.7960 -14.7517
# 4 -6.8469 26.6893 47.8726 40.2654 -3.2284 -4.4450
# 5 6.6665 -12.8668 17.7960 -3.2284 48.2575 2.0490
# 6 -30.7068 16.3139 -14.7517 -4.4450 2.0490 33.5699
#
#
#
# Elastic Compliance Matrix: (Units=1/GPa)
#
#
# Indices 1 2 3 4 5 6 
#
# 1 0.008758 -0.006187 -0.001333 0.008278 -0.002309 0.011669
# 2 -0.006187 0.013076 -0.001133 -0.009547 0.004717 -0.014064
# 3 -0.001333 -0.001133 0.005736 -0.006384 -0.002710 0.001172
# 4 0.008278 -0.009547 -0.006384 0.041872 0.000834 0.014900
# 5 -0.002309 0.004717 -0.002710 0.000834 0.023648 -0.006929
# 6 0.011669 -0.014064 0.001172 0.014900 -0.006929 0.050207
#
#
# Mechanical properties :
#
#
# Convention : Reuss Voigt Hill
#
# Bulk Modulus (GPa) = 97.43070 118.43994 107.93532
# Shear Modulus (GPa) = 30.48308 53.93351 42.20829
#
# Velocity S-wave (km/s) = 3.34036 4.44317 3.93063
# Velocity P-wave (km/s) = 7.10920 8.34721 7.75296
#
# Compressibility (1/GPa) = 0.01026371
#
# Stress axis : x y z
#
# Youngs Moduli (GPa) = 114.18575 76.47768 174.32439
#
# Poissons Ratio (x) = 0.47318 0.23240
# Poissons Ratio (y) = 0.70648 0.19747
# Poissons Ratio (z) = 0.15222 0.08663
#
# Static dielectric constant tensor:
#      x y z
#    x 2.104350 0.059150 -0.032100 
#    y 0.059150 2.251090 -0.058020 
#    z -0.032100 -0.058020 2.332460 
# 
# From -- ./inp_files/159386.got.cif
#   From: 2010.05.17/outbox.cif.g08.bks.cpg/sg2_80_cif.got.tgz:159386.got - 2010.06.03 11:33:40.
