data_PCOD9044769
_publ_section_title
;
Structure prediction by ZEFSAII (Michael W. Deem and Ramdas Pophale) SiO2 
 PCOD9044769
Probable space group: P -1
;
_chemical_formula_sum "Si O2"
_cell_formula_units_Z 14
_cell_length_a 5.026866
_cell_length_b 8.493461
_cell_length_c 15.111895
_cell_angle_alpha 112.668199
_cell_angle_beta 95.271000
_cell_angle_gamma 95.737541
_cell_volume 586.381294
_symmetry_space_group_name_H-M "P -1"
_symmetry_group_IT_number 2
_symmetry_cell_setting 'triclinic'
loop_
_space_group_symop_operation_xyz
x,y,z
-x,-y,-z
loop_
_atom_site_type_symbol
_atom_site_label
_atom_site_fract_x
_atom_site_fract_y
_atom_site_fract_z
Si Si1 0.758415 0.236424 0.812096
Si Si2 0.061123 0.931543 0.835591
Si Si3 0.007124 0.623922 0.898294
Si Si4 0.953903 0.133974 0.375280
Si Si5 0.423458 0.246093 0.970703
Si Si6 0.568163 0.872271 0.394376
Si Si7 0.512721 0.311456 0.487555
O O1 0.944469 0.418652 0.834919
O O2 0.523504 0.278952 0.880385
O O3 0.627503 0.159568 0.701017
O O4 0.883734 0.081707 0.832718
O O5 0.941079 0.761759 0.850844
O O6 0.148701 0.869877 0.729088
O O7 0.299202 0.043279 0.923329
O O8 0.817639 0.656720 0.982505
O O9 0.316583 0.688388 0.947835
O O10 0.269929 0.193048 0.403783
O O11 0.203720 0.741057 0.544590
O O12 0.854868 0.951114 0.379594
O O13 0.551333 0.701016 0.413153
O O14 0.500000 0.000000 0.500000
O O15 0.500000 0.500000 0.500000
#
# Coordination Sequence:
#
# PCOD9044769 Si02
#       7
#     2   2   2   2   2   2   2
#     4  12  27  49  76 110 148 199 245 311 369 440
#     4  12  27  47  78 105 155 193 250 300 376 437
#     4  12  30  46  75 110 150 193 255 306 367 442
#     4  11  24  46  70 106 141 194 239 294 364 451
#     4  12  26  50  73 110 148 200 247 308 370 441
#     4  10  23  47  73 105 142 189 243 290 370 440
#     4  11  25  45  74 105 148 184 240 307 366 429
#
# _framework density 23.875250999999999
#
# number of rings (size 3 to 8) (size 9 to 14) (size 15 to 20)
#    0.000    0.571    2.857    4.286    6.000    1.143 
#    2.571    0.000    0.000    0.000    0.000    0.000 
#    0.000    0.000    0.000    0.000    0.000    0.000 
#
# Total GULP energy -78258.988283 kJ/mol
# GULP energy per Si atom -5589.927735 kJ/mol
# Density = 2.382091 g / cm^3
# Si number density = 23.875251 Si / 1000 Ang^3
#
#
#
# Elastic Constant Matrix: (Units=GPa)
#
#
# Indices 1 2 3 4 5 6 
#
# 1 67.1394 35.2870 17.7277 0.0508 14.2407 4.1215
# 2 35.2870 177.7972 53.7429 -20.0175 10.4257 -9.8211
# 3 17.7277 53.7429 98.9822 -3.8499 12.8654 -4.0224
# 4 0.0508 -20.0175 -3.8499 32.8459 8.5644 10.7870
# 5 14.2407 10.4257 12.8654 8.5644 31.0540 -2.8506
# 6 4.1215 -9.8211 -4.0224 10.7870 -2.8506 24.6331
#
#
#
# Elastic Compliance Matrix: (Units=1/GPa)
#
#
# Indices 1 2 3 4 5 6 
#
# 1 0.018962 -0.003127 -0.000757 0.002377 -0.008592 -0.006578
# 2 -0.003127 0.007860 -0.003383 0.004251 -0.000871 0.001142
# 3 -0.000757 -0.003383 0.012592 0.000323 -0.003800 0.000253
# 4 0.002377 0.004251 0.000323 0.043889 -0.016572 -0.019787
# 5 -0.008592 -0.000871 -0.003800 -0.016572 0.043753 0.012790
# 6 -0.006578 0.001142 0.000253 -0.019787 0.012790 0.052338
#
#
# Mechanical properties :
#
#
# Convention : Reuss Voigt Hill
#
# Bulk Modulus (GPa) = 40.18995 61.93713 51.06354
# Shear Modulus (GPa) = 24.72558 33.51736 29.12147
#
# Velocity S-wave (km/s) = 3.22159 3.75087 3.49626
# Velocity P-wave (km/s) = 5.54148 6.69007 6.14268
#
# Compressibility (1/GPa) = 0.02488184
#
# Stress axis : x y z
#
# Youngs Moduli (GPa) = 52.73774 127.22403 79.41686
#
# Poissons Ratio (x) = 0.39777 0.06009
# Poissons Ratio (y) = 0.16489 0.26865
# Poissons Ratio (z) = 0.03990 0.43037
#
# Static dielectric constant tensor:
#      x y z
#    x 1.941130 -0.055050 0.009590 
#    y -0.055050 2.025210 -0.013900 
#    z 0.009590 -0.013900 1.921800 
# 
# From -- ./inp_files/479859.got.cif
#   From: 2010.05.17/outbox.cif.g08.bks.cpg/sg2_240_cif.got.tgz:479859.got - 2010.06.03 11:33:40.
