data_PCOD9044054
_publ_section_title
;
Structure prediction by ZEFSAII (Michael W. Deem and Ramdas Pophale) SiO2 
 PCOD9044054
Probable space group: P -1
;
_chemical_formula_sum "Si O2"
_cell_formula_units_Z 14
_cell_length_a 5.918907
_cell_length_b 14.489485
_cell_length_c 7.911485
_cell_angle_alpha 73.080146
_cell_angle_beta 119.112159
_cell_angle_gamma 119.466379
_cell_volume 514.913750
_symmetry_space_group_name_H-M "P -1"
_symmetry_group_IT_number 2
_symmetry_cell_setting 'triclinic'
loop_
_space_group_symop_operation_xyz
x,y,z
-x,-y,-z
loop_
_atom_site_type_symbol
_atom_site_label
_atom_site_fract_x
_atom_site_fract_y
_atom_site_fract_z
Si Si1 0.175991 0.509879 0.231758
Si Si2 0.234187 0.029428 0.216896
Si Si3 0.829852 0.199886 0.730134
Si Si4 0.696931 0.785049 0.649569
Si Si5 0.564987 0.121014 0.998033
Si Si6 0.578056 0.438954 0.211239
Si Si7 0.677250 0.732829 0.333078
O O1 0.413838 0.463156 0.301059
O O2 0.623163 0.367400 0.727274
O O3 0.917479 0.467192 0.298645
O O4 0.000000 0.500000 0.000000
O O5 0.162373 0.094480 0.300274
O O6 0.253029 0.918953 0.313857
O O7 0.518258 0.116911 0.182741
O O8 0.000000 0.000000 0.000000
O O9 0.580037 0.225336 0.552442
O O10 0.833033 0.188369 0.941304
O O11 0.121382 0.285980 0.721217
O O12 0.583746 0.688998 0.790137
O O13 0.849304 0.759908 0.557711
O O14 0.350398 0.163847 0.811571
O O15 0.500000 0.000000 0.000000
O O16 0.500000 0.500000 0.000000
#
# Coordination Sequence:
#
# PCOD9044054 Si02
#       7
#     2   2   2   2   2   2   2
#     4  10  25  47  74 106 143 189 251 309 366 436
#     4  11  22  45  72 104 144 193 244 297 360 446
#     4  10  23  46  69 104 149 187 239 299 368 446
#     4  11  27  45  71 107 144 192 239 305 376 435
#     4   9  21  41  68 104 137 187 243 294 356 435
#     4  10  25  49  73 107 144 191 252 310 365 438
#     4  11  24  45  71 104 146 194 235 303 374 439
#
# _framework density 27.189018000000001
#
# number of rings (size 3 to 8) (size 9 to 14) (size 15 to 20)
#    0.000    1.714    1.429    0.429   10.000    1.714 
#   18.000    0.000    0.000    0.000    0.000    0.000 
#    0.000    0.000    0.000    0.000    0.000    0.000 
#
# Total GULP energy -78126.294134 kJ/mol
# GULP energy per Si atom -5580.449581 kJ/mol
# Density = 2.712713 g / cm^3
# Si number density = 27.189018 Si / 1000 Ang^3
#
#
#
# Elastic Constant Matrix: (Units=GPa)
#
#
# Indices 1 2 3 4 5 6 
#
# 1 157.9548 36.8266 7.0719 14.3817 -3.3546 26.1206
# 2 36.8266 138.5778 35.3278 5.7066 3.3869 0.6128
# 3 7.0719 35.3278 57.5848 -9.9082 -7.9116 15.2236
# 4 14.3817 5.7066 -9.9082 45.0400 -5.7799 1.5070
# 5 -3.3546 3.3869 -7.9116 -5.7799 39.8710 -0.5240
# 6 26.1206 0.6128 15.2236 1.5070 -0.5240 52.9959
#
#
#
# Elastic Compliance Matrix: (Units=1/GPa)
#
#
# Indices 1 2 3 4 5 6 
#
# 1 0.007651 -0.002331 0.001415 -0.001592 0.000838 -0.004097
# 2 -0.002331 0.009911 -0.007496 -0.002636 -0.002865 0.003234
# 3 0.001415 -0.007496 0.026210 0.007430 0.006925 -0.008283
# 4 -0.001592 -0.002636 0.007430 0.025416 0.005223 -0.001990
# 5 0.000838 -0.002865 0.006925 0.005223 0.027496 -0.002246
# 6 -0.004097 0.003234 -0.008283 -0.001990 -0.002246 0.023265
#
#
# Mechanical properties :
#
#
# Convention : Reuss Voigt Hill
#
# Bulk Modulus (GPa) = 37.10923 56.95222 47.03073
# Shear Modulus (GPa) = 34.30355 45.90747 40.10551
#
# Velocity S-wave (km/s) = 3.55585 4.11354 3.84482
# Velocity P-wave (km/s) = 5.52603 6.59954 6.08650
#
# Compressibility (1/GPa) = 0.02694747
#
# Stress axis : x y z
#
# Youngs Moduli (GPa) = 130.69772 100.89921 38.15280
#
# Poissons Ratio (x) = 0.23517 -0.05397
# Poissons Ratio (y) = 0.30462 0.28601
# Poissons Ratio (z) = -0.18487 0.75637
#
# Static dielectric constant tensor:
#      x y z
#    x 2.604510 -0.052290 -0.033100 
#    y -0.052290 2.029660 -0.000730 
#    z -0.033100 -0.000730 2.111240 
# 
# From -- ./inp_files/103756.got.cif
#   From: 2010.05.17/outbox.cif.g08.bks.cpg/sg2_52_cif.got.tgz:103756.got - 2010.06.03 11:33:40.
