data_PCOD9044375
_publ_section_title
;
Structure prediction by ZEFSAII (Michael W. Deem and Ramdas Pophale) SiO2 
 PCOD9044375
Probable space group: P -1
;
_chemical_formula_sum "Si O2"
_cell_formula_units_Z 13
_cell_length_a 15.120151
_cell_length_b 8.003337
_cell_length_c 8.384488
_cell_angle_alpha 55.087501
_cell_angle_beta 39.249069
_cell_angle_gamma 47.548912
_cell_volume 470.975601
_symmetry_space_group_name_H-M "P -1"
_symmetry_group_IT_number 2
_symmetry_cell_setting 'triclinic'
loop_
_space_group_symop_operation_xyz
x,y,z
-x,-y,-z
loop_
_atom_site_type_symbol
_atom_site_label
_atom_site_fract_x
_atom_site_fract_y
_atom_site_fract_z
Si Si1 0.546379 0.123076 0.015673
Si Si2 0.166625 0.005396 0.751235
Si Si3 0.328481 0.569586 0.933740
Si Si4 0.816205 0.621218 0.246202
Si Si5 0.165336 0.245884 0.292553
Si Si6 0.125816 0.752581 0.412703
Si Si7 0.500000 0.000000 0.500000
O O1 0.486800 0.375677 0.889587
O O2 0.471786 0.132899 0.288099
O O3 0.500000 0.000000 0.000000
O O4 0.730669 0.963539 0.854002
O O5 0.179690 0.170260 0.774551
O O6 0.179032 0.115973 0.509091
O O7 0.306748 0.754129 0.728413
O O8 0.000000 0.000000 0.000000
O O9 0.230902 0.431284 0.096127
O O10 0.240231 0.725435 0.123718
O O11 0.799991 0.404322 0.455866
O O12 0.640115 0.771884 0.342354
O O13 0.000000 0.500000 0.000000
O O14 0.984971 0.360722 0.436559
O O15 0.000000 0.000000 0.500000
#
# Coordination Sequence:
#
# PCOD9044375 Si02
#       7
#     2   2   2   2   2   2   1
#     4  10  23  46  73 108 150 197 254 316 387 462
#     4  12  24  43  76 111 147 204 259 315 392 465
#     4  11  22  45  71 102 146 191 251 316 378 462
#     4  12  26  46  73 112 153 201 261 320 388 470
#     4  11  23  46  72 104 146 200 253 317 384 458
#     4  12  23  43  66 100 146 189 252 312 374 451
#     4  12  24  50  80 110 158 210 252 324 404 452
#
# _framework density 27.602278999999999
#
# number of rings (size 3 to 8) (size 9 to 14) (size 15 to 20)
#    0.000    0.615    4.615    4.154    0.000    1.846 
#    2.769    1.538    0.000    0.000    0.000    0.000 
#    0.000    0.000    0.000    0.000    0.000    0.000 
#
# Total GULP energy -72443.097691 kJ/mol
# GULP energy per Si atom -5572.545976 kJ/mol
# Density = 2.753945 g / cm^3
# Si number density = 27.602279 Si / 1000 Ang^3
#
#
#
# Elastic Constant Matrix: (Units=GPa)
#
#
# Indices 1 2 3 4 5 6 
#
# 1 41.0832 7.4440 29.4610 -12.7680 -13.1480 3.0444
# 2 7.4440 217.0407 41.7881 -17.3180 7.6312 -23.1704
# 3 29.4610 41.7881 98.8118 -13.4626 12.8965 -10.2172
# 4 -12.7680 -17.3180 -13.4626 54.6676 -15.6281 3.6043
# 5 -13.1480 7.6312 12.8965 -15.6281 48.6983 -2.7408
# 6 3.0444 -23.1704 -10.2172 3.6043 -2.7408 51.3963
#
#
#
# Elastic Compliance Matrix: (Units=1/GPa)
#
#
# Indices 1 2 3 4 5 6 
#
# 1 0.046744 0.001255 -0.015846 0.013678 0.020717 -0.005208
# 2 0.001255 0.005295 -0.002318 0.001482 0.000699 0.001785
# 3 -0.015846 -0.002318 0.016914 -0.003103 -0.009222 0.002982
# 4 0.013678 0.001482 -0.003103 0.024782 0.012132 -0.001850
# 5 0.020717 0.000699 -0.009222 0.012132 0.032248 -0.001876
# 6 -0.005208 0.001785 0.002982 -0.001850 -0.001876 0.021192
#
#
# Mechanical properties :
#
#
# Convention : Reuss Voigt Hill
#
# Bulk Modulus (GPa) = 28.46234 57.14690 42.80462
# Shear Modulus (GPa) = 25.94613 49.50193 37.72403
#
# Velocity S-wave (km/s) = 3.06927 4.23945 3.70090
# Velocity P-wave (km/s) = 4.78482 6.68674 5.81408
#
# Compressibility (1/GPa) = 0.03513414
#
# Stress axis : x y z
#
# Youngs Moduli (GPa) = 21.39316 188.85878 59.12109
#
# Poissons Ratio (x) = -0.23698 0.93685
# Poissons Ratio (y) = -0.02684 0.13705
# Poissons Ratio (z) = 0.33900 0.43780
#
# Static dielectric constant tensor:
#      x y z
#    x 2.434830 -0.066890 -0.128200 
#    y -0.066890 2.097660 0.058720 
#    z -0.128200 0.058720 2.260470 
# 
# From -- ./inp_files/326976.got.cif
#   From: 2010.05.17/outbox.cif.g08.bks.cpg/sg2_164_cif.got.tgz:326976.got - 2010.06.03 11:33:40.
