data_PCOD9044829
_publ_section_title
;
Structure prediction by ZEFSAII (Michael W. Deem and Ramdas Pophale) SiO2 
 PCOD9044829
Probable space group: P -1
;
_chemical_formula_sum "Si O2"
_cell_formula_units_Z 16
_cell_length_a 8.368651
_cell_length_b 8.944834
_cell_length_c 12.287240
_cell_angle_alpha 76.753193
_cell_angle_beta 85.424014
_cell_angle_gamma 48.701309
_cell_volume 669.403949
_symmetry_space_group_name_H-M "P -1"
_symmetry_group_IT_number 2
_symmetry_cell_setting 'triclinic'
loop_
_space_group_symop_operation_xyz
x,y,z
-x,-y,-z
loop_
_atom_site_type_symbol
_atom_site_label
_atom_site_fract_x
_atom_site_fract_y
_atom_site_fract_z
Si Si1 0.938579 0.946176 0.325967
Si Si2 0.605477 0.522653 0.858911
Si Si3 0.881110 0.566084 0.111014
Si Si4 0.174968 0.522788 0.494418
Si Si5 0.045279 0.228676 0.327714
Si Si6 0.443015 0.197632 0.367657
Si Si7 0.434023 0.760339 0.050424
Si Si8 0.940354 0.853560 0.099911
O O1 0.701860 0.036388 0.364103
O O2 0.018369 0.061824 0.344974
O O3 0.933030 0.954653 0.193677
O O4 0.105370 0.710929 0.392991
O O5 0.629239 0.633735 0.748085
O O6 0.520561 0.412517 0.842503
O O7 0.823076 0.314444 0.931186
O O8 0.479404 0.673984 0.939637
O O9 0.632411 0.738579 0.070477
O O10 0.906978 0.698881 0.162926
O O11 0.978067 0.357658 0.199765
O O12 0.000000 0.500000 0.000000
O O13 0.384801 0.310431 0.468488
O O14 0.000000 0.500000 0.500000
O O15 0.139197 0.604809 0.604252
O O16 0.280165 0.153759 0.363754
O O17 0.214995 0.989962 0.011867
#
# Coordination Sequence:
#
# PCOD9044829 Si02
#       8
#     2   2   2   2   2   2   2   2
#     4  12  25  44  75 104 138 180 229 283 341 414
#     4  11  21  42  63  96 137 175 224 286 338 399
#     4  12  24  45  68  94 143 182 224 287 337 403
#     4  10  23  47  75 102 140 178 225 289 342 405
#     4  11  25  45  71 104 138 180 232 283 340 407
#     4  11  22  47  73  96 142 183 223 284 350 398
#     4  11  24  38  67  98 131 183 234 277 342 406
#     4  12  23  42  67  96 134 178 226 279 342 400
#
# _framework density 23.901861
#
# number of rings (size 3 to 8) (size 9 to 14) (size 15 to 20)
#    0.000    0.750    5.000    2.625    1.750    3.500 
#    2.250    2.500    0.000    0.000    0.000    0.000 
#    0.000    0.000    0.000    0.000    0.000    0.000 
#
# Total GULP energy -89208.023321 kJ/mol
# GULP energy per Si atom -5575.501458 kJ/mol
# Density = 2.384746 g / cm^3
# Si number density = 23.901861 Si / 1000 Ang^3
#
#
#
# Elastic Constant Matrix: (Units=GPa)
#
#
# Indices 1 2 3 4 5 6 
#
# 1 84.6584 42.1921 29.2897 10.8802 -9.6405 6.5386
# 2 42.1921 85.9488 19.7778 5.6589 1.1591 4.0708
# 3 29.2897 19.7778 79.2949 1.5664 -10.7215 9.6640
# 4 10.8802 5.6589 1.5664 34.1417 3.2618 -9.5492
# 5 -9.6405 1.1591 -10.7215 3.2618 20.3908 0.5605
# 6 6.5386 4.0708 9.6640 -9.5492 0.5605 43.5436
#
#
#
# Elastic Compliance Matrix: (Units=1/GPa)
#
#
# Indices 1 2 3 4 5 6 
#
# 1 0.019050 -0.008158 -0.003348 -0.006194 0.008779 -0.002826
# 2 -0.008158 0.016082 -0.001847 0.000678 -0.005861 0.000356
# 3 -0.003348 -0.001847 0.015643 -0.000871 0.006971 -0.003077
# 4 -0.006194 0.000678 -0.000871 0.034516 -0.009187 0.008748
# 5 0.008779 -0.005861 0.006971 -0.009187 0.058800 -0.005089
# 6 -0.002826 0.000356 -0.003077 0.008748 -0.005089 0.026023
#
#
# Mechanical properties :
#
#
# Convention : Reuss Voigt Hill
#
# Bulk Modulus (GPa) = 41.54638 48.04680 44.79659
# Shear Modulus (GPa) = 24.40870 30.19140 27.30005
#
# Velocity S-wave (km/s) = 3.19910 3.55792 3.38327
# Velocity P-wave (km/s) = 5.57364 6.08472 5.83478
#
# Compressibility (1/GPa) = 0.02406948
#
# Stress axis : x y z
#
# Youngs Moduli (GPa) = 52.49218 62.18074 63.92463
#
# Poissons Ratio (x) = 0.50727 0.21403
# Poissons Ratio (y) = 0.42823 0.11807
# Poissons Ratio (z) = 0.17576 0.11485
#
# Static dielectric constant tensor:
#      x y z
#    x 2.264870 0.079130 -0.077030 
#    y 0.079130 1.898220 0.010610 
#    z -0.077030 0.010610 1.761630 
# 
# From -- ./inp_files/327217.got.cif
#   From: 2010.05.17/outbox.cif.g08.bks.cpg/sg2_164_cif.got.tgz:327217.got - 2010.06.03 11:33:40.
