data_PCOD9044437
_publ_section_title
;
Structure prediction by ZEFSAII (Michael W. Deem and Ramdas Pophale) SiO2 
 PCOD9044437
Probable space group: P -1
;
_chemical_formula_sum "Si O2"
_cell_formula_units_Z 16
_cell_length_a 10.107161
_cell_length_b 14.585912
_cell_length_c 19.453197
_cell_angle_alpha 154.537332
_cell_angle_beta 146.603921
_cell_angle_gamma 46.025667
_cell_volume 656.875438
_symmetry_space_group_name_H-M "P -1"
_symmetry_group_IT_number 2
_symmetry_cell_setting 'triclinic'
loop_
_space_group_symop_operation_xyz
x,y,z
-x,-y,-z
loop_
_atom_site_type_symbol
_atom_site_label
_atom_site_fract_x
_atom_site_fract_y
_atom_site_fract_z
Si Si1 0.099037 0.361944 0.507930
Si Si2 0.147591 0.785848 0.490440
Si Si3 0.288650 0.635082 0.001757
Si Si4 0.903730 0.284098 0.157793
Si Si5 0.324880 0.142850 0.165043
Si Si6 0.687263 0.508292 0.862997
Si Si7 0.054300 0.164146 0.925197
Si Si8 0.940883 0.186806 0.687275
O O1 0.037317 0.467619 0.623299
O O2 0.395804 0.438623 0.685154
O O3 0.000000 0.500000 0.500000
O O4 0.004554 0.098605 0.288693
O O5 0.396129 0.795067 0.645782
O O6 0.964842 0.548401 0.245501
O O7 0.179464 0.839218 0.458192
O O8 0.003837 0.957827 0.575115
O O9 0.299950 0.774306 0.030949
O O10 0.500000 0.500000 0.000000
O O11 0.203083 0.775770 0.120925
O O12 0.154438 0.229436 0.204453
O O13 0.781529 0.121009 0.055537
O O14 0.254611 0.216533 0.110039
O O15 0.772839 0.286704 0.733137
O O16 0.796963 0.626872 0.062448
O O17 0.814534 0.685883 0.979767
#
# Coordination Sequence:
#
# PCOD9044437 Si02
#       8
#     2   2   2   2   2   2   2   2
#     4  12  27  44  73 105 144 195 229 287 374 417
#     4  11  24  44  74 102 137 190 244 288 360 425
#     4  11  27  44  72 105 145 184 244 300 349 429
#     4  10  24  45  68 106 143 186 235 298 356 423
#     4  10  23  46  75 101 144 181 242 302 352 424
#     4  11  26  49  72 102 153 181 239 301 349 442
#     4  11  26  50  72 111 143 189 242 297 360 430
#     4  10  25  44  71 102 136 191 236 295 357 416
#
# _framework density 24.357738999999999
#
# number of rings (size 3 to 8) (size 9 to 14) (size 15 to 20)
#    0.000    1.250    2.500    0.750   10.500    3.500 
#    0.000    3.125    0.000    0.000    0.000    0.000 
#    0.000    0.000    0.000    0.000    0.000    0.000 
#
# Total GULP energy -89458.387133 kJ/mol
# GULP energy per Si atom -5591.149196 kJ/mol
# Density = 2.430230 g / cm^3
# Si number density = 24.357739 Si / 1000 Ang^3
#
#
#
# Elastic Constant Matrix: (Units=GPa)
#
#
# Indices 1 2 3 4 5 6 
#
# 1 65.9634 39.5056 39.5129 6.7245 -9.4828 -1.4034
# 2 39.5056 145.6901 59.8200 -10.8494 4.5828 -15.8031
# 3 39.5129 59.8200 134.7060 7.4155 -16.5858 -29.4892
# 4 6.7245 -10.8494 7.4155 44.0754 -11.0123 -6.3536
# 5 -9.4828 4.5828 -16.5858 -11.0123 23.5231 2.0330
# 6 -1.4034 -15.8031 -29.4892 -6.3536 2.0330 39.2058
#
#
#
# Elastic Compliance Matrix: (Units=1/GPa)
#
#
# Indices 1 2 3 4 5 6 
#
# 1 0.021936 -0.005117 -0.004488 -0.003231 0.005635 -0.005468
# 2 -0.005117 0.010258 -0.003397 0.002860 -0.005302 0.002135
# 3 -0.004488 -0.003397 0.012865 0.000711 0.007577 0.007869
# 4 -0.003231 0.002860 0.000711 0.027283 0.010945 0.005426
# 5 0.005635 -0.005302 0.007577 0.010945 0.056055 0.002631
# 6 -0.005468 0.002135 0.007869 0.005426 0.002631 0.032833
#
#
# Mechanical properties :
#
#
# Convention : Reuss Voigt Hill
#
# Bulk Modulus (GPa) = 52.47904 69.33738 60.90821
# Shear Modulus (GPa) = 25.82878 35.19558 30.51218
#
# Velocity S-wave (km/s) = 3.25990 3.80537 3.54315
# Velocity P-wave (km/s) = 5.98006 6.91634 6.46517
#
# Compressibility (1/GPa) = 0.01905523
#
# Stress axis : x y z
#
# Youngs Moduli (GPa) = 45.58808 97.48946 77.73111
#
# Poissons Ratio (x) = 0.49881 0.34882
# Poissons Ratio (y) = 0.23326 0.26407
# Poissons Ratio (z) = 0.20458 0.33120
#
# Static dielectric constant tensor:
#      x y z
#    x 1.984140 -0.069890 0.034170 
#    y -0.069890 1.687320 0.093750 
#    z 0.034170 0.093750 1.903900 
# 
# From -- ./inp_files/610804.got.cif
#   From: 2010.05.17/outbox.cif.g08.bks.cpg/sg2_306_cif.got.tgz:610804.got - 2010.06.03 11:33:40.
