data_PCOD9044738
_publ_section_title
;
Structure prediction by ZEFSAII (Michael W. Deem and Ramdas Pophale) SiO2 
 PCOD9044738
Probable space group: P -1
;
_chemical_formula_sum "Si O2"
_cell_formula_units_Z 12
_cell_length_a 8.848398
_cell_length_b 12.881804
_cell_length_c 4.935051
_cell_angle_alpha 72.818031
_cell_angle_beta 108.154775
_cell_angle_gamma 123.217027
_cell_volume 441.634956
_symmetry_space_group_name_H-M "P -1"
_symmetry_group_IT_number 2
_symmetry_cell_setting 'triclinic'
loop_
_space_group_symop_operation_xyz
x,y,z
-x,-y,-z
loop_
_atom_site_type_symbol
_atom_site_label
_atom_site_fract_x
_atom_site_fract_y
_atom_site_fract_z
Si Si1 0.681751 0.756964 0.645918
Si Si2 0.123113 0.476222 0.383683
Si Si3 0.468791 0.094182 0.227304
Si Si4 0.391703 0.399663 0.758172
Si Si5 0.920310 0.085218 0.028111
Si Si6 0.173645 0.716047 0.045225
O O1 0.591737 0.833827 0.651511
O O2 0.653426 0.723931 0.340958
O O3 0.904675 0.836464 0.737553
O O4 0.588856 0.634038 0.895452
O O5 0.219946 0.419755 0.656685
O O6 0.000000 0.500000 0.500000
O O7 0.006302 0.379270 0.157903
O O8 0.245365 0.619398 0.241475
O O9 0.705055 0.979962 0.016280
O O10 0.660280 0.184177 0.120783
O O11 0.500000 0.000000 0.500000
O O12 0.500000 0.500000 0.500000
O O13 0.881187 0.202775 0.846726
O O14 0.000000 0.000000 0.000000
#
# Coordination Sequence:
#
# PCOD9044738 Si02
#       6
#     2   2   2   2   2   2
#     4  11  26  49  73 109 153 196 255 313 378 463
#     4  11  26  43  75 105 151 195 244 316 381 455
#     4  11  27  44  76 109 147 198 257 314 377 452
#     4  12  26  45  76 107 150 199 253 309 384 454
#     4  10  23  47  72 105 147 200 247 310 373 449
#     4  11  24  46  70 110 148 191 252 308 386 446
#
# _framework density 27.171762999999999
#
# number of rings (size 3 to 8) (size 9 to 14) (size 15 to 20)
#    0.000    1.000    1.667    3.000    9.333    4.000 
#    0.000    5.833    0.000    0.000    0.000    0.000 
#    0.000    0.000    0.000    0.000    0.000    0.000 
#
# Total GULP energy -66876.372156 kJ/mol
# GULP energy per Si atom -5573.031013 kJ/mol
# Density = 2.710992 g / cm^3
# Si number density = 27.171763 Si / 1000 Ang^3
#
#
#
# Elastic Constant Matrix: (Units=GPa)
#
#
# Indices 1 2 3 4 5 6 
#
# 1 129.2198 58.4000 43.4165 -16.4838 4.3978 -14.3528
# 2 58.4000 147.6156 52.8745 -18.1589 -12.9243 -26.1077
# 3 43.4165 52.8745 122.2947 -9.4359 -16.7322 0.4605
# 4 -16.4838 -18.1589 -9.4359 67.2646 -1.9369 -2.9692
# 5 4.3978 -12.9243 -16.7322 -1.9369 31.8355 -15.5689
# 6 -14.3528 -26.1077 0.4605 -2.9692 -15.5689 69.9184
#
#
#
# Elastic Compliance Matrix: (Units=1/GPa)
#
#
# Indices 1 2 3 4 5 6 
#
# 1 0.010481 -0.003385 -0.002741 0.001151 -0.004181 0.000023
# 2 -0.003385 0.010578 -0.002423 0.002062 0.005899 0.004672
# 3 -0.002741 -0.002423 0.010900 0.000326 0.004935 -0.000426
# 4 0.001151 0.002062 0.000326 0.015940 0.002965 0.002341
# 5 -0.004181 0.005899 0.004935 0.002965 0.042488 0.010898
# 6 0.000023 0.004672 -0.000426 0.002341 0.010898 0.018581
#
#
# Mechanical properties :
#
#
# Convention : Reuss Voigt Hill
#
# Bulk Modulus (GPa) = 67.29159 78.72358 73.00759
# Shear Modulus (GPa) = 38.16252 50.09967 44.13109
#
# Velocity S-wave (km/s) = 3.75172 4.29862 4.03445
# Velocity P-wave (km/s) = 6.60199 7.32619 6.97349
#
# Compressibility (1/GPa) = 0.01486070
#
# Stress axis : x y z
#
# Youngs Moduli (GPa) = 95.40826 94.53600 91.74696
#
# Poissons Ratio (x) = 0.32003 0.25145
# Poissons Ratio (y) = 0.32299 0.22230
# Poissons Ratio (z) = 0.26149 0.22906
#
# Static dielectric constant tensor:
#      x y z
#    x 1.672560 -0.070540 0.199100 
#    y -0.070540 2.117110 0.076230 
#    z 0.199100 0.076230 1.880000 
# 
# From -- ./inp_files/23414.got.cif
#   From: 2010.05.17/outbox.cif.g08.bks.cpg/sg2_12_cif.got.tgz:23414.got - 2010.06.03 11:33:40.
