data_PCOD9044523
_publ_section_title
;
Structure prediction by ZEFSAII (Michael W. Deem and Ramdas Pophale) SiO2 
 PCOD9044523
Probable space group: P -1
;
_chemical_formula_sum "Si O2"
_cell_formula_units_Z 16
_cell_length_a 4.997707
_cell_length_b 6.989892
_cell_length_c 25.786165
_cell_angle_alpha 133.457843
_cell_angle_beta 118.356027
_cell_angle_gamma 71.147715
_cell_volume 575.407851
_symmetry_space_group_name_H-M "P -1"
_symmetry_group_IT_number 2
_symmetry_cell_setting 'triclinic'
loop_
_space_group_symop_operation_xyz
x,y,z
-x,-y,-z
loop_
_atom_site_type_symbol
_atom_site_label
_atom_site_fract_x
_atom_site_fract_y
_atom_site_fract_z
Si Si1 0.659643 0.918173 0.610613
Si Si2 0.648591 0.829682 0.043815
Si Si3 0.673777 0.565286 0.457698
Si Si4 0.894488 0.682494 0.720661
Si Si5 0.880095 0.413504 0.163501
Si Si6 0.291969 0.004207 0.740979
Si Si7 0.133500 0.235813 0.592172
Si Si8 0.997702 0.429736 0.063392
O O1 0.622354 0.844429 0.532878
O O2 0.547608 0.655906 0.580946
O O3 0.000473 0.974564 0.669939
O O4 0.000000 0.000000 0.500000
O O5 0.063172 0.405477 0.232614
O O6 0.865162 0.712748 0.086853
O O7 0.708060 0.134540 0.097498
O O8 0.757748 0.665855 0.973097
O O9 0.095878 0.591680 0.362758
O O10 0.000000 0.500000 0.500000
O O11 0.723642 0.576577 0.403554
O O12 0.390841 0.118897 0.270905
O O13 0.176925 0.846817 0.752228
O O14 0.685154 0.681093 0.191835
O O15 0.072322 0.418100 0.128720
O O16 0.297802 0.760978 0.008223
O O17 0.402079 0.135193 0.635299
#
# Coordination Sequence:
#
# PCOD9044523 Si02
#       8
#     2   2   2   2   2   2   2   2
#     4  11  28  49  81 117 151 213 270 348 425 501
#     4  10  23  46  83 128 166 210 280 334 401 478
#     4  11  24  48  82 115 155 195 265 355 427 490
#     4  12  34  54  77 119 168 220 279 347 419 503
#     4  12  28  53  85 118 169 230 279 326 415 496
#     4  12  33  54  80 114 172 220 277 341 422 499
#     4  12  28  50  86 119 152 208 284 348 419 502
#     4  10  23  46  83 127 169 213 270 344 398 475
#
# _framework density 27.806363000000001
#
# number of rings (size 3 to 8) (size 9 to 14) (size 15 to 20)
#    0.000    0.750    1.250    2.625   10.500    7.000 
#    0.000    0.000    0.000    0.000    0.000    0.000 
#    0.000    0.000    0.000    0.000    0.000    0.000 
#
# Total GULP energy -89823.407138 kJ/mol
# GULP energy per Si atom -5613.962946 kJ/mol
# Density = 2.774307 g / cm^3
# Si number density = 27.806363 Si / 1000 Ang^3
#
#
#
# Elastic Constant Matrix: (Units=GPa)
#
#
# Indices 1 2 3 4 5 6 
#
# 1 149.7613 43.3548 39.6477 0.3771 -8.2629 -16.5722
# 2 43.3548 172.7896 61.3733 -3.4783 -10.2732 -6.5336
# 3 39.6477 61.3733 130.4906 -6.0607 -27.0034 0.3243
# 4 0.3771 -3.4783 -6.0607 67.8996 8.6351 -1.0030
# 5 -8.2629 -10.2732 -27.0034 8.6351 33.1917 -0.9945
# 6 -16.5722 -6.5336 0.3243 -1.0030 -0.9945 59.4415
#
#
#
# Elastic Compliance Matrix: (Units=1/GPa)
#
#
# Indices 1 2 3 4 5 6 
#
# 1 0.007734 -0.001239 -0.001730 -0.000264 0.000264 0.002029
# 2 -0.001239 0.007194 -0.003138 0.000187 -0.000670 0.000454
# 3 -0.001730 -0.003138 0.011271 -0.000146 0.007783 -0.000761
# 4 -0.000264 0.000187 -0.000146 0.015248 -0.004089 0.000137
# 5 0.000264 -0.000670 0.007783 -0.004089 0.037397 0.000514
# 6 0.002029 0.000454 -0.000761 0.000137 0.000514 0.017454
#
#
# Mechanical properties :
#
#
# Convention : Reuss Voigt Hill
#
# Bulk Modulus (GPa) = 71.50779 82.42148 76.96463
# Shear Modulus (GPa) = 44.18035 52.68427 48.43231
#
# Velocity S-wave (km/s) = 3.99037 4.35752 4.17798
# Velocity P-wave (km/s) = 6.85587 7.41774 7.14233
#
# Compressibility (1/GPa) = 0.01398449
#
# Stress axis : x y z
#
# Youngs Moduli (GPa) = 129.30434 139.00419 88.72721
#
# Poissons Ratio (x) = 0.17222 0.15347
# Poissons Ratio (y) = 0.16020 0.27844
# Poissons Ratio (z) = 0.22366 0.43622
#
# Static dielectric constant tensor:
#      x y z
#    x 2.172540 -0.020890 0.006140 
#    y -0.020890 2.155830 0.008720 
#    z 0.006140 0.008720 2.298820 
# 
# From -- ./inp_files/604085.got.cif
#   From: 2010.05.17/outbox.cif.g08.bks.cpg/sg2_303_cif.got.tgz:604085.got - 2010.06.03 11:33:40.
