data_PCOD9044158
_publ_section_title
;
Structure prediction by ZEFSAII (Michael W. Deem and Ramdas Pophale) SiO2 
 PCOD9044158
Probable space group: P -1
;
_chemical_formula_sum "Si O2"
_cell_formula_units_Z 12
_cell_length_a 15.003814
_cell_length_b 19.965937
_cell_length_c 5.472538
_cell_angle_alpha 55.404876
_cell_angle_beta 127.329126
_cell_angle_gamma 155.579764
_cell_volume 538.324297
_symmetry_space_group_name_H-M "P -1"
_symmetry_group_IT_number 2
_symmetry_cell_setting 'triclinic'
loop_
_space_group_symop_operation_xyz
x,y,z
-x,-y,-z
loop_
_atom_site_type_symbol
_atom_site_label
_atom_site_fract_x
_atom_site_fract_y
_atom_site_fract_z
Si Si1 0.119655 0.754002 0.353773
Si Si2 0.757727 0.617972 0.773756
Si Si3 0.512869 0.934487 0.351363
Si Si4 0.673013 0.858708 0.670290
Si Si5 0.859631 0.863856 0.347466
Si Si6 0.337209 0.526485 0.598401
O O1 0.285641 0.794274 0.422992
O O2 0.907939 0.589410 0.499637
O O3 0.277348 0.910672 0.451226
O O4 0.004625 0.737438 0.990457
O O5 0.760532 0.716417 0.570853
O O6 0.690316 0.537336 0.569554
O O7 0.629280 0.509739 0.031305
O O8 0.555658 0.871804 0.452503
O O9 0.500000 0.000000 0.000000
O O10 0.536942 0.716717 0.548679
O O11 0.682437 0.812207 0.032125
O O12 0.937351 0.036118 0.700578
O O13 0.000000 0.000000 0.500000
#
# Coordination Sequence:
#
# PCOD9044158 Si02
#       6
#     2   2   2   2   2   2
#     4   9  21  39  69  95 132 174 221 263 342 396
#     4  10  23  46  70  95 143 173 224 264 351 391
#     4  11  21  41  68 100 131 182 221 279 332 402
#     4  11  26  41  66 100 137 170 238 272 338 392
#     4  11  25  43  68  98 134 181 226 282 324 407
#     4  10  24  44  68 104 135 180 213 283 333 405
#
# _framework density 22.291395000000001
#
# number of rings (size 3 to 8) (size 9 to 14) (size 15 to 20)
#    1.000    0.667    0.000    4.000    7.000    3.333 
#    0.000    1.667    0.000    0.000    0.000    0.000 
#    0.000    0.000    0.000    0.000    0.000    0.000 
#
# Total GULP energy -66979.440738 kJ/mol
# GULP energy per Si atom -5581.620061 kJ/mol
# Density = 2.224066 g / cm^3
# Si number density = 22.291395 Si / 1000 Ang^3
#
#
#
# Elastic Constant Matrix: (Units=GPa)
#
#
# Indices 1 2 3 4 5 6 
#
# 1 87.6172 53.9095 55.7347 -3.0027 3.4753 -17.9951
# 2 53.9095 102.8320 68.4622 6.4325 7.3569 -6.7763
# 3 55.7347 68.4622 129.2460 13.7938 -4.2881 -32.8137
# 4 -3.0027 6.4325 13.7938 39.2754 -3.4816 0.7483
# 5 3.4753 7.3569 -4.2881 -3.4816 38.1539 4.3282
# 6 -17.9951 -6.7763 -32.8137 0.7483 4.3282 55.7654
#
#
#
# Elastic Compliance Matrix: (Units=1/GPa)
#
#
# Indices 1 2 3 4 5 6 
#
# 1 0.019372 -0.007398 -0.004150 0.004027 -0.000768 0.002916
# 2 -0.007398 0.018936 -0.007982 -0.001085 -0.003463 -0.004500
# 3 -0.004150 -0.007982 0.016114 -0.004581 0.002512 0.007039
# 4 0.004027 -0.001085 -0.004581 0.027781 0.002097 -0.002064
# 5 -0.000768 -0.003463 0.002512 0.002097 0.027575 -0.001359
# 6 0.002916 -0.004500 0.007039 -0.002064 -0.001359 0.022602
#
#
# Mechanical properties :
#
#
# Convention : Reuss Voigt Hill
#
# Bulk Modulus (GPa) = 65.09099 75.10092 70.09595
# Shear Modulus (GPa) = 28.31882 36.07820 32.19851
#
# Velocity S-wave (km/s) = 3.56812 4.02740 3.80470
# Velocity P-wave (km/s) = 6.79991 7.44246 7.12843
#
# Compressibility (1/GPa) = 0.01536311
#
# Stress axis : x y z
#
# Youngs Moduli (GPa) = 51.62017 52.80952 62.05607
#
# Poissons Ratio (x) = 0.39066 0.25755
# Poissons Ratio (y) = 0.38186 0.49533
# Poissons Ratio (z) = 0.21424 0.42152
#
# Static dielectric constant tensor:
#      x y z
#    x 1.886590 0.085640 -0.032450 
#    y 0.085640 1.833450 -0.023230 
#    z -0.032450 -0.023230 1.837800 
# 
# From -- ./inp_files/60957.got.cif
#   From: 2010.05.17/outbox.cif.g08.bks.cpg/sg2_31_cif.got.tgz:60957.got - 2010.06.03 11:33:40.
