data_PCOD9044693
_publ_section_title
;
Structure prediction by ZEFSAII (Michael W. Deem and Ramdas Pophale) SiO2 
 PCOD9044693
Probable space group: P -1
;
_chemical_formula_sum "Si O2"
_cell_formula_units_Z 12
_cell_length_a 7.085610
_cell_length_b 7.625452
_cell_length_c 15.668803
_cell_angle_alpha 100.745736
_cell_angle_beta 142.684809
_cell_angle_gamma 88.841786
_cell_volume 492.413000
_symmetry_space_group_name_H-M "P -1"
_symmetry_group_IT_number 2
_symmetry_cell_setting 'triclinic'
loop_
_space_group_symop_operation_xyz
x,y,z
-x,-y,-z
loop_
_atom_site_type_symbol
_atom_site_label
_atom_site_fract_x
_atom_site_fract_y
_atom_site_fract_z
Si Si1 0.843150 0.143350 0.627876
Si Si2 0.684648 0.693937 0.311013
Si Si3 0.537498 0.617812 0.938490
Si Si4 0.135693 0.918770 0.126621
Si Si5 0.065183 0.880030 0.774161
Si Si6 0.419849 0.373415 0.542109
O O1 0.752570 0.307364 0.661909
O O2 0.959355 0.203119 0.580710
O O3 0.500000 0.000000 0.500000
O O4 0.133963 0.078018 0.772083
O O5 0.581169 0.530160 0.191953
O O6 0.462221 0.844086 0.237553
O O7 0.668554 0.602964 0.390341
O O8 0.327655 0.772650 0.884418
O O9 0.500000 0.500000 0.000000
O O10 0.877328 0.736774 0.042939
O O11 0.136945 0.076363 0.213275
O O12 0.000000 0.000000 0.000000
O O13 0.878099 0.767911 0.618100
O O14 0.500000 0.500000 0.500000
#
# Coordination Sequence:
#
# PCOD9044693 Si02
#       6
#     2   2   2   2   2   2
#     4  10  23  47  71 109 148 192 244 312 376 452
#     4  12  26  47  78 110 154 197 253 311 386 452
#     4  12  27  46  77 108 155 204 253 312 375 449
#     4  12  26  46  74 111 148 201 261 304 372 454
#     4  11  24  46  73 102 152 192 250 313 373 440
#     4  11  26  45  75 110 152 194 250 318 386 443
#
# _framework density 24.369786999999999
#
# number of rings (size 3 to 8) (size 9 to 14) (size 15 to 20)
#    0.000    0.667    1.667    5.000    4.667    5.333 
#    3.000    0.000    0.000    0.000    0.000    0.000 
#    0.000    0.000    0.000    0.000    0.000    0.000 
#
# Total GULP energy -66909.130377 kJ/mol
# GULP energy per Si atom -5575.760865 kJ/mol
# Density = 2.431432 g / cm^3
# Si number density = 24.369787 Si / 1000 Ang^3
#
#
#
# Elastic Constant Matrix: (Units=GPa)
#
#
# Indices 1 2 3 4 5 6 
#
# 1 199.8348 60.0596 63.5190 2.5394 -24.9784 25.4370
# 2 60.0596 88.3887 35.3682 -24.2604 -3.9725 17.2945
# 3 63.5190 35.3682 98.2689 -0.2377 -18.4371 10.1941
# 4 2.5394 -24.2604 -0.2377 38.6020 1.1109 -3.2234
# 5 -24.9784 -3.9725 -18.4371 1.1109 63.9726 -7.2821
# 6 25.4370 17.2945 10.1941 -3.2234 -7.2821 55.5710
#
#
#
# Elastic Compliance Matrix: (Units=1/GPa)
#
#
# Indices 1 2 3 4 5 6 
#
# 1 0.007828 -0.004835 -0.002825 -0.003752 0.001832 -0.001538
# 2 -0.004835 0.020318 -0.004311 0.012890 -0.002421 -0.002889
# 3 -0.002825 -0.004311 0.014035 -0.002493 0.002749 0.000276
# 4 -0.003752 0.012890 -0.002493 0.034286 -0.001991 -0.000109
# 5 0.001832 -0.002421 0.002749 -0.001991 0.017200 0.001549
# 6 -0.001538 -0.002889 0.000276 -0.000109 0.001549 0.019744
#
#
# Mechanical properties :
#
#
# Convention : Reuss Voigt Hill
#
# Bulk Modulus (GPa) = 54.82927 78.26511 66.54719
# Shear Modulus (GPa) = 34.85946 46.79881 40.82913
#
# Velocity S-wave (km/s) = 3.78622 4.38695 4.09761
# Velocity P-wave (km/s) = 6.45458 7.60564 7.05363
#
# Compressibility (1/GPa) = 0.01823843
#
# Stress axis : x y z
#
# Youngs Moduli (GPa) = 127.75086 49.21653 71.25009
#
# Poissons Ratio (x) = 0.23796 0.20131
# Poissons Ratio (y) = 0.61768 0.30716
# Poissons Ratio (z) = 0.36094 0.21217
#
# Static dielectric constant tensor:
#      x y z
#    x 1.960640 -0.079920 -0.007490 
#    y -0.079920 2.032320 -0.066710 
#    z -0.007490 -0.066710 2.002450 
# 
# From -- ./inp_files/480701.got.cif
#   From: 2010.05.17/outbox.cif.g08.bks.cpg/sg2_241_cif.got.tgz:480701.got - 2010.06.03 11:33:40.
