data_PCOD9044130
_publ_section_title
;
Structure prediction by ZEFSAII (Michael W. Deem and Ramdas Pophale) SiO2 
 PCOD9044130
Probable space group: P -1
;
_chemical_formula_sum "Si O2"
_cell_formula_units_Z 14
_cell_length_a 6.209005
_cell_length_b 8.883188
_cell_length_c 14.941061
_cell_angle_alpha 115.008465
_cell_angle_beta 67.886414
_cell_angle_gamma 125.703229
_cell_volume 596.960988
_symmetry_space_group_name_H-M "P -1"
_symmetry_group_IT_number 2
_symmetry_cell_setting 'triclinic'
loop_
_space_group_symop_operation_xyz
x,y,z
-x,-y,-z
loop_
_atom_site_type_symbol
_atom_site_label
_atom_site_fract_x
_atom_site_fract_y
_atom_site_fract_z
Si Si1 0.324119 0.057263 0.982903
Si Si2 0.647398 0.871442 0.451467
Si Si3 0.931502 0.862114 0.675844
Si Si4 0.196007 0.615156 0.581630
Si Si5 0.269951 0.530473 0.915960
Si Si6 0.825865 0.866221 0.133085
Si Si7 0.651004 0.506398 0.304449
O O1 0.462650 0.279632 0.045995
O O2 0.347052 0.054972 0.870850
O O3 0.032502 0.907590 0.030215
O O4 0.500000 0.000000 0.000000
O O5 0.501394 0.744211 0.530211
O O6 0.602585 0.688239 0.351244
O O7 0.500000 0.000000 0.500000
O O8 0.947579 0.031822 0.411763
O O9 0.102444 0.765007 0.658710
O O10 0.628656 0.690044 0.683148
O O11 0.001465 0.021926 0.780295
O O12 0.173840 0.476718 0.630928
O O13 0.000000 0.500000 0.500000
O O14 0.323238 0.356562 0.882238
O O15 0.231950 0.524570 0.813261
O O16 0.000000 0.500000 0.000000
#
# Coordination Sequence:
#
# PCOD9044130 Si02
#       7
#     2   2   2   2   2   2   2
#     4  11  24  43  69  96 139 183 234 285 348 406
#     4  10  23  46  70 105 138 180 235 289 353 424
#     4  11  24  44  70 101 141 181 239 283 359 418
#     4  11  25  46  71 106 143 183 233 293 356 424
#     4  12  25  46  70 106 142 187 240 289 350 420
#     4  11  24  43  68 100 137 185 229 291 342 415
#     4  12  25  46  75  99 147 189 230 297 357 411
#
# _framework density 23.452120000000001
#
# number of rings (size 3 to 8) (size 9 to 14) (size 15 to 20)
#    0.000    0.857    5.714    0.857    2.000    0.571 
#   10.286    0.000    0.000    0.000    0.000    0.000 
#    0.000    0.000    0.000    0.000    0.000    0.000 
#
# Total GULP energy -77969.080555 kJ/mol
# GULP energy per Si atom -5569.220040 kJ/mol
# Density = 2.339874 g / cm^3
# Si number density = 23.452120 Si / 1000 Ang^3
#
#
#
# Elastic Constant Matrix: (Units=GPa)
#
#
# Indices 1 2 3 4 5 6 
#
# 1 48.6875 26.7011 41.2759 -9.0995 22.3501 7.3438
# 2 26.7011 144.8187 38.6052 2.4027 10.0743 11.4679
# 3 41.2759 38.6052 111.0311 -18.5241 7.4298 0.6917
# 4 -9.0995 2.4027 -18.5241 45.0892 0.5240 7.4427
# 5 22.3501 10.0743 7.4298 0.5240 30.9483 -4.4897
# 6 7.3438 11.4679 0.6917 7.4427 -4.4897 25.5413
#
#
#
# Elastic Compliance Matrix: (Units=1/GPa)
#
#
# Indices 1 2 3 4 5 6 
#
# 1 0.064275 -0.001731 -0.018253 0.010784 -0.045774 -0.028398
# 2 -0.001731 0.008183 -0.002302 -0.001224 -0.001273 -0.002981
# 3 -0.018253 -0.002302 0.016091 0.001716 0.011098 0.007297
# 4 0.010784 -0.001224 0.001716 0.027274 -0.010049 -0.012311
# 5 -0.045774 -0.001273 0.011098 -0.010049 0.067381 0.028205
# 6 -0.028398 -0.002981 0.007297 -0.012311 0.028205 0.057004
#
#
# Mechanical properties :
#
#
# Convention : Reuss Voigt Hill
#
# Bulk Modulus (GPa) = 22.73974 57.52241 40.13107
# Shear Modulus (GPa) = 16.69794 33.51277 25.10536
#
# Velocity S-wave (km/s) = 2.67123 3.78430 3.27539
# Velocity P-wave (km/s) = 4.38534 6.60873 5.60832
#
# Compressibility (1/GPa) = 0.04397588
#
# Stress axis : x y z
#
# Youngs Moduli (GPa) = 15.55826 122.20531 62.14704
#
# Poissons Ratio (x) = 0.21150 1.13438
# Poissons Ratio (y) = 0.02693 0.14308
# Poissons Ratio (z) = 0.28399 0.28136
#
# Static dielectric constant tensor:
#      x y z
#    x 1.983920 -0.105090 -0.029260 
#    y -0.105090 1.893490 0.022680 
#    z -0.029260 0.022680 1.947720 
# 
# From -- ./inp_files/480719.got.cif
#   From: 2010.05.17/outbox.cif.g08.bks.cpg/sg2_241_cif.got.tgz:480719.got - 2010.06.03 11:33:40.
