data_PCOD9044467
_publ_section_title
;
Structure prediction by ZEFSAII (Michael W. Deem and Ramdas Pophale) SiO2 
 PCOD9044467
Probable space group: P -1
;
_chemical_formula_sum "Si O2"
_cell_formula_units_Z 12
_cell_length_a 15.041954
_cell_length_b 5.286450
_cell_length_c 8.892193
_cell_angle_alpha 46.105951
_cell_angle_beta 65.890634
_cell_angle_gamma 69.129628
_cell_volume 462.222436
_symmetry_space_group_name_H-M "P -1"
_symmetry_group_IT_number 2
_symmetry_cell_setting 'triclinic'
loop_
_space_group_symop_operation_xyz
x,y,z
-x,-y,-z
loop_
_atom_site_type_symbol
_atom_site_label
_atom_site_fract_x
_atom_site_fract_y
_atom_site_fract_z
Si Si1 0.478278 0.602581 0.641766
Si Si2 0.398397 0.616529 0.105440
Si Si3 0.110657 0.736104 0.901347
Si Si4 0.933770 0.216626 0.732550
Si Si5 0.711077 0.646338 0.202842
Si Si6 0.235022 0.395407 0.481570
O O1 0.500000 0.500000 0.500000
O O2 0.552982 0.320610 0.793892
O O3 0.364219 0.556193 0.760164
O O4 0.500000 0.000000 0.500000
O O5 0.320100 0.346997 0.315595
O O6 0.500000 0.500000 0.000000
O O7 0.338924 0.953374 0.934080
O O8 0.180710 0.413759 0.916105
O O9 0.175380 0.062332 0.688978
O O10 0.094122 0.703580 0.105405
O O11 0.008456 0.859424 0.836668
O O12 0.839818 0.282550 0.662433
O O13 0.000000 0.500000 0.500000
O O14 0.721869 0.527549 0.417047
#
# Coordination Sequence:
#
# PCOD9044467 Si02
#       6
#     2   2   2   2   2   2
#     4  12  26  51  77 108 156 209 265 323 394 463
#     4  12  28  47  73 108 155 204 261 323 389 457
#     4  10  23  46  76 107 147 194 253 315 391 470
#     4   9  21  45  76 108 146 194 243 323 391 467
#     4  12  27  44  72 110 143 202 256 318 388 464
#     4  11  24  47  72 105 151 194 257 311 391 455
#
# _framework density 25.961525000000002
#
# number of rings (size 3 to 8) (size 9 to 14) (size 15 to 20)
#    0.000    1.000    1.667    3.500    4.667    3.333 
#    0.000   11.667    0.000    0.000    0.000    0.000 
#    0.000    0.000    0.000    0.000    0.000    0.000 
#
# Total GULP energy -67149.640964 kJ/mol
# GULP energy per Si atom -5595.803414 kJ/mol
# Density = 2.590244 g / cm^3
# Si number density = 25.961525 Si / 1000 Ang^3
#
#
#
# Elastic Constant Matrix: (Units=GPa)
#
#
# Indices 1 2 3 4 5 6 
#
# 1 172.1346 41.1155 70.9097 -1.2692 18.8998 -47.2367
# 2 41.1155 122.1815 69.9533 3.1788 6.2609 -38.7412
# 3 70.9097 69.9533 196.1182 3.5961 4.1466 -28.2187
# 4 -1.2692 3.1788 3.5961 42.5550 -6.4478 -8.8858
# 5 18.8998 6.2609 4.1466 -6.4478 77.2074 -4.0298
# 6 -47.2367 -38.7412 -28.2187 -8.8858 -4.0298 55.7270
#
#
#
# Elastic Compliance Matrix: (Units=1/GPa)
#
#
# Indices 1 2 3 4 5 6 
#
# 1 0.008668 0.000613 -0.002384 0.001578 -0.001562 0.006705
# 2 0.000613 0.012381 -0.003576 0.000868 -0.000502 0.007418
# 3 -0.002384 -0.003576 0.007098 -0.000547 0.000396 -0.000971
# 4 0.001578 0.000868 -0.000547 0.025036 0.001966 0.005799
# 5 -0.001562 -0.000502 0.000396 0.001966 0.013509 -0.000182
# 6 0.006705 0.007418 -0.000971 0.005799 -0.000182 0.029205
#
#
# Mechanical properties :
#
#
# Convention : Reuss Voigt Hill
#
# Bulk Modulus (GPa) = 57.29331 94.93237 76.11284
# Shear Modulus (GPa) = 44.48078 55.66160 50.07119
#
# Velocity S-wave (km/s) = 4.14373 4.63536 4.39643
# Velocity P-wave (km/s) = 6.70899 8.08051 7.42648
#
# Compressibility (1/GPa) = 0.01745404
#
# Stress axis : x y z
#
# Youngs Moduli (GPa) = 115.36506 80.77065 140.87909
#
# Poissons Ratio (x) = -0.04951 0.33584
# Poissons Ratio (y) = -0.07071 0.50373
# Poissons Ratio (z) = 0.27502 0.28881
#
# Static dielectric constant tensor:
#      x y z
#    x 2.076120 0.132630 0.113680 
#    y 0.132630 1.933880 -0.339210 
#    z 0.113680 -0.339210 1.465230 
# 
# From -- ./inp_files/287570.got.cif
#   From: 2010.05.17/outbox.cif.g08.bks.cpg/sg2_144_cif.got.tgz:287570.got - 2010.06.03 11:33:40.
