data_PCOD9044707
_publ_section_title
;
Structure prediction by ZEFSAII (Michael W. Deem and Ramdas Pophale) SiO2 
 PCOD9044707
Probable space group: P -1
;
_chemical_formula_sum "Si O2"
_cell_formula_units_Z 14
_cell_length_a 21.039134
_cell_length_b 9.344180
_cell_length_c 13.620595
_cell_angle_alpha 31.334621
_cell_angle_beta 156.120589
_cell_angle_gamma 140.594899
_cell_volume 563.261882
_symmetry_space_group_name_H-M "P -1"
_symmetry_group_IT_number 2
_symmetry_cell_setting 'triclinic'
loop_
_space_group_symop_operation_xyz
x,y,z
-x,-y,-z
loop_
_atom_site_type_symbol
_atom_site_label
_atom_site_fract_x
_atom_site_fract_y
_atom_site_fract_z
Si Si1 0.755160 0.722244 0.779130
Si Si2 0.202369 0.783829 0.305499
Si Si3 0.165363 0.559279 0.751049
Si Si4 0.869383 0.811655 0.470176
Si Si5 0.558392 0.641284 0.867740
Si Si6 0.548683 0.945616 0.865036
Si Si7 0.907214 0.829275 0.736728
O O1 0.823473 0.666919 0.800149
O O2 0.806793 0.008026 0.737708
O O3 0.569374 0.792294 0.464142
O O4 0.823547 0.502165 0.082029
O O5 0.154485 0.478316 0.448508
O O6 0.378384 0.743651 0.534703
O O7 0.079371 0.880125 0.992685
O O8 0.000000 0.500000 0.500000
O O9 0.186864 0.878215 0.573505
O O10 0.313145 0.381162 0.021541
O O11 0.908086 0.727582 0.686343
O O12 0.698859 0.967447 0.132615
O O13 0.000000 0.000000 0.500000
O O14 0.611304 0.852309 0.901520
O O15 0.542109 0.328042 0.068764
#
# Coordination Sequence:
#
# PCOD9044707 Si02
#       7
#     2   2   2   2   2   2   2
#     4  11  24  44  76 102 138 179 236 293 349 395
#     4  10  23  47  71  99 137 189 228 286 344 408
#     4  12  26  40  71 113 137 175 235 292 346 410
#     4  11  27  43  71 102 142 188 236 275 344 430
#     4   9  20  41  71 101 133 179 235 287 340 400
#     4   9  20  43  69  97 139 186 228 287 343 406
#     4  12  26  44  68 107 145 181 221 295 350 405
#
# _framework density 24.855222000000001
#
# number of rings (size 3 to 8) (size 9 to 14) (size 15 to 20)
#    0.000    1.429    2.857    1.714    4.000    4.000 
#    0.000    0.714    0.000    0.000    0.000    0.000 
#    0.000    0.000    0.000    0.000    0.000    0.000 
#
# Total GULP energy -78349.139930 kJ/mol
# GULP energy per Si atom -5596.367138 kJ/mol
# Density = 2.479865 g / cm^3
# Si number density = 24.855222 Si / 1000 Ang^3
#
#
#
# Elastic Constant Matrix: (Units=GPa)
#
#
# Indices 1 2 3 4 5 6 
#
# 1 136.4012 16.1622 37.8033 8.6744 -7.0729 -0.4002
# 2 16.1622 76.1754 6.6035 4.4339 0.8281 -8.5572
# 3 37.8033 6.6035 177.2194 18.7721 -14.4807 2.9419
# 4 8.6744 4.4339 18.7721 34.2212 -3.7946 -3.3448
# 5 -7.0729 0.8281 -14.4807 -3.7946 45.5165 -3.3147
# 6 -0.4002 -8.5572 2.9419 -3.3448 -3.3147 24.9326
#
#
#
# Elastic Compliance Matrix: (Units=1/GPa)
#
#
# Indices 1 2 3 4 5 6 
#
# 1 0.008025 -0.001555 -0.001490 -0.000963 0.000702 -0.000265
# 2 -0.001555 0.014054 -0.000199 -0.000895 -0.000296 0.004663
# 3 -0.001490 -0.000199 0.006432 -0.003064 0.001485 -0.001065
# 4 -0.000963 -0.000895 -0.003064 0.031918 0.001886 0.004572
# 5 0.000702 -0.000296 0.001485 0.001886 0.022935 0.003037
# 6 -0.000265 0.004663 -0.001065 0.004572 0.003037 0.042847
#
#
# Mechanical properties :
#
#
# Convention : Reuss Voigt Hill
#
# Bulk Modulus (GPa) = 45.40686 56.77044 51.08865
# Shear Modulus (GPa) = 35.70407 42.88255 39.29331
#
# Velocity S-wave (km/s) = 3.79421 4.15817 3.98035
# Velocity P-wave (km/s) = 6.12396 6.77819 6.45936
#
# Compressibility (1/GPa) = 0.02202311
#
# Stress axis : x y z
#
# Youngs Moduli (GPa) = 124.60378 71.15505 155.48248
#
# Poissons Ratio (x) = 0.11064 0.23170
# Poissons Ratio (y) = 0.19375 0.03090
# Poissons Ratio (z) = 0.18569 0.01414
#
# Static dielectric constant tensor:
#      x y z
#    x 1.984340 -0.007720 -0.005110 
#    y -0.007720 2.027900 -0.044860 
#    z -0.005110 -0.044860 1.997230 
# 
# From -- ./inp_files/461840.got.cif
#   From: 2010.05.17/outbox.cif.g08.bks.cpg/sg2_231_cif.got.tgz:461840.got - 2010.06.03 11:33:40.
