data_PCOD9044007
_publ_section_title
;
Structure prediction by ZEFSAII (Michael W. Deem and Ramdas Pophale) SiO2 
 PCOD9044007
Probable space group: P -1
;
_chemical_formula_sum "Si O2"
_cell_formula_units_Z 14
_cell_length_a 29.205569
_cell_length_b 23.866900
_cell_length_c 4.985959
_cell_angle_alpha 64.464657
_cell_angle_beta 64.944755
_cell_angle_gamma 10.681347
_cell_volume 581.240073
_symmetry_space_group_name_H-M "P -1"
_symmetry_group_IT_number 2
_symmetry_cell_setting 'triclinic'
loop_
_space_group_symop_operation_xyz
x,y,z
-x,-y,-z
loop_
_atom_site_type_symbol
_atom_site_label
_atom_site_fract_x
_atom_site_fract_y
_atom_site_fract_z
Si Si1 0.886252 0.804697 0.294462
Si Si2 0.148453 0.765874 0.254797
Si Si3 0.568523 0.875526 0.837113
Si Si4 0.255732 0.827689 0.323610
Si Si5 0.390991 0.372078 0.103999
Si Si6 0.538252 0.130138 0.729486
Si Si7 0.689037 0.157797 0.349519
O O1 0.797657 0.852970 0.599570
O O2 0.144200 0.486194 0.169192
O O3 0.665175 0.071411 0.075556
O O4 0.857993 0.899710 0.347938
O O5 0.220248 0.628806 0.132845
O O6 0.402913 0.481085 0.354345
O O7 0.967006 0.951229 0.530834
O O8 0.000000 0.000000 0.000000
O O9 0.500000 0.000000 0.500000
O O10 0.500000 0.000000 0.000000
O O11 0.434629 0.970569 0.013863
O O12 0.500000 0.500000 0.500000
O O13 0.238585 0.907318 0.400829
O O14 0.279030 0.823098 0.973791
O O15 0.401683 0.300501 0.429973
O O16 0.375885 0.365749 0.855095
#
# Coordination Sequence:
#
# PCOD9044007 Si02
#       7
#     2   2   2   2   2   2   2
#     4   9  26  43  74  92 138 175 223 277 338 407
#     4  11  25  44  71 101 147 185 235 296 342 399
#     4  12  28  44  69 106 134 171 219 278 349 410
#     4  12  27  43  67 102 142 184 236 293 347 402
#     4   9  23  44  67  99 130 182 228 271 333 396
#     4  10  23  46  68  97 134 174 228 266 338 411
#     4  11  27  46  67 103 134 187 239 283 347 410
#
# _framework density 24.08643
#
# number of rings (size 3 to 8) (size 9 to 14) (size 15 to 20)
#    0.857    0.571    1.429    1.286   10.000    2.857 
#    0.000    0.000    0.000    0.000    0.000    0.000 
#    0.000    0.000    0.000    0.000    0.000    0.000 
#
# Total GULP energy -78420.663098 kJ/mol
# GULP energy per Si atom -5601.475936 kJ/mol
# Density = 2.403161 g / cm^3
# Si number density = 24.086430 Si / 1000 Ang^3
#
#
#
# Elastic Constant Matrix: (Units=GPa)
#
#
# Indices 1 2 3 4 5 6 
#
# 1 57.8155 7.2322 23.7893 3.4953 -7.5195 4.8624
# 2 7.2322 89.6333 -0.9441 12.6491 -4.3855 0.1760
# 3 23.7893 -0.9441 109.0159 15.4750 -11.2916 -4.2455
# 4 3.4953 12.6491 15.4750 36.4998 -0.4959 -7.1838
# 5 -7.5195 -4.3855 -11.2916 -0.4959 54.0959 1.9438
# 6 4.8624 0.1760 -4.2455 -7.1838 1.9438 44.7717
#
#
#
# Elastic Compliance Matrix: (Units=1/GPa)
#
#
# Indices 1 2 3 4 5 6 
#
# 1 0.019683 -0.001530 -0.004213 -0.000059 0.001826 -0.002620
# 2 -0.001530 0.011991 0.001171 -0.004600 0.000981 -0.000551
# 3 -0.004213 0.001171 0.010945 -0.004482 0.001728 0.000697
# 4 -0.000059 -0.004600 -0.004482 0.031818 -0.001196 0.004757
# 5 0.001826 0.000981 0.001728 -0.001196 0.019207 -0.001064
# 6 -0.002620 -0.000551 0.000697 0.004757 -0.001064 0.023498
#
#
# Mechanical properties :
#
#
# Convention : Reuss Voigt Hill
#
# Bulk Modulus (GPa) = 29.87309 35.17995 32.52652
# Shear Modulus (GPa) = 36.37903 42.16595 39.27249
#
# Velocity S-wave (km/s) = 3.89054 4.18857 4.04230
# Velocity P-wave (km/s) = 5.71062 6.16681 5.94309
#
# Compressibility (1/GPa) = 0.03347495
#
# Stress axis : x y z
#
# Youngs Moduli (GPa) = 50.80624 83.39842 91.36803
#
# Poissons Ratio (x) = 0.12757 0.38491
# Poissons Ratio (y) = 0.07771 -0.10698
# Poissons Ratio (z) = 0.21404 -0.09765
#
# Static dielectric constant tensor:
#      x y z
#    x 1.920870 -0.016840 -0.021100 
#    y -0.016840 1.935280 -0.019130 
#    z -0.021100 -0.019130 1.953970 
# 
# From -- ./inp_files/128813.got.cif
#   From: 2010.05.17/outbox.cif.g08.bks.cpg/sg2_65_cif.got.tgz:128813.got - 2010.06.03 11:33:40.
