data_PCOD9044127
_publ_section_title
;
Structure prediction by ZEFSAII (Michael W. Deem and Ramdas Pophale) SiO2 
 PCOD9044127
Probable space group: P -1
;
_chemical_formula_sum "Si O2"
_cell_formula_units_Z 14
_cell_length_a 10.975428
_cell_length_b 14.264257
_cell_length_c 6.085986
_cell_angle_alpha 50.184686
_cell_angle_beta 96.674096
_cell_angle_gamma 123.709816
_cell_volume 564.553881
_symmetry_space_group_name_H-M "P -1"
_symmetry_group_IT_number 2
_symmetry_cell_setting 'triclinic'
loop_
_space_group_symop_operation_xyz
x,y,z
-x,-y,-z
loop_
_atom_site_type_symbol
_atom_site_label
_atom_site_fract_x
_atom_site_fract_y
_atom_site_fract_z
Si Si1 0.813680 0.221654 0.898401
Si Si2 0.407279 0.772737 0.831140
Si Si3 0.652713 0.510689 0.521702
Si Si4 0.705150 0.989099 0.864680
Si Si5 0.839808 0.834534 0.290130
Si Si6 0.984613 0.756245 0.736011
Si Si7 0.777408 0.415001 0.311018
O O1 0.868643 0.367316 0.536180
O O2 0.696377 0.069172 0.954278
O O3 0.723063 0.231268 0.061597
O O4 0.941495 0.213974 0.050803
O O5 0.572233 0.914590 0.761510
O O6 0.359196 0.741351 0.615165
O O7 0.385315 0.617632 0.119628
O O8 0.500000 0.500000 0.500000
O O9 0.793806 0.686339 0.365394
O O10 0.698410 0.464482 0.382762
O O11 0.869773 0.128142 0.571310
O O12 0.711977 0.857543 0.168632
O O13 0.867501 0.796566 0.597943
O O14 0.000000 0.000000 0.000000
O O15 0.896783 0.572026 0.957919
#
# Coordination Sequence:
#
# PCOD9044127 Si02
#       7
#     2   2   2   2   2   2   2
#     4  11  26  43  73 103 143 188 238 287 344 410
#     4  11  24  47  71 107 138 187 237 288 349 414
#     4  11  23  47  72 103 141 181 234 291 347 420
#     4  11  25  46  72 103 147 183 233 292 347 419
#     4  10  23  46  70 104 143 178 230 289 352 420
#     4  11  25  45  70 105 140 184 235 286 351 415
#     4  11  26  45  74 103 141 183 237 291 348 413
#
# _framework density 24.798341000000001
#
# number of rings (size 3 to 8) (size 9 to 14) (size 15 to 20)
#    0.000    1.143    2.857    1.714    4.000    8.000 
#    2.571    0.000    0.000    0.000    0.000    0.000 
#    0.000    0.000    0.000    0.000    0.000    0.000 
#
# Total GULP energy -78290.990124 kJ/mol
# GULP energy per Si atom -5592.213580 kJ/mol
# Density = 2.474190 g / cm^3
# Si number density = 24.798341 Si / 1000 Ang^3
#
#
#
# Elastic Constant Matrix: (Units=GPa)
#
#
# Indices 1 2 3 4 5 6 
#
# 1 46.0612 23.7609 46.2565 18.1010 19.1820 7.4236
# 2 23.7609 181.6464 38.6523 13.1944 14.3823 12.9004
# 3 46.2565 38.6523 145.4839 2.5733 50.6137 8.7093
# 4 18.1010 13.1944 2.5733 36.8154 11.1991 6.1701
# 5 19.1820 14.3823 50.6137 11.1991 38.3927 -0.3405
# 6 7.4236 12.9004 8.7093 6.1701 -0.3405 42.4020
#
#
#
# Elastic Compliance Matrix: (Units=1/GPa)
#
#
# Indices 1 2 3 4 5 6 
#
# 1 0.043749 -0.001344 -0.014415 -0.020959 0.003752 -0.001210
# 2 -0.001344 0.006094 -0.001243 -0.001368 0.000416 -0.001161
# 3 -0.014415 -0.001243 0.019272 0.013301 -0.021648 -0.003166
# 4 -0.020959 -0.001368 0.013301 0.043787 -0.019370 -0.005174
# 5 0.003752 0.000416 -0.021648 -0.019370 0.058266 0.006950
# 6 -0.001210 -0.001161 -0.003166 -0.005174 0.006950 0.025608
#
#
# Mechanical properties :
#
#
# Convention : Reuss Voigt Hill
#
# Bulk Modulus (GPa) = 28.48029 65.61455 47.04742
# Shear Modulus (GPa) = 20.61986 41.15680 30.88833
#
# Velocity S-wave (km/s) = 2.88671 4.07831 3.53311
# Velocity P-wave (km/s) = 4.75610 6.97807 5.97135
#
# Compressibility (1/GPa) = 0.03511200
#
# Stress axis : x y z
#
# Youngs Moduli (GPa) = 22.85786 164.08511 51.88753
#
# Poissons Ratio (x) = 0.22055 0.74796
# Poissons Ratio (y) = 0.03072 0.06448
# Poissons Ratio (z) = 0.32950 0.20391
#
# Static dielectric constant tensor:
#      x y z
#    x 1.978240 0.072350 0.033090 
#    y 0.072350 1.994880 0.031300 
#    z 0.033090 0.031300 1.993430 
# 
# From -- ./inp_files/68381.got.cif
#   From: 2010.05.17/outbox.cif.g08.bks.cpg/sg2_35_cif.got.tgz:68381.got - 2010.06.03 11:33:40.
