data_PCOD9044374
_publ_section_title
;
Structure prediction by ZEFSAII (Michael W. Deem and Ramdas Pophale) SiO2 
 PCOD9044374
Probable space group: P -1
;
_chemical_formula_sum "Si O2"
_cell_formula_units_Z 12
_cell_length_a 16.153533
_cell_length_b 13.116400
_cell_length_c 7.124372
_cell_angle_alpha 134.647651
_cell_angle_beta 136.090017
_cell_angle_gamma 25.053097
_cell_volume 436.807907
_symmetry_space_group_name_H-M "P -1"
_symmetry_group_IT_number 2
_symmetry_cell_setting 'triclinic'
loop_
_space_group_symop_operation_xyz
x,y,z
-x,-y,-z
loop_
_atom_site_type_symbol
_atom_site_label
_atom_site_fract_x
_atom_site_fract_y
_atom_site_fract_z
Si Si1 0.906872 0.245908 0.707712
Si Si2 0.314320 0.998953 0.176453
Si Si3 0.533204 0.352925 0.534889
Si Si4 0.331435 0.086227 0.956801
Si Si5 0.270504 0.577986 0.933803
Si Si6 0.062295 0.316993 0.513672
O O1 0.694516 0.462901 0.524131
O O2 0.817056 0.353894 0.909543
O O3 0.000000 0.000000 0.500000
O O4 0.109838 0.143668 0.920218
O O5 0.512553 0.708083 0.109235
O O6 0.251327 0.072637 0.384087
O O7 0.359233 0.088285 0.225132
O O8 0.500000 0.500000 0.500000
O O9 0.630448 0.118907 0.297534
O O10 0.680799 0.299860 0.846728
O O11 0.129483 0.324270 0.824879
O O12 0.500000 0.000000 0.000000
O O13 0.094372 0.655760 0.649920
O O14 0.000000 0.500000 0.500000
#
# Coordination Sequence:
#
# PCOD9044374 Si02
#       6
#     2   2   2   2   2   2
#     4  10  17  33  70 107 129 179 232 272 348 409
#     4  11  22  45  74  97 141 188 224 294 350 403
#     4  10  19  40  72 104 139 180 230 291 338 413
#     4  12  26  46  74 104 140 187 236 280 353 424
#     4  10  20  41  70 100 142 179 228 292 346 404
#     4  11  28  46  68 106 143 182 236 288 348 421
#
# _framework density 27.472031000000001
#
# number of rings (size 3 to 8) (size 9 to 14) (size 15 to 20)
#    0.000    1.333    5.000    2.000    2.333    4.000 
#    3.000    0.833    0.000    0.000    0.000    0.000 
#    0.000    0.000    0.000    0.000    0.000    0.000 
#
# Total GULP energy -67021.680647 kJ/mol
# GULP energy per Si atom -5585.140054 kJ/mol
# Density = 2.740950 g / cm^3
# Si number density = 27.472031 Si / 1000 Ang^3
#
#
#
# Elastic Constant Matrix: (Units=GPa)
#
#
# Indices 1 2 3 4 5 6 
#
# 1 136.6406 40.9201 31.8390 1.2131 -19.2390 -24.2857
# 2 40.9201 132.0492 32.8242 15.1921 -11.5998 -37.4383
# 3 31.8390 32.8242 96.2219 -20.1201 -0.8876 -16.6927
# 4 1.2131 15.1921 -20.1201 63.0499 -6.6139 3.6125
# 5 -19.2390 -11.5998 -0.8876 -6.6139 34.5212 -4.4658
# 6 -24.2857 -37.4383 -16.6927 3.6125 -4.4658 60.2661
#
#
#
# Elastic Compliance Matrix: (Units=1/GPa)
#
#
# Indices 1 2 3 4 5 6 
#
# 1 0.009404 -0.001040 -0.002261 -0.000278 0.005157 0.002916
# 2 -0.001040 0.011087 -0.003125 -0.003666 0.003146 0.006056
# 3 -0.002261 -0.003125 0.013307 0.004915 -0.000966 0.000467
# 4 -0.000278 -0.003666 0.004915 0.018647 0.002054 -0.001993
# 5 0.005157 0.003146 -0.000966 0.002054 0.034065 0.006166
# 6 0.002916 0.006056 0.000467 -0.001993 0.006166 0.022236
#
#
# Mechanical properties :
#
#
# Convention : Reuss Voigt Hill
#
# Bulk Modulus (GPa) = 47.74570 64.00867 55.87718
# Shear Modulus (GPa) = 38.88620 48.85599 43.87110
#
# Velocity S-wave (km/s) = 3.76637 4.22167 4.00050
# Velocity P-wave (km/s) = 6.02757 6.86393 6.45930
#
# Compressibility (1/GPa) = 0.02094429
#
# Stress axis : x y z
#
# Youngs Moduli (GPa) = 106.34063 90.19540 75.15017
#
# Poissons Ratio (x) = 0.09383 0.16995
# Poissons Ratio (y) = 0.11063 0.23483
# Poissons Ratio (z) = 0.24049 0.28184
#
# Static dielectric constant tensor:
#      x y z
#    x 2.262620 -0.008600 0.067200 
#    y -0.008600 2.237860 -0.088460 
#    z 0.067200 -0.088460 2.323980 
# 
# From -- ./inp_files/335806.got.cif
#   From: 2010.05.17/outbox.cif.g08.bks.cpg/sg2_168_cif.got.tgz:335806.got - 2010.06.03 11:33:40.
