data_PCOD9044414
_publ_section_title
;
Structure prediction by ZEFSAII (Michael W. Deem and Ramdas Pophale) SiO2 
 PCOD9044414
Probable space group: P -1
;
_chemical_formula_sum "Si O2"
_cell_formula_units_Z 16
_cell_length_a 5.304857
_cell_length_b 21.315964
_cell_length_c 8.223863
_cell_angle_alpha 55.146958
_cell_angle_beta 118.002598
_cell_angle_gamma 120.499197
_cell_volume 636.003730
_symmetry_space_group_name_H-M "P -1"
_symmetry_group_IT_number 2
_symmetry_cell_setting 'triclinic'
loop_
_space_group_symop_operation_xyz
x,y,z
-x,-y,-z
loop_
_atom_site_type_symbol
_atom_site_label
_atom_site_fract_x
_atom_site_fract_y
_atom_site_fract_z
Si Si1 0.563837 0.421335 0.199016
Si Si2 0.555139 0.940229 0.361520
Si Si3 0.811438 0.239147 0.497843
Si Si4 0.487542 0.682879 0.947484
Si Si5 0.690090 0.792406 0.122887
Si Si6 0.737984 0.343046 0.622506
Si Si7 0.143061 0.031474 0.229345
Si Si8 0.786186 0.472175 0.679340
O O1 0.405883 0.348748 0.136885
O O2 0.488182 0.380705 0.414418
O O3 0.933513 0.456735 0.266288
O O4 0.500000 0.500000 0.000000
O O5 0.457602 0.845644 0.430027
O O6 0.707553 0.952573 0.568703
O O7 0.271299 0.970965 0.258128
O O8 0.789643 0.993036 0.221820
O O9 0.746373 0.274727 0.255571
O O10 0.829063 0.302682 0.553118
O O11 0.104398 0.214065 0.654151
O O12 0.732367 0.746752 0.037862
O O13 0.342838 0.599746 0.123572
O O14 0.370344 0.730198 0.174950
O O15 0.747678 0.883632 0.956956
O O16 0.924278 0.423526 0.658829
O O17 0.500000 0.500000 0.500000
#
# Coordination Sequence:
#
# PCOD9044414 Si02
#       8
#     2   2   2   2   2   2   2   2
#     4  11  24  41  68  98 136 183 238 293 362 434
#     4  10  23  46  74 106 145 191 246 294 360 442
#     4  11  25  44  70 101 144 185 240 291 366 438
#     4  10  24  44  66  98 138 184 235 293 367 425
#     4  11  25  44  70 100 145 184 235 299 364 425
#     4  10  26  42  64 102 138 180 237 295 363 425
#     4  10  23  46  74 106 144 193 242 299 360 433
#     4  11  24  43  72  96 140 185 242 299 362 437
#
# _framework density 25.157087000000001
#
# number of rings (size 3 to 8) (size 9 to 14) (size 15 to 20)
#    0.000    1.500    1.250    1.500   14.000    1.000 
#    0.000    0.000    0.000    0.000    0.000    0.000 
#    0.000    0.000    0.000    0.000    0.000    0.000 
#
# Total GULP energy -89305.549982 kJ/mol
# GULP energy per Si atom -5581.596874 kJ/mol
# Density = 2.509983 g / cm^3
# Si number density = 25.157087 Si / 1000 Ang^3
#
#
#
# Elastic Constant Matrix: (Units=GPa)
#
#
# Indices 1 2 3 4 5 6 
#
# 1 87.4429 31.3442 35.9895 -13.8901 10.5789 1.8290
# 2 31.3442 125.7675 48.0431 -27.8496 9.4433 -3.8565
# 3 35.9895 48.0431 168.2573 -31.3886 1.3425 9.0999
# 4 -13.8901 -27.8496 -31.3886 51.9748 11.6698 -4.4713
# 5 10.5789 9.4433 1.3425 11.6698 25.3281 1.0151
# 6 1.8290 -3.8565 9.0999 -4.4713 1.0151 24.6413
#
#
#
# Elastic Compliance Matrix: (Units=1/GPa)
#
#
# Indices 1 2 3 4 5 6 
#
# 1 0.014119 -0.001525 -0.001924 0.003343 -0.006779 0.000310
# 2 -0.001525 0.010981 -0.001825 0.006132 -0.006341 0.003880
# 3 -0.001924 -0.001825 0.007546 0.002894 -0.000154 -0.002398
# 4 0.003343 0.006132 0.002894 0.029641 -0.017724 0.005752
# 5 -0.006779 -0.006341 -0.000154 -0.017724 0.053086 -0.005835
# 6 0.000310 0.003880 -0.002398 0.005752 -0.005835 0.043336
#
#
# Mechanical properties :
#
#
# Convention : Reuss Voigt Hill
#
# Bulk Modulus (GPa) = 45.24809 68.02459 56.63634
# Shear Modulus (GPa) = 28.30879 38.12821 33.21850
#
# Velocity S-wave (km/s) = 3.35816 3.89730 3.63773
# Velocity P-wave (km/s) = 5.74992 6.88118 6.34083
#
# Compressibility (1/GPa) = 0.02210038
#
# Stress axis : x y z
#
# Youngs Moduli (GPa) = 70.82560 91.06416 132.51223
#
# Poissons Ratio (x) = 0.13889 0.25489
# Poissons Ratio (y) = 0.10803 0.24177
# Poissons Ratio (z) = 0.13623 0.16615
#
# Static dielectric constant tensor:
#      x y z
#    x 2.083110 -0.015270 0.007250 
#    y -0.015270 2.009270 0.021250 
#    z 0.007250 0.021250 2.081180 
# 
# From -- ./inp_files/141201.got.cif
#   From: 2010.05.17/outbox.cif.g08.bks.cpg/sg2_71_cif.got.tgz:141201.got - 2010.06.03 11:33:40.
