data_PCOD9044190
_publ_section_title
;
Structure prediction by ZEFSAII (Michael W. Deem and Ramdas Pophale) SiO2 
 PCOD9044190
Probable space group: P -1
;
_chemical_formula_sum "Si O2"
_cell_formula_units_Z 16
_cell_length_a 18.569057
_cell_length_b 9.326202
_cell_length_c 5.302829
_cell_angle_alpha 103.545660
_cell_angle_beta 48.898643
_cell_angle_gamma 107.484634
_cell_volume 659.177237
_symmetry_space_group_name_H-M "P -1"
_symmetry_group_IT_number 2
_symmetry_cell_setting 'triclinic'
loop_
_space_group_symop_operation_xyz
x,y,z
-x,-y,-z
loop_
_atom_site_type_symbol
_atom_site_label
_atom_site_fract_x
_atom_site_fract_y
_atom_site_fract_z
Si Si1 0.715013 0.667548 0.577684
Si Si2 0.418237 0.827162 0.900896
Si Si3 0.103695 0.380640 0.602162
Si Si4 0.615346 0.515798 0.240193
Si Si5 0.624948 0.003143 0.424825
Si Si6 0.953220 0.861699 0.723179
Si Si7 0.209828 0.015168 0.633158
Si Si8 0.910897 0.293527 0.332183
O O1 0.820016 0.619263 0.348593
O O2 0.662570 0.591542 0.418030
O O3 0.726815 0.848060 0.611030
O O4 0.657413 0.606928 0.934803
O O5 0.369950 0.654989 0.897029
O O6 0.383423 0.925174 0.798333
O O7 0.536213 0.860479 0.606064
O O8 0.396582 0.885736 0.252330
O O9 0.123185 0.256976 0.309673
O O10 0.114631 0.543160 0.516143
O O11 0.993183 0.322773 0.932976
O O12 0.500000 0.500000 0.500000
O O13 0.732022 0.977347 0.234114
O O14 0.031174 0.768501 0.603254
O O15 0.894167 0.934320 0.096195
O O16 0.000000 0.000000 0.500000
O O17 0.181413 0.840059 0.555984
#
# Coordination Sequence:
#
# PCOD9044190 Si02
#       8
#     2   2   2   2   2   2   2   2
#     4  12  27  46  76 109 150 192 253 304 362 450
#     4  10  23  46  71 101 151 183 242 297 376 429
#     4  11  25  46  69 103 146 191 249 303 372 433
#     4  12  27  48  77 108 149 195 243 305 376 436
#     4  10  24  44  72 108 141 194 234 307 359 450
#     4  12  23  45  70 102 145 197 241 307 369 437
#     4  12  25  46  72 107 145 190 257 293 374 436
#     4  11  25  45  70 101 145 192 243 310 373 434
#
# _framework density 24.272684000000002
#
# number of rings (size 3 to 8) (size 9 to 14) (size 15 to 20)
#    0.000    0.750    2.500    4.125    3.500    6.000 
#    0.000    0.000    0.000    0.000    0.000    0.000 
#    0.000    0.000    0.000    0.000    0.000    0.000 
#
# Total GULP energy -89602.089313 kJ/mol
# GULP energy per Si atom -5600.130582 kJ/mol
# Density = 2.421744 g / cm^3
# Si number density = 24.272684 Si / 1000 Ang^3
#
#
#
# Elastic Constant Matrix: (Units=GPa)
#
#
# Indices 1 2 3 4 5 6 
#
# 1 144.9612 57.9846 19.6841 -10.5073 2.9212 11.2701
# 2 57.9846 207.2812 47.7717 -23.6674 9.7997 10.4031
# 3 19.6841 47.7717 72.8478 -16.2452 7.7973 14.5054
# 4 -10.5073 -23.6674 -16.2452 39.8774 -0.9530 -2.5838
# 5 2.9212 9.7997 7.7973 -0.9530 39.4926 -0.2578
# 6 11.2701 10.4031 14.5054 -2.5838 -0.2578 37.6551
#
#
#
# Elastic Compliance Matrix: (Units=1/GPa)
#
#
# Indices 1 2 3 4 5 6 
#
# 1 0.007912 -0.001969 -0.000372 0.000658 -0.000018 -0.001636
# 2 -0.001969 0.006352 -0.003150 0.001961 -0.000760 0.000177
# 3 -0.000372 -0.003150 0.018487 0.005121 -0.002755 -0.005807
# 4 0.000658 0.001961 0.005121 0.028430 -0.000865 -0.000767
# 5 -0.000018 -0.000760 -0.002755 -0.000865 0.026043 0.001396
# 6 -0.001636 0.000177 -0.005807 -0.000767 0.001396 0.029191
#
#
# Mechanical properties :
#
#
# Convention : Reuss Voigt Hill
#
# Bulk Modulus (GPa) = 45.93940 75.10790 60.52365
# Shear Modulus (GPa) = 37.13195 43.38169 40.25682
#
# Velocity S-wave (km/s) = 3.91549 4.23219 4.07692
# Velocity P-wave (km/s) = 6.27765 7.40895 6.86663
#
# Compressibility (1/GPa) = 0.02176781
#
# Stress axis : x y z
#
# Youngs Moduli (GPa) = 126.39172 157.42411 54.09257
#
# Poissons Ratio (x) = 0.31004 0.02012
# Poissons Ratio (y) = 0.24893 0.17040
# Poissons Ratio (z) = 0.04702 0.49590
#
# Static dielectric constant tensor:
#      x y z
#    x 1.931220 0.005610 -0.044860 
#    y 0.005610 1.907940 0.038180 
#    z -0.044860 0.038180 1.992540 
# 
# From -- ./inp_files/106855.got.cif
#   From: 2010.05.17/outbox.cif.g08.bks.cpg/sg2_54_cif.got.tgz:106855.got - 2010.06.03 11:33:40.
