data_PCOD9044293
_publ_section_title
;
Structure prediction by ZEFSAII (Michael W. Deem and Ramdas Pophale) SiO2 
 PCOD9044293
Probable space group: P -1
;
_chemical_formula_sum "Si O2"
_cell_formula_units_Z 14
_cell_length_a 13.248873
_cell_length_b 20.918297
_cell_length_c 4.880656
_cell_angle_alpha 95.191391
_cell_angle_beta 98.988264
_cell_angle_gamma 23.660895
_cell_volume 531.436333
_symmetry_space_group_name_H-M "P -1"
_symmetry_group_IT_number 2
_symmetry_cell_setting 'triclinic'
loop_
_space_group_symop_operation_xyz
x,y,z
-x,-y,-z
loop_
_atom_site_type_symbol
_atom_site_label
_atom_site_fract_x
_atom_site_fract_y
_atom_site_fract_z
Si Si1 0.386366 0.966413 0.731013
Si Si2 0.318050 0.649855 0.164510
Si Si3 0.955295 0.445716 0.820029
Si Si4 0.813356 0.991543 0.857315
Si Si5 0.330141 0.331697 0.717266
Si Si6 0.185398 0.608927 0.475034
Si Si7 0.731544 0.862045 0.778842
O O1 0.281098 0.007605 0.403655
O O2 0.685826 0.812237 0.792449
O O3 0.500000 0.000000 0.500000
O O4 0.293423 0.961247 0.867728
O O5 0.192542 0.671943 0.335940
O O6 0.523261 0.573609 0.387763
O O7 0.500000 0.500000 0.000000
O O8 0.115206 0.807027 0.961952
O O9 0.765056 0.595441 0.594333
O O10 0.929374 0.385644 0.725688
O O11 0.219975 0.326061 0.778014
O O12 0.821707 0.534942 0.089356
O O13 0.639329 0.152835 0.772138
O O14 0.698569 0.925126 0.059263
O O15 0.001532 0.720317 0.702019
#
# Coordination Sequence:
#
# PCOD9044293 Si02
#       7
#     2   2   2   2   2   2   2
#     4  11  24  38  67 104 145 182 235 296 369 444
#     4  11  28  48  71 104 150 201 252 302 365 437
#     4  10  23  46  74 106 143 188 235 313 368 432
#     4  12  24  46  71 101 147 199 238 307 363 437
#     4  10  23  46  72 108 143 183 248 297 375 440
#     4  11  26  49  73 104 151 198 246 304 370 444
#     4  11  22  41  63 108 142 185 237 294 373 458
#
# _framework density 26.343700999999999
#
# number of rings (size 3 to 8) (size 9 to 14) (size 15 to 20)
#    0.000    1.143    1.429    3.429    6.000    3.429 
#    0.000    1.429    0.000    0.000    0.000    0.000 
#    0.000    0.000    0.000    0.000    0.000    0.000 
#
# Total GULP energy -78185.718076 kJ/mol
# GULP energy per Si atom -5584.694148 kJ/mol
# Density = 2.628374 g / cm^3
# Si number density = 26.343701 Si / 1000 Ang^3
#
#
#
# Elastic Constant Matrix: (Units=GPa)
#
#
# Indices 1 2 3 4 5 6 
#
# 1 39.6037 -2.2557 4.7686 15.1850 2.4908 -7.6435
# 2 -2.2557 174.8815 39.0286 -7.1457 9.7912 -9.6597
# 3 4.7686 39.0286 123.2426 18.7257 12.2887 -15.0803
# 4 15.1850 -7.1457 18.7257 55.6259 -6.9085 6.3345
# 5 2.4908 9.7912 12.2887 -6.9085 39.2711 2.9846
# 6 -7.6435 -9.6597 -15.0803 6.3345 2.9846 36.5982
#
#
#
# Elastic Compliance Matrix: (Units=1/GPa)
#
#
# Indices 1 2 3 4 5 6 
#
# 1 0.031514 0.000334 0.002112 -0.011074 -0.005444 0.009901
# 2 0.000334 0.006310 -0.002023 0.001214 -0.000806 0.000757
# 3 0.002112 -0.002023 0.010649 -0.005605 -0.004375 0.005622
# 4 -0.011074 0.001214 -0.005605 0.024993 0.007251 -0.009219
# 5 -0.005444 -0.000806 -0.004375 0.007251 0.029170 -0.006786
# 6 0.009901 0.000757 0.005622 -0.009219 -0.006786 0.034057
#
#
# Mechanical properties :
#
#
# Convention : Reuss Voigt Hill
#
# Bulk Modulus (GPa) = 20.27574 46.75676 33.51625
# Shear Modulus (GPa) = 32.83260 46.04481 39.43871
#
# Velocity S-wave (km/s) = 3.53415 4.18526 3.87341
# Velocity P-wave (km/s) = 4.93629 6.41424 5.72318
#
# Compressibility (1/GPa) = 0.04932002
#
# Stress axis : x y z
#
# Youngs Moduli (GPa) = 31.73154 158.46743 93.90870
#
# Poissons Ratio (x) = -0.05299 -0.19831
# Poissons Ratio (y) = -0.01061 0.18996
# Poissons Ratio (z) = -0.06701 0.32054
#
# Static dielectric constant tensor:
#      x y z
#    x 2.274930 0.098390 -0.124910 
#    y 0.098390 2.241630 -0.121280 
#    z -0.124910 -0.121280 2.165550 
# 
# From -- ./inp_files/83295.got.cif
#   From: 2010.05.17/outbox.cif.g08.bks.cpg/sg2_42_cif.got.tgz:83295.got - 2010.06.03 11:33:40.
