data_PCOD9044251
_publ_section_title
;
Structure prediction by ZEFSAII (Michael W. Deem and Ramdas Pophale) SiO2 
 PCOD9044251
Probable space group: P -1
;
_chemical_formula_sum "Si O2"
_cell_formula_units_Z 12
_cell_length_a 11.329748
_cell_length_b 19.624403
_cell_length_c 15.475863
_cell_angle_alpha 160.308670
_cell_angle_beta 151.145196
_cell_angle_gamma 28.720059
_cell_volume 529.737385
_symmetry_space_group_name_H-M "P -1"
_symmetry_group_IT_number 2
_symmetry_cell_setting 'triclinic'
loop_
_space_group_symop_operation_xyz
x,y,z
-x,-y,-z
loop_
_atom_site_type_symbol
_atom_site_label
_atom_site_fract_x
_atom_site_fract_y
_atom_site_fract_z
Si Si1 0.544080 0.735104 0.615860
Si Si2 0.259416 0.375455 0.572355
Si Si3 0.105224 0.720097 0.019360
Si Si4 0.466263 0.996598 0.577196
Si Si5 0.306586 0.374760 0.055876
Si Si6 0.138834 0.136092 0.806629
O O1 0.541619 0.711901 0.482083
O O2 0.823603 0.745584 0.830966
O O3 0.327887 0.949289 0.762099
O O4 0.471235 0.533608 0.363217
O O5 0.286917 0.551589 0.867692
O O6 0.000000 0.500000 0.500000
O O7 0.298173 0.173310 0.420612
O O8 0.054874 0.679891 0.039691
O O9 0.219914 0.913635 0.330977
O O10 0.408498 0.223064 0.857537
O O11 0.500000 0.000000 0.500000
O O12 0.314483 0.227908 0.968491
O O13 0.000000 0.500000 0.000000
O O14 0.000000 0.000000 0.500000
#
# Coordination Sequence:
#
# PCOD9044251 Si02
#       6
#     2   2   2   2   2   2
#     4  11  23  46  66 100 140 182 232 290 351 414
#     4  10  23  46  71  98 140 186 229 290 350 409
#     4  11  24  43  69  98 138 183 227 292 351 409
#     4  12  25  44  72 106 138 183 241 288 347 422
#     4  12  25  41  71 102 136 187 233 285 349 423
#     4  12  22  43  70  96 140 182 234 284 354 413
#
# _framework density 22.652733999999999
#
# number of rings (size 3 to 8) (size 9 to 14) (size 15 to 20)
#    0.000    0.667    5.000    2.000    2.333    0.667 
#    6.000    5.000    0.000    0.000    0.000    0.000 
#    0.000    0.000    0.000    0.000    0.000    0.000 
#
# Total GULP energy -66900.437891 kJ/mol
# GULP energy per Si atom -5575.036491 kJ/mol
# Density = 2.260118 g / cm^3
# Si number density = 22.652734 Si / 1000 Ang^3
#
#
#
# Elastic Constant Matrix: (Units=GPa)
#
#
# Indices 1 2 3 4 5 6 
#
# 1 134.5601 11.7123 23.8559 5.8153 -20.8690 24.9785
# 2 11.7123 111.6310 49.2920 -14.4361 2.0603 2.5542
# 3 23.8559 49.2920 88.0734 2.9943 -6.2615 5.4337
# 4 5.8153 -14.4361 2.9943 40.0474 2.5374 3.9995
# 5 -20.8690 2.0603 -6.2615 2.5374 50.1058 0.0936
# 6 24.9785 2.5542 5.4337 3.9995 0.0936 32.8060
#
#
#
# Elastic Compliance Matrix: (Units=1/GPa)
#
#
# Indices 1 2 3 4 5 6 
#
# 1 0.009703 -0.000288 -0.001728 -0.000934 0.003898 -0.006976
# 2 -0.000288 0.013061 -0.007538 0.005453 -0.001875 -0.000208
# 3 -0.001728 -0.007538 0.016320 -0.003767 0.001821 -0.000347
# 4 -0.000934 0.005453 -0.003767 0.027757 -0.002485 -0.002466
# 5 0.003898 -0.001875 0.001821 -0.002485 0.022017 -0.002883
# 6 -0.006976 -0.000208 -0.000347 -0.002466 -0.002883 0.036177
#
#
# Mechanical properties :
#
#
# Convention : Reuss Voigt Hill
#
# Bulk Modulus (GPa) = 50.05840 55.99833 53.02836
# Shear Modulus (GPa) = 33.15630 41.21880 37.18755
#
# Velocity S-wave (km/s) = 3.82995 4.27030 4.05611
# Velocity P-wave (km/s) = 6.45788 7.00628 6.73766
#
# Compressibility (1/GPa) = 0.01997667
#
# Stress axis : x y z
#
# Youngs Moduli (GPa) = 103.06248 76.56188 61.27552
#
# Poissons Ratio (x) = 0.02207 0.10586
# Poissons Ratio (y) = 0.02971 0.46188
# Poissons Ratio (z) = 0.17805 0.57711
#
# Static dielectric constant tensor:
#      x y z
#    x 1.883720 0.008270 -0.013410 
#    y 0.008270 1.902940 0.085780 
#    z -0.013410 0.085780 1.761280 
# 
# From -- ./inp_files/100547.got.cif
#   From: 2010.05.17/outbox.cif.g08.bks.cpg/sg2_51_cif.got.tgz:100547.got - 2010.06.03 11:33:40.
