data_PCOD9044997
_publ_section_title
;
Structure prediction by ZEFSAII (Michael W. Deem and Ramdas Pophale) SiO2 
 PCOD9044997
Probable space group: P -1
;
_chemical_formula_sum "Si O2"
_cell_formula_units_Z 12
_cell_length_a 12.501939
_cell_length_b 5.106415
_cell_length_c 9.194467
_cell_angle_alpha 72.039625
_cell_angle_beta 63.445229
_cell_angle_gamma 60.707000
_cell_volume 454.882776
_symmetry_space_group_name_H-M "P -1"
_symmetry_group_IT_number 2
_symmetry_cell_setting 'triclinic'
loop_
_space_group_symop_operation_xyz
x,y,z
-x,-y,-z
loop_
_atom_site_type_symbol
_atom_site_label
_atom_site_fract_x
_atom_site_fract_y
_atom_site_fract_z
Si Si1 0.406343 0.350667 0.012215
Si Si2 0.145841 0.826822 0.621706
Si Si3 0.266963 0.117456 0.708457
Si Si4 0.485973 0.546206 0.670717
Si Si5 0.756269 0.233144 0.730097
Si Si6 0.907776 0.828119 0.934228
O O1 0.281537 0.501195 0.170152
O O2 0.500000 0.500000 0.000000
O O3 0.385752 0.449564 0.839281
O O4 0.500000 0.000000 0.000000
O O5 0.222515 0.020732 0.600346
O O6 0.138476 0.823464 0.452024
O O7 0.010920 0.938451 0.777547
O O8 0.224868 0.472238 0.671858
O O9 0.419955 0.907386 0.676467
O O10 0.182944 0.036215 0.895200
O O11 0.500000 0.500000 0.500000
O O12 0.625389 0.351710 0.691074
O O13 0.799942 0.927230 0.852091
O O14 0.000000 0.500000 0.000000
#
# Coordination Sequence:
#
# PCOD9044997 Si02
#       6
#     2   2   2   2   2   2
#     4  10  24  43  65 101 140 180 224 279 346 416
#     4  11  25  44  73 102 142 185 236 285 348 411
#     4  11  24  46  70 104 141 188 227 291 347 421
#     4  11  23  44  71 105 144 180 231 286 358 420
#     4  11  23  44  72 106 144 183 234 291 353 417
#     4  10  23  48  72 101 140 190 241 290 343 413
#
# _framework density 26.380421999999999
#
# number of rings (size 3 to 8) (size 9 to 14) (size 15 to 20)
#    0.000    1.333    3.333    1.000    2.333    3.333 
#    3.000   14.167    0.000    0.000    0.000    0.000 
#    0.000    0.000    0.000    0.000    0.000    0.000 
#
# Total GULP energy -66931.375948 kJ/mol
# GULP energy per Si atom -5577.614662 kJ/mol
# Density = 2.632038 g / cm^3
# Si number density = 26.380422 Si / 1000 Ang^3
#
#
#
# Elastic Constant Matrix: (Units=GPa)
#
#
# Indices 1 2 3 4 5 6 
#
# 1 74.7369 59.6863 34.5502 6.8182 20.0369 -14.9453
# 2 59.6863 151.2437 48.6305 6.8725 16.0591 -23.7320
# 3 34.5502 48.6305 243.4631 20.8313 23.0073 -15.4265
# 4 6.8182 6.8725 20.8313 37.9422 -16.3424 3.9290
# 5 20.0369 16.0591 23.0073 -16.3424 44.6501 2.7517
# 6 -14.9453 -23.7320 -15.4265 3.9290 2.7517 55.8129
#
#
#
# Elastic Compliance Matrix: (Units=1/GPa)
#
#
# Indices 1 2 3 4 5 6 
#
# 1 0.023782 -0.007099 0.000162 -0.008553 -0.011615 0.004569
# 2 -0.007099 0.010074 -0.000789 -0.000496 -0.000350 0.002217
# 3 0.000162 -0.000789 0.005159 -0.004738 -0.004284 0.001678
# 4 -0.008553 -0.000496 -0.004738 0.040808 0.021872 -0.007762
# 5 -0.011615 -0.000350 -0.004284 0.021872 0.038433 -0.007877
# 6 0.004569 0.002217 0.001678 -0.007762 -0.007877 0.021482
#
#
# Mechanical properties :
#
#
# Convention : Reuss Voigt Hill
#
# Bulk Modulus (GPa) = 42.43776 83.90864 63.17320
# Shear Modulus (GPa) = 30.66652 49.45283 40.05968
#
# Velocity S-wave (km/s) = 3.41320 4.33437 3.90107
# Velocity P-wave (km/s) = 5.62628 7.54488 6.65508
#
# Compressibility (1/GPa) = 0.02356392
#
# Stress axis : x y z
#
# Youngs Moduli (GPa) = 42.04795 99.26135 193.85051
#
# Poissons Ratio (x) = 0.70461 -0.03136
# Poissons Ratio (y) = 0.29848 0.15295
# Poissons Ratio (z) = -0.00680 0.07832
#
# Static dielectric constant tensor:
#      x y z
#    x 2.297290 -0.006920 -0.090590 
#    y -0.006920 2.129390 -0.028170 
#    z -0.090590 -0.028170 2.125940 
# 
# From -- ./inp_files/28184.got.cif
#   From: 2010.05.17/outbox.cif.g08.bks.cpg/sg2_15_cif.got.tgz:28184.got - 2010.06.03 11:33:40.
