data_PCOD9044744
_publ_section_title
;
Structure prediction by ZEFSAII (Michael W. Deem and Ramdas Pophale) SiO2 
 PCOD9044744
Probable space group: P -1
;
_chemical_formula_sum "Si O2"
_cell_formula_units_Z 16
_cell_length_a 12.027785
_cell_length_b 10.197078
_cell_length_c 18.845630
_cell_angle_alpha 141.365202
_cell_angle_beta 156.176479
_cell_angle_gamma 36.728136
_cell_volume 547.208827
_symmetry_space_group_name_H-M "P -1"
_symmetry_group_IT_number 2
_symmetry_cell_setting 'triclinic'
loop_
_space_group_symop_operation_xyz
x,y,z
-x,-y,-z
loop_
_atom_site_type_symbol
_atom_site_label
_atom_site_fract_x
_atom_site_fract_y
_atom_site_fract_z
Si Si1 0.946318 0.796638 0.211689
Si Si2 0.342895 0.523641 0.211271
Si Si3 0.478351 0.644814 0.947065
Si Si4 0.755103 0.324829 0.528236
Si Si5 0.580982 0.088600 0.659696
Si Si6 0.986620 0.703706 0.835066
Si Si7 0.676537 0.857772 0.872709
Si Si8 0.086811 0.739566 0.638117
O O1 0.233678 0.654553 0.276133
O O2 0.050305 0.836167 0.366787
O O3 0.717696 0.670179 0.039103
O O4 0.828596 0.037864 0.212098
O O5 0.276960 0.725741 0.200598
O O6 0.234035 0.310640 0.076091
O O7 0.690198 0.416504 0.353669
O O8 0.663801 0.411160 0.994742
O O9 0.386801 0.883248 0.035647
O O10 0.195867 0.636500 0.736093
O O11 0.500000 0.500000 0.500000
O O12 0.619351 0.190587 0.341354
O O13 0.929902 0.486698 0.677005
O O14 0.256327 0.187743 0.545561
O O15 0.500000 0.000000 0.500000
O O16 0.808740 0.904790 0.764301
O O17 0.848492 0.783524 0.866591
#
# Coordination Sequence:
#
# PCOD9044744 Si02
#       8
#     2   2   2   2   2   2   2   2
#     4  11  21  40  67 112 145 180 238 306 372 417
#     4  12  24  43  77 106 148 195 243 307 362 433
#     4  11  25  45  75 112 149 191 237 313 364 440
#     4   9  16  34  62  98 143 170 229 291 350 413
#     4  12  26  51  75 104 146 199 243 304 360 437
#     4  10  23  47  72 107 148 188 248 300 371 428
#     4  11  21  41  74 114 143 186 243 306 370 424
#     4  12  26  46  70 113 149 189 251 297 368 438
#
# _framework density 29.239296
#
# number of rings (size 3 to 8) (size 9 to 14) (size 15 to 20)
#    0.000    1.000    6.250    3.000    0.000    3.500 
#   11.250    1.250    0.000    0.000    0.000    0.000 
#    0.000    0.000    0.000    0.000    0.000    0.000 
#
# Total GULP energy -89509.976971 kJ/mol
# GULP energy per Si atom -5594.373561 kJ/mol
# Density = 2.917275 g / cm^3
# Si number density = 29.239296 Si / 1000 Ang^3
#
#
#
# Elastic Constant Matrix: (Units=GPa)
#
#
# Indices 1 2 3 4 5 6 
#
# 1 183.6432 114.0759 56.9592 -20.0048 6.9484 11.7864
# 2 114.0759 228.8039 37.6898 -8.5540 -16.3533 9.8061
# 3 56.9592 37.6898 108.8412 -7.2107 -13.6350 25.0108
# 4 -20.0048 -8.5540 -7.2107 55.9063 5.8485 -11.7993
# 5 6.9484 -16.3533 -13.6350 5.8485 44.3306 -3.4284
# 6 11.7864 9.8061 25.0108 -11.7993 -3.4284 68.7997
#
#
#
# Elastic Compliance Matrix: (Units=1/GPa)
#
#
# Indices 1 2 3 4 5 6 
#
# 1 0.010103 -0.004603 -0.004285 0.003035 -0.004941 0.000757
# 2 -0.004603 0.006811 0.000506 -0.000981 0.003491 -0.000360
# 3 -0.004285 0.000506 0.012653 -0.001128 0.004597 -0.003902
# 4 0.003035 -0.000981 -0.001128 0.019731 -0.003537 0.003238
# 5 -0.004941 0.003491 0.004597 -0.003537 0.026454 -0.000611
# 6 0.000757 -0.000360 -0.003902 0.003238 -0.000611 0.016400
#
#
# Mechanical properties :
#
#
# Convention : Reuss Voigt Hill
#
# Bulk Modulus (GPa) = 78.11820 104.30424 91.21122
# Shear Modulus (GPa) = 44.17628 54.64487 49.41057
#
# Velocity S-wave (km/s) = 3.89119 4.32775 4.11526
# Velocity P-wave (km/s) = 6.85298 7.79247 7.33778
#
# Compressibility (1/GPa) = 0.01280111
#
# Stress axis : x y z
#
# Youngs Moduli (GPa) = 98.98150 146.82886 79.03372
#
# Poissons Ratio (x) = 0.67591 0.33866
# Poissons Ratio (y) = 0.45565 -0.03997
# Poissons Ratio (z) = 0.42414 -0.07426
#
# Static dielectric constant tensor:
#      x y z
#    x 2.392700 0.062810 -0.061320 
#    y 0.062810 2.340190 -0.065020 
#    z -0.061320 -0.065020 2.416990 
# 
# From -- ./inp_files/612123.got.cif
#   From: 2010.05.17/outbox.cif.g08.bks.cpg/sg2_307_cif.got.tgz:612123.got - 2010.06.03 11:33:40.
