data_PCOD9044387
_publ_section_title
;
Structure prediction by ZEFSAII (Michael W. Deem and Ramdas Pophale) SiO2 
 PCOD9044387
Probable space group: P -1
;
_chemical_formula_sum "Si O2"
_cell_formula_units_Z 14
_cell_length_a 11.241700
_cell_length_b 21.600625
_cell_length_c 20.182847
_cell_angle_alpha 19.732767
_cell_angle_beta 21.327799
_cell_angle_gamma 32.238928
_cell_volume 582.358464
_symmetry_space_group_name_H-M "P -1"
_symmetry_group_IT_number 2
_symmetry_cell_setting 'triclinic'
loop_
_space_group_symop_operation_xyz
x,y,z
-x,-y,-z
loop_
_atom_site_type_symbol
_atom_site_label
_atom_site_fract_x
_atom_site_fract_y
_atom_site_fract_z
Si Si1 0.644918 0.416905 0.804956
Si Si2 0.635056 0.830483 0.913694
Si Si3 0.007893 0.609396 0.663791
Si Si4 0.278192 0.105357 0.553191
Si Si5 0.852664 0.525604 0.407943
Si Si6 0.733575 0.309430 0.223871
Si Si7 0.548480 0.855812 0.225576
O O1 0.451456 0.226004 0.060876
O O2 0.430406 0.572581 0.758162
O O3 0.000000 0.500000 0.500000
O O4 0.774214 0.402787 0.826765
O O5 0.339365 0.680329 0.258291
O O6 0.984947 0.783859 0.798610
O O7 0.604929 0.031351 0.753442
O O8 0.140787 0.492178 0.656100
O O9 0.286838 0.783593 0.374974
O O10 0.751197 0.706461 0.660372
O O11 0.891479 0.467050 0.927860
O O12 0.450920 0.160215 0.479637
O O13 0.500000 0.000000 0.500000
O O14 0.901420 0.980027 0.888397
O O15 0.639144 0.670410 0.394439
#
# Coordination Sequence:
#
# PCOD9044387 Si02
#       7
#     2   2   2   2   2   2   2
#     4  10  23  46  73  95 135 188 233 279 341 408
#     4  11  24  46  70  99 137 187 232 280 336 406
#     4  12  24  43  69 106 143 178 226 281 359 407
#     4  12  25  38  65 106 147 179 222 281 343 421
#     4  11  23  44  72 102 139 183 224 280 350 408
#     4  12  24  44  71 104 138 179 230 290 343 409
#     4  12  25  43  70 104 141 183 226 280 348 412
#
# _framework density 24.040177
#
# number of rings (size 3 to 8) (size 9 to 14) (size 15 to 20)
#    0.000    0.571    4.286    4.286    4.000    0.571 
#    0.000    0.714    0.000    0.000    0.000    0.000 
#    0.000    0.000    0.000    0.000    0.000    0.000 
#
# Total GULP energy -78432.631358 kJ/mol
# GULP energy per Si atom -5602.330811 kJ/mol
# Density = 2.398546 g / cm^3
# Si number density = 24.040177 Si / 1000 Ang^3
#
#
#
# Elastic Constant Matrix: (Units=GPa)
#
#
# Indices 1 2 3 4 5 6 
#
# 1 101.7185 51.3105 33.0302 -5.6832 -46.0480 13.2902
# 2 51.3105 199.9144 8.4985 -18.6196 -30.1684 19.2647
# 3 33.0302 8.4985 67.3909 -0.2484 -16.4242 19.0523
# 4 -5.6832 -18.6196 -0.2484 33.4837 4.6162 -0.9184
# 5 -46.0480 -30.1684 -16.4242 4.6162 45.8437 1.7277
# 6 13.2902 19.2647 19.0523 -0.9184 1.7277 41.9440
#
#
#
# Elastic Compliance Matrix: (Units=1/GPa)
#
#
# Indices 1 2 3 4 5 6 
#
# 1 0.021344 -0.002042 -0.004325 -0.000257 0.018746 -0.004638
# 2 -0.002042 0.006409 0.001726 0.002783 0.002623 -0.003128
# 3 -0.004325 0.001726 0.020327 -0.000480 0.004457 -0.008850
# 4 -0.000257 0.002783 -0.000480 0.031604 -0.001773 -0.000214
# 5 0.018746 0.002623 0.004457 -0.001773 0.044560 -0.011043
# 6 -0.004638 -0.003128 -0.008850 -0.000214 -0.011043 0.031218
#
#
# Mechanical properties :
#
#
# Convention : Reuss Voigt Hill
#
# Bulk Modulus (GPa) = 25.77373 61.63360 43.70366
# Shear Modulus (GPa) = 28.14116 42.66657 35.40387
#
# Velocity S-wave (km/s) = 3.42510 4.21741 3.84174
# Velocity P-wave (km/s) = 5.13674 7.02914 6.15609
#
# Compressibility (1/GPa) = 0.03879920
#
# Stress axis : x y z
#
# Youngs Moduli (GPa) = 46.85261 156.02312 49.19548
#
# Poissons Ratio (x) = 0.31865 0.21275
# Poissons Ratio (y) = 0.09569 -0.08493
# Poissons Ratio (z) = 0.20261 -0.26937
#
# Static dielectric constant tensor:
#      x y z
#    x 1.950710 0.011090 -0.009890 
#    y 0.011090 1.902760 0.004290 
#    z -0.009890 0.004290 1.954200 
# 
# From -- ./inp_files/306950.got.cif
#   From: 2010.05.17/outbox.cif.g08.bks.cpg/sg2_154_cif.got.tgz:306950.got - 2010.06.03 11:33:40.
