data_PCOD9044156
_publ_section_title
;
Structure prediction by ZEFSAII (Michael W. Deem and Ramdas Pophale) SiO2 
 PCOD9044156
Probable space group: P -1
;
_chemical_formula_sum "Si O2"
_cell_formula_units_Z 16
_cell_length_a 11.669861
_cell_length_b 9.210838
_cell_length_c 17.884364
_cell_angle_alpha 122.329582
_cell_angle_beta 149.715442
_cell_angle_gamma 43.828938
_cell_volume 649.597925
_symmetry_space_group_name_H-M "P -1"
_symmetry_group_IT_number 2
_symmetry_cell_setting 'triclinic'
loop_
_space_group_symop_operation_xyz
x,y,z
-x,-y,-z
loop_
_atom_site_type_symbol
_atom_site_label
_atom_site_fract_x
_atom_site_fract_y
_atom_site_fract_z
Si Si1 0.615010 0.344065 0.951617
Si Si2 0.498555 0.498687 0.604041
Si Si3 0.029643 0.056038 0.614265
Si Si4 0.522308 0.077718 0.928076
Si Si5 0.886572 0.639897 0.090139
Si Si6 0.612424 0.430560 0.815161
Si Si7 0.745179 0.012462 0.571759
Si Si8 0.209473 0.033521 0.247433
O O1 0.581218 0.165290 0.913140
O O2 0.470750 0.455683 0.822735
O O3 0.500000 0.500000 0.000000
O O4 0.956614 0.223259 0.106029
O O5 0.225907 0.685974 0.455746
O O6 0.439048 0.538645 0.670793
O O7 0.573370 0.267305 0.564204
O O8 0.775051 0.492760 0.743533
O O9 0.975114 0.951730 0.622241
O O10 0.332329 0.003620 0.778734
O O11 0.000000 0.000000 0.500000
O O12 0.322609 0.266358 0.929133
O O13 0.796116 0.864408 0.062615
O O14 0.806663 0.509647 0.960646
O O15 0.768367 0.177484 0.816833
O O16 0.517794 0.981554 0.402432
O O17 0.871062 0.900836 0.692332
#
# Coordination Sequence:
#
# PCOD9044156 Si02
#       8
#     2   2   2   2   2   2   2   2
#     4  12  26  42  68  99 142 179 224 278 346 410
#     4  11  24  44  71 100 133 186 233 278 340 408
#     4  12  27  41  70 102 142 176 230 286 345 404
#     4  11  25  44  68 107 137 181 227 287 347 401
#     4  11  23  44  75  99 140 178 232 288 340 407
#     4  11  24  44  67 103 131 179 230 285 334 399
#     4  10  23  46  70  95 136 183 228 279 337 417
#     4  10  25  44  70  99 134 182 232 279 338 409
#
# _framework density 24.630623
#
# number of rings (size 3 to 8) (size 9 to 14) (size 15 to 20)
#    0.000    1.000    2.500    3.375    7.000    2.000 
#    0.000    0.625    0.000    0.000    0.000    0.000 
#    0.000    0.000    0.000    0.000    0.000    0.000 
#
# Total GULP energy -89567.707783 kJ/mol
# GULP energy per Si atom -5597.981736 kJ/mol
# Density = 2.457456 g / cm^3
# Si number density = 24.630623 Si / 1000 Ang^3
#
#
#
# Elastic Constant Matrix: (Units=GPa)
#
#
# Indices 1 2 3 4 5 6 
#
# 1 138.5287 7.9178 26.7162 11.9848 -19.2675 22.3456
# 2 7.9178 67.5521 21.7180 7.8294 4.0147 1.0852
# 3 26.7162 21.7180 69.8118 11.1954 -3.2052 0.9767
# 4 11.9848 7.8294 11.1954 47.0443 4.5922 -7.1306
# 5 -19.2675 4.0147 -3.2052 4.5922 40.1049 3.6137
# 6 22.3456 1.0852 0.9767 -7.1306 3.6137 36.7966
#
#
#
# Elastic Compliance Matrix: (Units=1/GPa)
#
#
# Indices 1 2 3 4 5 6 
#
# 1 0.010042 -0.000057 -0.002901 -0.003510 0.005654 -0.007255
# 2 -0.000057 0.016714 -0.005027 -0.001449 -0.001898 -0.000419
# 3 -0.002901 -0.005027 0.017420 -0.002504 0.000708 0.000893
# 4 -0.003510 -0.001449 -0.002504 0.024641 -0.005241 0.007530
# 5 0.005654 -0.001898 0.000708 -0.005241 0.029153 -0.007275
# 6 -0.007255 -0.000419 0.000893 0.007530 -0.007275 0.033745
#
#
# Mechanical properties :
#
#
# Convention : Reuss Voigt Hill
#
# Bulk Modulus (GPa) = 35.45402 43.17741 39.31571
# Shear Modulus (GPa) = 31.82995 39.42521 35.62758
#
# Velocity S-wave (km/s) = 3.59875 4.00516 3.80738
# Velocity P-wave (km/s) = 5.62970 6.24151 5.94348
#
# Compressibility (1/GPa) = 0.02820555
#
# Stress axis : x y z
#
# Youngs Moduli (GPa) = 99.58407 59.83143 57.40621
#
# Poissons Ratio (x) = 0.00341 0.16655
# Poissons Ratio (y) = 0.00567 0.28856
# Poissons Ratio (z) = 0.28892 0.30075
#
# Static dielectric constant tensor:
#      x y z
#    x 2.001940 -0.014450 -0.020690 
#    y -0.014450 2.012340 0.003170 
#    z -0.020690 0.003170 1.910160 
# 
# From -- ./inp_files/216527.got.cif
#   From: 2010.05.17/outbox.cif.g08.bks.cpg/sg2_109_cif.got.tgz:216527.got - 2010.06.03 11:33:40.
