data_PCOD9044112
_publ_section_title
;
Structure prediction by ZEFSAII (Michael W. Deem and Ramdas Pophale) SiO2 
 PCOD9044112
Probable space group: P -1
;
_chemical_formula_sum "Si O2"
_cell_formula_units_Z 15
_cell_length_a 5.448497
_cell_length_b 11.739255
_cell_length_c 10.813206
_cell_angle_alpha 108.333463
_cell_angle_beta 63.675528
_cell_angle_gamma 99.690567
_cell_volume 588.099736
_symmetry_space_group_name_H-M "P -1"
_symmetry_group_IT_number 2
_symmetry_cell_setting 'triclinic'
loop_
_space_group_symop_operation_xyz
x,y,z
-x,-y,-z
loop_
_atom_site_type_symbol
_atom_site_label
_atom_site_fract_x
_atom_site_fract_y
_atom_site_fract_z
Si Si1 0.495954 0.884071 0.546979
Si Si2 0.500000 0.000000 0.000000
Si Si3 0.990223 0.102483 0.149534
Si Si4 0.714954 0.250087 0.900604
Si Si5 0.890285 0.663052 0.946148
Si Si6 0.298222 0.681407 0.343144
Si Si7 0.264956 0.326937 0.452164
Si Si8 0.647384 0.492122 0.277834
O O1 0.256014 0.911640 0.707539
O O2 0.456505 0.785291 0.415512
O O3 0.707365 0.811723 0.561472
O O4 0.500000 0.000000 0.500000
O O5 0.620903 0.117905 0.926443
O O6 0.719597 0.914434 0.858984
O O7 0.987670 0.231641 0.134178
O O8 0.000000 0.000000 0.000000
O O9 0.801292 0.261514 0.742476
O O10 0.971765 0.297959 0.940685
O O11 0.434955 0.326107 0.992775
O O12 0.046933 0.543763 0.835574
O O13 0.482342 0.567256 0.240825
O O14 0.053945 0.648755 0.483068
O O15 0.461920 0.374306 0.315189
O O16 0.341512 0.416651 0.578735
#
# Coordination Sequence:
#
# PCOD9044112 Si02
#       8
#     2   1   2   2   2   2   2   2
#     4  11  27  43  71 107 146 188 242 308 374 446
#     4  10  24  42  70  96 144 194 244 298 362 444
#     4  11  23  44  70 101 141 190 246 300 365 441
#     4  11  27  44  73 106 149 196 244 306 370 441
#     4  11  25  45  73 106 142 194 252 296 368 439
#     4  11  27  44  71 103 147 192 243 310 371 436
#     4  10  23  46  70 101 141 187 248 298 379 434
#     4  10  23  46  72 101 139 192 245 312 357 449
#
# _framework density 25.505877000000002
#
# number of rings (size 3 to 8) (size 9 to 14) (size 15 to 20)
#    0.000    1.333    2.667    0.400   11.200    4.800 
#    0.000    0.000    0.000    0.000    0.000    0.000 
#    0.000    0.000    0.000    0.000    0.000    0.000 
#
# Total GULP energy -83535.829434 kJ/mol
# GULP energy per Si atom -5569.055296 kJ/mol
# Density = 2.544782 g / cm^3
# Si number density = 25.505877 Si / 1000 Ang^3
#
#
#
# Elastic Constant Matrix: (Units=GPa)
#
#
# Indices 1 2 3 4 5 6 
#
# 1 66.8618 25.7582 14.4797 11.1859 -6.7568 -22.8926
# 2 25.7582 136.0146 24.1893 13.9109 -8.4047 -25.9574
# 3 14.4797 24.1893 99.5900 3.9986 -9.7124 -17.7380
# 4 11.1859 13.9109 3.9986 24.1720 -3.2871 -9.0620
# 5 -6.7568 -8.4047 -9.7124 -3.2871 48.0624 7.4203
# 6 -22.8926 -25.9574 -17.7380 -9.0620 7.4203 29.0188
#
#
#
# Elastic Compliance Matrix: (Units=1/GPa)
#
#
# Indices 1 2 3 4 5 6 
#
# 1 0.020890 -0.000775 -0.000090 -0.003734 0.000290 0.014492
# 2 -0.000775 0.009092 -0.000879 -0.002382 0.000184 0.006194
# 3 -0.000090 -0.000879 0.011445 0.001140 0.001272 0.006170
# 4 -0.003734 -0.002382 0.001140 0.048337 0.000979 0.010465
# 5 0.000290 0.000184 0.001272 0.000979 0.021837 -0.004107
# 6 0.014492 0.006194 0.006170 0.010465 -0.004107 0.059523
#
#
# Mechanical properties :
#
#
# Convention : Reuss Voigt Hill
#
# Bulk Modulus (GPa) = 26.35725 47.92451 37.14088
# Shear Modulus (GPa) = 26.70128 36.11992 31.41060
#
# Velocity S-wave (km/s) = 3.23904 3.76725 3.51309
# Velocity P-wave (km/s) = 4.93404 6.14437 5.57216
#
# Compressibility (1/GPa) = 0.03794022
#
# Stress axis : x y z
#
# Youngs Moduli (GPa) = 47.86998 109.98479 87.37566
#
# Poissons Ratio (x) = 0.08520 0.00784
# Poissons Ratio (y) = 0.03708 0.07680
# Poissons Ratio (z) = 0.00429 0.09668
#
# Static dielectric constant tensor:
#      x y z
#    x 2.188740 0.014700 0.002950 
#    y 0.014700 2.033270 -0.021590 
#    z 0.002950 -0.021590 1.996910 
# 
# From -- ./inp_files/364703.got.cif
#   From: 2010.05.17/outbox.cif.g08.bks.cpg/sg2_183_cif.got.tgz:364703.got - 2010.06.03 11:33:40.
