data_PCOD9044900
_publ_section_title
;
Structure prediction by ZEFSAII (Michael W. Deem and Ramdas Pophale) SiO2 
 PCOD9044900
Probable space group: P -1
;
_chemical_formula_sum "Si O2"
_cell_formula_units_Z 12
_cell_length_a 10.740555
_cell_length_b 5.015927
_cell_length_c 23.957619
_cell_angle_alpha 118.488541
_cell_angle_beta 22.485364
_cell_angle_gamma 118.341707
_cell_volume 431.623289
_symmetry_space_group_name_H-M "P -1"
_symmetry_group_IT_number 2
_symmetry_cell_setting 'triclinic'
loop_
_space_group_symop_operation_xyz
x,y,z
-x,-y,-z
loop_
_atom_site_type_symbol
_atom_site_label
_atom_site_fract_x
_atom_site_fract_y
_atom_site_fract_z
Si Si1 0.707495 0.503604 0.858790
Si Si2 0.658929 0.707338 0.385864
Si Si3 0.725967 0.033044 0.069694
Si Si4 0.891409 0.915794 0.198753
Si Si5 0.780599 0.879419 0.499530
Si Si6 0.158998 0.448121 0.368828
O O1 0.998516 0.303929 0.728041
O O2 0.500000 0.500000 0.000000
O O3 0.478136 0.306140 0.889101
O O4 0.905009 0.844309 0.817842
O O5 0.756145 0.666511 0.275567
O O6 0.401646 0.426148 0.479841
O O7 0.500000 0.000000 0.500000
O O8 0.881369 0.117749 0.952183
O O9 0.506181 0.309038 0.205270
O O10 0.000000 0.000000 0.000000
O O11 0.543482 0.000062 0.325880
O O12 0.070387 0.744202 0.401018
O O13 0.920471 0.140524 0.425772
O O14 0.000000 0.500000 0.500000
#
# Coordination Sequence:
#
# PCOD9044900 Si02
#       6
#     2   2   2   2   2   2
#     4   9  22  42  72 110 153 199 254 326 394 472
#     4  11  23  42  79 117 154 200 260 332 402 475
#     4  11  25  49  75 111 158 216 264 324 397 477
#     4  10  23  47  79 116 159 198 260 332 403 478
#     4  11  24  48  77 113 155 196 268 327 402 462
#     4  12  26  48  77 110 156 212 266 328 390 479
#
# _framework density 27.802023999999999
#
# number of rings (size 3 to 8) (size 9 to 14) (size 15 to 20)
#    0.000    1.333    1.667    2.500    2.333    4.000 
#    9.000    1.667    0.000    0.000    0.000    0.000 
#    0.000    0.000    0.000    0.000    0.000    0.000 
#
# Total GULP energy -66924.578095 kJ/mol
# GULP energy per Si atom -5577.048175 kJ/mol
# Density = 2.773875 g / cm^3
# Si number density = 27.802024 Si / 1000 Ang^3
#
#
#
# Elastic Constant Matrix: (Units=GPa)
#
#
# Indices 1 2 3 4 5 6 
#
# 1 153.9100 36.4429 59.5008 -3.5749 -7.4280 27.4537
# 2 36.4429 69.9742 27.0968 1.1761 -11.9930 5.8965
# 3 59.5008 27.0968 197.7360 24.5779 3.9583 0.7873
# 4 -3.5749 1.1761 24.5779 42.3794 9.5231 9.9138
# 5 -7.4280 -11.9930 3.9583 9.5231 65.4780 -7.0010
# 6 27.4537 5.8965 0.7873 9.9138 -7.0010 45.6716
#
#
#
# Elastic Compliance Matrix: (Units=1/GPa)
#
#
# Indices 1 2 3 4 5 6 
#
# 1 0.009654 -0.003557 -0.002904 0.004225 -0.000670 -0.006314
# 2 -0.003557 0.017095 -0.001226 -0.000877 0.002994 0.000602
# 3 -0.002904 -0.001226 0.006678 -0.004753 0.000036 0.002826
# 4 0.004225 -0.000877 -0.004753 0.030057 -0.004792 -0.009604
# 5 -0.000670 0.002994 0.000036 -0.004792 0.016828 0.003636
# 6 -0.006314 0.000602 0.002826 -0.009604 0.003636 0.028206
#
#
# Mechanical properties :
#
#
# Convention : Reuss Voigt Hill
#
# Bulk Modulus (GPa) = 55.39075 74.18900 64.78987
# Shear Modulus (GPa) = 38.48784 50.61111 44.54948
#
# Velocity S-wave (km/s) = 3.72473 4.27126 4.00732
# Velocity P-wave (km/s) = 6.20199 7.14615 6.69075
#
# Compressibility (1/GPa) = 0.01805356
#
# Stress axis : x y z
#
# Youngs Moduli (GPa) = 103.57981 58.49547 149.74727
#
# Poissons Ratio (x) = 0.20808 0.43490
# Poissons Ratio (y) = 0.36846 0.18352
# Poissons Ratio (z) = 0.30082 0.07169
#
# Static dielectric constant tensor:
#      x y z
#    x 2.298250 -0.010260 -0.127370 
#    y -0.010260 2.158680 -0.237100 
#    z -0.127370 -0.237100 1.961950 
# 
# From -- ./inp_files/617938.got.cif
#   From: 2010.05.17/outbox.cif.g08.bks.cpg/sg2_309_cif.got.tgz:617938.got - 2010.06.03 11:33:40.
