data_PCOD9044379
_publ_section_title
;
Structure prediction by ZEFSAII (Michael W. Deem and Ramdas Pophale) SiO2 
 PCOD9044379
Probable space group: P -1
;
_chemical_formula_sum "Si O2"
_cell_formula_units_Z 12
_cell_length_a 8.709880
_cell_length_b 12.618193
_cell_length_c 8.982055
_cell_angle_alpha 78.853850
_cell_angle_beta 36.424763
_cell_angle_gamma 62.651410
_cell_volume 490.661374
_symmetry_space_group_name_H-M "P -1"
_symmetry_group_IT_number 2
_symmetry_cell_setting 'triclinic'
loop_
_space_group_symop_operation_xyz
x,y,z
-x,-y,-z
loop_
_atom_site_type_symbol
_atom_site_label
_atom_site_fract_x
_atom_site_fract_y
_atom_site_fract_z
Si Si1 0.215488 0.421730 0.717277
Si Si2 0.941479 0.053785 0.864762
Si Si3 0.754759 0.191999 0.520339
Si Si4 0.121390 0.690929 0.172112
Si Si5 0.261780 0.511684 0.369980
Si Si6 0.598389 0.857261 0.929191
O O1 0.531954 0.311189 0.561892
O O2 0.218190 0.522119 0.576358
O O3 0.084501 0.352236 0.738245
O O4 0.000000 0.500000 0.000000
O O5 0.031264 0.159245 0.746864
O O6 0.582087 0.133157 0.082471
O O7 0.111728 0.938177 0.645716
O O8 0.000000 0.000000 0.000000
O O9 0.550796 0.186787 0.815492
O O10 0.042674 0.202849 0.338361
O O11 0.251939 0.621156 0.248263
O O12 0.426832 0.620968 0.856131
O O13 0.000000 0.500000 0.500000
O O14 0.500000 0.000000 0.000000
#
# Coordination Sequence:
#
# PCOD9044379 Si02
#       6
#     2   2   2   2   2   2
#     4  11  26  47  73 109 147 203 257 314 374 459
#     4  11  24  46  80 113 149 196 250 323 374 460
#     4  11  26  51  75 110 156 200 252 309 392 455
#     4  10  23  46  73 109 147 192 255 313 389 442
#     4   9  21  46  70 102 148 187 253 310 373 450
#     4  10  24  50  71 108 156 199 246 302 386 461
#
# _framework density 24.456785
#
# number of rings (size 3 to 8) (size 9 to 14) (size 15 to 20)
#    0.000    1.667    0.000    3.000    7.000    5.333 
#   30.000    0.000    0.000    0.000    0.000    0.000 
#    0.000    0.000    0.000    0.000    0.000    0.000 
#
# Total GULP energy -67136.990947 kJ/mol
# GULP energy per Si atom -5594.749246 kJ/mol
# Density = 2.440112 g / cm^3
# Si number density = 24.456785 Si / 1000 Ang^3
#
#
#
# Elastic Constant Matrix: (Units=GPa)
#
#
# Indices 1 2 3 4 5 6 
#
# 1 149.1268 65.0253 63.6641 -7.4394 -7.5750 -17.0177
# 2 65.0253 157.1329 46.3075 -3.0643 14.5550 -0.8355
# 3 63.6641 46.3075 134.6552 -11.7182 6.7927 -6.1331
# 4 -7.4394 -3.0643 -11.7182 45.9945 -7.3420 10.1377
# 5 -7.5750 14.5550 6.7927 -7.3420 55.2786 -6.4291
# 6 -17.0177 -0.8355 -6.1331 10.1377 -6.4291 48.3603
#
#
#
# Elastic Compliance Matrix: (Units=1/GPa)
#
#
# Indices 1 2 3 4 5 6 
#
# 1 0.010375 -0.003482 -0.003690 0.000251 0.003232 0.003500
# 2 -0.003482 0.008402 -0.001209 -0.000420 -0.002773 -0.001514
# 3 -0.003690 -0.001209 0.009773 0.001751 -0.001227 -0.000610
# 4 0.000251 -0.000420 0.001751 0.023556 0.002559 -0.004295
# 5 0.003232 -0.002773 -0.001227 0.002559 0.020111 0.003071
# 6 0.003500 -0.001514 -0.000610 -0.004295 0.003071 0.023115
#
#
# Mechanical properties :
#
#
# Convention : Reuss Voigt Hill
#
# Bulk Modulus (GPa) = 84.82417 87.87875 86.35146
# Shear Modulus (GPa) = 43.09517 47.65455 45.37486
#
# Velocity S-wave (km/s) = 4.20229 4.41899 4.31200
# Velocity P-wave (km/s) = 7.63572 7.87699 7.75729
#
# Compressibility (1/GPa) = 0.01178909
#
# Stress axis : x y z
#
# Youngs Moduli (GPa) = 96.38240 119.02199 102.32248
#
# Poissons Ratio (x) = 0.41445 0.37754
# Poissons Ratio (y) = 0.33561 0.12368
# Poissons Ratio (z) = 0.35563 0.14386
#
# Static dielectric constant tensor:
#      x y z
#    x 2.056230 0.113080 0.025700 
#    y 0.113080 2.013360 0.011850 
#    z 0.025700 0.011850 2.029680 
# 
# From -- ./inp_files/169082.got.cif
#   From: 2010.05.17/outbox.cif.g08.bks.cpg/sg2_85_cif.got.tgz:169082.got - 2010.06.03 11:33:40.
