data_PCOD9044542
_publ_section_title
;
Structure prediction by ZEFSAII (Michael W. Deem and Ramdas Pophale) SiO2 
 PCOD9044542
Probable space group: P -1
;
_chemical_formula_sum "Si O2"
_cell_formula_units_Z 16
_cell_length_a 10.580550
_cell_length_b 14.953265
_cell_length_c 7.257081
_cell_angle_alpha 48.751403
_cell_angle_beta 63.744527
_cell_angle_gamma 87.156220
_cell_volume 722.592300
_symmetry_space_group_name_H-M "P -1"
_symmetry_group_IT_number 2
_symmetry_cell_setting 'triclinic'
loop_
_space_group_symop_operation_xyz
x,y,z
-x,-y,-z
loop_
_atom_site_type_symbol
_atom_site_label
_atom_site_fract_x
_atom_site_fract_y
_atom_site_fract_z
Si Si1 0.419474 0.885403 0.567605
Si Si2 0.559058 0.811129 0.224626
Si Si3 0.095244 0.123280 0.158274
Si Si4 0.424428 0.452599 0.307168
Si Si5 0.094058 0.620534 0.653658
Si Si6 0.067740 0.316332 0.660444
Si Si7 0.891290 0.245411 0.189711
Si Si8 0.392659 0.684798 0.164205
O O1 0.510610 0.881923 0.326780
O O2 0.248820 0.871792 0.641686
O O3 0.500000 0.000000 0.500000
O O4 0.396617 0.754882 0.872599
O O5 0.528867 0.664153 0.499724
O O6 0.474401 0.796187 0.105772
O O7 0.736783 0.869600 0.986965
O O8 0.048454 0.226498 0.165871
O O9 0.047499 0.169483 0.929337
O O10 0.000000 0.000000 0.500000
O O11 0.242541 0.396332 0.473814
O O12 0.466292 0.577543 0.237808
O O13 0.500000 0.500000 0.000000
O O14 0.171396 0.718358 0.634539
O O15 0.226500 0.613010 0.449991
O O16 0.986866 0.664976 0.530251
O O17 0.000000 0.500000 0.000000
O O18 0.955708 0.344303 0.845411
#
# Coordination Sequence:
#
# PCOD9044542 Si02
#       8
#     2   2   2   2   2   2   2   2
#     4  12  27  47  71 101 138 190 236 292 345 417
#     4  11  25  47  69 105 137 179 237 289 355 419
#     4   9  22  47  72  94 135 181 227 294 341 407
#     4  11  23  42  70  99 142 183 224 288 351 426
#     4  12  25  39  71 105 140 188 223 287 358 417
#     4   9  23  43  65 101 139 177 235 282 342 427
#     4  10  23  47  66 101 142 173 241 281 344 419
#     4  12  25  41  71 103 139 185 233 284 357 418
#
# _framework density 22.142502
#
# number of rings (size 3 to 8) (size 9 to 14) (size 15 to 20)
#    0.750    0.500    3.750    1.125    5.250    3.500 
#    0.000    1.250    0.000    0.000    0.000    0.000 
#    0.000    0.000    0.000    0.000    0.000    0.000 
#
# Total GULP energy -89112.565069 kJ/mol
# GULP energy per Si atom -5569.535317 kJ/mol
# Density = 2.209210 g / cm^3
# Si number density = 22.142502 Si / 1000 Ang^3
#
#
#
# Elastic Constant Matrix: (Units=GPa)
#
#
# Indices 1 2 3 4 5 6 
#
# 1 74.0979 19.6398 35.7617 11.0234 -3.9611 5.6166
# 2 19.6398 89.0890 28.1043 20.2147 -7.7527 8.4610
# 3 35.7617 28.1043 147.2457 6.5637 3.2254 -5.5077
# 4 11.0234 20.2147 6.5637 34.2313 -10.3289 1.6993
# 5 -3.9611 -7.7527 3.2254 -10.3289 45.8730 7.3006
# 6 5.6166 8.4610 -5.5077 1.6993 7.3006 24.2545
#
#
#
# Elastic Compliance Matrix: (Units=1/GPa)
#
#
# Indices 1 2 3 4 5 6 
#
# 1 0.016570 -0.001134 -0.003866 -0.003246 0.001503 -0.004544
# 2 -0.001134 0.014477 -0.002422 -0.006900 0.001825 -0.005403
# 3 -0.003866 -0.002422 0.008380 0.000274 -0.001940 0.004208
# 4 -0.003246 -0.006900 0.000274 0.036455 0.006970 -0.001431
# 5 0.001503 0.001825 -0.001940 0.006970 0.025468 -0.009580
# 6 -0.004544 -0.005403 0.004208 -0.001431 -0.009580 0.048106
#
#
# Mechanical properties :
#
#
# Convention : Reuss Voigt Hill
#
# Bulk Modulus (GPa) = 40.68071 53.04933 46.86502
# Shear Modulus (GPa) = 28.98638 36.00021 32.49329
#
# Velocity S-wave (km/s) = 3.62205 4.03655 3.83490
# Velocity P-wave (km/s) = 5.99203 6.76277 6.38904
#
# Compressibility (1/GPa) = 0.02458168
#
# Stress axis : x y z
#
# Youngs Moduli (GPa) = 60.35046 69.07716 119.32729
#
# Poissons Ratio (x) = 0.07836 0.46133
# Poissons Ratio (y) = 0.06846 0.28902
# Poissons Ratio (z) = 0.23332 0.16731
#
# Static dielectric constant tensor:
#      x y z
#    x 1.915720 -0.044080 0.025750 
#    y -0.044080 1.930770 -0.037390 
#    z 0.025750 -0.037390 1.843950 
# 
# From -- ./inp_files/77106.got.cif
#   From: 2010.05.17/outbox.cif.g08.bks.cpg/sg2_39_cif.got.tgz:77106.got - 2010.06.03 11:33:40.
