data_PCOD9044890
_publ_section_title
;
Structure prediction by ZEFSAII (Michael W. Deem and Ramdas Pophale) SiO2 
 PCOD9044890
Probable space group: P -1
;
_chemical_formula_sum "Si O2"
_cell_formula_units_Z 11
_cell_length_a 5.175585
_cell_length_b 14.844387
_cell_length_c 8.288811
_cell_angle_alpha 38.421697
_cell_angle_beta 81.515837
_cell_angle_gamma 93.368594
_cell_volume 375.338062
_symmetry_space_group_name_H-M "P -1"
_symmetry_group_IT_number 2
_symmetry_cell_setting 'triclinic'
loop_
_space_group_symop_operation_xyz
x,y,z
-x,-y,-z
loop_
_atom_site_type_symbol
_atom_site_label
_atom_site_fract_x
_atom_site_fract_y
_atom_site_fract_z
Si Si1 0.132945 0.581069 0.133168
Si Si2 0.500000 0.500000 0.500000
Si Si3 0.187804 0.936230 0.333266
Si Si4 0.673724 0.365750 0.306116
Si Si5 0.755120 0.098993 0.186559
Si Si6 0.207185 0.211693 0.771281
O O1 0.269639 0.518566 0.355221
O O2 0.812562 0.486653 0.266361
O O3 0.271946 0.561828 0.976708
O O4 0.174681 0.758840 0.899409
O O5 0.374660 0.315695 0.753515
O O6 0.443650 0.011149 0.317723
O O7 0.920153 0.974960 0.369757
O O8 0.179436 0.767189 0.528162
O O9 0.244760 0.045853 0.018483
O O10 0.365028 0.283088 0.497074
O O11 0.895869 0.185760 0.887345
#
# Coordination Sequence:
#
# PCOD9044890 Si02
#       6
#     2   1   2   2   2   2
#     4  11  26  49  78 116 154 214 254 332 382 475
#     4  12  24  46  78 106 156 206 268 292 394 476
#     4  10  24  47  79 117 150 210 254 330 383 482
#     4  11  26  47  77 119 162 189 268 333 399 435
#     4  10  23  47  78 112 153 206 271 289 411 465
#     4  10  24  43  79 111 148 209 254 323 376 482
#
# _framework density 29.306909999999998
#
# number of rings (size 3 to 8) (size 9 to 14) (size 15 to 20)
#    1.091    0.364    1.818    1.636    2.545    5.818 
#    0.000    3.636    0.000    1.091    0.000    0.000 
#    0.000    0.000    0.000    0.000    0.000    0.000 
#
# Total GULP energy -61484.478921 kJ/mol
# GULP energy per Si atom -5589.498084 kJ/mol
# Density = 2.924021 g / cm^3
# Si number density = 29.306910 Si / 1000 Ang^3
#
#
#
# Elastic Constant Matrix: (Units=GPa)
#
#
# Indices 1 2 3 4 5 6 
#
# 1 168.9511 54.7919 28.2734 -5.9193 3.1374 0.0863
# 2 54.7919 180.4842 35.3308 -33.3063 15.5604 29.8466
# 3 28.2734 35.3308 146.7566 -3.2184 10.2334 -4.0710
# 4 -5.9193 -33.3063 -3.2184 68.0717 -12.6765 9.7813
# 5 3.1374 15.5604 10.2334 -12.6765 42.4892 -7.2466
# 6 0.0863 29.8466 -4.0710 9.7813 -7.2466 49.5305
#
#
#
# Elastic Compliance Matrix: (Units=1/GPa)
#
#
# Indices 1 2 3 4 5 6 
#
# 1 0.006770 -0.002351 -0.000752 -0.000711 0.000598 0.001571
# 2 -0.002351 0.008681 -0.001553 0.004466 -0.002424 -0.006591
# 3 -0.000752 -0.001553 0.007438 -0.000916 -0.001175 0.001558
# 4 -0.000711 0.004466 -0.000916 0.018188 0.003056 -0.005910
# 5 0.000598 -0.002424 -0.001175 0.003056 0.026361 0.004616
# 6 0.001571 -0.006591 0.001558 -0.005910 0.004616 0.026129
#
#
# Mechanical properties :
#
#
# Convention : Reuss Voigt Hill
#
# Bulk Modulus (GPa) = 73.65008 81.44270 77.54639
# Shear Modulus (GPa) = 46.55267 57.20468 51.87867
#
# Velocity S-wave (km/s) = 3.98986 4.42284 4.21192
# Velocity P-wave (km/s) = 6.81253 7.34384 7.08317
#
# Compressibility (1/GPa) = 0.01357772
#
# Stress axis : x y z
#
# Youngs Moduli (GPa) = 147.70505 115.19031 134.44813
#
# Poissons Ratio (x) = 0.27078 0.10112
# Poissons Ratio (y) = 0.34721 0.20880
# Poissons Ratio (z) = 0.11109 0.17889
#
# Static dielectric constant tensor:
#      x y z
#    x 1.919530 0.376240 0.357030 
#    y 0.376240 1.888100 -0.292010 
#    z 0.357030 -0.292010 1.982100 
# 
# From -- ./inp_files/132741.got.cif
#   From: 2010.05.17/outbox.cif.g08.bks.cpg/sg2_67_cif.got.tgz:132741.got - 2010.06.03 11:33:40.
