data_PCOD9044807
_publ_section_title
;
Structure prediction by ZEFSAII (Michael W. Deem and Ramdas Pophale) SiO2 
 PCOD9044807
Probable space group: P -1
;
_chemical_formula_sum "Si O2"
_cell_formula_units_Z 14
_cell_length_a 11.954267
_cell_length_b 5.123676
_cell_length_c 11.435038
_cell_angle_alpha 101.227579
_cell_angle_beta 103.629581
_cell_angle_gamma 51.468978
_cell_volume 531.409970
_symmetry_space_group_name_H-M "P -1"
_symmetry_group_IT_number 2
_symmetry_cell_setting 'triclinic'
loop_
_space_group_symop_operation_xyz
x,y,z
-x,-y,-z
loop_
_atom_site_type_symbol
_atom_site_label
_atom_site_fract_x
_atom_site_fract_y
_atom_site_fract_z
Si Si1 0.718288 0.813333 0.545196
Si Si2 0.671556 0.629982 0.099969
Si Si3 0.816081 0.647535 0.801260
Si Si4 0.437285 0.311693 0.675028
Si Si5 0.624996 0.445443 0.839089
Si Si6 0.095207 0.129908 0.549367
Si Si7 0.142695 0.121190 0.836174
O O1 0.827990 0.611329 0.660156
O O2 0.697099 0.615299 0.425094
O O3 0.760153 0.027134 0.508214
O O4 0.572026 0.041032 0.604306
O O5 0.578044 0.790189 0.208208
O O6 0.753034 0.782353 0.096373
O O7 0.794253 0.243170 0.132958
O O8 0.586434 0.618825 0.970580
O O9 0.723480 0.526063 0.808352
O O10 0.979910 0.401216 0.863260
O O11 0.729625 0.039515 0.842792
O O12 0.485067 0.544104 0.740765
O O13 0.139013 0.112598 0.692924
O O14 0.000000 0.500000 0.500000
O O15 0.000000 0.000000 0.500000
#
# Coordination Sequence:
#
# PCOD9044807 Si02
#       7
#     2   2   2   2   2   2   2
#     4  10  23  47  74 106 143 179 229 292 354 419
#     4  12  26  47  70 104 140 190 237 283 341 411
#     4  11  25  45  72 108 137 183 228 293 358 410
#     4  10  24  47  71 103 141 186 237 284 348 408
#     4  11  26  47  73  98 142 188 239 288 337 409
#     4  12  25  43  73 106 143 182 221 288 358 421
#     4  12  26  43  72 107 142 179 234 288 355 415
#
# _framework density 26.345012000000001
#
# number of rings (size 3 to 8) (size 9 to 14) (size 15 to 20)
#    0.000    0.857    2.857    3.000    4.000    6.286 
#    0.000    5.000    0.000    0.000    0.000    0.000 
#    0.000    0.000    0.000    0.000    0.000    0.000 
#
# Total GULP energy -78460.781149 kJ/mol
# GULP energy per Si atom -5604.341511 kJ/mol
# Density = 2.628505 g / cm^3
# Si number density = 26.345012 Si / 1000 Ang^3
#
#
#
# Elastic Constant Matrix: (Units=GPa)
#
#
# Indices 1 2 3 4 5 6 
#
# 1 180.5121 54.6659 41.6543 6.8530 10.0758 20.7585
# 2 54.6659 134.8605 17.1124 10.0371 10.6493 21.4687
# 3 41.6543 17.1124 193.3621 20.6250 12.1306 8.6242
# 4 6.8530 10.0371 20.6250 33.1443 8.2255 3.4825
# 5 10.0758 10.6493 12.1306 8.2255 40.0580 -7.7336
# 6 20.7585 21.4687 8.6242 3.4825 -7.7336 51.8978
#
#
#
# Elastic Compliance Matrix: (Units=1/GPa)
#
#
# Indices 1 2 3 4 5 6 
#
# 1 0.006738 -0.002243 -0.001150 0.000486 -0.001195 -0.001787
# 2 -0.002243 0.009087 0.000113 -0.001492 -0.002179 -0.003106
# 3 -0.001150 0.000113 0.005825 -0.003133 -0.000955 -0.000487
# 4 0.000486 -0.001492 -0.003133 0.034265 -0.006255 -0.002288
# 5 -0.001195 -0.002179 -0.000955 -0.006255 0.028619 0.006223
# 6 -0.001787 -0.003106 -0.000487 -0.002288 0.006223 0.022430
#
#
# Mechanical properties :
#
#
# Convention : Reuss Voigt Hill
#
# Bulk Modulus (GPa) = 66.26341 81.73333 73.99837
# Shear Modulus (GPa) = 42.17499 51.37350 46.77425
#
# Velocity S-wave (km/s) = 4.00543 4.42070 4.21818
# Velocity P-wave (km/s) = 6.82628 7.55965 7.20231
#
# Compressibility (1/GPa) = 0.01509128
#
# Stress axis : x y z
#
# Youngs Moduli (GPa) = 148.40882 110.04424 171.66609
#
# Poissons Ratio (x) = 0.24679 0.19746
# Poissons Ratio (y) = 0.33283 -0.01944
# Poissons Ratio (z) = 0.17070 -0.01246
#
# Static dielectric constant tensor:
#      x y z
#    x 2.072940 -0.121480 0.001880 
#    y -0.121480 2.182470 0.001380 
#    z 0.001880 0.001380 2.069180 
# 
# From -- ./inp_files/410862.got.cif
#   From: 2010.05.17/outbox.cif.g08.bks.cpg/sg2_206_cif.got.tgz:410862.got - 2010.06.03 11:33:40.
