data_PCOD9044987
_publ_section_title
;
Structure prediction by ZEFSAII (Michael W. Deem and Ramdas Pophale) SiO2 
 PCOD9044987
Probable space group: P -1
;
_chemical_formula_sum "Si O2"
_cell_formula_units_Z 15
_cell_length_a 6.241916
_cell_length_b 6.886500
_cell_length_c 14.845022
_cell_angle_alpha 102.090613
_cell_angle_beta 99.299107
_cell_angle_gamma 67.979098
_cell_volume 576.005249
_symmetry_space_group_name_H-M "P -1"
_symmetry_group_IT_number 2
_symmetry_cell_setting 'triclinic'
loop_
_space_group_symop_operation_xyz
x,y,z
-x,-y,-z
loop_
_atom_site_type_symbol
_atom_site_label
_atom_site_fract_x
_atom_site_fract_y
_atom_site_fract_z
Si Si1 0.647410 0.768448 0.522958
Si Si2 0.539942 0.207649 0.293860
Si Si3 0.133329 0.884913 0.909550
Si Si4 0.280445 0.263776 0.912800
Si Si5 0.118022 0.582485 0.633792
Si Si6 0.500000 0.500000 0.000000
Si Si7 0.123145 0.576076 0.241241
Si Si8 0.323035 0.885986 0.200981
O O1 0.517591 0.734024 0.599666
O O2 0.696254 0.591890 0.432242
O O3 0.906429 0.733851 0.573744
O O4 0.500000 0.000000 0.500000
O O5 0.763050 0.268151 0.295836
O O6 0.513484 0.979775 0.259255
O O7 0.338627 0.359502 0.233172
O O8 0.911264 0.936403 0.833096
O O9 0.285101 0.028102 0.905353
O O10 0.298298 0.655586 0.927944
O O11 0.000000 0.000000 0.000000
O O12 0.066413 0.365912 0.843533
O O13 0.536379 0.258621 0.889001
O O14 0.299081 0.398323 0.012184
O O15 0.011921 0.451435 0.680814
O O16 0.242835 0.753657 0.256619
#
# Coordination Sequence:
#
# PCOD9044987 Si02
#       8
#     2   2   2   2   2   1   2   2
#     4  10  24  44  71 106 141 190 229 285 352 418
#     4  11  24  44  71 103 141 183 236 292 349 408
#     4  11  25  48  68 103 142 178 238 286 347 428
#     4  11  25  44  70 104 137 184 237 287 349 426
#     4  10  23  48  71 104 142 182 240 288 341 422
#     4  12  24  44  74  98 136 188 222 292 360 398
#     4  10  24  45  68 100 142 186 232 291 346 419
#     4  11  25  46  71 102 142 185 235 291 350 422
#
# _framework density 26.041430999999999
#
# number of rings (size 3 to 8) (size 9 to 14) (size 15 to 20)
#    0.000    1.333    1.333    2.400    3.733    7.467 
#    0.000    0.000    0.000    0.000    0.000    0.000 
#    0.000    0.000    0.000    0.000    0.000    0.000 
#
# Total GULP energy -83751.968254 kJ/mol
# GULP energy per Si atom -5583.464550 kJ/mol
# Density = 2.598216 g / cm^3
# Si number density = 26.041431 Si / 1000 Ang^3
#
#
#
# Elastic Constant Matrix: (Units=GPa)
#
#
# Indices 1 2 3 4 5 6 
#
# 1 136.5298 95.1848 60.0706 2.3827 -4.5470 8.3683
# 2 95.1848 170.5286 58.9030 -24.3359 28.2134 2.6528
# 3 60.0706 58.9030 66.3431 -8.3855 -13.7572 4.3968
# 4 2.3827 -24.3359 -8.3855 36.0758 -4.3786 14.6274
# 5 -4.5470 28.2134 -13.7572 -4.3786 50.4379 1.3744
# 6 8.3683 2.6528 4.3968 14.6274 1.3744 67.6216
#
#
#
# Elastic Compliance Matrix: (Units=1/GPa)
#
#
# Indices 1 2 3 4 5 6 
#
# 1 0.017152 -0.008364 -0.008585 -0.008621 0.003119 0.000565
# 2 -0.008364 0.016607 -0.008426 0.008681 -0.011569 -0.000711
# 3 -0.008585 -0.008426 0.034006 0.005371 0.013743 -0.002259
# 4 -0.008621 0.008681 0.005371 0.038542 -0.000605 -0.007948
# 5 0.003119 -0.011569 0.013743 -0.000605 0.030310 -0.001311
# 6 0.000565 -0.000711 -0.002259 -0.007948 -0.001311 0.016639
#
#
# Mechanical properties :
#
#
# Convention : Reuss Voigt Hill
#
# Bulk Modulus (GPa) = 58.77028 89.07979 73.92504
# Shear Modulus (GPa) = 23.84596 41.44326 32.64461
#
# Velocity S-wave (km/s) = 3.02932 3.99361 3.54441
# Velocity P-wave (km/s) = 5.90362 7.45295 6.72306
#
# Compressibility (1/GPa) = 0.01701540
#
# Stress axis : x y z
#
# Youngs Moduli (GPa) = 58.30081 60.21582 29.40631
#
# Poissons Ratio (x) = 0.50363 0.25246
# Poissons Ratio (y) = 0.48761 0.24778
# Poissons Ratio (z) = 0.50053 0.50739
#
# Static dielectric constant tensor:
#      x y z
#    x 2.084110 0.194290 0.038030 
#    y 0.194290 0.035890 -2.153490 
#    z 0.038030 -2.153490 -0.294360 
# 
# From -- ./inp_files/545977.got.cif
#   From: 2010.05.17/outbox.cif.g08.bks.cpg/sg2_273_cif.got.tgz:545977.got - 2010.06.03 11:33:40.
