data_PCOD9044619
_publ_section_title
;
Structure prediction by ZEFSAII (Michael W. Deem and Ramdas Pophale) SiO2 
 PCOD9044619
Probable space group: P -1
;
_chemical_formula_sum "Si O2"
_cell_formula_units_Z 16
_cell_length_a 17.384372
_cell_length_b 5.303653
_cell_length_c 8.865307
_cell_angle_alpha 100.758421
_cell_angle_beta 48.873799
_cell_angle_gamma 101.123537
_cell_volume 602.161223
_symmetry_space_group_name_H-M "P -1"
_symmetry_group_IT_number 2
_symmetry_cell_setting 'triclinic'
loop_
_space_group_symop_operation_xyz
x,y,z
-x,-y,-z
loop_
_atom_site_type_symbol
_atom_site_label
_atom_site_fract_x
_atom_site_fract_y
_atom_site_fract_z
Si Si1 0.767069 0.290953 0.092490
Si Si2 0.748168 0.694318 0.756222
Si Si3 0.607832 0.936151 0.427995
Si Si4 0.060097 0.720793 0.729775
Si Si5 0.394097 0.479389 0.831148
Si Si6 0.127373 0.764578 0.343087
Si Si7 0.871927 0.724526 0.203270
Si Si8 0.568382 0.820763 0.793029
O O1 0.676228 0.294399 0.087391
O O2 0.788065 0.544530 0.197104
O O3 0.715622 0.072019 0.243967
O O4 0.866164 0.280183 0.852328
O O5 0.798188 0.428285 0.692574
O O6 0.667309 0.716520 0.729473
O O7 0.831185 0.936600 0.668770
O O8 0.676335 0.717651 0.998134
O O9 0.597275 0.641205 0.356318
O O10 0.601900 0.975375 0.616683
O O11 0.500000 0.000000 0.500000
O O12 0.035907 0.724832 0.581311
O O13 0.102913 0.461019 0.710038
O O14 0.133967 0.984536 0.698381
O O15 0.963497 0.747851 0.964989
O O16 0.493111 0.578748 0.805784
O O17 0.500000 0.000000 0.000000
#
# Coordination Sequence:
#
# PCOD9044619 Si02
#       8
#     2   2   2   2   2   2   2   2
#     4  11  25  44  67 100 132 184 226 284 339 415
#     4  11  24  42  67 100 134 182 225 291 333 405
#     4  12  25  44  65  92 136 179 232 283 347 392
#     4  10  23  47  69 106 138 178 215 289 340 417
#     4  11  24  46  63  90 137 175 229 288 340 396
#     4  11  24  44  70  99 143 173 230 281 345 402
#     4  10  24  44  74 102 142 173 228 272 350 414
#     4  12  25  44  66  96 133 186 239 290 341 400
#
# _framework density 26.570958999999998
#
# number of rings (size 3 to 8) (size 9 to 14) (size 15 to 20)
#    0.000    1.000    2.500    3.750    3.500    2.500 
#    2.250    0.000    0.000    6.750    0.000    0.000 
#    0.000    0.000    0.000    0.000    0.000    0.000 
#
# Total GULP energy -89368.229910 kJ/mol
# GULP energy per Si atom -5585.514369 kJ/mol
# Density = 2.651048 g / cm^3
# Si number density = 26.570959 Si / 1000 Ang^3
#
#
#
# Elastic Constant Matrix: (Units=GPa)
#
#
# Indices 1 2 3 4 5 6 
#
# 1 61.8907 19.8003 6.2887 6.3583 11.1985 -2.5330
# 2 19.8003 148.6087 42.6945 -8.2043 2.7341 3.4989
# 3 6.2887 42.6945 176.7616 -30.3696 42.6810 6.7204
# 4 6.3583 -8.2043 -30.3696 42.4486 1.6028 1.1576
# 5 11.1985 2.7341 42.6810 1.6028 31.8239 3.1699
# 6 -2.5330 3.4989 6.7204 1.1576 3.1699 23.1116
#
#
#
# Elastic Compliance Matrix: (Units=1/GPa)
#
#
# Indices 1 2 3 4 5 6 
#
# 1 0.018919 -0.003053 0.001796 -0.001889 -0.009042 0.003348
# 2 -0.003053 0.007887 -0.002815 -0.000160 0.004309 -0.001293
# 3 0.001796 -0.002815 0.011660 0.008172 -0.016347 -0.000935
# 4 -0.001889 -0.000160 0.008172 0.030160 -0.011553 -0.002485
# 5 -0.009042 0.004309 -0.016347 -0.011553 0.057153 -0.004150
# 6 0.003348 -0.001293 -0.000935 -0.002485 -0.004150 0.044797
#
#
# Mechanical properties :
#
#
# Convention : Reuss Voigt Hill
#
# Bulk Modulus (GPa) = 32.98103 58.31421 45.64762
# Shear Modulus (GPa) = 26.47902 40.70865 33.59384
#
# Velocity S-wave (km/s) = 3.16023 3.91842 3.55957
# Velocity P-wave (km/s) = 5.07498 6.51661 5.84045
#
# Compressibility (1/GPa) = 0.03032046
#
# Stress axis : x y z
#
# Youngs Moduli (GPa) = 52.85671 126.78998 85.76324
#
# Poissons Ratio (x) = 0.38715 -0.15402
# Poissons Ratio (y) = 0.16140 0.24144
# Poissons Ratio (z) = -0.09492 0.35695
#
# Static dielectric constant tensor:
#      x y z
#    x 2.256380 -0.102480 -0.093600 
#    y -0.102480 2.098440 0.060470 
#    z -0.093600 0.060470 2.280590 
# 
# From -- ./inp_files/339844.got.cif
#   From: 2010.05.17/outbox.cif.g08.bks.cpg/sg2_170_cif.got.tgz:339844.got - 2010.06.03 11:33:40.
