data_PCOD9044709
_publ_section_title
;
Structure prediction by ZEFSAII (Michael W. Deem and Ramdas Pophale) SiO2 
 PCOD9044709
Probable space group: P -1
;
_chemical_formula_sum "Si O2"
_cell_formula_units_Z 16
_cell_length_a 16.416779
_cell_length_b 12.265073
_cell_length_c 9.347630
_cell_angle_alpha 149.580198
_cell_angle_beta 47.443627
_cell_angle_gamma 133.305895
_cell_volume 674.867500
_symmetry_space_group_name_H-M "P -1"
_symmetry_group_IT_number 2
_symmetry_cell_setting 'triclinic'
loop_
_space_group_symop_operation_xyz
x,y,z
-x,-y,-z
loop_
_atom_site_type_symbol
_atom_site_label
_atom_site_fract_x
_atom_site_fract_y
_atom_site_fract_z
Si Si1 0.540116 0.029570 0.325488
Si Si2 0.766211 0.231997 0.416009
Si Si3 0.937320 0.540093 0.390103
Si Si4 0.135410 0.121262 0.960699
Si Si5 0.354492 0.309574 0.347346
Si Si6 0.901170 0.773225 0.411150
Si Si7 0.165610 0.453400 0.066679
Si Si8 0.482475 0.216780 0.346293
O O1 0.664220 0.203345 0.392836
O O2 0.460140 0.133795 0.439888
O O3 0.500000 0.000000 0.500000
O O4 0.567052 0.813823 0.976450
O O5 0.876492 0.294764 0.246652
O O6 0.743990 0.381428 0.748376
O O7 0.780719 0.011798 0.229032
O O8 0.855690 0.662721 0.708103
O O9 0.944146 0.634711 0.328887
O O10 0.063046 0.575439 0.347447
O O11 0.151673 0.212749 0.884226
O O12 0.000000 0.000000 0.000000
O O13 0.220069 0.194644 0.352557
O O14 0.384205 0.284627 0.451440
O O15 0.403643 0.573839 0.558478
O O16 0.853260 0.606244 0.145138
O O17 0.000000 0.000000 0.500000
O O18 0.500000 0.000000 0.000000
#
# Coordination Sequence:
#
# PCOD9044709 Si02
#       8
#     2   2   2   2   2   2   2   2
#     4  11  25  43  69 105 130 171 230 290 350 404
#     4  11  23  40  69  92 135 182 223 286 341 396
#     4  11  22  41  62  93 133 182 228 275 323 400
#     4  11  18  38  64  87 127 171 221 263 331 392
#     4  10  23  47  72 100 138 184 225 284 351 406
#     4  12  27  43  66 102 146 184 229 280 340 415
#     4  11  24  39  60  97 132 182 226 273 327 405
#     4   9  21  46  77 100 134 177 230 289 348 406
#
# _framework density 23.708356999999999
#
# number of rings (size 3 to 8) (size 9 to 14) (size 15 to 20)
#    0.000    1.250    2.500    3.375    1.750    5.500 
#    4.500    0.000    0.000    0.000    0.000    0.000 
#    0.000    0.000    0.000    0.000    0.000    0.000 
#
# Total GULP energy -89089.545375 kJ/mol
# GULP energy per Si atom -5568.096586 kJ/mol
# Density = 2.365440 g / cm^3
# Si number density = 23.708357 Si / 1000 Ang^3
#
#
#
# Elastic Constant Matrix: (Units=GPa)
#
#
# Indices 1 2 3 4 5 6 
#
# 1 98.9291 43.0630 7.2013 3.7004 -0.1446 -33.7883
# 2 43.0630 95.5196 22.9825 -0.6328 -3.9485 -29.2098
# 3 7.2013 22.9825 62.4010 4.7906 14.3240 -3.0728
# 4 3.7004 -0.6328 4.7906 25.5001 -1.2353 7.0565
# 5 -0.1446 -3.9485 14.3240 -1.2353 33.9213 -1.3902
# 6 -33.7883 -29.2098 -3.0728 7.0565 -1.3902 54.8552
#
#
#
# Elastic Compliance Matrix: (Units=1/GPa)
#
#
# Indices 1 2 3 4 5 6 
#
# 1 0.014702 -0.004721 0.000903 -0.004433 -0.000737 0.007144
# 2 -0.004721 0.015877 -0.006206 0.001038 0.004699 0.005185
# 3 0.000903 -0.006206 0.020691 -0.004285 -0.009664 -0.001283
# 4 -0.004433 0.001038 -0.004285 0.043021 0.003156 -0.007872
# 5 -0.000737 0.004699 -0.009664 0.003156 0.034300 0.001970
# 6 0.007144 0.005185 -0.001283 -0.007872 0.001970 0.026382
#
#
# Mechanical properties :
#
#
# Convention : Reuss Voigt Hill
#
# Bulk Modulus (GPa) = 32.02672 44.81591 38.42131
# Shear Modulus (GPa) = 26.96473 35.09551 31.03012
#
# Velocity S-wave (km/s) = 3.37612 3.85164 3.62170
# Velocity P-wave (km/s) = 5.36056 6.22288 5.80774
#
# Compressibility (1/GPa) = 0.03122393
#
# Stress axis : x y z
#
# Youngs Moduli (GPa) = 68.01728 62.98463 48.33024
#
# Poissons Ratio (x) = 0.29732 -0.04365
# Poissons Ratio (y) = 0.32108 0.29992
# Poissons Ratio (z) = -0.06143 0.39086
#
# Static dielectric constant tensor:
#      x y z
#    x 1.948930 0.114800 0.061370 
#    y 0.114800 2.110130 0.094990 
#    z 0.061370 0.094990 2.102860 
# 
# From -- ./inp_files/333987.got.cif
#   From: 2010.05.17/outbox.cif.g08.bks.cpg/sg2_167_cif.got.tgz:333987.got - 2010.06.03 11:33:40.
