data_PCOD9044866
_publ_section_title
;
Structure prediction by ZEFSAII (Michael W. Deem and Ramdas Pophale) SiO2 
 PCOD9044866
Probable space group: P -1
;
_chemical_formula_sum "Si O2"
_cell_formula_units_Z 12
_cell_length_a 5.455278
_cell_length_b 16.387957
_cell_length_c 15.967522
_cell_angle_alpha 152.295995
_cell_angle_beta 126.873290
_cell_angle_gamma 57.348765
_cell_volume 530.769391
_symmetry_space_group_name_H-M "P -1"
_symmetry_group_IT_number 2
_symmetry_cell_setting 'triclinic'
loop_
_space_group_symop_operation_xyz
x,y,z
-x,-y,-z
loop_
_atom_site_type_symbol
_atom_site_label
_atom_site_fract_x
_atom_site_fract_y
_atom_site_fract_z
Si Si1 0.908961 0.376890 0.447059
Si Si2 0.770313 0.107888 0.612953
Si Si3 0.121975 0.998467 0.118845
Si Si4 0.758302 0.667808 0.801987
Si Si5 0.367720 0.518841 0.083967
Si Si6 0.323015 0.241981 0.952580
O O1 0.927930 0.501185 0.643915
O O2 0.561649 0.321792 0.304936
O O3 0.000000 0.500000 0.500000
O O4 0.095594 0.195537 0.325579
O O5 0.601901 0.281442 0.697567
O O6 0.997942 0.177225 0.794563
O O7 0.500000 0.000000 0.500000
O O8 0.000000 0.000000 0.500000
O O9 0.464181 0.922191 0.127101
O O10 0.920575 0.852782 0.991236
O O11 0.000000 0.000000 0.000000
O O12 0.707808 0.639703 0.863916
O O13 0.500000 0.500000 0.000000
O O14 0.480794 0.356869 0.016885
O O15 0.000000 0.500000 0.000000
#
# Coordination Sequence:
#
# PCOD9044866 Si02
#       6
#     2   2   2   2   2   2
#     4  11  23  45  69 103 151 199 247 305 359 443
#     4  11  25  50  74 109 146 187 253 327 376 445
#     4  12  24  45  70 107 154 195 245 305 368 453
#     4  11  24  43  71 103 148 197 253 295 374 441
#     4  10  23  47  76  99 143 190 244 314 381 443
#     4  11  26  45  74 106 140 205 245 300 390 450
#
# _framework density 22.608687
#
# number of rings (size 3 to 8) (size 9 to 14) (size 15 to 20)
#    0.000    1.000    3.333    2.500    7.000    0.000 
#    9.000    0.000    0.000    0.000    0.000    0.000 
#    0.000    0.000    0.000    0.000    0.000    0.000 
#
# Total GULP energy -67104.603786 kJ/mol
# GULP energy per Si atom -5592.050315 kJ/mol
# Density = 2.255723 g / cm^3
# Si number density = 22.608687 Si / 1000 Ang^3
#
#
#
# Elastic Constant Matrix: (Units=GPa)
#
#
# Indices 1 2 3 4 5 6 
#
# 1 138.1345 49.7289 65.7282 14.9338 -24.0763 11.7759
# 2 49.7289 121.0446 57.2052 15.0723 -17.9183 -3.5378
# 3 65.7282 57.2052 123.3719 29.3489 -21.9621 -0.3165
# 4 14.9338 15.0723 29.3489 45.2381 -4.6956 -1.8826
# 5 -24.0763 -17.9183 -21.9621 -4.6956 62.7390 -0.1902
# 6 11.7759 -3.5378 -0.3165 -1.8826 -0.1902 43.3769
#
#
#
# Elastic Compliance Matrix: (Units=1/GPa)
#
#
# Indices 1 2 3 4 5 6 
#
# 1 0.010689 -0.002130 -0.004392 0.000105 0.001955 -0.003095
# 2 -0.002130 0.011156 -0.003753 -0.000412 0.001029 0.001447
# 3 -0.004392 -0.003753 0.013946 -0.006144 0.001667 0.000729
# 4 0.000105 -0.000412 -0.006144 0.026209 -0.000263 0.001030
# 5 0.001955 0.001029 0.001667 -0.000263 0.017546 -0.000369
# 6 -0.003095 0.001447 0.000729 0.001030 -0.000369 0.024060
#
#
# Mechanical properties :
#
#
# Convention : Reuss Voigt Hill
#
# Bulk Modulus (GPa) = 65.61387 80.87506 73.24446
# Shear Modulus (GPa) = 38.68847 44.26336 41.47592
#
# Velocity S-wave (km/s) = 4.14118 4.42951 4.28777
# Velocity P-wave (km/s) = 7.20766 7.87465 7.54852
#
# Compressibility (1/GPa) = 0.01524068
#
# Stress axis : x y z
#
# Youngs Moduli (GPa) = 93.55283 89.63701 71.70489
#
# Poissons Ratio (x) = 0.19092 0.31493
# Poissons Ratio (y) = 0.19926 0.26914
# Poissons Ratio (z) = 0.41089 0.33644
#
# Static dielectric constant tensor:
#      x y z
#    x 1.722760 -0.028090 0.022830 
#    y -0.028090 1.869460 0.013160 
#    z 0.022830 0.013160 1.854530 
# 
# From -- ./inp_files/99378.got.cif
#   From: 2010.05.17/outbox.cif.g08.bks.cpg/sg2_50_cif.got.tgz:99378.got - 2010.06.03 11:33:40.
