data_PCOD9044933
_publ_section_title
;
Structure prediction by ZEFSAII (Michael W. Deem and Ramdas Pophale) SiO2 
 PCOD9044933
Probable space group: P -1
;
_chemical_formula_sum "Si O2"
_cell_formula_units_Z 14
_cell_length_a 11.334326
_cell_length_b 7.276666
_cell_length_c 17.161012
_cell_angle_alpha 126.197887
_cell_angle_beta 149.186648
_cell_angle_gamma 64.188052
_cell_volume 576.183012
_symmetry_space_group_name_H-M "P -1"
_symmetry_group_IT_number 2
_symmetry_cell_setting 'triclinic'
loop_
_space_group_symop_operation_xyz
x,y,z
-x,-y,-z
loop_
_atom_site_type_symbol
_atom_site_label
_atom_site_fract_x
_atom_site_fract_y
_atom_site_fract_z
Si Si1 0.457670 0.309718 0.361041
Si Si2 0.445116 0.741079 0.061091
Si Si3 0.629308 0.251344 0.217608
Si Si4 0.200076 0.351445 0.063683
Si Si5 0.944504 0.841347 0.798534
Si Si6 0.791885 0.963041 0.436197
Si Si7 0.084947 0.333982 0.424566
O O1 0.500000 0.500000 0.500000
O O2 0.357433 0.370954 0.236389
O O3 0.234696 0.141949 0.229895
O O4 0.683374 0.189688 0.450804
O O5 0.583527 0.796865 0.233763
O O6 0.549298 0.982425 0.131338
O O7 0.500000 0.500000 0.000000
O O8 0.168750 0.724282 0.915869
O O9 0.398691 0.367642 0.113868
O O10 0.800547 0.286467 0.249282
O O11 0.803228 0.411860 0.417696
O O12 0.000000 0.500000 0.000000
O O13 0.057606 0.098349 0.905588
O O14 0.827437 0.717413 0.623580
O O15 0.857931 0.847897 0.524458
O O16 0.000000 0.000000 0.500000
#
# Coordination Sequence:
#
# PCOD9044933 Si02
#       7
#     2   2   2   2   2   2   2
#     4  12  27  47  75 103 151 193 244 302 362 450
#     4  11  26  45  75 105 149 187 246 306 371 431
#     4  10  23  48  68 108 141 187 244 299 364 432
#     4  11  25  47  72 102 148 188 240 302 362 435
#     4  11  27  47  67 109 145 188 246 298 372 428
#     4  12  26  50  74 107 144 198 249 300 369 444
#     4  11  25  44  77  99 149 188 244 307 360 440
#
# _framework density 24.297834000000002
#
# number of rings (size 3 to 8) (size 9 to 14) (size 15 to 20)
#    0.000    0.857    4.286    1.286   10.000    2.857 
#    0.000    0.000    0.000    0.000    0.000    0.000 
#    0.000    0.000    0.000    0.000    0.000    0.000 
#
# Total GULP energy -78281.770848 kJ/mol
# GULP energy per Si atom -5591.555061 kJ/mol
# Density = 2.424253 g / cm^3
# Si number density = 24.297834 Si / 1000 Ang^3
#
#
#
# Elastic Constant Matrix: (Units=GPa)
#
#
# Indices 1 2 3 4 5 6 
#
# 1 116.9124 46.1652 12.8920 -15.4514 19.8820 -16.4026
# 2 46.1652 179.2886 33.8848 -2.6515 3.0095 -34.2739
# 3 12.8920 33.8848 91.1004 14.8664 -6.3703 -4.0842
# 4 -15.4514 -2.6515 14.8664 45.5750 -9.6346 1.0418
# 5 19.8820 3.0095 -6.3703 -9.6346 51.5311 -0.7397
# 6 -16.4026 -34.2739 -4.0842 1.0418 -0.7397 41.4257
#
#
#
# Elastic Compliance Matrix: (Units=1/GPa)
#
#
# Indices 1 2 3 4 5 6 
#
# 1 0.010868 -0.001951 -0.001486 0.003235 -0.003624 0.002397
# 2 -0.001951 0.007525 -0.002352 0.000463 0.000184 0.005213
# 3 -0.001486 -0.002352 0.012847 -0.004501 0.001441 -0.001129
# 4 0.003235 0.000463 -0.004501 0.025127 0.002876 0.000640
# 5 -0.003624 0.000184 0.001441 0.002876 0.021497 -0.000829
# 6 0.002397 0.005213 -0.001129 0.000640 -0.000829 0.029259
#
#
# Mechanical properties :
#
#
# Convention : Reuss Voigt Hill
#
# Bulk Modulus (GPa) = 50.86067 63.68726 57.27397
# Shear Modulus (GPa) = 39.91912 47.33030 43.62471
#
# Velocity S-wave (km/s) = 4.05768 4.41832 4.24183
# Velocity P-wave (km/s) = 6.55215 7.23164 6.90026
#
# Compressibility (1/GPa) = 0.01966156
#
# Stress axis : x y z
#
# Youngs Moduli (GPa) = 92.01730 132.89630 77.84152
#
# Poissons Ratio (x) = 0.25923 0.11569
# Poissons Ratio (y) = 0.17949 0.18307
# Poissons Ratio (z) = 0.13676 0.31255
#
# Static dielectric constant tensor:
#      x y z
#    x 1.998490 0.007420 0.056170 
#    y 0.007420 1.987020 -0.035200 
#    z 0.056170 -0.035200 2.032670 
# 
# From -- ./inp_files/153735.got.cif
#   From: 2010.05.17/outbox.cif.g08.bks.cpg/sg2_77_cif.got.tgz:153735.got - 2010.06.03 11:33:40.
