data_PCOD9044438
_publ_section_title
;
Structure prediction by ZEFSAII (Michael W. Deem and Ramdas Pophale) SiO2 
 PCOD9044438
Probable space group: P -1
;
_chemical_formula_sum "Si O2"
_cell_formula_units_Z 16
_cell_length_a 11.779465
_cell_length_b 8.875128
_cell_length_c 13.996309
_cell_angle_alpha 111.217659
_cell_angle_beta 131.404802
_cell_angle_gamma 41.092104
_cell_volume 693.142389
_symmetry_space_group_name_H-M "P -1"
_symmetry_group_IT_number 2
_symmetry_cell_setting 'triclinic'
loop_
_space_group_symop_operation_xyz
x,y,z
-x,-y,-z
loop_
_atom_site_type_symbol
_atom_site_label
_atom_site_fract_x
_atom_site_fract_y
_atom_site_fract_z
Si Si1 0.518239 0.254276 0.927522
Si Si2 0.465515 0.476397 0.687118
Si Si3 0.249615 0.644471 0.016292
Si Si4 0.069063 0.261972 0.999174
Si Si5 0.753719 0.417720 0.687231
Si Si6 0.058101 0.582919 0.634069
Si Si7 0.319917 0.280346 0.445512
Si Si8 0.970306 0.054397 0.384569
O O1 0.701659 0.255941 0.014024
O O2 0.312076 0.409147 0.772213
O O3 0.398013 0.383487 0.991681
O O4 0.671669 0.977939 0.931669
O O5 0.669878 0.315382 0.837099
O O6 0.541288 0.502510 0.637968
O O7 0.362565 0.388191 0.573701
O O8 0.296661 0.718550 0.710576
O O9 0.023017 0.741491 0.952884
O O10 0.924542 0.302987 0.842369
O O11 0.000000 0.500000 0.000000
O O12 0.677938 0.634232 0.636077
O O13 0.895297 0.192057 0.645772
O O14 0.961613 0.829409 0.599260
O O15 0.000000 0.500000 0.500000
O O16 0.917852 0.619334 0.651407
O O17 0.500000 0.000000 0.500000
O O18 0.000000 0.000000 0.500000
#
# Coordination Sequence:
#
# PCOD9044438 Si02
#       8
#     2   2   2   2   2   2   2   2
#     4  11  24  48  74 101 146 183 244 294 355 431
#     4  11  22  46  70 103 140 186 240 289 357 431
#     4  10  23  46  75 102 132 193 241 292 349 427
#     4  11  27  47  69 106 146 188 240 296 361 424
#     4  11  26  46  71 105 141 190 247 290 357 433
#     4  12  25  46  70 111 142 181 233 298 369 420
#     4  12  26  45  70 104 149 188 234 303 363 419
#     4  12  23  44  74  99 143 182 237 286 355 431
#
# _framework density 23.083279000000001
#
# number of rings (size 3 to 8) (size 9 to 14) (size 15 to 20)
#    0.000    0.750    3.750    2.250    5.250    2.500 
#    6.750    0.000    0.000    0.000    0.000    0.000 
#    0.000    0.000    0.000    0.000    0.000    0.000 
#
# Total GULP energy -89198.413005 kJ/mol
# GULP energy per Si atom -5574.900813 kJ/mol
# Density = 2.303074 g / cm^3
# Si number density = 23.083279 Si / 1000 Ang^3
#
#
#
# Elastic Constant Matrix: (Units=GPa)
#
#
# Indices 1 2 3 4 5 6 
#
# 1 143.0316 56.3095 24.1372 1.4324 -1.8237 -3.9930
# 2 56.3095 134.4623 33.5654 -17.3100 -3.1742 -5.1228
# 3 24.1372 33.5654 89.0875 -0.4653 -2.0606 -2.1923
# 4 1.4324 -17.3100 -0.4653 26.6496 -6.4988 -12.7215
# 5 -1.8237 -3.1742 -2.0606 -6.4988 27.5742 -0.0673
# 6 -3.9930 -5.1228 -2.1923 -12.7215 -0.0673 34.8003
#
#
#
# Elastic Compliance Matrix: (Units=1/GPa)
#
#
# Indices 1 2 3 4 5 6 
#
# 1 0.008703 -0.003950 -0.000933 -0.003734 -0.000831 -0.001008
# 2 -0.003950 0.011515 -0.003008 0.010875 0.003415 0.005034
# 3 -0.000933 -0.003008 0.012593 -0.001872 0.000091 -0.000441
# 4 -0.003734 0.010875 -0.001872 0.059240 0.014882 0.022739
# 5 -0.000831 0.003415 0.000091 0.014882 0.040133 0.005931
# 6 -0.001008 0.005034 -0.000441 0.022739 0.005931 0.037657
#
#
# Mechanical properties :
#
#
# Convention : Reuss Voigt Hill
#
# Bulk Modulus (GPa) = 58.73211 66.06728 62.39970
# Shear Modulus (GPa) = 26.13717 34.64276 30.38996
#
# Velocity S-wave (km/s) = 3.36862 3.87818 3.63235
# Velocity P-wave (km/s) = 6.37408 6.98120 6.68454
#
# Compressibility (1/GPa) = 0.01702646
#
# Stress axis : x y z
#
# Youngs Moduli (GPa) = 114.90614 86.84545 79.41126
#
# Poissons Ratio (x) = 0.34307 0.07410
# Poissons Ratio (y) = 0.45392 0.23890
# Poissons Ratio (z) = 0.10722 0.26127
#
# Static dielectric constant tensor:
#      x y z
#    x 1.924650 -0.032250 0.034770 
#    y -0.032250 1.867820 -0.009770 
#    z 0.034770 -0.009770 1.910220 
# 
# From -- ./inp_files/515983.got.cif
#   From: 2010.05.17/outbox.cif.g08.bks.cpg/sg2_258_cif.got.tgz:515983.got - 2010.06.03 11:33:40.
