data_PCOD9044782
_publ_section_title
;
Structure prediction by ZEFSAII (Michael W. Deem and Ramdas Pophale) SiO2 
 PCOD9044782
Probable space group: P -1
;
_chemical_formula_sum "Si O2"
_cell_formula_units_Z 10
_cell_length_a 9.498746
_cell_length_b 9.925034
_cell_length_c 6.981118
_cell_angle_alpha 127.116965
_cell_angle_beta 87.828243
_cell_angle_gamma 56.413977
_cell_volume 362.340883
_symmetry_space_group_name_H-M "P -1"
_symmetry_group_IT_number 2
_symmetry_cell_setting 'triclinic'
loop_
_space_group_symop_operation_xyz
x,y,z
-x,-y,-z
loop_
_atom_site_type_symbol
_atom_site_label
_atom_site_fract_x
_atom_site_fract_y
_atom_site_fract_z
Si Si1 0.551411 0.803463 0.184194
Si Si2 0.913752 0.705790 0.957988
Si Si3 0.772734 0.434698 0.410909
Si Si4 0.900138 0.268046 0.692264
Si Si5 0.690801 0.143588 0.066049
O O1 0.731427 0.731776 0.985031
O O2 0.500000 0.000000 0.500000
O O3 0.670199 0.525808 0.995360
O O4 0.351200 0.920498 0.181467
O O5 0.965687 0.714645 0.178470
O O6 0.827830 0.936691 0.039611
O O7 0.125016 0.500140 0.654909
O O8 0.885244 0.296508 0.487364
O O9 0.767179 0.267300 0.143781
O O10 0.536070 0.664069 0.666532
O O11 0.000000 0.000000 0.500000
#
# Coordination Sequence:
#
# PCOD9044782 Si02
#       5
#     2   2   2   2   2
#     4  11  28  49  73 116 158 193 249 315 386 443
#     4  12  25  45  79 109 150 200 246 319 375 442
#     4  10  24  47  76 112 147 195 263 304 371 451
#     4  11  25  48  78 109 147 202 252 307 370 450
#     4  10  23  47  73 109 150 198 248 311 373 448
#
# _framework density 27.598323000000001
#
# number of rings (size 3 to 8) (size 9 to 14) (size 15 to 20)
#    0.000    1.200    2.000    1.800    5.600    3.200 
#    0.000    4.000    0.000    0.000    0.000    0.000 
#    0.000    0.000    0.000    0.000    0.000    0.000 
#
# Total GULP energy -55976.694893 kJ/mol
# GULP energy per Si atom -5597.669489 kJ/mol
# Density = 2.753551 g / cm^3
# Si number density = 27.598323 Si / 1000 Ang^3
#
#
#
# Elastic Constant Matrix: (Units=GPa)
#
#
# Indices 1 2 3 4 5 6 
#
# 1 158.9036 41.1582 48.4980 -10.4839 7.6538 -18.5449
# 2 41.1582 116.3545 54.8864 -12.6098 1.4624 -18.6789
# 3 48.4980 54.8864 168.5599 -6.9852 21.2411 -1.3029
# 4 -10.4839 -12.6098 -6.9852 46.6120 -7.0058 9.8986
# 5 7.6538 1.4624 21.2411 -7.0058 59.1472 -9.9162
# 6 -18.5449 -18.6789 -1.3029 9.8986 -9.9162 55.3478
#
#
#
# Elastic Compliance Matrix: (Units=1/GPa)
#
#
# Indices 1 2 3 4 5 6 
#
# 1 0.007429 -0.001504 -0.001612 0.000638 0.000038 0.001836
# 2 -0.001504 0.011451 -0.003436 0.001833 0.001915 0.003295
# 3 -0.001612 -0.003436 0.007857 -0.000121 -0.002879 -0.002009
# 4 0.000638 0.001833 -0.000121 0.023015 0.002155 -0.002900
# 5 0.000038 0.001915 -0.002879 0.002155 0.018741 0.003564
# 6 0.001836 0.003295 -0.002009 -0.002900 0.003564 0.020905
#
#
# Mechanical properties :
#
#
# Convention : Reuss Voigt Hill
#
# Bulk Modulus (GPa) = 73.34656 81.43367 77.39012
# Shear Modulus (GPa) = 46.70877 52.17309 49.44093
#
# Velocity S-wave (km/s) = 4.11840 4.35264 4.23714
# Velocity P-wave (km/s) = 7.01777 7.40483 7.21390
#
# Compressibility (1/GPa) = 0.01363390
#
# Stress axis : x y z
#
# Youngs Moduli (GPa) = 134.60285 87.33166 127.26811
#
# Poissons Ratio (x) = 0.13135 0.20515
# Poissons Ratio (y) = 0.20245 0.43725
# Poissons Ratio (z) = 0.21697 0.30004
#
# Static dielectric constant tensor:
#      x y z
#    x 2.106010 0.003610 -0.064850 
#    y 0.003610 2.168500 0.039740 
#    z -0.064850 0.039740 2.332110 
# 
# From -- ./inp_files/173613.got.cif
#   From: 2010.05.17/outbox.cif.g08.bks.cpg/sg2_87_cif.got.tgz:173613.got - 2010.06.03 11:33:40.
