data_PCOD9044399
_publ_section_title
;
Structure prediction by ZEFSAII (Michael W. Deem and Ramdas Pophale) SiO2 
 PCOD9044399
Probable space group: P -1
;
_chemical_formula_sum "Si O2"
_cell_formula_units_Z 15
_cell_length_a 9.145391
_cell_length_b 10.331669
_cell_length_c 8.247381
_cell_angle_alpha 73.570455
_cell_angle_beta 126.820400
_cell_angle_gamma 96.426651
_cell_volume 596.664732
_symmetry_space_group_name_H-M "P -1"
_symmetry_group_IT_number 2
_symmetry_cell_setting 'triclinic'
loop_
_space_group_symop_operation_xyz
x,y,z
-x,-y,-z
loop_
_atom_site_type_symbol
_atom_site_label
_atom_site_fract_x
_atom_site_fract_y
_atom_site_fract_z
Si Si1 0.146337 0.556102 0.699604
Si Si2 0.980729 0.938334 0.188811
Si Si3 0.058767 0.201289 0.312628
Si Si4 0.344249 0.766835 0.613107
Si Si5 0.500000 0.500000 0.500000
Si Si6 0.583258 0.928974 0.923966
Si Si7 0.473230 0.199945 0.602520
Si Si8 0.825398 0.592823 0.908248
O O1 0.304626 0.611743 0.672785
O O2 0.000000 0.500000 0.500000
O O3 0.056947 0.688694 0.692235
O O4 0.210871 0.446770 0.917165
O O5 0.156842 0.841787 0.394567
O O6 0.790586 0.868023 0.099249
O O7 0.970484 0.062689 0.266987
O O8 0.000000 0.000000 0.000000
O O9 0.265826 0.179091 0.525851
O O10 0.104093 0.262792 0.143586
O O11 0.434259 0.828814 0.805897
O O12 0.498089 0.786888 0.575652
O O13 0.539104 0.341511 0.660156
O O14 0.670578 0.553450 0.694295
O O15 0.589211 0.059874 0.765660
O O16 0.500000 0.000000 0.000000
O O17 0.000000 0.500000 0.000000
#
# Coordination Sequence:
#
# PCOD9044399 Si02
#       8
#     2   2   2   2   1   2   2   2
#     4  11  27  45  73 108 148 195 243 304 368 433
#     4  12  25  44  79 106 139 195 240 294 365 431
#     4  10  23  46  74 101 142 189 244 296 360 437
#     4  12  27  48  69 106 151 180 242 302 357 433
#     4  10  24  42  74 100 132 190 240 290 354 424
#     4  12  27  44  73 106 142 190 238 295 361 426
#     4  11  24  46  72 100 147 184 240 292 363 428
#     4   9  22  43  71  97 138 183 244 287 360 421
#
# _framework density 25.139745999999999
#
# number of rings (size 3 to 8) (size 9 to 14) (size 15 to 20)
#    0.000    1.067    2.667    2.000   14.933    1.067 
#    0.000    2.667    0.000    0.000    0.000    0.000 
#    0.000    0.000    0.000    0.000    0.000    0.000 
#
# Total GULP energy -83638.916246 kJ/mol
# GULP energy per Si atom -5575.927750 kJ/mol
# Density = 2.508253 g / cm^3
# Si number density = 25.139746 Si / 1000 Ang^3
#
#
#
# Elastic Constant Matrix: (Units=GPa)
#
#
# Indices 1 2 3 4 5 6 
#
# 1 61.1399 -16.6808 22.3450 7.5431 3.9220 7.3865
# 2 -16.6808 101.8183 15.2760 14.9752 6.4278 12.0960
# 3 22.3450 15.2760 87.8166 12.3493 13.6453 14.7883
# 4 7.5431 14.9752 12.3493 35.3696 1.6704 0.4555
# 5 3.9220 6.4278 13.6453 1.6704 51.5239 -9.5333
# 6 7.3865 12.0960 14.7883 0.4555 -9.5333 38.3847
#
#
#
# Elastic Compliance Matrix: (Units=1/GPa)
#
#
# Indices 1 2 3 4 5 6 
#
# 1 0.020742 0.005434 -0.004528 -0.005008 -0.001695 -0.004321
# 2 0.005434 0.012515 -0.001578 -0.005737 -0.002274 -0.004878
# 3 -0.004528 -0.001578 0.014845 -0.003278 -0.004278 -0.005374
# 4 -0.005008 -0.005737 -0.003278 0.032784 0.001652 0.004056
# 5 -0.001695 -0.002274 -0.004278 0.001652 0.022425 0.008241
# 6 -0.004321 -0.004878 -0.005374 0.004056 0.008241 0.032490
#
#
# Mechanical properties :
#
#
# Convention : Reuss Voigt Hill
#
# Bulk Modulus (GPa) = 21.38669 32.51725 26.95197
# Shear Modulus (GPa) = 32.73736 40.37794 36.55765
#
# Velocity S-wave (km/s) = 3.61254 4.01201 3.81750
# Velocity P-wave (km/s) = 5.09177 5.86723 5.49320
#
# Compressibility (1/GPa) = 0.04675806
#
# Stress axis : x y z
#
# Youngs Moduli (GPa) = 48.21141 79.90224 67.36408
#
# Poissons Ratio (x) = -0.43421 0.30502
# Poissons Ratio (y) = -0.26200 0.10633
# Poissons Ratio (z) = 0.21830 0.12612
#
# Static dielectric constant tensor:
#      x y z
#    x 2.022880 -0.030950 -0.046290 
#    y -0.030950 1.988090 -0.070770 
#    z -0.046290 -0.070770 2.044500 
# 
# From -- ./inp_files/176961.got.cif
#   From: 2010.05.17/outbox.cif.g08.bks.cpg/sg2_89_cif.got.tgz:176961.got - 2010.06.03 11:33:40.
