data_PCOD9044270
_publ_section_title
;
Structure prediction by ZEFSAII (Michael W. Deem and Ramdas Pophale) SiO2 
 PCOD9044270
Probable space group: P -1
;
_chemical_formula_sum "Si O2"
_cell_formula_units_Z 12
_cell_length_a 14.813266
_cell_length_b 20.135610
_cell_length_c 4.805638
_cell_angle_alpha 92.687692
_cell_angle_beta 74.801143
_cell_angle_gamma 154.835615
_cell_volume 521.037790
_symmetry_space_group_name_H-M "P -1"
_symmetry_group_IT_number 2
_symmetry_cell_setting 'triclinic'
loop_
_space_group_symop_operation_xyz
x,y,z
-x,-y,-z
loop_
_atom_site_type_symbol
_atom_site_label
_atom_site_fract_x
_atom_site_fract_y
_atom_site_fract_z
Si Si1 0.739072 0.986926 0.730497
Si Si2 0.449420 0.905654 0.726803
Si Si3 0.269029 0.353953 0.446558
Si Si4 0.747273 0.293403 0.658049
Si Si5 0.248431 0.145380 0.505416
Si Si6 0.557643 0.651977 0.075044
O O1 0.703288 0.033578 0.614135
O O2 0.746324 0.930139 0.502009
O O3 0.489638 0.818338 0.079738
O O4 0.993200 0.157104 0.732474
O O5 0.289520 0.751492 0.635958
O O6 0.500000 0.000000 0.500000
O O7 0.298617 0.802216 0.121636
O O8 0.291707 0.214159 0.768535
O O9 0.301124 0.450733 0.339947
O O10 0.309780 0.325786 0.165494
O O11 0.000000 0.500000 0.500000
O O12 0.462554 0.310595 0.154236
O O13 0.000000 0.000000 0.500000
O O14 0.500000 0.500000 0.500000
#
# Coordination Sequence:
#
# PCOD9044270 Si02
#       6
#     2   2   2   2   2   2
#     4  10  26  40  74 102 141 185 240 280 363 420
#     4  10  23  46  72 103 137 180 236 299 359 420
#     4  11  22  45  64 101 144 192 233 288 335 417
#     4  10  23  46  73 102 140 181 229 304 361 418
#     4  12  23  41  63  99 138 186 230 282 340 421
#     4  11  24  39  64  91 143 185 229 281 340 402
#
# _framework density 23.03096
#
# number of rings (size 3 to 8) (size 9 to 14) (size 15 to 20)
#    1.000    0.333    3.333    1.500    2.333    2.667 
#    3.000    0.000    0.000    0.000    0.000    0.000 
#    0.000    0.000    0.000    0.000    0.000    0.000 
#
# Total GULP energy -66820.419947 kJ/mol
# GULP energy per Si atom -5568.368329 kJ/mol
# Density = 2.297854 g / cm^3
# Si number density = 23.030960 Si / 1000 Ang^3
#
#
#
# Elastic Constant Matrix: (Units=GPa)
#
#
# Indices 1 2 3 4 5 6 
#
# 1 83.7186 32.1597 27.8648 -5.7508 13.2978 -6.2372
# 2 32.1597 161.9001 55.3652 2.7497 -18.9228 1.0402
# 3 27.8648 55.3652 105.0493 -5.2233 9.4914 7.5501
# 4 -5.7508 2.7497 -5.2233 58.1868 -0.3463 -2.7640
# 5 13.2978 -18.9228 9.4914 -0.3463 28.5412 -0.2045
# 6 -6.2372 1.0402 7.5501 -2.7640 -0.2045 27.1071
#
#
#
# Elastic Compliance Matrix: (Units=1/GPa)
#
#
# Indices 1 2 3 4 5 6 
#
# 1 0.015832 -0.003729 -0.001623 0.001747 -0.009257 0.004346
# 2 -0.003729 0.009884 -0.005197 -0.001235 0.010005 0.000160
# 3 -0.001623 -0.005197 0.013680 0.001083 -0.007254 -0.003929
# 4 0.001747 -0.001235 0.001083 0.017595 -0.001766 0.001928
# 5 -0.009257 0.010005 -0.007254 -0.001766 0.048372 -0.000309
# 6 0.004346 0.000160 -0.003929 0.001928 -0.000309 0.039173
#
#
# Mechanical properties :
#
#
# Convention : Reuss Voigt Hill
#
# Bulk Modulus (GPa) = 54.65209 64.60527 59.62868
# Shear Modulus (GPa) = 29.11483 38.45225 33.78354
#
# Velocity S-wave (km/s) = 3.55936 4.09049 3.83414
# Velocity P-wave (km/s) = 6.37757 7.10084 6.74890
#
# Compressibility (1/GPa) = 0.01829756
#
# Stress axis : x y z
#
# Youngs Moduli (GPa) = 63.16462 101.17460 73.09684
#
# Poissons Ratio (x) = 0.37730 0.11865
# Poissons Ratio (y) = 0.23555 0.37988
# Poissons Ratio (z) = 0.10253 0.52579
#
# Static dielectric constant tensor:
#      x y z
#    x 1.952560 -0.005650 0.047900 
#    y -0.005650 1.843800 -0.033990 
#    z 0.047900 -0.033990 1.977750 
# 
# From -- ./inp_files/100357.got.cif
#   From: 2010.05.17/outbox.cif.g08.bks.cpg/sg2_51_cif.got.tgz:100357.got - 2010.06.03 11:33:40.
