data_PCOD9044003
_publ_section_title
;
Structure prediction by ZEFSAII (Michael W. Deem and Ramdas Pophale) SiO2 
 PCOD9044003
Probable space group: P -1
;
_chemical_formula_sum "Si O2"
_cell_formula_units_Z 14
_cell_length_a 14.426118
_cell_length_b 9.127779
_cell_length_c 11.408697
_cell_angle_alpha 132.148522
_cell_angle_beta 30.504941
_cell_angle_gamma 136.758417
_cell_volume 518.335347
_symmetry_space_group_name_H-M "P -1"
_symmetry_group_IT_number 2
_symmetry_cell_setting 'triclinic'
loop_
_space_group_symop_operation_xyz
x,y,z
-x,-y,-z
loop_
_atom_site_type_symbol
_atom_site_label
_atom_site_fract_x
_atom_site_fract_y
_atom_site_fract_z
Si Si1 0.133798 0.721500 0.534953
Si Si2 0.059037 0.332548 0.724300
Si Si3 0.351263 0.461787 0.272759
Si Si4 0.744742 0.952343 0.993931
Si Si5 0.726994 0.495491 0.186768
Si Si6 0.234262 0.241691 0.918504
Si Si7 0.441134 0.056039 0.223733
O O1 0.290581 0.657388 0.404475
O O2 0.000000 0.500000 0.500000
O O3 0.979203 0.775442 0.811924
O O4 0.232599 0.892895 0.415124
O O5 0.190458 0.321595 0.468029
O O6 0.205843 0.492281 0.745603
O O7 0.947215 0.114514 0.801304
O O8 0.891960 0.416643 0.907872
O O9 0.316149 0.292137 0.115564
O O10 0.570990 0.551140 0.137570
O O11 0.743749 0.950800 0.134976
O O12 0.586609 0.022334 0.142688
O O13 0.509403 0.312283 0.300021
O O14 0.753637 0.715564 0.210048
O O15 0.500000 0.000000 0.000000
#
# Coordination Sequence:
#
# PCOD9044003 Si02
#       7
#     2   2   2   2   2   2   2
#     4  12  23  40  68 102 138 174 213 277 345 386
#     4  10  24  44  68  97 135 183 223 274 329 401
#     4  12  23  42  69 101 138 171 221 282 329 395
#     4  11  23  39  67 103 133 167 229 276 330 393
#     4  10  23  46  68  96 137 180 226 268 337 400
#     4  12  24  41  69 100 137 174 222 279 332 397
#     4  11  24  42  70 101 135 175 221 276 334 401
#
# _framework density 27.009543000000001
#
# number of rings (size 3 to 8) (size 9 to 14) (size 15 to 20)
#    0.000    0.857    4.286    3.429    2.000    3.429 
#    0.000    2.143    0.000    0.000    0.000    0.000 
#    0.000    0.000    0.000    0.000    0.000    0.000 
#
# Total GULP energy -78373.733430 kJ/mol
# GULP energy per Si atom -5598.123816 kJ/mol
# Density = 2.694807 g / cm^3
# Si number density = 27.009543 Si / 1000 Ang^3
#
#
#
# Elastic Constant Matrix: (Units=GPa)
#
#
# Indices 1 2 3 4 5 6 
#
# 1 112.5759 37.6512 24.9663 -13.5321 -1.8767 -20.5343
# 2 37.6512 98.6041 25.0531 -42.6048 -2.7033 -9.2273
# 3 24.9663 25.0531 104.9266 -27.8802 -9.0694 -6.4608
# 4 -13.5321 -42.6048 -27.8802 52.5543 -15.8967 0.6715
# 5 -1.8767 -2.7033 -9.0694 -15.8967 44.5284 -5.8166
# 6 -20.5343 -9.2273 -6.4608 0.6715 -5.8166 61.9731
#
#
#
# Elastic Compliance Matrix: (Units=1/GPa)
#
#
# Indices 1 2 3 4 5 6 
#
# 1 0.011021 -0.004255 -0.001965 -0.001836 -0.000485 0.002788
# 2 -0.004255 0.019637 0.002076 0.018409 0.008309 0.002311
# 3 -0.001965 0.002076 0.012759 0.009848 0.006350 0.001478
# 4 -0.001836 0.018409 0.009848 0.044556 0.019542 0.004510
# 5 -0.000485 0.008309 0.006350 0.019542 0.031801 0.004511
# 6 0.002788 0.002311 0.001478 0.004510 0.004511 0.017932
#
#
# Mechanical properties :
#
#
# Convention : Reuss Voigt Hill
#
# Bulk Modulus (GPa) = 28.46639 54.60530 41.53584
# Shear Modulus (GPa) = 31.70475 47.04023 39.37249
#
# Velocity S-wave (km/s) = 3.42984 4.17779 3.82216
# Velocity P-wave (km/s) = 5.12322 6.59794 5.90679
#
# Compressibility (1/GPa) = 0.03512915
#
# Stress axis : x y z
#
# Youngs Moduli (GPa) = 90.73218 50.92379 78.37719
#
# Poissons Ratio (x) = 0.21669 0.15399
# Poissons Ratio (y) = 0.38608 -0.16269
# Poissons Ratio (z) = 0.17826 -0.10571
#
# Static dielectric constant tensor:
#      x y z
#    x 2.093020 -0.026460 -0.060690 
#    y -0.026460 2.200630 0.012480 
#    z -0.060690 0.012480 2.183290 
# 
# From -- ./inp_files/186496.got.cif
#   From: 2010.05.17/outbox.cif.g08.bks.cpg/sg2_94_cif.got.tgz:186496.got - 2010.06.03 11:33:40.
