data_PCOD9044740
_publ_section_title
;
Structure prediction by ZEFSAII (Michael W. Deem and Ramdas Pophale) SiO2 
 PCOD9044740
Probable space group: P -1
;
_chemical_formula_sum "Si O2"
_cell_formula_units_Z 16
_cell_length_a 5.688180
_cell_length_b 5.712399
_cell_length_c 20.864225
_cell_angle_alpha 83.940424
_cell_angle_beta 93.992569
_cell_angle_gamma 101.646581
_cell_volume 659.463657
_symmetry_space_group_name_H-M "P -1"
_symmetry_group_IT_number 2
_symmetry_cell_setting 'triclinic'
loop_
_space_group_symop_operation_xyz
x,y,z
-x,-y,-z
loop_
_atom_site_type_symbol
_atom_site_label
_atom_site_fract_x
_atom_site_fract_y
_atom_site_fract_z
Si Si1 0.447217 0.226330 0.533512
Si Si2 0.983420 0.586263 0.070365
Si Si3 0.926424 0.071112 0.390567
Si Si4 0.416416 0.747567 0.705337
Si Si5 0.818161 0.156788 0.172412
Si Si6 0.909170 0.121348 0.729215
Si Si7 0.475214 0.142016 0.929730
Si Si8 0.715009 0.472845 0.647704
O O1 0.500000 0.500000 0.500000
O O2 0.616040 0.272800 0.598982
O O3 0.500000 0.000000 0.500000
O O4 0.170421 0.131694 0.553571
O O5 0.957509 0.365476 0.124908
O O6 0.745071 0.709273 0.069378
O O7 0.251844 0.732007 0.083454
O O8 0.000000 0.500000 0.000000
O O9 0.707851 0.201092 0.365439
O O10 0.160010 0.282617 0.393772
O O11 0.948579 0.948561 0.326956
O O12 0.266609 0.732527 0.767707
O O13 0.513134 0.515079 0.692195
O O14 0.644920 0.957072 0.720788
O O15 0.604551 0.028477 0.127165
O O16 0.969500 0.958254 0.203488
O O17 0.899246 0.391258 0.703083
O O18 0.500000 0.000000 0.000000
#
# Coordination Sequence:
#
# PCOD9044740 Si02
#       8
#     2   2   2   2   2   2   2   2
#     4  12  28  48  77 116 156 209 268 326 399 506
#     4  12  28  50  80 111 160 215 264 336 415 494
#     4  10  24  47  72 104 149 203 250 326 404 465
#     4  10  23  47  72 106 153 198 254 333 395 481
#     4  11  28  47  73 117 155 195 275 318 411 498
#     4  10  24  45  74 106 148 200 255 332 395 481
#     4  12  28  49  81 111 157 213 266 334 411 491
#     4  11  25  47  79 105 154 202 263 325 418 462
#
# _framework density 24.262138
#
# number of rings (size 3 to 8) (size 9 to 14) (size 15 to 20)
#    0.000    1.000    2.500    1.500    8.750    5.000 
#    0.000    0.000    0.000    0.000    0.000    0.000 
#    0.000    0.000    0.000    0.000    0.000    0.000 
#
# Total GULP energy -89349.706649 kJ/mol
# GULP energy per Si atom -5584.356666 kJ/mol
# Density = 2.420692 g / cm^3
# Si number density = 24.262138 Si / 1000 Ang^3
#
#
#
# Elastic Constant Matrix: (Units=GPa)
#
#
# Indices 1 2 3 4 5 6 
#
# 1 97.5871 52.5045 45.8588 -2.9140 2.9721 16.3632
# 2 52.5045 122.4538 72.5084 -0.7569 -1.0083 11.6525
# 3 45.8588 72.5084 146.6744 -9.2083 -1.9540 5.9687
# 4 -2.9140 -0.7569 -9.2083 55.2305 6.4011 5.8512
# 5 2.9721 -1.0083 -1.9540 6.4011 44.6298 1.4261
# 6 16.3632 11.6525 5.9687 5.8512 1.4261 51.1731
#
#
#
# Elastic Compliance Matrix: (Units=1/GPa)
#
#
# Indices 1 2 3 4 5 6 
#
# 1 0.014305 -0.004628 -0.002010 0.000845 -0.001159 -0.003350
# 2 -0.004628 0.013266 -0.005125 -0.000888 0.000538 -0.000856
# 3 -0.002010 -0.005125 0.010053 0.001423 0.000239 0.000468
# 4 0.000845 -0.000888 0.001423 0.018929 -0.002655 -0.002324
# 5 -0.001159 0.000538 0.000239 -0.002655 0.022891 -0.000114
# 6 -0.003350 -0.000856 0.000468 -0.002324 -0.000114 0.021022
#
#
# Mechanical properties :
#
#
# Convention : Reuss Voigt Hill
#
# Bulk Modulus (GPa) = 70.93909 78.71763 74.82836
# Shear Modulus (GPa) = 38.85263 43.26291 41.05777
#
# Velocity S-wave (km/s) = 4.00605 4.22731 4.11817
# Velocity P-wave (km/s) = 7.12039 7.50613 7.31580
#
# Compressibility (1/GPa) = 0.01409660
#
# Stress axis : x y z
#
# Youngs Moduli (GPa) = 69.90800 75.38226 99.47141
#
# Poissons Ratio (x) = 0.34891 0.19997
# Poissons Ratio (y) = 0.32357 0.50974
# Poissons Ratio (z) = 0.14054 0.38630
#
# Static dielectric constant tensor:
#      x y z
#    x 2.044040 -0.036210 0.047050 
#    y -0.036210 1.999420 -0.041490 
#    z 0.047050 -0.041490 1.904180 
# 
# From -- ./inp_files/581041.got.cif
#   From: 2010.05.17/outbox.cif.g08.bks.cpg/sg2_291_cif.got.tgz:581041.got - 2010.06.03 11:33:40.
