data_PCOD9044325
_publ_section_title
;
Structure prediction by ZEFSAII (Michael W. Deem and Ramdas Pophale) SiO2 
 PCOD9044325
Probable space group: P -1
;
_chemical_formula_sum "Si O2"
_cell_formula_units_Z 13
_cell_length_a 11.461355
_cell_length_b 10.162859
_cell_length_c 8.364848
_cell_angle_alpha 111.905091
_cell_angle_beta 142.366528
_cell_angle_gamma 84.388227
_cell_volume 517.299647
_symmetry_space_group_name_H-M "P -1"
_symmetry_group_IT_number 2
_symmetry_cell_setting 'triclinic'
loop_
_space_group_symop_operation_xyz
x,y,z
-x,-y,-z
loop_
_atom_site_type_symbol
_atom_site_label
_atom_site_fract_x
_atom_site_fract_y
_atom_site_fract_z
Si Si1 0.503590 0.130353 0.440574
Si Si2 0.283566 0.534069 0.158964
Si Si3 0.000000 0.000000 0.500000
Si Si4 0.404172 0.560287 0.668119
Si Si5 0.942482 0.055878 0.132328
Si Si6 0.032142 0.399186 0.346647
Si Si7 0.309199 0.855131 0.679636
O O1 0.558343 0.298755 0.642129
O O2 0.670798 0.150721 0.493410
O O3 0.500000 0.000000 0.500000
O O4 0.271625 0.069687 0.095111
O O5 0.315830 0.513241 0.371014
O O6 0.360815 0.420472 0.089263
O O7 0.066827 0.540455 0.881664
O O8 0.913148 0.939944 0.560188
O O9 0.106485 0.868987 0.538450
O O10 0.361342 0.711409 0.732163
O O11 0.269469 0.435237 0.586224
O O12 0.925668 0.219882 0.165742
O O13 0.000000 0.000000 0.000000
O O14 0.000000 0.500000 0.500000
O O15 0.500000 0.000000 0.000000
#
# Coordination Sequence:
#
# PCOD9044325 Si02
#       7
#     2   2   1   2   2   2   2
#     4  11  21  43  73 101 142 185 247 296 357 433
#     4  10  23  46  73 100 138 190 234 299 355 429
#     4  12  26  46  72 112 146 182 246 308 360 426
#     4  10  24  44  70 103 135 187 240 284 361 435
#     4  12  26  46  75 111 147 195 246 300 370 433
#     4  12  26  45  68 105 149 184 237 298 365 437
#     4  11  24  43  69 102 142 185 235 303 359 424
#
# _framework density 25.130503999999998
#
# number of rings (size 3 to 8) (size 9 to 14) (size 15 to 20)
#    0.000    0.923    3.077    3.231    2.154    3.077 
#    8.308    0.000    0.000    0.000    0.000    0.000 
#    0.000    0.000    0.000    0.000    0.000    0.000 
#
# Total GULP energy -72481.389877 kJ/mol
# GULP energy per Si atom -5575.491529 kJ/mol
# Density = 2.507331 g / cm^3
# Si number density = 25.130504 Si / 1000 Ang^3
#
#
#
# Elastic Constant Matrix: (Units=GPa)
#
#
# Indices 1 2 3 4 5 6 
#
# 1 146.3204 45.3690 11.8977 8.5877 -1.7384 -27.1600
# 2 45.3690 100.9784 10.3027 5.5061 -2.4145 -26.2315
# 3 11.8977 10.3027 29.7107 14.8712 1.6912 -4.9323
# 4 8.5877 5.5061 14.8712 35.2816 6.6222 -4.6372
# 5 -1.7384 -2.4145 1.6912 6.6222 41.5528 -6.3392
# 6 -27.1600 -26.2315 -4.9323 -4.6372 -6.3392 53.6155
#
#
#
# Elastic Compliance Matrix: (Units=1/GPa)
#
#
# Indices 1 2 3 4 5 6 
#
# 1 0.008408 -0.002841 -0.001615 -0.000708 0.000785 0.002753
# 2 -0.002841 0.012698 -0.002655 0.000182 0.001417 0.004713
# 3 -0.001615 -0.002655 0.044240 -0.017944 0.000915 0.000508
# 4 -0.000708 0.000182 -0.017944 0.037098 -0.005096 0.000686
# 5 0.000785 0.001417 0.000915 -0.005096 0.025528 0.003753
# 6 0.002753 0.004713 0.000508 0.000686 0.003753 0.022901
#
#
# Mechanical properties :
#
#
# Convention : Reuss Voigt Hill
#
# Bulk Modulus (GPa) = 19.56045 45.79427 32.67736
# Shear Modulus (GPa) = 27.45171 40.05263 33.75217
#
# Velocity S-wave (km/s) = 3.30868 3.99656 3.66878
# Velocity P-wave (km/s) = 4.73254 6.28957 5.56577
#
# Compressibility (1/GPa) = 0.05112357
#
# Stress axis : x y z
#
# Youngs Moduli (GPa) = 118.93088 78.74957 22.60408
#
# Poissons Ratio (x) = 0.22369 0.03652
# Poissons Ratio (y) = 0.33782 0.06003
# Poissons Ratio (z) = 0.19213 0.20912
#
# Static dielectric constant tensor:
#      x y z
#    x 1.986530 -0.007980 -0.045800 
#    y -0.007980 1.969810 -0.026640 
#    z -0.045800 -0.026640 2.178620 
# 
# From -- ./inp_files/180143.got.cif
#   From: 2010.05.17/outbox.cif.g08.bks.cpg/sg2_91_cif.got.tgz:180143.got - 2010.06.03 11:33:40.
