data_PCOD9044867
_publ_section_title
;
Structure prediction by ZEFSAII (Michael W. Deem and Ramdas Pophale) SiO2 
 PCOD9044867
Probable space group: P -1
;
_chemical_formula_sum "Si O2"
_cell_formula_units_Z 12
_cell_length_a 15.016760
_cell_length_b 8.847659
_cell_length_c 5.480370
_cell_angle_alpha 121.297705
_cell_angle_beta 122.407642
_cell_angle_gamma 64.345081
_cell_volume 513.085663
_symmetry_space_group_name_H-M "P -1"
_symmetry_group_IT_number 2
_symmetry_cell_setting 'triclinic'
loop_
_space_group_symop_operation_xyz
x,y,z
-x,-y,-z
loop_
_atom_site_type_symbol
_atom_site_label
_atom_site_fract_x
_atom_site_fract_y
_atom_site_fract_z
Si Si1 0.971109 0.714638 0.172338
Si Si2 0.361835 0.841865 0.153915
Si Si3 0.432303 0.137464 0.821638
Si Si4 0.374928 0.512549 0.251989
Si Si5 0.900169 0.902596 0.734381
Si Si6 0.204719 0.795971 0.488577
O O1 0.085891 0.778268 0.379465
O O2 0.921485 0.775874 0.417039
O O3 0.000000 0.500000 0.000000
O O4 0.899817 0.797307 0.900525
O O5 0.477738 0.795214 0.148896
O O6 0.355283 0.659330 0.131472
O O7 0.370710 0.018706 0.468359
O O8 0.265966 0.884688 0.856773
O O9 0.362303 0.313673 0.993191
O O10 0.500000 0.000000 0.000000
O O11 0.500000 0.500000 0.500000
O O12 0.285065 0.604366 0.391753
O O13 0.808679 0.073358 0.657175
O O14 0.000000 0.000000 0.000000
#
# Coordination Sequence:
#
# PCOD9044867 Si02
#       6
#     2   2   2   2   2   2
#     4  11  25  50  75 109 145 184 240 313 365 433
#     4  11  24  42  69  97 142 187 243 286 361 419
#     4  11  23  45  67  96 142 190 238 296 352 417
#     4  12  24  44  67 102 145 187 239 296 352 432
#     4  10  23  47  76  99 144 188 236 300 373 430
#     4  11  25  43  71 102 135 195 237 287 370 431
#
# _framework density 23.387906999999998
#
# number of rings (size 3 to 8) (size 9 to 14) (size 15 to 20)
#    0.000    1.000    3.333    3.000    7.000    0.000 
#    9.000    0.000    0.000    0.000    0.000    0.000 
#    0.000    0.000    0.000    0.000    0.000    0.000 
#
# Total GULP energy -67136.238602 kJ/mol
# GULP energy per Si atom -5594.686550 kJ/mol
# Density = 2.333468 g / cm^3
# Si number density = 23.387907 Si / 1000 Ang^3
#
#
#
# Elastic Constant Matrix: (Units=GPa)
#
#
# Indices 1 2 3 4 5 6 
#
# 1 64.0047 14.5903 19.5494 2.0140 -6.9355 -16.2693
# 2 14.5903 162.3289 91.4267 8.6515 -18.2618 -18.6034
# 3 19.5494 91.4267 186.6170 -1.2107 -17.4149 -11.7438
# 4 2.0140 8.6515 -1.2107 55.1199 -14.8944 -8.2932
# 5 -6.9355 -18.2618 -17.4149 -14.8944 34.7371 4.9854
# 6 -16.2693 -18.6034 -11.7438 -8.2932 4.9854 41.9643
#
#
#
# Elastic Compliance Matrix: (Units=1/GPa)
#
#
# Indices 1 2 3 4 5 6 
#
# 1 0.017883 0.000077 -0.001267 0.000948 0.002448 0.006509
# 2 0.000077 0.008998 -0.004065 -0.000555 0.002108 0.002521
# 3 -0.001267 -0.004065 0.007678 0.001396 0.002075 -0.000115
# 4 0.000948 -0.000555 0.001396 0.021254 0.009191 0.003620
# 5 0.002448 0.002108 0.002075 0.009191 0.035354 0.000080
# 6 0.006509 0.002521 -0.000115 0.003620 0.000080 0.028145
#
#
# Mechanical properties :
#
#
# Convention : Reuss Voigt Hill
#
# Bulk Modulus (GPa) = 41.57905 73.78705 57.68305
# Shear Modulus (GPa) = 36.27434 45.52320 40.89877
#
# Velocity S-wave (km/s) = 3.94253 4.41664 4.18630
# Velocity P-wave (km/s) = 6.20817 7.59122 6.93426
#
# Compressibility (1/GPa) = 0.02405057
#
# Stress axis : x y z
#
# Youngs Moduli (GPa) = 55.91818 111.12971 130.24021
#
# Poissons Ratio (x) = -0.00856 0.16501
# Poissons Ratio (y) = -0.00431 0.52940
# Poissons Ratio (z) = 0.07084 0.45172
#
# Static dielectric constant tensor:
#      x y z
#    x 1.899790 -0.029220 -0.035200 
#    y -0.029220 1.886400 -0.002100 
#    z -0.035200 -0.002100 1.862080 
# 
# From -- ./inp_files/40452.got.cif
#   From: 2010.05.17/outbox.cif.g08.bks.cpg/sg2_21_cif.got.tgz:40452.got - 2010.06.03 11:33:40.
