data_PCOD9044527
_publ_section_title
;
Structure prediction by ZEFSAII (Michael W. Deem and Ramdas Pophale) SiO2 
 PCOD9044527
Probable space group: P -1
;
_chemical_formula_sum "Si O2"
_cell_formula_units_Z 16
_cell_length_a 7.871689
_cell_length_b 6.972429
_cell_length_c 16.028702
_cell_angle_alpha 117.904415
_cell_angle_beta 89.789319
_cell_angle_gamma 101.629621
_cell_volume 757.296468
_symmetry_space_group_name_H-M "P -1"
_symmetry_group_IT_number 2
_symmetry_cell_setting 'triclinic'
loop_
_space_group_symop_operation_xyz
x,y,z
-x,-y,-z
loop_
_atom_site_type_symbol
_atom_site_label
_atom_site_fract_x
_atom_site_fract_y
_atom_site_fract_z
Si Si1 0.968659 0.204179 0.096039
Si Si2 0.318979 0.477522 0.447378
Si Si3 0.135126 0.066916 0.794039
Si Si4 0.611977 0.262739 0.658048
Si Si5 0.338432 0.520013 0.124111
Si Si6 0.686086 0.427212 0.055079
Si Si7 0.743794 0.065468 0.401805
Si Si8 0.908214 0.017073 0.633261
O O1 0.150319 0.383065 0.125477
O O2 0.811925 0.301222 0.078071
O O3 0.923406 0.108682 0.168684
O O4 0.000000 0.000000 0.000000
O O5 0.500000 0.500000 0.500000
O O6 0.361017 0.526119 0.359605
O O7 0.239607 0.680570 0.521888
O O8 0.193847 0.238878 0.412990
O O9 0.235241 0.306186 0.877895
O O10 0.245740 0.964253 0.704540
O O11 0.971548 0.097236 0.743560
O O12 0.595658 0.319033 0.766250
O O13 0.436789 0.085702 0.597968
O O14 0.779638 0.158107 0.627019
O O15 0.487848 0.380949 0.079596
O O16 0.317600 0.622251 0.053848
O O17 0.908591 0.969813 0.410691
#
# Coordination Sequence:
#
# PCOD9044527 Si02
#       8
#     2   2   2   2   2   2   2   2
#     4  12  25  41  66  98 134 176 218 272 324 381
#     4  12  25  45  68 102 131 170 223 272 335 398
#     4  10  23  47  63 100 135 173 221 268 327 384
#     4  12  24  45  70  97 131 176 221 270 334 385
#     4  11  24  44  70  97 132 181 219 270 325 389
#     4  11  24  45  66  98 138 175 223 265 326 391
#     4  10  24  46  67  96 136 170 218 279 322 394
#     4  10  24  44  68  95 133 173 217 270 328 391
#
# _framework density 21.127787999999999
#
# number of rings (size 3 to 8) (size 9 to 14) (size 15 to 20)
#    0.750    0.250    3.750    2.625    1.750    2.000 
#    4.500    0.000    0.000    0.000    0.000    0.000 
#    0.000    0.000    0.000    0.000    0.000    0.000 
#
# Total GULP energy -89401.419656 kJ/mol
# GULP energy per Si atom -5587.588728 kJ/mol
# Density = 2.107970 g / cm^3
# Si number density = 21.127788 Si / 1000 Ang^3
#
#
#
# Elastic Constant Matrix: (Units=GPa)
#
#
# Indices 1 2 3 4 5 6 
#
# 1 137.8913 31.6091 18.2913 -27.1976 9.4362 -17.6860
# 2 31.6091 49.0401 16.5148 -16.6213 5.1018 -18.5148
# 3 18.2913 16.5148 104.8284 -12.4975 0.9053 -3.3694
# 4 -27.1976 -16.6213 -12.4975 27.3668 1.4706 5.7054
# 5 9.4362 5.1018 0.9053 1.4706 34.5210 0.8760
# 6 -17.6860 -18.5148 -3.3694 5.7054 0.8760 21.6956
#
#
#
# Elastic Compliance Matrix: (Units=1/GPa)
#
#
# Indices 1 2 3 4 5 6 
#
# 1 0.010064 -0.001461 -0.000379 0.008082 -0.002994 0.004894
# 2 -0.001461 0.038602 -0.003072 0.015202 -0.006572 0.027543
# 3 -0.000379 -0.003072 0.010368 0.002918 0.000215 -0.002097
# 4 0.008082 0.015202 0.002918 0.054257 -0.006997 0.006029
# 5 -0.002994 -0.006572 0.000215 -0.006997 0.031239 -0.007437
# 6 0.004894 0.027543 -0.002097 0.006029 -0.007437 0.071976
#
#
# Mechanical properties :
#
#
# Convention : Reuss Voigt Hill
#
# Bulk Modulus (GPa) = 20.32104 47.17669 33.74886
# Shear Modulus (GPa) = 20.59877 31.73964 26.16920
#
# Velocity S-wave (km/s) = 3.12582 3.88012 3.52321
# Velocity P-wave (km/s) = 4.76096 6.51548 5.70606
#
# Compressibility (1/GPa) = 0.04921009
#
# Stress axis : x y z
#
# Youngs Moduli (GPa) = 99.36538 25.90526 96.44918
#
# Poissons Ratio (x) = 0.03784 0.03658
# Poissons Ratio (y) = 0.14513 0.29631
# Poissons Ratio (z) = 0.03768 0.07959
#
# Static dielectric constant tensor:
#      x y z
#    x 1.809260 0.058880 0.023440 
#    y 0.058880 1.771340 0.021720 
#    z 0.023440 0.021720 1.805180 
# 
# From -- ./inp_files/488673.got.cif
#   From: 2010.05.17/outbox.cif.g08.bks.cpg/sg2_245_cif.got.tgz:488673.got - 2010.06.03 11:33:40.
