data_PCOD9044772
_publ_section_title
;
Structure prediction by ZEFSAII (Michael W. Deem and Ramdas Pophale) SiO2 
 PCOD9044772
Probable space group: P -1
;
_chemical_formula_sum "Si O2"
_cell_formula_units_Z 15
_cell_length_a 22.121613
_cell_length_b 4.968450
_cell_length_c 9.958797
_cell_angle_alpha 109.043886
_cell_angle_beta 142.604153
_cell_angle_gamma 77.997575
_cell_volume 625.860050
_symmetry_space_group_name_H-M "P -1"
_symmetry_group_IT_number 2
_symmetry_cell_setting 'triclinic'
loop_
_space_group_symop_operation_xyz
x,y,z
-x,-y,-z
loop_
_atom_site_type_symbol
_atom_site_label
_atom_site_fract_x
_atom_site_fract_y
_atom_site_fract_z
Si Si1 0.902150 0.169232 0.884373
Si Si2 0.611349 0.720906 0.587599
Si Si3 0.120357 0.789417 0.441299
Si Si4 0.614075 0.366495 0.778424
Si Si5 0.307318 0.210782 0.543840
Si Si6 0.985484 0.654922 0.639447
Si Si7 0.500000 0.000000 0.000000
Si Si8 0.327206 0.773240 0.849139
O O1 0.892685 0.329946 0.752397
O O2 0.798559 0.973055 0.680318
O O3 0.925044 0.335791 0.090898
O O4 0.000000 0.000000 0.000000
O O5 0.656096 0.602600 0.784475
O O6 0.498045 0.573917 0.364724
O O7 0.665261 0.668037 0.536346
O O8 0.606493 0.060503 0.641794
O O9 0.103033 0.530295 0.470447
O O10 0.231145 0.941471 0.678877
O O11 0.042843 0.021735 0.374028
O O12 0.668930 0.314301 0.004024
O O13 0.307947 0.483863 0.683990
O O14 0.397218 0.042646 0.735978
O O15 0.000000 0.500000 0.500000
O O16 0.570382 0.073744 0.001944
#
# Coordination Sequence:
#
# PCOD9044772 Si02
#       8
#     2   2   2   2   2   2   1   2
#     4  10  23  47  73 105 144 191 242 305 375 443
#     4  10  24  42  64  96 137 191 242 302 363 426
#     4  11  24  46  74 109 147 190 241 299 382 442
#     4  10  24  42  65  93 142 188 241 296 366 433
#     4  12  26  45  72 108 147 197 255 310 367 438
#     4  11  25  48  78 110 146 186 245 310 370 444
#     4  12  26  42  72 110 152 186 266 302 374 416
#     4  12  26  43  73 104 150 196 249 306 368 445
#
# _framework density 23.967017999999999
#
# number of rings (size 3 to 8) (size 9 to 14) (size 15 to 20)
#    0.000    1.067    2.667    2.800    3.733    2.133 
#    0.000    4.000    0.000    0.000    0.000    0.000 
#    0.000    0.000    0.000    0.000    0.000    0.000 
#
# Total GULP energy -83690.783516 kJ/mol
# GULP energy per Si atom -5579.385568 kJ/mol
# Density = 2.391247 g / cm^3
# Si number density = 23.967018 Si / 1000 Ang^3
#
#
#
# Elastic Constant Matrix: (Units=GPa)
#
#
# Indices 1 2 3 4 5 6 
#
# 1 89.1629 23.8924 62.9635 -7.5740 -24.6065 15.4014
# 2 23.8924 72.0812 14.8620 -4.5237 -5.2707 12.2369
# 3 62.9635 14.8620 131.0666 -16.6063 -9.0446 -7.7060
# 4 -7.5740 -4.5237 -16.6063 33.8677 2.6092 -14.0516
# 5 -24.6065 -5.2707 -9.0446 2.6092 52.8118 -0.6642
# 6 15.4014 12.2369 -7.7060 -14.0516 -0.6642 28.9630
#
#
#
# Elastic Compliance Matrix: (Units=1/GPa)
#
#
# Indices 1 2 3 4 5 6 
#
# 1 0.029733 -0.002174 -0.016412 -0.013061 0.011152 -0.025340
# 2 -0.002174 0.015952 -0.001387 -0.001914 0.000350 -0.006874
# 3 -0.016412 -0.001387 0.018360 0.014249 -0.005081 0.020995
# 4 -0.013061 -0.001914 0.014249 0.048224 -0.005781 0.034809
# 5 0.011152 0.000350 -0.005081 -0.005781 0.023460 -0.009697
# 6 -0.025340 -0.006874 0.020995 0.034809 -0.009697 0.073157
#
#
# Mechanical properties :
#
#
# Convention : Reuss Voigt Hill
#
# Bulk Modulus (GPa) = 41.49491 55.08294 48.28892
# Shear Modulus (GPa) = 19.46549 35.83469 27.65009
#
# Velocity S-wave (km/s) = 2.85297 3.87093 3.40026
# Velocity P-wave (km/s) = 5.31069 6.55832 5.96720
#
# Compressibility (1/GPa) = 0.02409934
#
# Stress axis : x y z
#
# Youngs Moduli (GPa) = 33.63313 62.68751 54.46532
#
# Poissons Ratio (x) = 0.13627 0.89388
# Poissons Ratio (y) = 0.07311 0.07555
# Poissons Ratio (z) = 0.55198 0.08695
#
# Static dielectric constant tensor:
#      x y z
#    x 1.880210 -0.004070 -0.016400 
#    y -0.004070 1.942480 -0.001470 
#    z -0.016400 -0.001470 1.936660 
# 
# From -- ./inp_files/339915.got.cif
#   From: 2010.05.17/outbox.cif.g08.bks.cpg/sg2_170_cif.got.tgz:339915.got - 2010.06.03 11:33:40.
