data_PCOD9044119
_publ_section_title
;
Structure prediction by ZEFSAII (Michael W. Deem and Ramdas Pophale) SiO2 
 PCOD9044119
Probable space group: P -1
;
_chemical_formula_sum "Si O2"
_cell_formula_units_Z 16
_cell_length_a 28.810083
_cell_length_b 15.523924
_cell_length_c 9.637424
_cell_angle_alpha 132.703881
_cell_angle_beta 152.339758
_cell_angle_gamma 28.647779
_cell_volume 859.002270
_symmetry_space_group_name_H-M "P -1"
_symmetry_group_IT_number 2
_symmetry_cell_setting 'triclinic'
loop_
_space_group_symop_operation_xyz
x,y,z
-x,-y,-z
loop_
_atom_site_type_symbol
_atom_site_label
_atom_site_fract_x
_atom_site_fract_y
_atom_site_fract_z
Si Si1 0.726542 0.636537 0.894033
Si Si2 0.458533 0.967219 0.212452
Si Si3 0.401026 0.776011 0.179098
Si Si4 0.095279 0.701449 0.797501
Si Si5 0.925526 0.754851 0.142453
Si Si6 0.279921 0.890722 0.684785
Si Si7 0.835944 0.579228 0.811061
Si Si8 0.578355 0.439421 0.490096
O O1 0.570802 0.693626 0.519786
O O2 0.821887 0.564890 0.921376
O O3 0.639673 0.842874 0.930971
O O4 0.846113 0.466497 0.140891
O O5 0.646120 0.745138 0.422896
O O6 0.500000 0.000000 0.500000
O O7 0.339431 0.969452 0.925512
O O8 0.446075 0.632476 0.250054
O O9 0.343618 0.782771 0.884681
O O10 0.248068 0.006529 0.076129
O O11 0.041309 0.714009 0.514516
O O12 0.251496 0.642701 0.144211
O O13 0.924874 0.917734 0.651025
O O14 0.027713 0.629830 0.136412
O O15 0.882169 0.670785 0.005768
O O16 0.367648 0.734407 0.625391
O O17 0.500000 0.500000 0.500000
#
# Coordination Sequence:
#
# PCOD9044119 Si02
#       8
#     2   2   2   2   2   2   2   2
#     4  10  18  35  60  89 114 154 186 236 280 349
#     4  10  17  33  63  89 115 143 195 233 279 345
#     4  10  19  40  62  82 111 154 203 232 281 347
#     4  10  23  39  59  84 121 147 194 240 290 336
#     4  10  21  36  58  90 120 155 179 244 290 339
#     4  11  21  39  64  85 111 158 198 235 279 343
#     4  10  19  33  60  90 124 144 196 227 288 351
#     4  11  26  41  58  83 120 153 193 246 294 337
#
# _framework density 18.626262000000001
#
# number of rings (size 3 to 8) (size 9 to 14) (size 15 to 20)
#    0.000    1.750    3.750    3.000    1.750    3.000 
#    0.000    4.375    0.000    0.000    0.000    0.000 
#    0.000    0.000    0.000    0.000    0.000    0.000 
#
# Total GULP energy -89312.289444 kJ/mol
# GULP energy per Si atom -5582.018090 kJ/mol
# Density = 1.858387 g / cm^3
# Si number density = 18.626262 Si / 1000 Ang^3
#
#
#
# Elastic Constant Matrix: (Units=GPa)
#
#
# Indices 1 2 3 4 5 6 
#
# 1 71.1658 32.2428 25.1106 0.0748 13.3317 4.0805
# 2 32.2428 89.3711 31.7249 -1.0559 2.6710 -10.3706
# 3 25.1106 31.7249 67.3441 -13.9280 1.4198 2.0254
# 4 0.0748 -1.0559 -13.9280 20.0236 -0.4342 -0.8044
# 5 13.3317 2.6710 1.4198 -0.4342 14.3090 -9.4230
# 6 4.0805 -10.3706 2.0254 -0.8044 -9.4230 33.3029
#
#
#
# Elastic Compliance Matrix: (Units=1/GPa)
#
#
# Indices 1 2 3 4 5 6 
#
# 1 0.027209 -0.008407 -0.006325 -0.006275 -0.033319 -0.015146
# 2 -0.008407 0.017139 -0.006025 -0.002600 0.011731 0.009990
# 3 -0.006325 -0.006025 0.023273 0.015963 0.004657 -0.000813
# 4 -0.006275 -0.002600 0.015963 0.061230 0.008498 0.002872
# 5 -0.033319 0.011731 0.004657 0.008498 0.127297 0.043676
# 6 -0.015146 0.009990 -0.000813 0.002872 0.043676 0.047471
#
#
# Mechanical properties :
#
#
# Convention : Reuss Voigt Hill
#
# Bulk Modulus (GPa) = 38.30230 45.11529 41.70879
# Shear Modulus (GPa) = 14.13084 22.78063 18.45573
#
# Velocity S-wave (km/s) = 2.75735 3.50099 3.15118
# Velocity P-wave (km/s) = 5.54487 6.37311 5.97336
#
# Compressibility (1/GPa) = 0.02610809
#
# Stress axis : x y z
#
# Youngs Moduli (GPa) = 36.75239 58.34684 42.96772
#
# Poissons Ratio (x) = 0.49052 0.27177
# Poissons Ratio (y) = 0.30898 0.25887
# Poissons Ratio (z) = 0.23246 0.35152
#
# Static dielectric constant tensor:
#      x y z
#    x 1.634820 0.002890 0.006360 
#    y 0.002890 1.659040 -0.015370 
#    z 0.006360 -0.015370 1.644780 
# 
# From -- ./inp_files/277466.got.cif
#   From: 2010.05.17/outbox.cif.g08.bks.cpg/sg2_139_cif.got.tgz:277466.got - 2010.06.03 11:33:40.
