data_PCOD9044787
_publ_section_title
;
Structure prediction by ZEFSAII (Michael W. Deem and Ramdas Pophale) SiO2 
 PCOD9044787
Probable space group: P -1
;
_chemical_formula_sum "Si O2"
_cell_formula_units_Z 10
_cell_length_a 9.596983
_cell_length_b 20.058749
_cell_length_c 8.043858
_cell_angle_alpha 35.594862
_cell_angle_beta 135.060843
_cell_angle_gamma 152.315778
_cell_volume 418.309645
_symmetry_space_group_name_H-M "P -1"
_symmetry_group_IT_number 2
_symmetry_cell_setting 'triclinic'
loop_
_space_group_symop_operation_xyz
x,y,z
-x,-y,-z
loop_
_atom_site_type_symbol
_atom_site_label
_atom_site_fract_x
_atom_site_fract_y
_atom_site_fract_z
Si Si1 0.398019 0.509751 0.724196
Si Si2 0.850299 0.353144 0.431735
Si Si3 0.679443 0.762663 0.909540
Si Si4 0.435134 0.737982 0.094610
Si Si5 0.321280 0.961572 0.090033
O O1 0.555347 0.689701 0.417385
O O2 0.046901 0.396133 0.668459
O O3 0.500000 0.500000 0.000000
O O4 0.419418 0.413767 0.808367
O O5 0.528222 0.270851 0.339527
O O6 0.796712 0.209623 0.582989
O O7 0.087385 0.547448 0.163192
O O8 0.600099 0.794618 0.945176
O O9 0.034306 0.909144 0.893569
O O10 0.490700 0.881631 0.939940
O O11 0.500000 0.000000 0.000000
#
# Coordination Sequence:
#
# PCOD9044787 Si02
#       5
#     2   2   2   2   2
#     4   9  22  40  70 101 135 176 225 277 345 403
#     4   9  24  43  70  98 140 169 238 272 350 391
#     4  11  22  46  71 101 138 179 230 287 336 410
#     4  10  23  47  73  97 140 180 228 283 346 402
#     4  11  26  44  66 104 141 180 230 279 343 413
#
# _framework density 23.905733000000001
#
# number of rings (size 3 to 8) (size 9 to 14) (size 15 to 20)
#    1.200    0.800    0.000    1.800    2.800    6.400 
#    7.200    0.000    0.000    0.000    0.000    0.000 
#    0.000    0.000    0.000    0.000    0.000    0.000 
#
# Total GULP energy -55765.081124 kJ/mol
# GULP energy per Si atom -5576.508112 kJ/mol
# Density = 2.385132 g / cm^3
# Si number density = 23.905733 Si / 1000 Ang^3
#
#
#
# Elastic Constant Matrix: (Units=GPa)
#
#
# Indices 1 2 3 4 5 6 
#
# 1 144.4535 74.4054 26.1215 -5.2415 12.4242 -7.2462
# 2 74.4054 134.1966 63.4480 -5.6409 12.8745 7.2448
# 3 26.1215 63.4480 78.6499 3.2482 24.9257 -2.2130
# 4 -5.2415 -5.6409 3.2482 54.3773 -13.4719 18.2829
# 5 12.4242 12.8745 24.9257 -13.4719 32.1446 -4.9113
# 6 -7.2462 7.2448 -2.2130 18.2829 -4.9113 48.8798
#
#
#
# Elastic Compliance Matrix: (Units=1/GPa)
#
#
# Indices 1 2 3 4 5 6 
#
# 1 0.010675 -0.007913 0.004642 -0.002461 -0.005072 0.003376
# 2 -0.007913 0.019395 -0.016704 0.006906 0.010165 -0.006366
# 3 0.004642 -0.016704 0.033114 -0.011554 -0.024629 0.006510
# 4 -0.002461 0.006906 -0.011554 0.027264 0.016982 -0.010403
# 5 -0.005072 0.010165 -0.024629 0.016982 0.054566 -0.004243
# 6 0.003376 -0.006366 0.006510 -0.010403 -0.004243 0.025662
#
#
# Mechanical properties :
#
#
# Convention : Reuss Voigt Hill
#
# Bulk Modulus (GPa) = 43.03932 76.13887 59.58910
# Shear Modulus (GPa) = 22.89667 39.96867 31.43267
#
# Velocity S-wave (km/s) = 3.09818 4.09336 3.63003
# Velocity P-wave (km/s) = 5.55348 7.36611 6.52306
#
# Compressibility (1/GPa) = 0.02323457
#
# Stress axis : x y z
#
# Youngs Moduli (GPa) = 93.67483 51.55841 30.19835
#
# Poissons Ratio (x) = 0.40796 -0.14017
# Poissons Ratio (y) = 0.74121 0.50444
# Poissons Ratio (z) = -0.43481 0.86125
#
# Static dielectric constant tensor:
#      x y z
#    x 1.913870 -0.012700 -0.014320 
#    y -0.012700 1.986530 -0.011040 
#    z -0.014320 -0.011040 1.960050 
# 
# From -- ./inp_files/145730.got.cif
#   From: 2010.05.17/outbox.cif.g08.bks.cpg/sg2_73_cif.got.tgz:145730.got - 2010.06.03 11:33:40.
