data_PCOD9044979
_publ_section_title
;
Structure prediction by ZEFSAII (Michael W. Deem and Ramdas Pophale) SiO2 
 PCOD9044979
Probable space group: P -1
;
_chemical_formula_sum "Si O2"
_cell_formula_units_Z 14
_cell_length_a 11.907226
_cell_length_b 7.931321
_cell_length_c 10.931088
_cell_angle_alpha 39.369226
_cell_angle_beta 107.326553
_cell_angle_gamma 116.410875
_cell_volume 584.548612
_symmetry_space_group_name_H-M "P -1"
_symmetry_group_IT_number 2
_symmetry_cell_setting 'triclinic'
loop_
_space_group_symop_operation_xyz
x,y,z
-x,-y,-z
loop_
_atom_site_type_symbol
_atom_site_label
_atom_site_fract_x
_atom_site_fract_y
_atom_site_fract_z
Si Si1 0.164155 0.369292 0.395427
Si Si2 0.032118 0.747473 0.268363
Si Si3 0.216178 0.218258 0.761104
Si Si4 0.584909 0.319441 0.089807
Si Si5 0.385941 0.891842 0.117068
Si Si6 0.798816 0.786870 0.762658
Si Si7 0.644716 0.187020 0.435238
O O1 0.093247 0.592426 0.277752
O O2 0.166934 0.183573 0.622475
O O3 0.124806 0.225927 0.329411
O O4 0.308611 0.568382 0.304023
O O5 0.000000 0.500000 0.500000
O O6 0.899606 0.789405 0.184230
O O7 0.118865 0.046382 0.189126
O O8 0.287755 0.027163 0.951635
O O9 0.313725 0.540246 0.618266
O O10 0.666301 0.293267 0.244422
O O11 0.500000 0.500000 0.000000
O O12 0.470372 0.030501 0.184451
O O13 0.690664 0.486039 0.931481
O O14 0.500000 0.000000 0.000000
O O15 0.724395 0.993917 0.593652
O O16 0.500000 0.000000 0.500000
#
# Coordination Sequence:
#
# PCOD9044979 Si02
#       7
#     2   2   2   2   2   2   2
#     4  11  25  44  72 102 139 181 230 287 341 411
#     4  10  23  48  70  99 139 183 235 283 344 411
#     4  11  25  46  69 100 135 188 228 283 351 404
#     4  12  23  41  66  99 137 181 228 280 339 417
#     4  12  25  44  64 104 144 172 231 284 347 410
#     4  12  24  44  69 103 138 180 232 286 342 409
#     4  12  23  41  71 100 136 183 228 279 352 408
#
# _framework density 23.950102999999999
#
# number of rings (size 3 to 8) (size 9 to 14) (size 15 to 20)
#    0.000    0.571    7.143    1.714    2.000    3.429 
#    0.000    0.714    0.000    0.000    0.000    0.000 
#    0.000    0.000    0.000    0.000    0.000    0.000 
#
# Total GULP energy -78118.103481 kJ/mol
# GULP energy per Si atom -5579.864534 kJ/mol
# Density = 2.389559 g / cm^3
# Si number density = 23.950103 Si / 1000 Ang^3
#
#
#
# Elastic Constant Matrix: (Units=GPa)
#
#
# Indices 1 2 3 4 5 6 
#
# 1 93.5313 7.2249 12.9172 14.7047 -7.4270 13.7149
# 2 7.2249 84.3818 12.2275 10.3615 -1.4944 6.8522
# 3 12.9172 12.2275 81.6222 22.1518 -6.7689 6.7200
# 4 14.7047 10.3615 22.1518 34.2902 1.8675 -5.8102
# 5 -7.4270 -1.4944 -6.7689 1.8675 33.0696 11.9101
# 6 13.7149 6.8522 6.7200 -5.8102 11.9101 34.0014
#
#
#
# Elastic Compliance Matrix: (Units=1/GPa)
#
#
# Indices 1 2 3 4 5 6 
#
# 1 0.014093 0.000720 0.001819 -0.009669 0.007942 -0.010624
# 2 0.000720 0.012852 -0.000041 -0.005110 0.002714 -0.004696
# 3 0.001819 -0.000041 0.017171 -0.013878 0.008059 -0.009314
# 4 -0.009669 -0.005110 -0.013878 0.048302 -0.015685 0.021421
# 5 0.007942 0.002714 0.008059 -0.015685 0.042995 -0.023084
# 6 -0.010624 -0.004696 -0.009314 0.021421 -0.023084 0.048229
#
#
# Mechanical properties :
#
#
# Convention : Reuss Voigt Hill
#
# Bulk Modulus (GPa) = 20.36081 36.03051 28.19566
# Shear Modulus (GPa) = 25.63881 35.41662 30.52771
#
# Velocity S-wave (km/s) = 3.27541 3.84965 3.57408
# Velocity P-wave (km/s) = 4.77747 5.90223 5.36938
#
# Compressibility (1/GPa) = 0.04911397
#
# Stress axis : x y z
#
# Youngs Moduli (GPa) = 70.95534 77.80894 58.23689
#
# Poissons Ratio (x) = -0.05605 -0.10594
# Poissons Ratio (y) = -0.05111 0.00238
# Poissons Ratio (z) = -0.12908 0.00318
#
# Static dielectric constant tensor:
#      x y z
#    x 1.819080 -0.000480 -0.014230 
#    y -0.000480 1.794820 -0.041990 
#    z -0.014230 -0.041990 1.888180 
# 
# From -- ./inp_files/398266.got.cif
#   From: 2010.05.17/outbox.cif.g08.bks.cpg/sg2_200_cif.got.tgz:398266.got - 2010.06.03 11:33:40.
