data_PCOD9044318
_publ_section_title
;
Structure prediction by ZEFSAII (Michael W. Deem and Ramdas Pophale) SiO2 
 PCOD9044318
Probable space group: P -1
;
_chemical_formula_sum "Si O2"
_cell_formula_units_Z 14
_cell_length_a 8.746870
_cell_length_b 10.722771
_cell_length_c 5.324944
_cell_angle_alpha 86.701433
_cell_angle_beta 96.099737
_cell_angle_gamma 90.742559
_cell_volume 495.768050
_symmetry_space_group_name_H-M "P -1"
_symmetry_group_IT_number 2
_symmetry_cell_setting 'triclinic'
loop_
_space_group_symop_operation_xyz
x,y,z
-x,-y,-z
loop_
_atom_site_type_symbol
_atom_site_label
_atom_site_fract_x
_atom_site_fract_y
_atom_site_fract_z
Si Si1 0.637555 0.908860 0.952418
Si Si2 0.962475 0.923152 0.248768
Si Si3 0.262724 0.448435 0.578878
Si Si4 0.106986 0.379626 0.056572
Si Si5 0.279693 0.879907 0.415806
Si Si6 0.466168 0.692387 0.155566
Si Si7 0.810638 0.298725 0.218660
O O1 0.565505 0.770283 0.958423
O O2 0.692720 0.979843 0.697910
O O3 0.782630 0.896610 0.170220
O O4 0.500000 0.000000 0.000000
O O5 0.111019 0.832007 0.296303
O O6 0.000000 0.000000 0.500000
O O7 0.000000 0.000000 0.000000
O O8 0.225980 0.401136 0.300350
O O9 0.208418 0.591767 0.588744
O O10 0.168319 0.370640 0.785756
O O11 0.435588 0.417265 0.695833
O O12 0.984928 0.281664 0.162995
O O13 0.000000 0.500000 0.000000
O O14 0.261405 0.835714 0.703801
O O15 0.415299 0.795406 0.338895
O O16 0.306890 0.648387 0.013815
#
# Coordination Sequence:
#
# PCOD9044318 Si02
#       7
#     2   2   2   2   2   2   2
#     4   9  22  48  67 102 145 184 240 290 361 421
#     4  10  23  46  72  99 136 186 237 291 346 424
#     4  11  26  48  73 107 143 189 246 296 363 422
#     4  10  24  47  73 101 142 189 241 301 353 427
#     4  10  25  43  72 103 142 189 241 292 359 423
#     4  11  26  44  70 104 149 194 233 303 356 433
#     4  11  25  42  74 102 144 190 241 298 360 431
#
# _framework density 28.239014999999998
#
# number of rings (size 3 to 8) (size 9 to 14) (size 15 to 20)
#    0.000    1.714    0.000    2.143   16.000    1.143 
#   10.286    0.000    0.000    0.000    0.000    0.000 
#    0.000    0.000    0.000    0.000    0.000    0.000 
#
# Total GULP energy -78269.187942 kJ/mol
# GULP energy per Si atom -5590.656282 kJ/mol
# Density = 2.817474 g / cm^3
# Si number density = 28.239015 Si / 1000 Ang^3
#
#
#
# Elastic Constant Matrix: (Units=GPa)
#
#
# Indices 1 2 3 4 5 6 
#
# 1 138.9478 31.3288 49.3982 -17.5350 21.3782 3.9963
# 2 31.3288 112.9960 38.9526 -23.8615 -15.3539 -2.7328
# 3 49.3982 38.9526 150.3462 -18.6054 -2.3781 18.7662
# 4 -17.5350 -23.8615 -18.6054 43.6799 9.5430 0.8196
# 5 21.3782 -15.3539 -2.3781 9.5430 66.5060 -12.5909
# 6 3.9963 -2.7328 18.7662 0.8196 -12.5909 54.5436
#
#
#
# Elastic Compliance Matrix: (Units=1/GPa)
#
#
# Indices 1 2 3 4 5 6 
#
# 1 0.009409 -0.001851 -0.002211 0.002742 -0.004116 -0.001013
# 2 -0.001851 0.011347 -0.002057 0.003892 0.002969 0.002039
# 3 -0.002211 -0.002057 0.008487 0.001717 -0.000265 -0.002948
# 4 0.002742 0.003892 0.001717 0.027828 -0.004294 -0.002006
# 5 -0.004116 0.002969 -0.000265 -0.004294 0.018578 0.004895
# 6 -0.001013 0.002039 -0.002948 -0.002006 0.004895 0.020685
#
#
# Mechanical properties :
#
#
# Convention : Reuss Voigt Hill
#
# Bulk Modulus (GPa) = 58.81138 71.29437 65.05288
# Shear Modulus (GPa) = 43.76700 51.78661 47.77680
#
# Velocity S-wave (km/s) = 3.94112 4.28701 4.11770
# Velocity P-wave (km/s) = 6.44836 7.05735 6.75972
#
# Compressibility (1/GPa) = 0.01700351
#
# Stress axis : x y z
#
# Youngs Moduli (GPa) = 106.28197 88.12899 117.82555
#
# Poissons Ratio (x) = 0.16314 0.26053
# Poissons Ratio (y) = 0.19674 0.24243
# Poissons Ratio (z) = 0.23501 0.18132
#
# Static dielectric constant tensor:
#      x y z
#    x 2.331870 0.023330 -0.074700 
#    y 0.023330 2.274140 0.001770 
#    z -0.074700 0.001770 2.329200 
# 
# From -- ./inp_files/27255.got.cif
#   From: 2010.05.17/outbox.cif.g08.bks.cpg/sg2_14_cif.got.tgz:27255.got - 2010.06.03 11:33:40.
