data_PCOD9044334
_publ_section_title
;
Structure prediction by ZEFSAII (Michael W. Deem and Ramdas Pophale) SiO2 
 PCOD9044334
Probable space group: P -1
;
_chemical_formula_sum "Si O2"
_cell_formula_units_Z 16
_cell_length_a 24.070861
_cell_length_b 9.033358
_cell_length_c 8.420053
_cell_angle_alpha 146.143351
_cell_angle_beta 117.874425
_cell_angle_gamma 48.619643
_cell_volume 750.687627
_symmetry_space_group_name_H-M "P -1"
_symmetry_group_IT_number 2
_symmetry_cell_setting 'triclinic'
loop_
_space_group_symop_operation_xyz
x,y,z
-x,-y,-z
loop_
_atom_site_type_symbol
_atom_site_label
_atom_site_fract_x
_atom_site_fract_y
_atom_site_fract_z
Si Si1 0.164758 0.152352 0.190920
Si Si2 0.419617 0.748263 0.688608
Si Si3 0.072447 0.169287 0.363135
Si Si4 0.128395 0.491829 0.921779
Si Si5 0.649466 0.635680 0.680478
Si Si6 0.743158 0.525838 0.391204
Si Si7 0.712774 0.663542 0.114840
Si Si8 0.050921 0.623965 0.236489
O O1 0.141394 0.058239 0.235516
O O2 0.222855 0.257338 0.378036
O O3 0.086998 0.467460 0.311447
O O4 0.193919 0.853539 0.846952
O O5 0.500000 0.500000 0.500000
O O6 0.385836 0.569593 0.568392
O O7 0.359218 0.973418 0.673381
O O8 0.415179 0.002604 0.032493
O O9 0.099491 0.268252 0.640317
O O10 0.000000 0.500000 0.500000
O O11 0.070445 0.858504 0.111123
O O12 0.208608 0.369495 0.843509
O O13 0.123339 0.511913 0.121798
O O14 0.690837 0.624031 0.563848
O O15 0.701257 0.516016 0.805188
O O16 0.711357 0.549022 0.189354
O O17 0.000000 0.000000 0.500000
O O18 0.000000 0.500000 0.000000
#
# Coordination Sequence:
#
# PCOD9044334 Si02
#       8
#     2   2   2   2   2   2   2   2
#     4  12  24  42  62  92 131 169 221 284 337 391
#     4  10  23  46  73 102 142 178 219 267 335 408
#     4  12  24  41  61  87 127 169 218 272 334 391
#     4  12  24  41  64  91 123 169 228 268 333 402
#     4  10  24  41  71  99 139 175 220 264 339 390
#     4  12  24  43  65 104 135 168 229 280 330 399
#     4  10  25  41  71 100 135 177 225 275 336 396
#     4  12  26  44  62  90 127 175 225 283 349 403
#
# _framework density 21.313794000000001
#
# number of rings (size 3 to 8) (size 9 to 14) (size 15 to 20)
#    0.750    0.000    2.500    5.250    5.250    0.000 
#    0.000    1.250    0.000    0.000    0.000    0.000 
#    0.000    0.000    0.000    0.000    0.000    0.000 
#
# Total GULP energy -89264.602484 kJ/mol
# GULP energy per Si atom -5579.037655 kJ/mol
# Density = 2.126528 g / cm^3
# Si number density = 21.313794 Si / 1000 Ang^3
#
#
#
# Elastic Constant Matrix: (Units=GPa)
#
#
# Indices 1 2 3 4 5 6 
#
# 1 64.9571 33.4032 -5.1642 -0.2946 -15.8288 18.3248
# 2 33.4032 63.1293 13.8805 4.7426 -15.7414 11.0274
# 3 -5.1642 13.8805 71.5523 19.9313 -3.4855 4.9406
# 4 -0.2946 4.7426 19.9313 28.7623 4.2015 -9.4404
# 5 -15.8288 -15.7414 -3.4855 4.2015 42.3546 2.1512
# 6 18.3248 11.0274 4.9406 -9.4404 2.1512 35.2471
#
#
#
# Elastic Compliance Matrix: (Units=1/GPa)
#
#
# Indices 1 2 3 4 5 6 
#
# 1 0.028434 -0.011148 0.008637 -0.010371 0.009027 -0.015834
# 2 -0.011148 0.024534 -0.004467 -0.002518 0.004947 -0.002230
# 3 0.008637 -0.004467 0.021831 -0.018958 0.005833 -0.011586
# 4 -0.010371 -0.002518 -0.018958 0.058492 -0.013460 0.025325
# 5 0.009027 0.004947 0.005833 -0.013460 0.031276 -0.012572
# 6 -0.015834 -0.002230 -0.011586 0.025325 -0.012572 0.046475
#
#
# Mechanical properties :
#
#
# Convention : Reuss Voigt Hill
#
# Bulk Modulus (GPa) = 16.43637 31.54197 23.98917
# Shear Modulus (GPa) = 20.38494 31.77409 26.07951
#
# Velocity S-wave (km/s) = 3.09596 3.86525 3.50179
# Velocity P-wave (km/s) = 4.52861 5.89501 5.25640
#
# Compressibility (1/GPa) = 0.06084067
#
# Stress axis : x y z
#
# Youngs Moduli (GPa) = 35.16968 40.75999 45.80702
#
# Poissons Ratio (x) = 0.45439 -0.39563
# Poissons Ratio (y) = 0.39207 0.20464
# Poissons Ratio (z) = -0.30375 0.18209
#
# Static dielectric constant tensor:
#      x y z
#    x 1.767020 0.014330 -0.028120 
#    y 0.014330 1.805810 -0.000270 
#    z -0.028120 -0.000270 1.798390 
# 
# From -- ./inp_files/226050.got.cif
#   From: 2010.05.17/outbox.cif.g08.bks.cpg/sg2_114_cif.got.tgz:226050.got - 2010.06.03 11:33:40.
