data_PCOD9044991
_publ_section_title
;
Structure prediction by ZEFSAII (Michael W. Deem and Ramdas Pophale) SiO2 
 PCOD9044991
Probable space group: P -1
;
_chemical_formula_sum "Si O2"
_cell_formula_units_Z 16
_cell_length_a 8.690875
_cell_length_b 21.822694
_cell_length_c 8.132838
_cell_angle_alpha 118.533187
_cell_angle_beta 120.279591
_cell_angle_gamma 31.554418
_cell_volume 693.119299
_symmetry_space_group_name_H-M "P -1"
_symmetry_group_IT_number 2
_symmetry_cell_setting 'triclinic'
loop_
_space_group_symop_operation_xyz
x,y,z
-x,-y,-z
loop_
_atom_site_type_symbol
_atom_site_label
_atom_site_fract_x
_atom_site_fract_y
_atom_site_fract_z
Si Si1 0.631026 0.879081 0.927809
Si Si2 0.033015 0.117032 0.405976
Si Si3 0.289241 0.506427 0.474204
Si Si4 0.395192 0.690920 0.806043
Si Si5 0.272362 0.609196 0.888579
Si Si6 0.396762 0.127713 0.742741
Si Si7 0.304190 0.299529 0.780364
Si Si8 0.679437 0.134969 0.466926
O O1 0.529294 0.863032 0.701360
O O2 0.983530 0.744913 0.970085
O O3 0.490887 0.895677 0.043111
O O4 0.500000 0.000000 0.000000
O O5 0.178326 0.130277 0.616522
O O6 0.938993 0.179777 0.259472
O O7 0.756156 0.164519 0.400047
O O8 0.310214 0.978152 0.344070
O O9 0.500000 0.500000 0.500000
O O10 0.489322 0.374908 0.391187
O O11 0.184389 0.572365 0.673896
O O12 0.998615 0.577257 0.303735
O O13 0.418352 0.621738 0.863958
O O14 0.571097 0.697781 0.994757
O O15 0.500000 0.500000 0.000000
O O16 0.224792 0.247493 0.732394
O O17 0.546892 0.215576 0.657590
O O18 0.000000 0.000000 0.500000
#
# Coordination Sequence:
#
# PCOD9044991 Si02
#       8
#     2   2   2   2   2   2   2   2
#     4  12  27  44  74 109 148 190 247 299 364 442
#     4  11  25  46  69 108 141 193 236 297 361 433
#     4  10  23  48  71  96 139 187 237 293 355 428
#     4  11  26  43  75 100 142 187 245 294 362 431
#     4  11  26  47  73 108 147 193 241 303 369 431
#     4  11  25  42  74  99 146 188 242 288 367 432
#     4  12  25  46  72 107 143 185 241 302 362 436
#     4  12  26  45  70 108 153 186 236 309 369 428
#
# _framework density 23.084050000000001
#
# number of rings (size 3 to 8) (size 9 to 14) (size 15 to 20)
#    0.000    0.750    2.500    4.125   12.250    1.000 
#    2.250    1.250    0.000    0.000    0.000    0.000 
#    0.000    0.000    0.000    0.000    0.000    0.000 
#
# Total GULP energy -89285.346590 kJ/mol
# GULP energy per Si atom -5580.334162 kJ/mol
# Density = 2.303151 g / cm^3
# Si number density = 23.084050 Si / 1000 Ang^3
#
#
#
# Elastic Constant Matrix: (Units=GPa)
#
#
# Indices 1 2 3 4 5 6 
#
# 1 50.3704 22.1850 1.9984 13.8128 -6.0124 9.9757
# 2 22.1850 122.2070 16.8275 0.1678 2.3304 9.8681
# 3 1.9984 16.8275 93.7491 16.6626 4.2651 -3.7019
# 4 13.8128 0.1678 16.6626 44.6498 1.7376 -6.9413
# 5 -6.0124 2.3304 4.2651 1.7376 23.4259 -3.9651
# 6 9.9757 9.8681 -3.7019 -6.9413 -3.9651 32.8592
#
#
#
# Elastic Compliance Matrix: (Units=1/GPa)
#
#
# Indices 1 2 3 4 5 6 
#
# 1 0.027042 -0.004570 0.001478 -0.010411 0.006530 -0.008082
# 2 -0.004570 0.009435 -0.001902 0.001937 -0.002165 -0.001512
# 3 0.001478 -0.001902 0.011895 -0.004795 -0.001190 0.000306
# 4 -0.010411 0.001937 -0.004795 0.028716 -0.002807 0.007766
# 5 0.006530 -0.002165 -0.001190 -0.002807 0.045587 0.003441
# 6 -0.008082 -0.001512 0.000306 0.007766 0.003441 0.035431
#
#
# Mechanical properties :
#
#
# Convention : Reuss Voigt Hill
#
# Bulk Modulus (GPa) = 26.05215 38.70535 32.37875
# Shear Modulus (GPa) = 27.64136 35.20803 31.42469
#
# Velocity S-wave (km/s) = 3.46413 3.90963 3.69360
# Velocity P-wave (km/s) = 5.22595 6.09785 5.67866
#
# Compressibility (1/GPa) = 0.03838455
#
# Stress axis : x y z
#
# Youngs Moduli (GPa) = 36.97927 105.98724 84.06816
#
# Poissons Ratio (x) = 0.48439 -0.12425
# Poissons Ratio (y) = 0.16901 0.15987
# Poissons Ratio (z) = -0.05466 0.20155
#
# Static dielectric constant tensor:
#      x y z
#    x 1.907920 0.017770 -0.021600 
#    y 0.017770 2.000720 0.079840 
#    z -0.021600 0.079840 1.897720 
# 
# From -- ./inp_files/223875.got.cif
#   From: 2010.05.17/outbox.cif.g08.bks.cpg/sg2_112_cif.got.tgz:223875.got - 2010.06.03 11:33:40.
