data_PCOD9044533
_publ_section_title
;
Structure prediction by ZEFSAII (Michael W. Deem and Ramdas Pophale) SiO2 
 PCOD9044533
Probable space group: P -1
;
_chemical_formula_sum "Si O2"
_cell_formula_units_Z 16
_cell_length_a 13.735648
_cell_length_b 14.060326
_cell_length_c 8.177974
_cell_angle_alpha 137.196084
_cell_angle_beta 41.894697
_cell_angle_gamma 133.594952
_cell_volume 679.891693
_symmetry_space_group_name_H-M "P -1"
_symmetry_group_IT_number 2
_symmetry_cell_setting 'triclinic'
loop_
_space_group_symop_operation_xyz
x,y,z
-x,-y,-z
loop_
_atom_site_type_symbol
_atom_site_label
_atom_site_fract_x
_atom_site_fract_y
_atom_site_fract_z
Si Si1 0.400435 0.524371 0.002136
Si Si2 0.239017 0.643950 0.819204
Si Si3 0.516317 0.739624 0.834684
Si Si4 0.193004 0.260045 0.717975
Si Si5 0.934597 0.665744 0.344967
Si Si6 0.361901 0.973071 0.459377
Si Si7 0.665623 0.209511 0.436175
Si Si8 0.049488 0.979122 0.729587
O O1 0.499885 0.618854 0.845749
O O2 0.287987 0.372287 0.878566
O O3 0.500000 0.500000 0.000000
O O4 0.307688 0.633309 0.314684
O O5 0.394519 0.668937 0.755000
O O6 0.179161 0.478931 0.613226
O O7 0.260960 0.762578 0.797996
O O8 0.106109 0.656242 0.121765
O O9 0.682521 0.786793 0.605047
O O10 0.462136 0.873597 0.140224
O O11 0.116394 0.343086 0.791373
O O12 0.065358 0.119752 0.775107
O O13 0.941275 0.823510 0.603376
O O14 0.292796 0.898804 0.624709
O O15 0.224607 0.974831 0.516971
O O16 0.482077 0.133467 0.542604
O O17 0.000000 0.000000 0.000000
#
# Coordination Sequence:
#
# PCOD9044533 Si02
#       8
#     2   2   2   2   2   2   2   2
#     4  11  23  41  66 109 143 169 227 292 354 403
#     4  11  23  45  73  99 136 194 226 292 336 412
#     4  11  23  44  76  98 137 179 238 292 339 405
#     4  12  27  44  73 105 136 189 231 292 348 406
#     4  11  27  46  67 103 143 181 241 273 350 427
#     4  10  23  47  65 106 132 180 237 288 339 418
#     4  10  24  39  74  98 137 180 230 293 349 393
#     4  12  28  46  69  98 146 188 228 282 357 414
#
# _framework density 23.533159999999999
#
# number of rings (size 3 to 8) (size 9 to 14) (size 15 to 20)
#    0.000    1.000    2.500    3.000    7.000    4.000 
#    0.000    1.250    0.000    0.000    0.000    0.000 
#    0.000    0.000    0.000    0.000    0.000    0.000 
#
# Total GULP energy -89572.102370 kJ/mol
# GULP energy per Si atom -5598.256398 kJ/mol
# Density = 2.347960 g / cm^3
# Si number density = 23.533160 Si / 1000 Ang^3
#
#
#
# Elastic Constant Matrix: (Units=GPa)
#
#
# Indices 1 2 3 4 5 6 
#
# 1 75.7174 15.2158 1.5713 2.7688 3.1874 -5.0558
# 2 15.2158 117.1300 27.9635 4.4727 20.7153 -20.3489
# 3 1.5713 27.9635 66.8660 5.8384 6.2968 3.2793
# 4 2.7688 4.4727 5.8384 38.4574 5.4353 11.2205
# 5 3.1874 20.7153 6.2968 5.4353 34.2335 0.5978
# 6 -5.0558 -20.3489 3.2793 11.2205 0.5978 35.4652
#
#
#
# Elastic Compliance Matrix: (Units=1/GPa)
#
#
# Indices 1 2 3 4 5 6 
#
# 1 0.013657 -0.001524 0.000378 -0.001248 -0.000246 0.001437
# 2 -0.001524 0.012509 -0.004815 -0.002103 -0.006351 0.008178
# 3 0.000378 -0.004815 0.017243 -0.000902 -0.000080 -0.004017
# 4 -0.001248 -0.002103 -0.000902 0.030039 -0.003027 -0.010754
# 5 -0.000246 -0.006351 -0.000080 -0.003027 0.033630 -0.003281
# 6 0.001437 0.008178 -0.004017 -0.010754 -0.003281 0.036922
#
#
# Mechanical properties :
#
#
# Convention : Reuss Voigt Hill
#
# Bulk Modulus (GPa) = 31.75769 38.80162 35.27966
# Shear Modulus (GPa) = 30.04466 35.96208 33.00337
#
# Velocity S-wave (km/s) = 3.57696 3.91339 3.74895
# Velocity P-wave (km/s) = 5.53025 6.07810 5.81064
#
# Compressibility (1/GPa) = 0.03148843
#
# Stress axis : x y z
#
# Youngs Moduli (GPa) = 73.22117 79.94133 57.99365
#
# Poissons Ratio (x) = 0.12180 -0.02192
# Poissons Ratio (y) = 0.11156 0.27924
# Poissons Ratio (z) = -0.02767 0.38491
#
# Static dielectric constant tensor:
#      x y z
#    x 1.859390 -0.001050 0.011030 
#    y -0.001050 1.862070 0.010740 
#    z 0.011030 0.010740 1.917880 
# 
# From -- ./inp_files/316040.got.cif
#   From: 2010.05.17/outbox.cif.g08.bks.cpg/sg2_159_cif.got.tgz:316040.got - 2010.06.03 11:33:40.
