data_PCOD9044580
_publ_section_title
;
Structure prediction by ZEFSAII (Michael W. Deem and Ramdas Pophale) SiO2 
 PCOD9044580
Probable space group: P -1
;
_chemical_formula_sum "Si O2"
_cell_formula_units_Z 14
_cell_length_a 15.120451
_cell_length_b 12.427460
_cell_length_c 5.678010
_cell_angle_alpha 122.791686
_cell_angle_beta 124.521399
_cell_angle_gamma 38.170878
_cell_volume 533.521958
_symmetry_space_group_name_H-M "P -1"
_symmetry_group_IT_number 2
_symmetry_cell_setting 'triclinic'
loop_
_space_group_symop_operation_xyz
x,y,z
-x,-y,-z
loop_
_atom_site_type_symbol
_atom_site_label
_atom_site_fract_x
_atom_site_fract_y
_atom_site_fract_z
Si Si1 0.759585 0.605455 0.356204
Si Si2 0.118036 0.019007 0.900561
Si Si3 0.334843 0.148317 0.834686
Si Si4 0.907443 0.689699 0.968885
Si Si5 0.888128 0.230311 0.199348
Si Si6 0.577063 0.146514 0.680581
Si Si7 0.423644 0.605532 0.264975
O O1 0.726169 0.659781 0.094397
O O2 0.853996 0.652786 0.619443
O O3 0.846268 0.413732 0.366939
O O4 0.590456 0.733447 0.345187
O O5 0.043708 0.205340 0.887191
O O6 0.045223 0.093217 0.140032
O O7 0.295770 0.896386 0.013332
O O8 0.105162 0.873971 0.692831
O O9 0.353781 0.043815 0.512667
O O10 0.228409 0.178803 0.902811
O O11 0.500000 0.000000 0.000000
O O12 0.000000 0.500000 0.000000
O O13 0.747484 0.298321 0.906588
O O14 0.571174 0.245963 0.567048
O O15 0.500000 0.500000 0.500000
O O16 0.500000 0.500000 0.000000
#
# Coordination Sequence:
#
# PCOD9044580 Si02
#       7
#     2   2   2   2   2   2   2
#     4  12  24  46  71 103 143 182 246 303 360 449
#     4  10  23  47  68 100 144 183 241 298 374 442
#     4  12  25  41  70 103 138 186 236 304 367 442
#     4  12  27  44  71 105 141 189 243 299 380 439
#     4  10  24  45  75 100 143 192 241 302 370 441
#     4  11  23  43  71 102 140 191 239 304 372 431
#     4  11  25  46  74 109 147 197 250 306 371 451
#
# _framework density 26.240721000000001
#
# number of rings (size 3 to 8) (size 9 to 14) (size 15 to 20)
#    0.000    0.857    4.286    2.143    4.000    4.571 
#    0.000    0.714    0.000    0.000    0.000    0.000 
#    0.000    0.000    0.000    0.000    0.000    0.000 
#
# Total GULP energy -78064.277660 kJ/mol
# GULP energy per Si atom -5576.019833 kJ/mol
# Density = 2.618100 g / cm^3
# Si number density = 26.240721 Si / 1000 Ang^3
#
#
#
# Elastic Constant Matrix: (Units=GPa)
#
#
# Indices 1 2 3 4 5 6 
#
# 1 104.7330 50.0744 31.4093 3.2576 1.3740 31.5902
# 2 50.0744 205.4987 43.9713 -13.7472 -3.0157 57.6536
# 3 31.4093 43.9713 43.4126 -3.3350 14.9779 12.8354
# 4 3.2576 -13.7472 -3.3350 41.5194 7.8942 -14.3388
# 5 1.3740 -3.0157 14.9779 7.8942 38.0533 9.7250
# 6 31.5902 57.6536 12.8354 -14.3388 9.7250 79.3424
#
#
#
# Elastic Compliance Matrix: (Units=1/GPa)
#
#
# Indices 1 2 3 4 5 6 
#
# 1 0.014956 0.000451 -0.012314 -0.005475 0.007049 -0.006144
# 2 0.000451 0.008338 -0.009235 -0.001110 0.005960 -0.005675
# 3 -0.012314 -0.009235 0.047433 0.008977 -0.022960 0.008377
# 4 -0.005475 -0.001110 0.008977 0.030014 -0.011798 0.008404
# 5 0.007049 0.005960 -0.022960 -0.011798 0.040675 -0.010541
# 6 -0.006144 -0.005675 0.008377 0.008404 -0.010541 0.020630
#
#
# Mechanical properties :
#
#
# Convention : Reuss Voigt Hill
#
# Bulk Modulus (GPa) = 35.04984 67.17268 51.11126
# Shear Modulus (GPa) = 23.39157 46.99563 35.19360
#
# Velocity S-wave (km/s) = 2.98891 4.23654 3.66619
# Velocity P-wave (km/s) = 5.02966 7.04168 6.11894
#
# Compressibility (1/GPa) = 0.02853080
#
# Stress axis : x y z
#
# Youngs Moduli (GPa) = 66.86110 119.93539 21.08248
#
# Poissons Ratio (x) = -0.05414 0.25961
# Poissons Ratio (y) = -0.03018 0.19470
# Poissons Ratio (z) = 0.82334 1.10764
#
# Static dielectric constant tensor:
#      x y z
#    x 2.135310 0.087310 0.086520 
#    y 0.087310 2.145060 -0.044940 
#    z 0.086520 -0.044940 2.300240 
# 
# From -- ./inp_files/95393.got.cif
#   From: 2010.05.17/outbox.cif.g08.bks.cpg/sg2_48_cif.got.tgz:95393.got - 2010.06.03 11:33:40.
