data_PCOD9044653
_publ_section_title
;
Structure prediction by ZEFSAII (Michael W. Deem and Ramdas Pophale) SiO2 
 PCOD9044653
Probable space group: P -1
;
_chemical_formula_sum "Si O2"
_cell_formula_units_Z 15
_cell_length_a 6.372554
_cell_length_b 15.446107
_cell_length_c 13.805483
_cell_angle_alpha 30.135407
_cell_angle_beta 75.057817
_cell_angle_gamma 66.622764
_cell_volume 615.398039
_symmetry_space_group_name_H-M "P -1"
_symmetry_group_IT_number 2
_symmetry_cell_setting 'triclinic'
loop_
_space_group_symop_operation_xyz
x,y,z
-x,-y,-z
loop_
_atom_site_type_symbol
_atom_site_label
_atom_site_fract_x
_atom_site_fract_y
_atom_site_fract_z
Si Si1 0.179816 0.669098 0.014770
Si Si2 0.560468 0.067028 0.214451
Si Si3 0.269857 0.047827 0.100898
Si Si4 0.120742 0.304211 0.368016
Si Si5 0.338566 0.628187 0.545117
Si Si6 0.212533 0.567023 0.407628
Si Si7 0.000000 0.000000 0.000000
Si Si8 0.902691 0.843837 0.695007
O O1 0.367178 0.761051 0.930545
O O2 0.953859 0.788036 0.988968
O O3 0.093795 0.711507 0.872732
O O4 0.239808 0.452921 0.229049
O O5 0.490324 0.072061 0.105123
O O6 0.336061 0.074417 0.295563
O O7 0.767593 0.876977 0.402455
O O8 0.277071 0.847876 0.332105
O O9 0.212413 0.038911 0.004256
O O10 0.147247 0.245661 0.309992
O O11 0.844179 0.395449 0.334425
O O12 0.297405 0.536873 0.538151
O O13 0.615369 0.535868 0.599634
O O14 0.000000 0.500000 0.500000
O O15 0.141903 0.782931 0.193993
O O16 0.000000 0.000000 0.500000
#
# Coordination Sequence:
#
# PCOD9044653 Si02
#       8
#     2   2   2   2   2   2   1   2
#     4  11  25  45  70 108 149 190 250 294 360 438
#     4  11  24  47  70 102 152 193 238 305 364 434
#     4  10  23  47  70 105 144 186 240 306 363 434
#     4  12  24  45  76 105 148 198 247 297 366 434
#     4  10  23  47  70 103 143 187 237 305 362 437
#     4  10  24  47  72 103 140 183 242 299 375 433
#     4  10  24  48  74 104 140 184 242 308 364 438
#     4  11  23  48  71 105 154 196 240 304 363 425
#
# _framework density 24.374466999999999
#
# number of rings (size 3 to 8) (size 9 to 14) (size 15 to 20)
#    0.000    1.333    2.667    1.600    3.733    0.533 
#   16.800    4.000    0.000    0.000    0.000    0.000 
#    0.000    0.000    0.000    0.000    0.000    0.000 
#
# Total GULP energy -83663.085796 kJ/mol
# GULP energy per Si atom -5577.539053 kJ/mol
# Density = 2.431899 g / cm^3
# Si number density = 24.374467 Si / 1000 Ang^3
#
#
#
# Elastic Constant Matrix: (Units=GPa)
#
#
# Indices 1 2 3 4 5 6 
#
# 1 136.9455 58.6787 38.2415 -0.6626 -10.3171 26.7840
# 2 58.6787 135.4878 31.9402 0.4915 4.8636 12.8183
# 3 38.2415 31.9402 51.0192 -14.5101 -18.0369 -4.6462
# 4 -0.6626 0.4915 -14.5101 26.7259 15.0896 -1.4394
# 5 -10.3171 4.8636 -18.0369 15.0896 39.4000 4.3246
# 6 26.7840 12.8183 -4.6462 -1.4394 4.3246 57.4455
#
#
#
# Elastic Compliance Matrix: (Units=1/GPa)
#
#
# Indices 1 2 3 4 5 6 
#
# 1 0.012369 -0.002700 -0.009052 -0.006327 0.002537 -0.006246
# 2 -0.002700 0.010364 -0.006503 -0.001449 -0.004266 -0.001295
# 3 -0.009052 -0.006503 0.039138 0.016466 0.009103 0.008564
# 4 -0.006327 -0.001449 0.016466 0.055680 -0.016056 0.007209
# 5 0.002537 -0.004266 0.009103 -0.016056 0.037184 -0.002696
# 6 -0.006246 -0.001295 0.008564 0.007209 -0.002696 0.021685
#
#
# Mechanical properties :
#
#
# Convention : Reuss Voigt Hill
#
# Bulk Modulus (GPa) = 39.43139 64.57483 52.00311
# Shear Modulus (GPa) = 22.58520 37.68707 30.13614
#
# Velocity S-wave (km/s) = 3.04730 3.93640 3.52004
# Velocity P-wave (km/s) = 5.34732 6.87100 6.15648
#
# Compressibility (1/GPa) = 0.02536050
#
# Stress axis : x y z
#
# Youngs Moduli (GPa) = 80.84635 96.48793 25.55084
#
# Poissons Ratio (x) = 0.26053 0.23129
# Poissons Ratio (y) = 0.21829 0.16615
# Poissons Ratio (z) = 0.73185 0.62743
#
# Static dielectric constant tensor:
#      x y z
#    x 2.049780 -0.008090 0.038300 
#    y -0.008090 1.920670 0.049150 
#    z 0.038300 0.049150 1.913820 
# 
# From -- ./inp_files/89731.got.cif
#   From: 2010.05.17/outbox.cif.g08.bks.cpg/sg2_45_cif.got.tgz:89731.got - 2010.06.03 11:33:40.
