data_PCOD9044090
_publ_section_title
;
Structure prediction by ZEFSAII (Michael W. Deem and Ramdas Pophale) SiO2 
 PCOD9044090
Probable space group: P -1
;
_chemical_formula_sum "Si O2"
_cell_formula_units_Z 16
_cell_length_a 11.816146
_cell_length_b 13.872159
_cell_length_c 9.031833
_cell_angle_alpha 92.130136
_cell_angle_beta 33.870569
_cell_angle_gamma 77.174283
_cell_volume 734.645358
_symmetry_space_group_name_H-M "P -1"
_symmetry_group_IT_number 2
_symmetry_cell_setting 'triclinic'
loop_
_space_group_symop_operation_xyz
x,y,z
-x,-y,-z
loop_
_atom_site_type_symbol
_atom_site_label
_atom_site_fract_x
_atom_site_fract_y
_atom_site_fract_z
Si Si1 0.938508 0.741611 0.952066
Si Si2 0.435973 0.121032 0.398768
Si Si3 0.647753 0.256370 0.024038
Si Si4 0.119066 0.068536 0.175110
Si Si5 0.061853 0.472886 0.187393
Si Si6 0.623036 0.575542 0.879610
Si Si7 0.148383 0.057958 0.478339
Si Si8 0.277036 0.601209 0.807214
O O1 0.953130 0.813413 0.804964
O O2 0.927031 0.633839 0.905018
O O3 0.155628 0.695744 0.823940
O O4 0.716677 0.820279 0.291224
O O5 0.486676 0.209869 0.264496
O O6 0.296252 0.080398 0.440244
O O7 0.684648 0.020080 0.147586
O O8 0.556821 0.305039 0.965412
O O9 0.652749 0.349986 0.126066
O O10 0.901993 0.161849 0.743268
O O11 0.229270 0.047375 0.219505
O O12 0.909530 0.039103 0.417585
O O13 0.264299 0.434441 0.085047
O O14 0.826449 0.534303 0.535878
O O15 0.100322 0.555403 0.043244
O O16 0.500000 0.500000 0.000000
O O17 0.500000 0.500000 0.500000
#
# Coordination Sequence:
#
# PCOD9044090 Si02
#       8
#     2   2   2   2   2   2   2   2
#     4  12  25  43  70  99 137 179 223 276 336 413
#     4  11  23  46  68  98 133 177 221 280 344 403
#     4  11  23  40  71  96 132 182 224 270 344 396
#     4  10  25  44  68 101 129 170 230 279 341 395
#     4  11  26  43  66 101 139 178 233 278 331 399
#     4  11  24  43  68  99 137 180 230 288 325 397
#     4  10  23  46  69  97 135 171 221 287 334 405
#     4  12  24  44  66  97 145 184 221 274 337 404
#
# _framework density 21.779216999999999
#
# number of rings (size 3 to 8) (size 9 to 14) (size 15 to 20)
#    0.000    1.000    2.500    3.375    3.500    0.500 
#    4.500    0.000    0.000    0.000    0.000    0.000 
#    0.000    0.000    0.000    0.000    0.000    0.000 
#
# Total GULP energy -89539.435888 kJ/mol
# GULP energy per Si atom -5596.214743 kJ/mol
# Density = 2.172965 g / cm^3
# Si number density = 21.779217 Si / 1000 Ang^3
#
#
#
# Elastic Constant Matrix: (Units=GPa)
#
#
# Indices 1 2 3 4 5 6 
#
# 1 70.8747 22.3364 3.9315 -6.1007 -7.0687 0.1498
# 2 22.3364 99.9370 1.8043 -19.7103 -1.7898 -7.1393
# 3 3.9315 1.8043 57.1991 -0.4735 5.2064 -4.8935
# 4 -6.1007 -19.7103 -0.4735 31.1461 9.1112 8.5429
# 5 -7.0687 -1.7898 5.2064 9.1112 24.4288 5.1468
# 6 0.1498 -7.1393 -4.8935 8.5429 5.1468 35.6910
#
#
#
# Elastic Compliance Matrix: (Units=1/GPa)
#
#
# Indices 1 2 3 4 5 6 
#
# 1 0.015817 -0.003579 -0.001583 -0.000218 0.005087 -0.001681
# 2 -0.003579 0.012359 0.000324 0.007788 -0.003346 0.001150
# 3 -0.001583 0.000324 0.018343 0.000870 -0.005331 0.003147
# 4 -0.000218 0.007788 0.000870 0.042995 -0.014334 -0.006546
# 5 0.005087 -0.003346 -0.005331 -0.014334 0.049732 -0.005162
# 6 -0.001681 0.001150 0.003147 -0.006546 -0.005162 0.030998
#
#
# Mechanical properties :
#
#
# Convention : Reuss Voigt Hill
#
# Bulk Modulus (GPa) = 27.14224 31.57279 29.35752
# Shear Modulus (GPa) = 26.01446 31.58241 28.79843
#
# Velocity S-wave (km/s) = 3.45985 3.81217 3.64028
# Velocity P-wave (km/s) = 5.33388 5.82281 5.58370
#
# Compressibility (1/GPa) = 0.03684294
#
# Stress axis : x y z
#
# Youngs Moduli (GPa) = 63.22230 80.91554 54.51651
#
# Poissons Ratio (x) = 0.28956 0.08630
# Poissons Ratio (y) = 0.22624 -0.01764
# Poissons Ratio (z) = 0.10008 -0.02618
#
# Static dielectric constant tensor:
#      x y z
#    x 1.783710 -0.011560 0.014320 
#    y -0.011560 1.789860 -0.009890 
#    z 0.014320 -0.009890 1.827640 
# 
# From -- ./inp_files/273047.got.cif
#   From: 2010.05.17/outbox.cif.g08.bks.cpg/sg2_137_cif.got.tgz:273047.got - 2010.06.03 11:33:40.
