data_PCOD9044696
_publ_section_title
;
Structure prediction by ZEFSAII (Michael W. Deem and Ramdas Pophale) SiO2 
 PCOD9044696
Probable space group: P -1
;
_chemical_formula_sum "Si O2"
_cell_formula_units_Z 12
_cell_length_a 10.275697
_cell_length_b 6.879835
_cell_length_c 8.003159
_cell_angle_alpha 91.159922
_cell_angle_beta 100.672998
_cell_angle_gamma 61.858667
_cell_volume 488.797676
_symmetry_space_group_name_H-M "P -1"
_symmetry_group_IT_number 2
_symmetry_cell_setting 'triclinic'
loop_
_space_group_symop_operation_xyz
x,y,z
-x,-y,-z
loop_
_atom_site_type_symbol
_atom_site_label
_atom_site_fract_x
_atom_site_fract_y
_atom_site_fract_z
Si Si1 0.411860 0.918750 0.101488
Si Si2 0.812881 0.660952 0.738952
Si Si3 0.039131 0.827676 0.154119
Si Si4 0.272759 0.843860 0.762596
Si Si5 0.865274 0.975095 0.561030
Si Si6 0.605401 0.577676 0.424066
O O1 0.506469 0.774347 0.276840
O O2 0.276432 0.140241 0.150489
O O3 0.366730 0.784741 0.953580
O O4 0.500000 0.000000 0.000000
O O5 0.912280 0.739720 0.651439
O O6 0.699589 0.635249 0.581876
O O7 0.902577 0.430144 0.853014
O O8 0.879518 0.943583 0.210180
O O9 0.164550 0.854209 0.292891
O O10 0.000000 0.000000 0.000000
O O11 0.285733 0.621531 0.680386
O O12 0.280972 0.954731 0.589033
O O13 0.000000 0.000000 0.500000
O O14 0.500000 0.500000 0.500000
#
# Coordination Sequence:
#
# PCOD9044696 Si02
#       6
#     2   2   2   2   2   2
#     4  12  27  45  73 113 149 199 259 306 372 451
#     4  12  26  48  78 108 154 198 253 313 382 451
#     4  11  26  45  75 109 149 195 247 317 387 444
#     4  11  24  45  73 104 151 188 250 310 375 443
#     4  10  23  47  71 110 147 194 243 309 382 450
#     4  12  26  47  78 106 154 206 252 308 375 453
#
# _framework density 24.550035000000001
#
# number of rings (size 3 to 8) (size 9 to 14) (size 15 to 20)
#    0.000    0.667    1.667    5.000    4.667    5.333 
#    3.000    0.000    0.000    0.000    0.000    0.000 
#    0.000    0.000    0.000    0.000    0.000    0.000 
#
# Total GULP energy -66865.373063 kJ/mol
# GULP energy per Si atom -5572.114422 kJ/mol
# Density = 2.449416 g / cm^3
# Si number density = 24.550035 Si / 1000 Ang^3
#
#
#
# Elastic Constant Matrix: (Units=GPa)
#
#
# Indices 1 2 3 4 5 6 
#
# 1 90.2598 46.5820 30.0220 -4.9569 -15.2094 13.9291
# 2 46.5820 163.1095 62.0430 -19.7668 -17.5886 -5.4579
# 3 30.0220 62.0430 180.7955 -3.1090 1.8608 11.9942
# 4 -4.9569 -19.7668 -3.1090 65.4960 15.2899 0.0222
# 5 -15.2094 -17.5886 1.8608 15.2899 32.5288 -4.4069
# 6 13.9291 -5.4579 11.9942 0.0222 -4.4069 39.9391
#
#
#
# Elastic Compliance Matrix: (Units=1/GPa)
#
#
# Indices 1 2 3 4 5 6 
#
# 1 0.014776 -0.003630 -0.000959 -0.001164 0.004895 -0.004821
# 2 -0.003630 0.008811 -0.002663 0.001563 0.002972 0.003597
# 3 -0.000959 -0.002663 0.006789 0.000059 -0.002624 -0.002358
# 4 -0.001164 0.001563 0.000059 0.017516 -0.007975 -0.000288
# 5 0.004895 0.002972 -0.002624 -0.007975 0.039051 0.003800
# 6 -0.004821 0.003597 -0.002358 -0.000288 0.003800 0.028338
#
#
# Mechanical properties :
#
#
# Convention : Reuss Voigt Hill
#
# Bulk Modulus (GPa) = 63.00215 79.05097 71.02656
# Shear Modulus (GPa) = 37.01646 47.29398 42.15522
#
# Velocity S-wave (km/s) = 3.88725 4.39388 4.14830
# Velocity P-wave (km/s) = 6.77245 7.61652 7.20685
#
# Compressibility (1/GPa) = 0.01587247
#
# Stress axis : x y z
#
# Youngs Moduli (GPa) = 67.67686 113.49883 147.30500
#
# Poissons Ratio (x) = 0.41197 0.14121
# Poissons Ratio (y) = 0.24565 0.39229
# Poissons Ratio (z) = 0.06488 0.30226
#
# Static dielectric constant tensor:
#      x y z
#    x 2.245560 0.513420 0.501490 
#    y 0.513420 2.978710 0.797950 
#    z 0.501490 0.797950 2.772500 
# 
# From -- ./inp_files/229786.got.cif
#   From: 2010.05.17/outbox.cif.g08.bks.cpg/sg2_115_cif.got.tgz:229786.got - 2010.06.03 11:33:40.
