data_PCOD9044072
_publ_section_title
;
Structure prediction by ZEFSAII (Michael W. Deem and Ramdas Pophale) SiO2 
 PCOD9044072
Probable space group: P -1
;
_chemical_formula_sum "Si O2"
_cell_formula_units_Z 16
_cell_length_a 15.763965
_cell_length_b 11.940562
_cell_length_c 9.035678
_cell_angle_alpha 139.630780
_cell_angle_beta 65.817028
_cell_angle_gamma 136.932727
_cell_volume 709.518256
_symmetry_space_group_name_H-M "P -1"
_symmetry_group_IT_number 2
_symmetry_cell_setting 'triclinic'
loop_
_space_group_symop_operation_xyz
x,y,z
-x,-y,-z
loop_
_atom_site_type_symbol
_atom_site_label
_atom_site_fract_x
_atom_site_fract_y
_atom_site_fract_z
Si Si1 0.030365 0.340039 0.308921
Si Si2 0.192926 0.128170 0.195924
Si Si3 0.280696 0.383001 0.831292
Si Si4 0.008535 0.158535 0.470536
Si Si5 0.642243 0.829317 0.637710
Si Si6 0.692140 0.456823 0.711021
Si Si7 0.785777 0.376850 0.072593
Si Si8 0.418228 0.777592 0.720489
O O1 0.009055 0.228462 0.372818
O O2 0.177811 0.487915 0.301075
O O3 0.000000 0.500000 0.500000
O O4 0.925098 0.122897 0.053823
O O5 0.117964 0.150667 0.391111
O O6 0.292144 0.135912 0.218976
O O7 0.263686 0.338996 0.234231
O O8 0.351789 0.326476 0.631556
O O9 0.272670 0.557172 0.930467
O O10 0.341969 0.500168 0.066890
O O11 0.132785 0.112547 0.679195
O O12 0.059678 0.375805 0.764205
O O13 0.491632 0.694148 0.617283
O O14 0.731271 0.114201 0.809863
O O15 0.584554 0.210394 0.443077
O O16 0.725451 0.353737 0.252931
O O17 0.500000 0.000000 0.000000
#
# Coordination Sequence:
#
# PCOD9044072 Si02
#       8
#     2   2   2   2   2   2   2   2
#     4  11  21  35  65 100 131 167 219 267 322 388
#     4  11  20  40  65  94 127 173 220 260 319 389
#     4  12  24  41  64  97 140 168 205 267 341 394
#     4  11  20  40  63  96 136 170 205 268 335 384
#     4  11  26  42  66  97 126 177 227 261 316 391
#     4  11  22  42  66  92 132 172 206 277 329 373
#     4  11  23  43  66  94 131 173 217 268 322 379
#     4  10  23  46  69  91 123 171 233 272 306 379
#
# _framework density 22.550512000000001
#
# number of rings (size 3 to 8) (size 9 to 14) (size 15 to 20)
#    0.000    1.000    6.250    1.875    1.750    4.000 
#    0.000    2.500    0.000    0.000    0.000    0.000 
#    0.000    0.000    0.000    0.000    0.000    0.000 
#
# Total GULP energy -89323.707497 kJ/mol
# GULP energy per Si atom -5582.731719 kJ/mol
# Density = 2.249919 g / cm^3
# Si number density = 22.550512 Si / 1000 Ang^3
#
#
#
# Elastic Constant Matrix: (Units=GPa)
#
#
# Indices 1 2 3 4 5 6 
#
# 1 97.7205 2.0887 45.9712 -6.7301 0.3657 -12.2675
# 2 2.0887 32.6447 25.9627 -2.1078 -6.1201 -16.2396
# 3 45.9712 25.9627 161.9071 0.1822 21.8257 -13.0145
# 4 -6.7301 -2.1078 0.1822 40.3572 -3.5264 6.2084
# 5 0.3657 -6.1201 21.8257 -3.5264 42.1606 3.5153
# 6 -12.2675 -16.2396 -13.0145 6.2084 3.5153 22.7417
#
#
#
# Elastic Compliance Matrix: (Units=1/GPa)
#
#
# Indices 1 2 3 4 5 6 
#
# 1 0.013656 0.008509 -0.004851 0.001492 0.002935 0.009806
# 2 0.008509 0.060217 -0.010259 -0.000661 0.010566 0.040267
# 3 -0.004851 -0.010259 0.009832 -0.001502 -0.006419 -0.002914
# 4 0.001492 -0.000661 -0.001502 0.026597 0.003589 -0.008342
# 5 0.002935 0.010566 -0.006419 0.003589 0.028849 0.000015
# 6 0.009806 0.040267 -0.002914 -0.008342 0.000015 0.078623
#
#
# Mechanical properties :
#
#
# Convention : Reuss Voigt Hill
#
# Bulk Modulus (GPa) = 14.18387 48.92419 31.55403
# Shear Modulus (GPa) = 19.64816 35.60189 27.62503
#
# Velocity S-wave (km/s) = 2.95497 3.97767 3.50384
# Velocity P-wave (km/s) = 4.23627 6.54510 5.51291
#
# Compressibility (1/GPa) = 0.07050262
#
# Stress axis : x y z
#
# Youngs Moduli (GPa) = 73.22658 16.60664 101.71183
#
# Poissons Ratio (x) = -0.14131 0.49342
# Poissons Ratio (y) = -0.62308 1.04345
# Poissons Ratio (z) = 0.35523 0.17037
#
# Static dielectric constant tensor:
#      x y z
#    x 1.843730 0.022900 0.022870 
#    y 0.022900 1.943140 0.062000 
#    z 0.022870 0.062000 1.970570 
# 
# From -- ./inp_files/308763.got.cif
#   From: 2010.05.17/outbox.cif.g08.bks.cpg/sg2_155_cif.got.tgz:308763.got - 2010.06.03 11:33:40.
