data_PCOD9044189
_publ_section_title
;
Structure prediction by ZEFSAII (Michael W. Deem and Ramdas Pophale) SiO2 
 PCOD9044189
Probable space group: P -1
;
_chemical_formula_sum "Si O2"
_cell_formula_units_Z 14
_cell_length_a 13.790751
_cell_length_b 6.434847
_cell_length_c 12.091820
_cell_angle_alpha 134.414259
_cell_angle_beta 127.289680
_cell_angle_gamma 70.409725
_cell_volume 602.319210
_symmetry_space_group_name_H-M "P -1"
_symmetry_group_IT_number 2
_symmetry_cell_setting 'triclinic'
loop_
_space_group_symop_operation_xyz
x,y,z
-x,-y,-z
loop_
_atom_site_type_symbol
_atom_site_label
_atom_site_fract_x
_atom_site_fract_y
_atom_site_fract_z
Si Si1 0.834790 0.734710 0.987884
Si Si2 0.440369 0.872727 0.798331
Si Si3 0.989044 0.503321 0.821268
Si Si4 0.388434 0.249935 0.294581
Si Si5 0.098523 0.602879 0.700864
Si Si6 0.382103 0.166190 0.494712
Si Si7 0.771417 0.956637 0.434293
O O1 0.886994 0.565331 0.060133
O O2 0.833234 0.068311 0.148620
O O3 0.927282 0.704006 0.938348
O O4 0.702003 0.620628 0.802999
O O5 0.542652 0.970010 0.809414
O O6 0.418780 0.518482 0.666061
O O7 0.314935 0.959141 0.693424
O O8 0.500000 0.000000 0.000000
O O9 0.023727 0.621313 0.768844
O O10 0.892133 0.202632 0.625146
O O11 0.500000 0.500000 0.500000
O O12 0.320653 0.132791 0.316847
O O13 0.186606 0.356898 0.676777
O O14 0.000000 0.500000 0.500000
O O15 0.301031 0.056708 0.503892
O O16 0.500000 0.000000 0.500000
#
# Coordination Sequence:
#
# PCOD9044189 Si02
#       7
#     2   2   2   2   2   2   2
#     4  11  26  45  75 105 142 186 246 299 358 432
#     4  11  27  44  72 106 147 185 241 298 367 428
#     4  11  26  48  74 103 144 190 248 293 367 425
#     4  10  23  46  71 101 145 188 234 292 360 427
#     4  12  28  46  72 109 147 188 244 300 366 428
#     4  11  25  47  73 104 142 190 246 290 359 438
#     4  12  27  46  76 102 147 196 235 304 368 423
#
# _framework density 23.243489
#
# number of rings (size 3 to 8) (size 9 to 14) (size 15 to 20)
#    0.000    0.857    2.857    2.571   10.000    4.000 
#    0.000    0.000    0.000    0.000    0.000    0.000 
#    0.000    0.000    0.000    0.000    0.000    0.000 
#
# Total GULP energy -78331.206545 kJ/mol
# GULP energy per Si atom -5595.086182 kJ/mol
# Density = 2.319059 g / cm^3
# Si number density = 23.243489 Si / 1000 Ang^3
#
#
#
# Elastic Constant Matrix: (Units=GPa)
#
#
# Indices 1 2 3 4 5 6 
#
# 1 27.6697 7.1839 16.3444 -6.0065 -1.0624 4.0654
# 2 7.1839 101.7378 65.0267 -9.0546 9.1562 -28.8114
# 3 16.3444 65.0267 139.7249 -28.0141 -3.5917 -8.3984
# 4 -6.0065 -9.0546 -28.0141 55.2847 -7.0667 -9.0890
# 5 -1.0624 9.1562 -3.5917 -7.0667 40.4012 -7.4253
# 6 4.0654 -28.8114 -8.3984 -9.0890 -7.4253 47.5886
#
#
#
# Elastic Compliance Matrix: (Units=1/GPa)
#
#
# Indices 1 2 3 4 5 6 
#
# 1 0.039876 -0.001546 -0.003945 0.001359 0.000419 -0.004714
# 2 -0.001546 0.017565 -0.007540 -0.000030 -0.003051 0.008954
# 3 -0.003945 -0.007540 0.012144 0.004823 0.003412 -0.000631
# 4 0.001359 -0.000030 0.004823 0.022330 0.005449 0.005832
# 5 0.000419 -0.003051 0.003412 0.005449 0.027454 0.004043
# 6 -0.004714 0.008954 -0.000631 0.005832 0.004043 0.028471
#
#
# Mechanical properties :
#
#
# Convention : Reuss Voigt Hill
#
# Bulk Modulus (GPa) = 22.97625 49.58249 36.27937
# Shear Modulus (GPa) = 26.53784 40.69340 33.61562
#
# Velocity S-wave (km/s) = 3.38262 4.18873 3.80707
# Velocity P-wave (km/s) = 5.01624 6.69119 5.91332
#
# Compressibility (1/GPa) = 0.04352320
#
# Stress axis : x y z
#
# Youngs Moduli (GPa) = 25.07774 56.92998 82.34373
#
# Poissons Ratio (x) = 0.08800 0.32487
# Poissons Ratio (y) = 0.03877 0.62089
# Poissons Ratio (z) = 0.09894 0.42926
#
# Static dielectric constant tensor:
#      x y z
#    x 1.922020 0.026700 -0.011980 
#    y 0.026700 1.907000 -0.005310 
#    z -0.011980 -0.005310 1.942390 
# 
# From -- ./inp_files/442347.got.cif
#   From: 2010.05.17/outbox.cif.g08.bks.cpg/sg2_222_cif.got.tgz:442347.got - 2010.06.03 11:33:40.
