data_PCOD9044336
_publ_section_title
;
Structure prediction by ZEFSAII (Michael W. Deem and Ramdas Pophale) SiO2 
 PCOD9044336
Probable space group: P -1
;
_chemical_formula_sum "Si O2"
_cell_formula_units_Z 14
_cell_length_a 8.417871
_cell_length_b 10.882203
_cell_length_c 12.255795
_cell_angle_alpha 101.243447
_cell_angle_beta 99.901420
_cell_angle_gamma 30.938208
_cell_volume 566.088420
_symmetry_space_group_name_H-M "P -1"
_symmetry_group_IT_number 2
_symmetry_cell_setting 'triclinic'
loop_
_space_group_symop_operation_xyz
x,y,z
-x,-y,-z
loop_
_atom_site_type_symbol
_atom_site_label
_atom_site_fract_x
_atom_site_fract_y
_atom_site_fract_z
Si Si1 0.575754 0.133612 0.687665
Si Si2 0.879877 0.185706 0.745274
Si Si3 0.586108 0.115154 0.083561
Si Si4 0.227988 0.155883 0.150626
Si Si5 0.253421 0.013749 0.572199
Si Si6 0.054018 0.505711 0.383825
Si Si7 0.637295 0.374485 0.111570
O O1 0.782298 0.109919 0.755326
O O2 0.678579 0.045782 0.559025
O O3 0.206385 0.403904 0.694708
O O4 0.636011 0.970919 0.738146
O O5 0.566726 0.467595 0.777098
O O6 0.128097 0.094301 0.834477
O O7 0.003262 0.096986 0.622117
O O8 0.284757 0.261107 0.136164
O O9 0.650642 0.216385 0.082297
O O10 0.587657 0.043380 0.956202
O O11 0.910167 0.292850 0.134338
O O12 0.577065 0.757694 0.625430
O O13 0.087227 0.260839 0.606216
O O14 0.000000 0.500000 0.500000
O O15 0.500000 0.500000 0.000000
#
# Coordination Sequence:
#
# PCOD9044336 Si02
#       7
#     2   2   2   2   2   2   2
#     4  11  23  46  74 107 146 201 249 309 386 452
#     4  12  26  45  70 107 150 195 250 321 372 455
#     4  11  25  48  70 110 148 189 257 314 374 457
#     4  11  24  47  78 104 151 197 250 310 387 446
#     4  11  26  47  73 112 150 201 258 314 378 459
#     4  10  23  46  73 102 150 197 256 310 372 454
#     4  12  25  47  74 106 149 196 249 313 380 452
#
# _framework density 24.731117999999999
#
# number of rings (size 3 to 8) (size 9 to 14) (size 15 to 20)
#    0.000    0.857    2.857    4.286    2.000    5.143 
#    2.571    4.286    0.000    0.000    0.000    0.000 
#    0.000    0.000    0.000    0.000    0.000    0.000 
#
# Total GULP energy -78056.931271 kJ/mol
# GULP energy per Si atom -5575.495091 kJ/mol
# Density = 2.467483 g / cm^3
# Si number density = 24.731118 Si / 1000 Ang^3
#
#
#
# Elastic Constant Matrix: (Units=GPa)
#
#
# Indices 1 2 3 4 5 6 
#
# 1 148.9507 45.9615 12.1599 -10.9365 -8.1576 -15.1229
# 2 45.9615 80.9712 22.2415 -13.2737 -10.1235 -13.4622
# 3 12.1599 22.2415 95.6443 -1.8724 -13.9724 -19.2242
# 4 -10.9365 -13.2737 -1.8724 39.2794 -6.4674 -2.4574
# 5 -8.1576 -10.1235 -13.9724 -6.4674 35.0812 16.3601
# 6 -15.1229 -13.4622 -19.2242 -2.4574 16.3601 41.3156
#
#
#
# Elastic Compliance Matrix: (Units=1/GPa)
#
#
# Indices 1 2 3 4 5 6 
#
# 1 0.008280 -0.004315 0.000354 0.001005 0.000177 0.001779
# 2 -0.004315 0.016996 -0.002487 0.005028 0.002933 0.001939
# 3 0.000354 -0.002487 0.012165 0.000488 0.002409 0.004055
# 4 0.001005 0.005028 0.000488 0.028620 0.006525 0.001352
# 5 0.000177 0.002933 0.002409 0.006525 0.037255 -0.012223
# 6 0.001779 0.001939 0.004055 0.001352 -0.012223 0.032294
#
#
# Mechanical properties :
#
#
# Convention : Reuss Voigt Hill
#
# Bulk Modulus (GPa) = 40.74112 54.03245 47.38678
# Shear Modulus (GPa) = 31.91063 39.48213 35.69638
#
# Velocity S-wave (km/s) = 3.59598 3.99990 3.80330
# Velocity P-wave (km/s) = 5.80954 6.57478 6.20397
#
# Compressibility (1/GPa) = 0.02454523
#
# Stress axis : x y z
#
# Youngs Moduli (GPa) = 120.76997 58.83875 82.20142
#
# Poissons Ratio (x) = 0.25387 -0.02908
# Poissons Ratio (y) = 0.52108 0.20444
# Poissons Ratio (z) = -0.04272 0.14633
#
# Static dielectric constant tensor:
#      x y z
#    x 2.030380 0.005330 0.056650 
#    y 0.005330 2.164930 0.020850 
#    z 0.056650 0.020850 1.982460 
# 
# From -- ./inp_files/392688.got.cif
#   From: 2010.05.17/outbox.cif.g08.bks.cpg/sg2_197_cif.got.tgz:392688.got - 2010.06.03 11:33:40.
