data_PCOD9044489
_publ_section_title
;
Structure prediction by ZEFSAII (Michael W. Deem and Ramdas Pophale) SiO2 
 PCOD9044489
Probable space group: P -1
;
_chemical_formula_sum "Si O2"
_cell_formula_units_Z 14
_cell_length_a 9.370023
_cell_length_b 8.558431
_cell_length_c 9.247362
_cell_angle_alpha 89.682273
_cell_angle_beta 95.880885
_cell_angle_gamma 49.777662
_cell_volume 560.726251
_symmetry_space_group_name_H-M "P -1"
_symmetry_group_IT_number 2
_symmetry_cell_setting 'triclinic'
loop_
_space_group_symop_operation_xyz
x,y,z
-x,-y,-z
loop_
_atom_site_type_symbol
_atom_site_label
_atom_site_fract_x
_atom_site_fract_y
_atom_site_fract_z
Si Si1 0.291134 0.689449 0.039742
Si Si2 0.348318 0.907416 0.578781
Si Si3 0.498203 0.310067 0.699951
Si Si4 0.162605 0.781650 0.715821
Si Si5 0.895503 0.683183 0.603427
Si Si6 0.619178 0.924886 0.160390
Si Si7 0.952479 0.418929 0.865694
O O1 0.322890 0.784842 0.175903
O O2 0.188610 0.612599 0.095380
O O3 0.500000 0.500000 0.000000
O O4 0.172215 0.822533 0.885332
O O5 0.280484 0.114327 0.494087
O O6 0.444427 0.892761 0.738432
O O7 0.456859 0.743673 0.463109
O O8 0.172293 0.925334 0.613488
O O9 0.359035 0.553936 0.701547
O O10 0.403902 0.224224 0.760545
O O11 0.011540 0.752943 0.670088
O O12 0.864470 0.588640 0.731801
O O13 0.000000 0.500000 0.500000
O O14 0.842292 0.789908 0.159135
O O15 0.500000 0.000000 0.000000
O O16 0.000000 0.500000 0.000000
#
# Coordination Sequence:
#
# PCOD9044489 Si02
#       7
#     2   2   2   2   2   2   2
#     4  10  23  46  77 110 145 197 250 304 372 448
#     4  12  27  45  73 115 148 195 248 312 373 445
#     4  11  24  48  72 110 151 195 248 308 373 441
#     4  11  23  48  70 107 154 193 248 303 373 449
#     4  12  25  47  74 108 155 191 248 310 376 444
#     4  12  27  50  74 111 152 197 253 309 369 453
#     4  12  24  48  79 107 147 202 249 304 376 442
#
# _framework density 24.967621000000001
#
# number of rings (size 3 to 8) (size 9 to 14) (size 15 to 20)
#    0.000    0.571    4.286    3.000    4.000    2.286 
#    5.143    2.143    0.000    0.000    0.000    0.000 
#    0.000    0.000    0.000    0.000    0.000    0.000 
#
# Total GULP energy -78450.159461 kJ/mol
# GULP energy per Si atom -5603.582819 kJ/mol
# Density = 2.491079 g / cm^3
# Si number density = 24.967621 Si / 1000 Ang^3
#
#
#
# Elastic Constant Matrix: (Units=GPa)
#
#
# Indices 1 2 3 4 5 6 
#
# 1 174.1365 38.2376 73.3548 -3.5304 -17.1044 8.0834
# 2 38.2376 67.7897 45.2933 3.0391 -0.8844 7.9828
# 3 73.3548 45.2933 190.8023 9.8452 -0.0103 9.6480
# 4 -3.5304 3.0391 9.8452 47.6016 18.3933 -0.1917
# 5 -17.1044 -0.8844 -0.0103 18.3933 55.6899 -9.4344
# 6 8.0834 7.9828 9.6480 -0.1917 -9.4344 32.3016
#
#
#
# Elastic Compliance Matrix: (Units=1/GPa)
#
#
# Indices 1 2 3 4 5 6 
#
# 1 0.007509 -0.002723 -0.002264 0.000365 0.002160 0.000103
# 2 -0.002723 0.018845 -0.003241 -0.000372 -0.000973 -0.003294
# 3 -0.002264 -0.003241 0.006988 -0.001220 -0.000490 -0.000870
# 4 0.000365 -0.000372 -0.001220 0.024517 -0.008316 -0.001918
# 5 0.002160 -0.000973 -0.000490 -0.008316 0.022426 0.006347
# 6 0.000103 -0.003294 -0.000870 -0.001918 0.006347 0.033849
#
#
# Mechanical properties :
#
#
# Convention : Reuss Voigt Hill
#
# Bulk Modulus (GPa) = 59.22361 82.94442 71.08402
# Shear Modulus (GPa) = 36.70571 45.50814 41.10692
#
# Velocity S-wave (km/s) = 3.83839 4.27392 4.06200
# Velocity P-wave (km/s) = 6.58908 7.59264 7.10859
#
# Compressibility (1/GPa) = 0.01688516
#
# Stress axis : x y z
#
# Youngs Moduli (GPa) = 133.17011 53.06537 143.10496
#
# Poissons Ratio (x) = 0.14450 0.32406
# Poissons Ratio (y) = 0.36262 0.46378
# Poissons Ratio (z) = 0.30156 0.17198
#
# Static dielectric constant tensor:
#      x y z
#    x 2.055780 -0.103950 0.085680 
#    y -0.103950 2.078330 -0.037080 
#    z 0.085680 -0.037080 2.027790 
# 
# From -- ./inp_files/158649.got.cif
#   From: 2010.05.17/outbox.cif.g08.bks.cpg/sg2_80_cif.got.tgz:158649.got - 2010.06.03 11:33:40.
