data_PCOD9044015
_publ_section_title
;
Structure prediction by ZEFSAII (Michael W. Deem and Ramdas Pophale) SiO2 
 PCOD9044015
Probable space group: P -1
;
_chemical_formula_sum "Si O2"
_cell_formula_units_Z 16
_cell_length_a 20.067891
_cell_length_b 6.324321
_cell_length_c 9.162360
_cell_angle_alpha 94.933995
_cell_angle_beta 132.167966
_cell_angle_gamma 66.853045
_cell_volume 765.028967
_symmetry_space_group_name_H-M "P -1"
_symmetry_group_IT_number 2
_symmetry_cell_setting 'triclinic'
loop_
_space_group_symop_operation_xyz
x,y,z
-x,-y,-z
loop_
_atom_site_type_symbol
_atom_site_label
_atom_site_fract_x
_atom_site_fract_y
_atom_site_fract_z
Si Si1 0.778482 0.066277 0.825142
Si Si2 0.439454 0.655159 0.559245
Si Si3 0.209930 0.552643 0.914702
Si Si4 0.407452 0.190192 0.045160
Si Si5 0.544185 0.648823 0.164555
Si Si6 0.051499 0.423588 0.817944
Si Si7 0.929635 0.924856 0.795920
Si Si8 0.919642 0.186727 0.500829
O O1 0.662276 0.129850 0.639884
O O2 0.823898 0.032810 0.728461
O O3 0.779956 0.284319 0.932643
O O4 0.859157 0.820081 0.001795
O O5 0.500000 0.500000 0.500000
O O6 0.509199 0.747396 0.753026
O O7 0.413254 0.497616 0.630755
O O8 0.113424 0.510872 0.806622
O O9 0.183433 0.695771 0.732633
O O10 0.309368 0.313402 0.010131
O O11 0.454277 0.906360 0.089303
O O12 0.391303 0.290274 0.859482
O O13 0.500000 0.500000 0.000000
O O14 0.990832 0.641498 0.850894
O O15 0.966081 0.363560 0.623052
O O16 0.914485 0.046144 0.625146
O O17 0.000000 0.000000 0.000000
O O18 0.000000 0.000000 0.500000
#
# Coordination Sequence:
#
# PCOD9044015 Si02
#       8
#     2   2   2   2   2   2   2   2
#     4  12  26  44  67 100 134 179 222 269 340 390
#     4  11  24  43  69  99 135 171 218 279 328 393
#     4  12  25  42  71  97 132 177 223 270 332 395
#     4  10  23  46  68  98 132 178 221 270 329 395
#     4   9  22  46  67  89 137 170 218 276 325 380
#     4  12  24  43  69  95 138 176 221 271 334 387
#     4  12  24  46  67  95 139 175 218 280 324 396
#     4  12  24  45  66  97 134 171 222 274 325 393
#
# _framework density 20.914238999999998
#
# number of rings (size 3 to 8) (size 9 to 14) (size 15 to 20)
#    0.000    0.750    6.250    0.750    3.500    1.500 
#    6.750    0.000    0.000    0.000    0.000    0.000 
#    0.000    0.000    0.000    0.000    0.000    0.000 
#
# Total GULP energy -89332.530094 kJ/mol
# GULP energy per Si atom -5583.283131 kJ/mol
# Density = 2.086664 g / cm^3
# Si number density = 20.914239 Si / 1000 Ang^3
#
#
#
# Elastic Constant Matrix: (Units=GPa)
#
#
# Indices 1 2 3 4 5 6 
#
# 1 75.1533 35.6691 24.0194 -2.8620 -10.1643 -29.5754
# 2 35.6691 145.4975 17.9073 13.9189 -4.3056 -34.9544
# 3 24.0194 17.9073 59.7174 0.7599 -16.5565 -13.9821
# 4 -2.8620 13.9189 0.7599 19.4539 -4.3985 -0.3146
# 5 -10.1643 -4.3056 -16.5565 -4.3985 37.4680 -8.0239
# 6 -29.5754 -34.9544 -13.9821 -0.3146 -8.0239 40.3838
#
#
#
# Elastic Compliance Matrix: (Units=1/GPa)
#
#
# Indices 1 2 3 4 5 6 
#
# 1 0.022828 -0.001814 -0.002367 0.007101 0.009246 0.016221
# 2 -0.001814 0.009782 -0.000003 -0.006828 0.001406 0.007364
# 3 -0.002367 -0.000003 0.022826 0.001483 0.011428 0.008449
# 4 0.007101 -0.006828 0.001483 0.059394 0.009219 0.002098
# 5 0.009246 0.001406 0.011428 0.009219 0.039756 0.019916
# 6 0.016221 0.007364 0.008449 0.002098 0.019916 0.049915
#
#
# Mechanical properties :
#
#
# Convention : Reuss Voigt Hill
#
# Bulk Modulus (GPa) = 21.24543 48.39553 34.82048
# Shear Modulus (GPa) = 21.87627 32.97929 27.42778
#
# Velocity S-wave (km/s) = 3.23770 3.97531 3.62531
# Velocity P-wave (km/s) = 4.91501 6.65289 5.84886
#
# Compressibility (1/GPa) = 0.04706895
#
# Stress axis : x y z
#
# Youngs Moduli (GPa) = 43.80580 102.23019 43.80942
#
# Poissons Ratio (x) = 0.18542 0.10369
# Poissons Ratio (y) = 0.07945 0.00013
# Poissons Ratio (z) = 0.10368 0.00030
#
# Static dielectric constant tensor:
#      x y z
#    x 1.698620 0.015440 -0.118720 
#    y 0.015440 1.742140 -0.046620 
#    z -0.118720 -0.046620 1.641360 
# 
# From -- ./inp_files/38877.got.cif
#   From: 2010.05.17/outbox.cif.g08.bks.cpg/sg2_20_cif.got.tgz:38877.got - 2010.06.03 11:33:40.
