data_PCOD9044426
_publ_section_title
;
Structure prediction by ZEFSAII (Michael W. Deem and Ramdas Pophale) SiO2 
 PCOD9044426
Probable space group: P -1
;
_chemical_formula_sum "Si O2"
_cell_formula_units_Z 16
_cell_length_a 22.471073
_cell_length_b 6.060998
_cell_length_c 15.880875
_cell_angle_alpha 100.270447
_cell_angle_beta 23.302485
_cell_angle_gamma 113.418010
_cell_volume 673.308397
_symmetry_space_group_name_H-M "P -1"
_symmetry_group_IT_number 2
_symmetry_cell_setting 'triclinic'
loop_
_space_group_symop_operation_xyz
x,y,z
-x,-y,-z
loop_
_atom_site_type_symbol
_atom_site_label
_atom_site_fract_x
_atom_site_fract_y
_atom_site_fract_z
Si Si1 0.844905 0.592069 0.898568
Si Si2 0.851215 0.184833 0.202281
Si Si3 0.307150 0.188142 0.986259
Si Si4 0.017163 0.010954 0.845209
Si Si5 0.530152 0.292707 0.005076
Si Si6 0.086932 0.402174 0.525206
Si Si7 0.448870 0.965683 0.662260
Si Si8 0.670764 0.552950 0.629484
O O1 0.713191 0.571499 0.995580
O O2 0.003389 0.575296 0.652726
O O3 0.719272 0.349105 0.113468
O O4 0.938686 0.877902 0.847399
O O5 0.916268 0.150617 0.204717
O O6 0.638736 0.071283 0.470482
O O7 0.000000 0.500000 0.000000
O O8 0.871455 0.002853 0.094946
O O9 0.465084 0.272528 0.855728
O O10 0.100170 0.914926 0.260351
O O11 0.378978 0.136441 0.803142
O O12 0.198992 0.326623 0.613774
O O13 0.754299 0.497776 0.744342
O O14 0.500000 0.500000 0.000000
O O15 0.380694 0.234454 0.265412
O O16 0.500000 0.000000 0.000000
O O17 0.208602 0.459892 0.455777
O O18 0.500000 0.000000 0.500000
#
# Coordination Sequence:
#
# PCOD9044426 Si02
#       8
#     2   2   2   2   2   2   2   2
#     4  11  23  41  65  90 134 174 222 287 348 409
#     4  11  24  39  58  91 129 168 229 280 340 415
#     4  11  24  43  65 102 133 178 236 281 348 418
#     4  11  23  38  64  92 126 177 223 279 344 407
#     4  10  23  46  74 110 143 188 236 293 361 433
#     4  10  24  44  70  96 141 177 225 286 353 421
#     4  11  24  39  60  90 133 177 225 286 351 408
#     4  11  23  44  73  99 136 182 233 282 351 422
#
# _framework density 23.763255000000001
#
# number of rings (size 3 to 8) (size 9 to 14) (size 15 to 20)
#    0.000    1.250    1.250    3.750    7.000    4.500 
#    9.000    0.625    0.000    0.000    0.000    0.000 
#    0.000    0.000    0.000    0.000    0.000    0.000 
#
# Total GULP energy -89313.300234 kJ/mol
# GULP energy per Si atom -5582.081265 kJ/mol
# Density = 2.370917 g / cm^3
# Si number density = 23.763255 Si / 1000 Ang^3
#
#
#
# Elastic Constant Matrix: (Units=GPa)
#
#
# Indices 1 2 3 4 5 6 
#
# 1 68.5311 22.2972 20.1919 1.2286 -14.0979 -3.1418
# 2 22.2972 66.1768 26.6967 17.9037 -15.0709 -1.5960
# 3 20.1919 26.6967 154.7571 22.7785 -17.5581 -4.7969
# 4 1.2286 17.9037 22.7785 37.8886 3.1570 -3.8161
# 5 -14.0979 -15.0709 -17.5581 3.1570 42.3857 5.0250
# 6 -3.1418 -1.5960 -4.7969 -3.8161 5.0250 21.4143
#
#
#
# Elastic Compliance Matrix: (Units=1/GPa)
#
#
# Indices 1 2 3 4 5 6 
#
# 1 0.017352 -0.005321 -0.001360 0.002691 0.002921 0.001639
# 2 -0.005321 0.021464 -0.000827 -0.010301 0.006613 -0.002754
# 3 -0.001360 -0.000827 0.007756 -0.004458 0.002795 0.000026
# 4 0.002691 -0.010301 -0.004458 0.035208 -0.008042 0.006790
# 5 0.002921 0.006613 0.002795 -0.008042 0.029479 -0.006803
# 6 0.001639 -0.002754 0.000026 0.006790 -0.006803 0.049545
#
#
# Mechanical properties :
#
#
# Convention : Reuss Voigt Hill
#
# Bulk Modulus (GPa) = 31.69015 47.53739 39.61377
# Shear Modulus (GPa) = 26.83288 35.02301 30.92795
#
# Velocity S-wave (km/s) = 3.36397 3.84321 3.61155
# Velocity P-wave (km/s) = 5.33414 6.30410 5.83930
#
# Compressibility (1/GPa) = 0.03155555
#
# Stress axis : x y z
#
# Youngs Moduli (GPa) = 57.63142 46.58940 128.93172
#
# Poissons Ratio (x) = 0.24790 0.17533
# Poissons Ratio (y) = 0.30665 0.10667
# Poissons Ratio (z) = 0.07837 0.03854
#
# Static dielectric constant tensor:
#      x y z
#    x 1.990190 0.021890 0.006480 
#    y 0.021890 1.982800 -0.015380 
#    z 0.006480 -0.015380 1.879950 
# 
# From -- ./inp_files/45760.got.cif
#   From: 2010.05.17/outbox.cif.g08.bks.cpg/sg2_23_cif.got.tgz:45760.got - 2010.06.03 11:33:40.
