data_PCOD9044967
_publ_section_title
;
Structure prediction by ZEFSAII (Michael W. Deem and Ramdas Pophale) SiO2 
 PCOD9044967
Probable space group: P -1
;
_chemical_formula_sum "Si O2"
_cell_formula_units_Z 16
_cell_length_a 11.142627
_cell_length_b 25.604930
_cell_length_c 5.845132
_cell_angle_alpha 57.191515
_cell_angle_beta 119.674026
_cell_angle_gamma 153.128304
_cell_volume 633.230063
_symmetry_space_group_name_H-M "P -1"
_symmetry_group_IT_number 2
_symmetry_cell_setting 'triclinic'
loop_
_space_group_symop_operation_xyz
x,y,z
-x,-y,-z
loop_
_atom_site_type_symbol
_atom_site_label
_atom_site_fract_x
_atom_site_fract_y
_atom_site_fract_z
Si Si1 0.782802 0.037876 0.062122
Si Si2 0.703664 0.798467 0.117626
Si Si3 0.230098 0.597400 0.802202
Si Si4 0.130180 0.233597 0.295826
Si Si5 0.056485 0.419967 0.752052
Si Si6 0.534426 0.166541 0.014428
Si Si7 0.268364 0.396087 0.710139
Si Si8 0.223163 0.836996 0.483976
O O1 0.693734 0.070365 0.801091
O O2 0.002866 0.094099 0.962383
O O3 0.550122 0.898205 0.150411
O O4 0.944064 0.114918 0.259384
O O5 0.685088 0.736564 0.434655
O O6 0.500992 0.708996 0.930318
O O7 0.630715 0.836162 0.071311
O O8 0.140378 0.621785 0.512891
O O9 0.207706 0.530064 0.775275
O O10 0.000000 0.500000 0.000000
O O11 0.940545 0.201244 0.358851
O O12 0.272262 0.334191 0.010058
O O13 0.244939 0.444424 0.745405
O O14 0.844392 0.303497 0.985378
O O15 0.530985 0.110191 0.331243
O O16 0.500000 0.500000 0.500000
O O17 0.990825 0.282061 0.585923
#
# Coordination Sequence:
#
# PCOD9044967 Si02
#       8
#     2   2   2   2   2   2   2   2
#     4  10  25  45  74 104 143 192 231 300 359 420
#     4  11  25  46  74 107 145 189 236 293 362 436
#     4  11  25  48  72 105 148 191 230 302 366 421
#     4  10  24  49  67 108 144 186 242 290 370 418
#     4  11  26  47  74 109 140 190 243 294 359 429
#     4  12  23  48  73 105 145 182 246 293 352 434
#     4  11  25  48  75 103 145 193 242 298 351 430
#     4  10  23  48  70 106 142 187 242 295 360 420
#
# _framework density 25.267278000000001
#
# number of rings (size 3 to 8) (size 9 to 14) (size 15 to 20)
#    0.000    1.250    2.500    1.500    1.750    5.500 
#   11.250    0.625    0.000    0.000    0.000    0.000 
#    0.000    0.000    0.000    0.000    0.000    0.000 
#
# Total GULP energy -89733.550491 kJ/mol
# GULP energy per Si atom -5608.346906 kJ/mol
# Density = 2.520977 g / cm^3
# Si number density = 25.267278 Si / 1000 Ang^3
#
#
#
# Elastic Constant Matrix: (Units=GPa)
#
#
# Indices 1 2 3 4 5 6 
#
# 1 127.5078 17.5504 46.4586 -11.0131 17.2600 -8.1404
# 2 17.5504 107.6574 45.4351 7.4624 18.0429 -14.2929
# 3 46.4586 45.4351 128.8859 21.5810 19.0581 -2.9256
# 4 -11.0131 7.4624 21.5810 40.2407 12.4205 -7.1635
# 5 17.2600 18.0429 19.0581 12.4205 40.1947 -6.9296
# 6 -8.1404 -14.2929 -2.9256 -7.1635 -6.9296 40.3671
#
#
#
# Elastic Compliance Matrix: (Units=1/GPa)
#
#
# Indices 1 2 3 4 5 6 
#
# 1 0.010839 0.000819 -0.004664 0.007198 -0.004582 0.002629
# 2 0.000819 0.011913 -0.004213 0.002093 -0.003691 0.003816
# 3 -0.004664 -0.004213 0.012120 -0.007499 -0.000034 -0.002890
# 4 0.007198 0.002093 -0.007499 0.034663 -0.010141 0.006059
# 5 -0.004582 -0.003691 -0.000034 -0.010141 0.031902 0.001444
# 6 0.002629 0.003816 -0.002890 0.006059 0.001444 0.027767
#
#
# Mechanical properties :
#
#
# Convention : Reuss Voigt Hill
#
# Bulk Modulus (GPa) = 53.31316 64.77102 59.04209
# Shear Modulus (GPa) = 32.98756 41.13431 37.06093
#
# Velocity S-wave (km/s) = 3.61715 4.03919 3.83398
# Velocity P-wave (km/s) = 6.21213 6.88791 6.55873
#
# Compressibility (1/GPa) = 0.01875709
#
# Stress axis : x y z
#
# Youngs Moduli (GPa) = 92.25996 83.93954 82.50645
#
# Poissons Ratio (x) = -0.06877 0.38480
# Poissons Ratio (y) = -0.07559 0.34761
# Poissons Ratio (z) = 0.43029 0.35365
#
# Static dielectric constant tensor:
#      x y z
#    x 1.953720 0.043770 -0.081690 
#    y 0.043770 1.906770 0.317480 
#    z -0.081690 0.317480 0.967860 
# 
# From -- ./inp_files/84257.got.cif
#   From: 2010.05.17/outbox.cif.g08.bks.cpg/sg2_43_cif.got.tgz:84257.got - 2010.06.03 11:33:40.
