data_PCOD9044616
_publ_section_title
;
Structure prediction by ZEFSAII (Michael W. Deem and Ramdas Pophale) SiO2 
 PCOD9044616
Probable space group: P -1
;
_chemical_formula_sum "Si O2"
_cell_formula_units_Z 15
_cell_length_a 14.327032
_cell_length_b 9.082554
_cell_length_c 6.606334
_cell_angle_alpha 59.432074
_cell_angle_beta 81.752118
_cell_angle_gamma 64.511049
_cell_volume 664.992149
_symmetry_space_group_name_H-M "P -1"
_symmetry_group_IT_number 2
_symmetry_cell_setting 'triclinic'
loop_
_space_group_symop_operation_xyz
x,y,z
-x,-y,-z
loop_
_atom_site_type_symbol
_atom_site_label
_atom_site_fract_x
_atom_site_fract_y
_atom_site_fract_z
Si Si1 0.705049 0.277625 0.657304
Si Si2 0.873996 0.286735 0.325699
Si Si3 0.471005 0.823323 0.372618
Si Si4 0.947342 0.945613 0.247746
Si Si5 0.644661 0.757810 0.031968
Si Si6 0.169273 0.157562 0.956236
Si Si7 0.591162 0.555386 0.854967
Si Si8 0.000000 0.500000 0.000000
O O1 0.769863 0.353588 0.441902
O O2 0.605624 0.276561 0.575088
O O3 0.665020 0.397584 0.788567
O O4 0.779589 0.060189 0.837128
O O5 0.965025 0.190351 0.533147
O O6 0.903450 0.439996 0.103094
O O7 0.880009 0.129428 0.271082
O O8 0.530121 0.747209 0.614694
O O9 0.403626 0.044892 0.215532
O O10 0.557309 0.764987 0.211773
O O11 0.878947 0.843706 0.248700
O O12 0.000000 0.000000 0.000000
O O13 0.740580 0.769977 0.112050
O O14 0.656642 0.597317 0.979448
O O15 0.074348 0.286127 0.038163
O O16 0.500000 0.500000 0.000000
#
# Coordination Sequence:
#
# PCOD9044616 Si02
#       8
#     2   2   2   2   2   2   2   1
#     4  11  24  46  73 106 142 195 243 285 361 435
#     4  11  25  44  73 105 139 184 238 297 356 432
#     4  10  23  47  69 104 148 183 238 302 352 421
#     4  11  21  49  74  98 139 186 241 293 356 427
#     4  10  24  47  71 105 148 185 240 294 360 428
#     4  11  25  45  72 105 142 191 234 295 361 422
#     4  12  25  43  73 105 145 195 238 295 351 422
#     4  12  26  46  70 108 148 176 236 308 356 418
#
# _framework density 22.556656
#
# number of rings (size 3 to 8) (size 9 to 14) (size 15 to 20)
#    0.000    1.067    4.000    1.600    1.867    3.733 
#    7.200    0.000    0.000    0.000    0.000    0.000 
#    0.000    0.000    0.000    0.000    0.000    0.000 
#
# Total GULP energy -83706.528139 kJ/mol
# GULP energy per Si atom -5580.435209 kJ/mol
# Density = 2.250532 g / cm^3
# Si number density = 22.556656 Si / 1000 Ang^3
#
#
#
# Elastic Constant Matrix: (Units=GPa)
#
#
# Indices 1 2 3 4 5 6 
#
# 1 167.1647 82.7933 45.2187 23.7126 -17.8427 26.6087
# 2 82.7933 127.5307 37.9497 30.4893 -5.1704 6.3648
# 3 45.2187 37.9497 58.8552 14.3749 2.4113 15.5620
# 4 23.7126 30.4893 14.3749 31.3028 -0.2215 2.3220
# 5 -17.8427 -5.1704 2.4113 -0.2215 47.4776 3.2926
# 6 26.6087 6.3648 15.5620 2.3220 3.2926 40.2390
#
#
#
# Elastic Compliance Matrix: (Units=1/GPa)
#
#
# Indices 1 2 3 4 5 6 
#
# 1 0.011077 -0.005475 -0.003469 -0.001036 0.004112 -0.005394
# 2 -0.005475 0.014343 -0.003887 -0.008293 -0.000571 0.003380
# 3 -0.003469 -0.003887 0.025072 -0.004650 -0.002585 -0.006308
# 4 -0.001036 -0.008293 -0.004650 0.042832 -0.000953 0.001401
# 5 0.004112 -0.000571 -0.002585 -0.000953 0.022912 -0.003449
# 6 -0.005394 0.003380 -0.006308 0.001401 -0.003449 0.030524
#
#
# Mechanical properties :
#
#
# Convention : Reuss Voigt Hill
#
# Bulk Modulus (GPa) = 40.27500 76.16380 58.21940
# Shear Modulus (GPa) = 27.67042 36.30981 31.99011
#
# Velocity S-wave (km/s) = 3.50624 4.01648 3.77000
# Velocity P-wave (km/s) = 5.85537 7.43965 6.69454
#
# Compressibility (1/GPa) = 0.02482930
#
# Stress axis : x y z
#
# Youngs Moduli (GPa) = 90.28030 69.72056 39.88521
#
# Poissons Ratio (x) = 0.38173 0.13837
# Poissons Ratio (y) = 0.49430 0.15502
# Poissons Ratio (z) = 0.31321 0.27098
#
# Static dielectric constant tensor:
#      x y z
#    x 1.823420 -0.029150 0.039760 
#    y -0.029150 1.844840 -0.046490 
#    z 0.039760 -0.046490 1.877450 
# 
# From -- ./inp_files/88572.got.cif
#   From: 2010.05.17/outbox.cif.g08.bks.cpg/sg2_45_cif.got.tgz:88572.got - 2010.06.03 11:33:40.
