data_PCOD9044043
_publ_section_title
;
Structure prediction by ZEFSAII (Michael W. Deem and Ramdas Pophale) SiO2 
 PCOD9044043
Probable space group: P -1
;
_chemical_formula_sum "Si O2"
_cell_formula_units_Z 12
_cell_length_a 14.008798
_cell_length_b 8.154000
_cell_length_c 5.063176
_cell_angle_alpha 84.317609
_cell_angle_beta 52.565416
_cell_angle_gamma 87.655655
_cell_volume 456.848899
_symmetry_space_group_name_H-M "P -1"
_symmetry_group_IT_number 2
_symmetry_cell_setting 'triclinic'
loop_
_space_group_symop_operation_xyz
x,y,z
-x,-y,-z
loop_
_atom_site_type_symbol
_atom_site_label
_atom_site_fract_x
_atom_site_fract_y
_atom_site_fract_z
Si Si1 0.931469 0.325452 0.182405
Si Si2 0.474753 0.838964 0.739794
Si Si3 0.545298 0.658408 0.152472
Si Si4 0.157648 0.133736 0.744266
Si Si5 0.294314 0.479815 0.470885
Si Si6 0.199276 0.904504 0.210738
O O1 0.797972 0.378425 0.316800
O O2 0.899722 0.239270 0.532367
O O3 0.000000 0.500000 0.000000
O O4 0.021313 0.194768 0.929355
O O5 0.535712 0.715356 0.455192
O O6 0.500000 0.000000 0.500000
O O7 0.532606 0.807204 0.934329
O O8 0.331079 0.827630 0.002008
O O9 0.422766 0.555189 0.326912
O O10 0.666265 0.562518 0.894878
O O11 0.230839 0.302891 0.671425
O O12 0.196403 0.039256 0.430447
O O13 0.175561 0.004524 0.969952
#
# Coordination Sequence:
#
# PCOD9044043 Si02
#       6
#     2   2   2   2   2   2
#     4  10  23  47  70 102 135 182 230 282 338 403
#     4  12  24  42  69 103 139 179 223 278 340 406
#     4  11  24  43  68  99 139 178 228 276 337 405
#     4  11  25  45  71 100 138 179 230 279 341 402
#     4  10  23  46  69 102 136 185 224 283 337 405
#     4  12  24  46  69 102 138 178 228 283 339 402
#
# _framework density 26.266888000000002
#
# number of rings (size 3 to 8) (size 9 to 14) (size 15 to 20)
#    0.000    1.000    1.667    4.500    0.000    4.000 
#    0.000    5.000    0.000    0.000    0.000    0.000 
#    0.000    0.000    0.000    0.000    0.000    0.000 
#
# Total GULP energy -67034.524629 kJ/mol
# GULP energy per Si atom -5586.210386 kJ/mol
# Density = 2.620710 g / cm^3
# Si number density = 26.266888 Si / 1000 Ang^3
#
#
#
# Elastic Constant Matrix: (Units=GPa)
#
#
# Indices 1 2 3 4 5 6 
#
# 1 89.0549 26.3513 46.8020 4.8584 -6.8819 -22.0505
# 2 26.3513 109.1555 33.5672 -5.8046 -12.8837 -34.9720
# 3 46.8020 33.5672 120.1901 4.0093 -17.5602 -14.4546
# 4 4.8584 -5.8046 4.0093 61.4614 -1.8999 -9.5004
# 5 -6.8819 -12.8837 -17.5602 -1.8999 45.4246 -2.7009
# 6 -22.0505 -34.9720 -14.4546 -9.5004 -2.7009 38.6243
#
#
#
# Elastic Compliance Matrix: (Units=1/GPa)
#
#
# Indices 1 2 3 4 5 6 
#
# 1 0.015781 0.000316 -0.005208 0.000308 0.000925 0.007487
# 2 0.000316 0.015043 -0.002073 0.003881 0.004526 0.014297
# 3 -0.005208 -0.002073 0.011309 -0.000514 0.002941 -0.000539
# 4 0.000308 0.003881 -0.000514 0.017960 0.002179 0.008067
# 5 0.000925 0.004526 0.002941 0.002179 0.025143 0.008021
# 6 0.007487 0.014297 -0.000539 0.008067 0.008021 0.045453
#
#
# Mechanical properties :
#
#
# Convention : Reuss Voigt Hill
#
# Bulk Modulus (GPa) = 35.45688 59.09348 47.27518
# Shear Modulus (GPa) = 32.46278 43.21404 37.83841
#
# Velocity S-wave (km/s) = 3.51933 4.06050 3.79956
# Velocity P-wave (km/s) = 5.48108 6.67306 6.10622
#
# Compressibility (1/GPa) = 0.02820327
#
# Stress axis : x y z
#
# Youngs Moduli (GPa) = 63.36693 66.47390 88.42264
#
# Poissons Ratio (x) = -0.02102 0.46052
# Poissons Ratio (y) = -0.02004 0.18334
# Poissons Ratio (z) = 0.33002 0.13783
#
# Static dielectric constant tensor:
#      x y z
#    x 2.146380 0.098980 0.070330 
#    y 0.098980 2.411260 0.103280 
#    z 0.070330 0.103280 2.165420 
# 
# From -- ./inp_files/65289.got.cif
#   From: 2010.05.17/outbox.cif.g08.bks.cpg/sg2_33_cif.got.tgz:65289.got - 2010.06.03 11:33:40.
