data_PCOD9044452
_publ_section_title
;
Structure prediction by ZEFSAII (Michael W. Deem and Ramdas Pophale) SiO2 
 PCOD9044452
Probable space group: P -1
;
_chemical_formula_sum "Si O2"
_cell_formula_units_Z 14
_cell_length_a 12.409222
_cell_length_b 8.497617
_cell_length_c 10.836075
_cell_angle_alpha 45.732787
_cell_angle_beta 141.736885
_cell_angle_gamma 126.932077
_cell_volume 503.110787
_symmetry_space_group_name_H-M "P -1"
_symmetry_group_IT_number 2
_symmetry_cell_setting 'triclinic'
loop_
_space_group_symop_operation_xyz
x,y,z
-x,-y,-z
loop_
_atom_site_type_symbol
_atom_site_label
_atom_site_fract_x
_atom_site_fract_y
_atom_site_fract_z
Si Si1 0.135156 0.451975 0.385208
Si Si2 0.613446 0.139754 0.163740
Si Si3 0.698521 0.726537 0.597427
Si Si4 0.517165 0.269990 0.372871
Si Si5 0.237352 0.039231 0.835865
Si Si6 0.991291 0.982846 0.149500
Si Si7 0.802715 0.560469 0.146235
O O1 0.199522 0.418777 0.322093
O O2 0.280374 0.621304 0.496070
O O3 0.123640 0.205149 0.570446
O O4 0.944091 0.530809 0.181490
O O5 0.725729 0.317084 0.251988
O O6 0.601159 0.891336 0.335721
O O7 0.706306 0.133574 0.118499
O O8 0.417144 0.192403 0.945298
O O9 0.560621 0.629468 0.627066
O O10 0.833364 0.898469 0.701275
O O11 0.500000 0.000000 0.500000
O O12 0.371710 0.333408 0.109391
O O13 0.155854 0.923599 0.948759
O O14 0.921075 0.724405 0.251779
O O15 0.000000 0.000000 0.000000
#
# Coordination Sequence:
#
# PCOD9044452 Si02
#       7
#     2   2   2   2   2   2   2
#     4  11  25  48  78 109 143 194 252 304 369 436
#     4  10  23  46  76 111 138 192 252 300 373 431
#     4  11  25  47  74 107 148 194 247 308 364 444
#     4  12  27  47  71 110 155 191 244 307 374 441
#     4  10  23  46  75 107 148 187 245 313 361 445
#     4  12  26  45  66 105 152 197 242 296 376 434
#     4  12  26  46  73 107 148 193 246 296 375 444
#
# _framework density 27.826872000000002
#
# number of rings (size 3 to 8) (size 9 to 14) (size 15 to 20)
#    0.000    0.857    2.857    3.000    2.000    6.857 
#    2.571    0.000    0.000    0.000    0.000    0.000 
#    0.000    0.000    0.000    0.000    0.000    0.000 
#
# Total GULP energy -78368.562052 kJ/mol
# GULP energy per Si atom -5597.754432 kJ/mol
# Density = 2.776354 g / cm^3
# Si number density = 27.826872 Si / 1000 Ang^3
#
#
#
# Elastic Constant Matrix: (Units=GPa)
#
#
# Indices 1 2 3 4 5 6 
#
# 1 137.6360 2.5586 15.8683 11.9136 -6.4175 -20.3507
# 2 2.5586 145.1818 47.6432 24.2728 3.9185 16.0007
# 3 15.8683 47.6432 107.3932 -2.2702 19.3417 -1.2732
# 4 11.9136 24.2728 -2.2702 53.0093 2.1770 2.8138
# 5 -6.4175 3.9185 19.3417 2.1770 32.2019 15.6850
# 6 -20.3507 16.0007 -1.2732 2.8138 15.6850 37.0082
#
#
#
# Elastic Compliance Matrix: (Units=1/GPa)
#
#
# Indices 1 2 3 4 5 6 
#
# 1 0.008291 0.000191 -0.001391 -0.002263 0.000475 0.004400
# 2 0.000191 0.010145 -0.005749 -0.004824 0.005779 -0.006562
# 3 -0.001391 -0.005749 0.014360 0.003677 -0.011838 0.006953
# 4 -0.002263 -0.004824 0.003677 0.021851 -0.004048 0.001022
# 5 0.000475 0.005779 -0.011838 -0.004048 0.049105 -0.023149
# 6 0.004400 -0.006562 0.006953 0.001022 -0.023149 0.042250
#
#
# Mechanical properties :
#
#
# Convention : Reuss Voigt Hill
#
# Bulk Modulus (GPa) = 52.91818 58.03900 55.47859
# Shear Modulus (GPa) = 30.08426 46.05327 38.06877
#
# Velocity S-wave (km/s) = 3.29161 4.07257 3.70274
# Velocity P-wave (km/s) = 5.78831 6.55873 6.18552
#
# Compressibility (1/GPa) = 0.01889710
#
# Stress axis : x y z
#
# Youngs Moduli (GPa) = 120.61376 98.57157 69.63827
#
# Poissons Ratio (x) = -0.01883 0.09687
# Poissons Ratio (y) = -0.02305 0.40038
# Poissons Ratio (z) = 0.16777 0.56673
#
# Static dielectric constant tensor:
#      x y z
#    x 2.227410 -0.006450 -0.018620 
#    y -0.006450 2.177590 -0.024070 
#    z -0.018620 -0.024070 2.121350 
# 
# From -- ./inp_files/242897.got.cif
#   From: 2010.05.17/outbox.cif.g08.bks.cpg/sg2_122_cif.got.tgz:242897.got - 2010.06.03 11:33:40.
