data_PCOD9044132
_publ_section_title
;
Structure prediction by ZEFSAII (Michael W. Deem and Ramdas Pophale) SiO2 
 PCOD9044132
Probable space group: P -1
;
_chemical_formula_sum "Si O2"
_cell_formula_units_Z 16
_cell_length_a 14.141374
_cell_length_b 8.169523
_cell_length_c 11.817461
_cell_angle_alpha 57.066974
_cell_angle_beta 126.224558
_cell_angle_gamma 136.980541
_cell_volume 735.787951
_symmetry_space_group_name_H-M "P -1"
_symmetry_group_IT_number 2
_symmetry_cell_setting 'triclinic'
loop_
_space_group_symop_operation_xyz
x,y,z
-x,-y,-z
loop_
_atom_site_type_symbol
_atom_site_label
_atom_site_fract_x
_atom_site_fract_y
_atom_site_fract_z
Si Si1 0.785340 0.006652 0.557414
Si Si2 0.007774 0.808680 0.150990
Si Si3 0.502248 0.232267 0.414584
Si Si4 0.131231 0.781833 0.028599
Si Si5 0.746372 0.274007 0.235272
Si Si6 0.531801 0.753980 0.880671
Si Si7 0.182442 0.309376 0.477279
Si Si8 0.883022 0.079997 0.261967
O O1 0.627388 0.826570 0.573570
O O2 0.811105 0.856070 0.547142
O O3 0.902528 0.105865 0.702335
O O4 0.790449 0.208234 0.408658
O O5 0.095301 0.766059 0.139347
O O6 0.852468 0.554147 0.164248
O O7 0.000000 0.000000 0.000000
O O8 0.482109 0.279830 0.252953
O O9 0.660584 0.438403 0.500352
O O10 0.500000 0.000000 0.500000
O O11 0.310944 0.981355 0.079535
O O12 0.100220 0.913419 0.862364
O O13 0.000000 0.500000 0.000000
O O14 0.590406 0.219169 0.167656
O O15 0.767047 0.124595 0.209899
O O16 0.500000 0.500000 0.000000
O O17 0.038852 0.287810 0.353259
O O18 0.157849 0.174120 0.628317
#
# Coordination Sequence:
#
# PCOD9044132 Si02
#       8
#     2   2   2   2   2   2   2   2
#     4  11  24  46  71 107 145 191 248 297 367 435
#     4  12  25  45  70 108 146 193 244 299 366 437
#     4  12  25  44  74 108 145 188 244 304 368 436
#     4  12  25  45  72 102 147 189 241 296 362 437
#     4  11  25  44  73 106 143 194 244 302 365 435
#     4  12  27  48  73 106 153 197 239 304 376 442
#     4  10  24  44  75 103 142 187 242 306 361 433
#     4  10  23  46  70 105 139 190 242 299 362 437
#
# _framework density 21.745394999999998
#
# number of rings (size 3 to 8) (size 9 to 14) (size 15 to 20)
#    0.000    0.750    3.750    3.000    3.500    3.500 
#    0.000    0.000    0.000    0.000    0.000    0.000 
#    0.000    0.000    0.000    0.000    0.000    0.000 
#
# Total GULP energy -89237.650107 kJ/mol
# GULP energy per Si atom -5577.353132 kJ/mol
# Density = 2.169590 g / cm^3
# Si number density = 21.745395 Si / 1000 Ang^3
#
#
#
# Elastic Constant Matrix: (Units=GPa)
#
#
# Indices 1 2 3 4 5 6 
#
# 1 97.5784 42.8364 33.0518 -12.9820 6.4481 28.7295
# 2 42.8364 107.7754 36.2543 -3.5618 8.6606 29.0820
# 3 33.0518 36.2543 115.8932 -25.1437 -10.2574 0.5312
# 4 -12.9820 -3.5618 -25.1437 28.7704 4.6355 0.6141
# 5 6.4481 8.6606 -10.2574 4.6355 38.1522 0.2853
# 6 28.7295 29.0820 0.5312 0.6141 0.2853 39.3098
#
#
#
# Elastic Compliance Matrix: (Units=1/GPa)
#
#
# Indices 1 2 3 4 5 6 
#
# 1 0.016185 -0.002167 -0.003099 0.005129 -0.003623 -0.010237
# 2 -0.002167 0.014347 -0.004711 -0.002519 -0.003784 -0.008899
# 3 -0.003099 -0.004711 0.013231 0.008816 0.004039 0.005404
# 4 0.005129 -0.002519 0.008816 0.045067 -0.003380 -0.002684
# 5 -0.003623 -0.003784 0.004039 -0.003380 0.029140 0.005234
# 6 -0.010237 -0.008899 0.005404 -0.002684 0.005234 0.039436
#
#
# Mechanical properties :
#
#
# Convention : Reuss Voigt Hill
#
# Bulk Modulus (GPa) = 41.99969 60.61466 51.30718
# Shear Modulus (GPa) = 26.98380 35.18678 31.08529
#
# Velocity S-wave (km/s) = 3.52646 4.02696 3.78499
# Velocity P-wave (km/s) = 5.99478 7.03968 6.53814
#
# Compressibility (1/GPa) = 0.02380970
#
# Stress axis : x y z
#
# Youngs Moduli (GPa) = 61.78453 69.70156 75.57813
#
# Poissons Ratio (x) = 0.15108 0.23421
# Poissons Ratio (y) = 0.13392 0.35602
# Poissons Ratio (z) = 0.19146 0.32833
#
# Static dielectric constant tensor:
#      x y z
#    x 1.770140 -0.033280 0.045190 
#    y -0.033280 1.786200 -0.012020 
#    z 0.045190 -0.012020 1.805930 
# 
# From -- ./inp_files/446830.got.cif
#   From: 2010.05.17/outbox.cif.g08.bks.cpg/sg2_224_cif.got.tgz:446830.got - 2010.06.03 11:33:40.
