data_PCOD9044715
_publ_section_title
;
Structure prediction by ZEFSAII (Michael W. Deem and Ramdas Pophale) SiO2 
 PCOD9044715
Probable space group: P -1
;
_chemical_formula_sum "Si O2"
_cell_formula_units_Z 14
_cell_length_a 7.506103
_cell_length_b 9.390805
_cell_length_c 9.211898
_cell_angle_alpha 79.911517
_cell_angle_beta 58.079149
_cell_angle_gamma 87.355679
_cell_volume 541.777500
_symmetry_space_group_name_H-M "P -1"
_symmetry_group_IT_number 2
_symmetry_cell_setting 'triclinic'
loop_
_space_group_symop_operation_xyz
x,y,z
-x,-y,-z
loop_
_atom_site_type_symbol
_atom_site_label
_atom_site_fract_x
_atom_site_fract_y
_atom_site_fract_z
Si Si1 0.357557 0.326545 0.600205
Si Si2 0.156336 0.160982 0.262849
Si Si3 0.906374 0.948279 0.206566
Si Si4 0.233826 0.617033 0.029538
Si Si5 0.925025 0.438830 0.385896
Si Si6 0.554066 0.657835 0.113847
Si Si7 0.564824 0.157982 0.291195
O O1 0.442542 0.307730 0.727582
O O2 0.503571 0.256561 0.432677
O O3 0.294795 0.486866 0.553718
O O4 0.138987 0.222616 0.720009
O O5 0.990147 0.272363 0.378413
O O6 0.350738 0.136696 0.292474
O O7 0.042310 0.019343 0.267161
O O8 0.272130 0.243906 0.063357
O O9 0.675565 0.012665 0.305650
O O10 0.000000 0.000000 0.000000
O O11 0.042341 0.511739 0.180325
O O12 0.336538 0.677060 0.123683
O O13 0.394763 0.508640 0.905560
O O14 0.247584 0.749870 0.891372
O O15 0.000000 0.500000 0.500000
#
# Coordination Sequence:
#
# PCOD9044715 Si02
#       7
#     2   2   2   2   2   2   2
#     4  12  25  43  68 106 141 175 238 288 342 411
#     4  10  23  47  72 101 142 184 231 285 350 410
#     4  12  26  47  71 102 137 192 236 280 348 416
#     4   9  21  41  65  97 135 181 223 274 357 402
#     4  11  23  44  71 105 138 176 231 292 341 419
#     4   9  20  39  67  97 135 176 227 285 337 408
#     4  11  25  46  70 102 144 180 230 290 342 420
#
# _framework density 25.840869000000001
#
# number of rings (size 3 to 8) (size 9 to 14) (size 15 to 20)
#    0.000    1.429    2.857    2.143    2.000    4.000 
#    2.571    0.000    0.000    0.000    0.000    0.000 
#    0.000    0.000    0.000    0.000    0.000    0.000 
#
# Total GULP energy -78370.737762 kJ/mol
# GULP energy per Si atom -5597.909840 kJ/mol
# Density = 2.578205 g / cm^3
# Si number density = 25.840869 Si / 1000 Ang^3
#
#
#
# Elastic Constant Matrix: (Units=GPa)
#
#
# Indices 1 2 3 4 5 6 
#
# 1 103.4704 25.0783 53.8515 20.9168 12.1712 -4.6343
# 2 25.0783 79.6844 13.8310 3.0828 3.2851 8.5429
# 3 53.8515 13.8310 101.5084 28.1924 15.3404 -5.8968
# 4 20.9168 3.0828 28.1924 34.0047 9.6022 -0.8933
# 5 12.1712 3.2851 15.3404 9.6022 45.2410 11.4449
# 6 -4.6343 8.5429 -5.8968 -0.8933 11.4449 41.2736
#
#
#
# Elastic Compliance Matrix: (Units=1/GPa)
#
#
# Indices 1 2 3 4 5 6 
#
# 1 0.014557 -0.003548 -0.006037 -0.003184 -0.001397 0.001825
# 2 -0.003548 0.014096 -0.000695 0.001148 0.000839 -0.003623
# 3 -0.006037 -0.000695 0.016104 -0.008813 -0.002489 0.002266
# 4 -0.003184 0.001148 -0.008813 0.039933 -0.004800 0.000341
# 5 -0.001397 0.000839 -0.002489 -0.004800 0.026328 -0.008091
# 6 0.001825 -0.003623 0.002266 0.000341 -0.008091 0.027758
#
#
# Mechanical properties :
#
#
# Convention : Reuss Voigt Hill
#
# Bulk Modulus (GPa) = 41.32792 52.24277 46.78534
# Shear Modulus (GPa) = 29.86817 36.89737 33.38277
#
# Velocity S-wave (km/s) = 3.40347 3.78281 3.59814
# Velocity P-wave (km/s) = 5.61006 6.27221 5.95035
#
# Compressibility (1/GPa) = 0.02419672
#
# Stress axis : x y z
#
# Youngs Moduli (GPa) = 68.69751 70.94136 62.09520
#
# Poissons Ratio (x) = 0.25171 0.37490
# Poissons Ratio (y) = 0.24375 0.04313
# Poissons Ratio (z) = 0.41476 0.04927
#
# Static dielectric constant tensor:
#      x y z
#    x 2.127800 0.067780 -0.107210 
#    y 0.067780 2.019110 -0.043680 
#    z -0.107210 -0.043680 2.062550 
# 
# From -- ./inp_files/158365.got.cif
#   From: 2010.05.17/outbox.cif.g08.bks.cpg/sg2_80_cif.got.tgz:158365.got - 2010.06.03 11:33:40.
