data_PCOD9044670
_publ_section_title
;
Structure prediction by ZEFSAII (Michael W. Deem and Ramdas Pophale) SiO2 
 PCOD9044670
Probable space group: P -1
;
_chemical_formula_sum "Si O2"
_cell_formula_units_Z 16
_cell_length_a 15.561306
_cell_length_b 9.896738
_cell_length_c 8.672722
_cell_angle_alpha 99.414878
_cell_angle_beta 63.022405
_cell_angle_gamma 51.821260
_cell_volume 723.775099
_symmetry_space_group_name_H-M "P -1"
_symmetry_group_IT_number 2
_symmetry_cell_setting 'triclinic'
loop_
_space_group_symop_operation_xyz
x,y,z
-x,-y,-z
loop_
_atom_site_type_symbol
_atom_site_label
_atom_site_fract_x
_atom_site_fract_y
_atom_site_fract_z
Si Si1 0.534905 0.850415 0.679790
Si Si2 0.613309 0.473656 0.020320
Si Si3 0.442862 0.214390 0.697628
Si Si4 0.274491 0.945804 0.446174
Si Si5 0.932882 0.727648 0.605738
Si Si6 0.293266 0.880056 0.922817
Si Si7 0.155401 0.868484 0.756716
Si Si8 0.236111 0.546071 0.391339
O O1 0.599300 0.778433 0.439210
O O2 0.437272 0.820889 0.773722
O O3 0.666656 0.693608 0.672236
O O4 0.430652 0.103983 0.808554
O O5 0.576162 0.312263 0.779171
O O6 0.672591 0.470490 0.813577
O O7 0.653987 0.546380 0.126125
O O8 0.681370 0.257421 0.987306
O O9 0.626475 0.056805 0.530837
O O10 0.153747 0.987604 0.647523
O O11 0.188610 0.112319 0.404823
O O12 0.000000 0.500000 0.500000
O O13 0.074963 0.676101 0.473654
O O14 0.847752 0.863986 0.860826
O O15 0.266678 0.816963 0.782230
O O16 0.211443 0.670949 0.583546
O O17 0.000000 0.000000 0.000000
#
# Coordination Sequence:
#
# PCOD9044670 Si02
#       8
#     2   2   2   2   2   2   2   2
#     4  11  22  42  73 102 137 178 236 288 344 405
#     4  10  24  44  72 105 130 179 228 294 344 389
#     4   9  22  43  69 104 135 175 229 292 343 399
#     4  10  23  47  70  99 141 178 231 283 340 412
#     4  12  28  45  66 100 146 187 226 277 349 424
#     4  12  24  46  73 103 137 182 233 286 350 405
#     4  12  25  44  67 103 141 184 230 283 342 415
#     4  12  26  42  70 104 139 184 228 288 346 408
#
# _framework density 22.106314999999999
#
# number of rings (size 3 to 8) (size 9 to 14) (size 15 to 20)
#    0.750    0.250    2.500    3.750    3.500    4.500 
#    0.000    0.625    0.000    0.000    0.000    0.000 
#    0.000    0.000    0.000    0.000    0.000    0.000 
#
# Total GULP energy -89329.581280 kJ/mol
# GULP energy per Si atom -5583.098830 kJ/mol
# Density = 2.205600 g / cm^3
# Si number density = 22.106315 Si / 1000 Ang^3
#
#
#
# Elastic Constant Matrix: (Units=GPa)
#
#
# Indices 1 2 3 4 5 6 
#
# 1 68.5300 6.3506 9.3972 4.0510 -2.4229 8.5312
# 2 6.3506 100.4436 26.7532 2.3771 6.3593 15.3802
# 3 9.3972 26.7532 90.7250 -5.6636 -3.8463 12.8473
# 4 4.0510 2.3771 -5.6636 27.9731 5.7722 3.8935
# 5 -2.4229 6.3593 -3.8463 5.7722 31.9210 0.1671
# 6 8.5312 15.3802 12.8473 3.8935 0.1671 34.8775
#
#
#
# Elastic Compliance Matrix: (Units=1/GPa)
#
#
# Indices 1 2 3 4 5 6 
#
# 1 0.015336 -0.000243 -0.001180 -0.002339 0.001509 -0.002955
# 2 -0.000243 0.011527 -0.002965 -0.000477 -0.002565 -0.003866
# 3 -0.001180 -0.002965 0.012772 0.003186 0.001482 -0.003471
# 4 -0.002339 -0.000477 0.003186 0.038807 -0.006691 -0.004691
# 5 0.001509 -0.002565 0.001482 -0.006691 0.033337 0.000804
# 6 -0.002955 -0.003866 -0.003471 -0.004691 0.000804 0.032898
#
#
# Mechanical properties :
#
#
# Convention : Reuss Voigt Hill
#
# Bulk Modulus (GPa) = 32.40612 38.30007 35.35310
# Shear Modulus (GPa) = 30.53632 33.43415 31.98524
#
# Velocity S-wave (km/s) = 3.72067 3.89321 3.80792
# Velocity P-wave (km/s) = 5.75751 6.12964 5.94648
#
# Compressibility (1/GPa) = 0.03085837
#
# Stress axis : x y z
#
# Youngs Moduli (GPa) = 65.20585 86.75600 78.29507
#
# Poissons Ratio (x) = 0.02107 0.09242
# Poissons Ratio (y) = 0.01583 0.23214
# Poissons Ratio (z) = 0.07697 0.25723
#
# Static dielectric constant tensor:
#      x y z
#    x 1.878980 0.016340 0.037260 
#    y 0.016340 1.820460 0.045050 
#    z 0.037260 0.045050 1.843320 
# 
# From -- ./inp_files/298742.got.cif
#   From: 2010.05.17/outbox.cif.g08.bks.cpg/sg2_150_cif.got.tgz:298742.got - 2010.06.03 11:33:40.
