data_PCOD9044227
_publ_section_title
;
Structure prediction by ZEFSAII (Michael W. Deem and Ramdas Pophale) SiO2 
 PCOD9044227
Probable space group: P -1
;
_chemical_formula_sum "Si O2"
_cell_formula_units_Z 14
_cell_length_a 24.195793
_cell_length_b 12.594364
_cell_length_c 19.139753
_cell_angle_alpha 26.652173
_cell_angle_beta 12.234159
_cell_angle_gamma 25.930732
_cell_volume 533.476657
_symmetry_space_group_name_H-M "P -1"
_symmetry_group_IT_number 2
_symmetry_cell_setting 'triclinic'
loop_
_space_group_symop_operation_xyz
x,y,z
-x,-y,-z
loop_
_atom_site_type_symbol
_atom_site_label
_atom_site_fract_x
_atom_site_fract_y
_atom_site_fract_z
Si Si1 0.687694 0.085577 0.857307
Si Si2 0.185947 0.024367 0.436841
Si Si3 0.500013 0.254820 0.600674
Si Si4 0.638609 0.648686 0.577227
Si Si5 0.343275 0.475250 0.521527
Si Si6 0.971529 0.105174 0.811463
Si Si7 0.964151 0.454456 0.732560
O O1 0.593065 0.380162 0.808473
O O2 0.000000 0.000000 0.500000
O O3 0.495232 0.028524 0.067660
O O4 0.623051 0.929246 0.093797
O O5 0.199346 0.758922 0.547129
O O6 0.052087 0.067215 0.653740
O O7 0.037972 0.261126 0.435664
O O8 0.500000 0.500000 0.500000
O O9 0.343454 0.326467 0.679550
O O10 0.815686 0.114413 0.282429
O O11 0.827209 0.688593 0.383296
O O12 0.234115 0.390319 0.634849
O O13 0.349926 0.847748 0.814108
O O14 0.661401 0.448220 0.129827
O O15 0.023447 0.340419 0.649224
#
# Coordination Sequence:
#
# PCOD9044227 Si02
#       7
#     2   2   2   2   2   2   2
#     4  11  23  43  76 110 143 184 252 302 355 435
#     4  11  21  42  75 104 146 191 244 305 362 426
#     4  11  24  46  78 104 148 195 238 303 379 430
#     4  11  26  42  74 111 147 191 247 298 365 432
#     4  11  23  45  73 105 144 196 239 298 366 442
#     4  10  23  46  71 109 144 192 248 300 366 438
#     4  11  24  42  75 103 151 190 244 302 362 435
#
# _framework density 26.242946
#
# number of rings (size 3 to 8) (size 9 to 14) (size 15 to 20)
#    0.000    1.143    5.714    1.714    4.000    2.857 
#    0.000    3.571    3.143    0.000    0.000    0.000 
#    0.000    0.000    0.000    0.000    0.000    0.000 
#
# Total GULP energy -78560.557151 kJ/mol
# GULP energy per Si atom -5611.468368 kJ/mol
# Density = 2.618322 g / cm^3
# Si number density = 26.242946 Si / 1000 Ang^3
#
#
#
# Elastic Constant Matrix: (Units=GPa)
#
#
# Indices 1 2 3 4 5 6 
#
# 1 179.7971 45.2164 44.8883 8.5764 1.5483 -7.6438
# 2 45.2164 159.7270 52.1671 11.8884 4.6116 5.2887
# 3 44.8883 52.1671 114.4970 12.0935 -0.2846 -3.6739
# 4 8.5764 11.8884 12.0935 43.8964 -16.7323 5.2278
# 5 1.5483 4.6116 -0.2846 -16.7323 44.5691 0.5488
# 6 -7.6438 5.2887 -3.6739 5.2278 0.5488 57.3700
#
#
#
# Elastic Compliance Matrix: (Units=1/GPa)
#
#
# Indices 1 2 3 4 5 6 
#
# 1 0.006398 -0.001167 -0.001878 -0.000667 -0.000375 0.000904
# 2 -0.001167 0.007728 -0.002943 -0.001444 -0.001309 -0.000912
# 3 -0.001878 -0.002943 0.011066 -0.002137 -0.000373 0.000928
# 4 -0.000667 -0.001444 -0.002137 0.028354 0.010838 -0.002780
# 5 -0.000375 -0.001309 -0.000373 0.010838 0.026667 -0.001196
# 6 0.000904 -0.000912 0.000928 -0.002780 -0.001196 0.017959
#
#
# Mechanical properties :
#
#
# Convention : Reuss Voigt Hill
#
# Bulk Modulus (GPa) = 75.67474 82.06274 78.86874
# Shear Modulus (GPa) = 43.64805 49.95037 46.79921
#
# Velocity S-wave (km/s) = 4.08270 4.36751 4.22750
# Velocity P-wave (km/s) = 7.15006 7.53471 7.34490
#
# Compressibility (1/GPa) = 0.01321445
#
# Stress axis : x y z
#
# Youngs Moduli (GPa) = 156.30659 129.40122 90.36914
#
# Poissons Ratio (x) = 0.15104 0.16970
# Poissons Ratio (y) = 0.18245 0.26599
# Poissons Ratio (z) = 0.29352 0.38087
#
# Static dielectric constant tensor:
#      x y z
#    x 2.052680 -0.003810 0.016750 
#    y -0.003810 2.008390 -0.017280 
#    z 0.016750 -0.017280 2.068950 
# 
# From -- ./inp_files/614530.got.cif
#   From: 2010.05.17/outbox.cif.g08.bks.cpg/sg2_308_cif.got.tgz:614530.got - 2010.06.03 11:33:40.
