data_PCOD9044082
_publ_section_title
;
Structure prediction by ZEFSAII (Michael W. Deem and Ramdas Pophale) SiO2 
 PCOD9044082
Probable space group: P -1
;
_chemical_formula_sum "Si O2"
_cell_formula_units_Z 14
_cell_length_a 11.997925
_cell_length_b 8.065734
_cell_length_c 9.588861
_cell_angle_alpha 130.307520
_cell_angle_beta 63.826916
_cell_angle_gamma 131.560817
_cell_volume 529.367624
_symmetry_space_group_name_H-M "P -1"
_symmetry_group_IT_number 2
_symmetry_cell_setting 'triclinic'
loop_
_space_group_symop_operation_xyz
x,y,z
-x,-y,-z
loop_
_atom_site_type_symbol
_atom_site_label
_atom_site_fract_x
_atom_site_fract_y
_atom_site_fract_z
Si Si1 0.766363 0.803748 0.276309
Si Si2 0.130036 0.890478 0.858662
Si Si3 0.033821 0.686453 0.414408
Si Si4 0.828012 0.133155 0.856335
Si Si5 0.445779 0.953619 0.661624
Si Si6 0.736527 0.633533 0.513333
Si Si7 0.607158 0.266205 0.000541
O O1 0.780064 0.709056 0.369711
O O2 0.861050 0.889258 0.125199
O O3 0.823130 0.097070 0.459267
O O4 0.615600 0.532510 0.164999
O O5 0.005848 0.604110 0.715462
O O6 0.295263 0.945509 0.768447
O O7 0.123029 0.882536 0.025285
O O8 0.060538 0.766179 0.279945
O O9 0.883100 0.672415 0.527282
O O10 0.765407 0.316356 0.984494
O O11 0.707912 0.835761 0.712533
O O12 0.399799 0.663732 0.568218
O O13 0.500000 0.000000 0.500000
O O14 0.570038 0.175711 0.813017
O O15 0.500000 0.000000 0.000000
#
# Coordination Sequence:
#
# PCOD9044082 Si02
#       7
#     2   2   2   2   2   2   2
#     4  11  23  41  68  95 131 174 210 274 324 383
#     4  11  24  43  68 101 132 169 223 277 318 387
#     4  10  23  47  68  95 134 172 222 265 335 389
#     4  11  23  41  71  97 130 179 212 268 329 387
#     4  11  26  44  67  93 137 173 221 272 324 389
#     4  10  23  46  69  95 133 177 216 270 329 392
#     4  12  24  46  64  96 137 171 221 267 324 396
#
# _framework density 26.446649000000001
#
# number of rings (size 3 to 8) (size 9 to 14) (size 15 to 20)
#    0.000    1.143    2.857    3.429    6.000    3.429 
#    0.000    5.000    0.000    0.000    0.000    0.000 
#    0.000    0.000    0.000    0.000    0.000    0.000 
#
# Total GULP energy -78156.222524 kJ/mol
# GULP energy per Si atom -5582.587323 kJ/mol
# Density = 2.638646 g / cm^3
# Si number density = 26.446649 Si / 1000 Ang^3
#
#
#
# Elastic Constant Matrix: (Units=GPa)
#
#
# Indices 1 2 3 4 5 6 
#
# 1 53.0689 21.8565 47.0864 0.2377 12.5845 -9.1994
# 2 21.8565 188.0899 71.4366 5.0170 28.6744 -8.0102
# 3 47.0864 71.4366 155.7788 11.3035 34.3926 -6.0048
# 4 0.2377 5.0170 11.3035 57.8381 -7.2307 13.1332
# 5 12.5845 28.6744 34.3926 -7.2307 37.6852 -9.2827
# 6 -9.1994 -8.0102 -6.0048 13.1332 -9.2827 24.4131
#
#
#
# Elastic Compliance Matrix: (Units=1/GPa)
#
#
# Indices 1 2 3 4 5 6 
#
# 1 0.027360 0.000245 -0.008015 -0.000544 0.000036 0.008725
# 2 0.000245 0.006707 -0.002432 -0.000687 -0.002857 0.000978
# 3 -0.008015 -0.002432 0.011606 -0.002370 -0.007110 -0.002391
# 4 -0.000544 -0.000687 -0.002370 0.020743 0.004247 -0.010557
# 5 0.000036 -0.002857 -0.007110 0.004247 0.038374 0.009634
# 6 0.008725 0.000978 -0.002391 -0.010557 0.009634 0.053325
#
#
# Mechanical properties :
#
#
# Convention : Reuss Voigt Hill
#
# Bulk Modulus (GPa) = 39.56985 75.29965 57.43475
# Shear Modulus (GPa) = 26.74646 41.09115 33.91880
#
# Velocity S-wave (km/s) = 3.18360 3.94602 3.58514
# Velocity P-wave (km/s) = 5.33932 7.02108 6.23714
#
# Compressibility (1/GPa) = 0.02527177
#
# Stress axis : x y z
#
# Youngs Moduli (GPa) = 36.54984 149.09455 86.15951
#
# Poissons Ratio (x) = -0.03656 0.69053
# Poissons Ratio (y) = -0.00896 0.20950
# Poissons Ratio (z) = 0.29293 0.36253
#
# Static dielectric constant tensor:
#      x y z
#    x 2.176890 0.001520 -0.046630 
#    y 0.001520 2.107350 -0.011400 
#    z -0.046630 -0.011400 2.048930 
# 
# From -- ./inp_files/293205.got.cif
#   From: 2010.05.17/outbox.cif.g08.bks.cpg/sg2_147_cif.got.tgz:293205.got - 2010.06.03 11:33:40.
