data_PCOD9044166
_publ_section_title
;
Structure prediction by ZEFSAII (Michael W. Deem and Ramdas Pophale) SiO2 
 PCOD9044166
Probable space group: P -1
;
_chemical_formula_sum "Si O2"
_cell_formula_units_Z 14
_cell_length_a 14.289190
_cell_length_b 16.851332
_cell_length_c 11.554017
_cell_angle_alpha 158.791315
_cell_angle_beta 142.413884
_cell_angle_gamma 39.031366
_cell_volume 604.712532
_symmetry_space_group_name_H-M "P -1"
_symmetry_group_IT_number 2
_symmetry_cell_setting 'triclinic'
loop_
_space_group_symop_operation_xyz
x,y,z
-x,-y,-z
loop_
_atom_site_type_symbol
_atom_site_label
_atom_site_fract_x
_atom_site_fract_y
_atom_site_fract_z
Si Si1 0.853134 0.010625 0.648501
Si Si2 0.314235 0.509924 0.842400
Si Si3 0.463492 0.550781 0.666829
Si Si4 0.975680 0.775781 0.238369
Si Si5 0.651950 0.817391 0.371930
Si Si6 0.250030 0.322289 0.288020
Si Si7 0.801614 0.113328 0.229795
O O1 0.847490 0.850234 0.313882
O O2 0.774907 0.927604 0.570887
O O3 0.037810 0.003545 0.830613
O O4 0.765471 0.255603 0.865913
O O5 0.287174 0.307869 0.622034
O O6 0.246669 0.482574 0.612063
O O7 0.500000 0.500000 0.000000
O O8 0.500000 0.500000 0.500000
O O9 0.396974 0.354327 0.398563
O O10 0.320272 0.758448 0.803060
O O11 0.596269 0.632019 0.982471
O O12 0.134345 0.713644 0.382597
O O13 0.905438 0.628339 0.876335
O O14 0.000000 0.000000 0.500000
O O15 0.500000 0.000000 0.500000
O O16 0.263868 0.073570 0.014743
#
# Coordination Sequence:
#
# PCOD9044166 Si02
#       7
#     2   2   2   2   2   2   2
#     4  10  23  46  70  98 137 182 225 281 344 392
#     4  12  24  43  68  98 138 181 225 274 335 409
#     4  12  26  42  71 107 129 178 233 278 345 401
#     4   8  19  44  67  95 134 172 220 282 335 392
#     4  12  24  44  69 100 143 179 224 281 341 405
#     4  11  22  45  68 100 137 175 230 278 335 408
#     4   9  24  45  69  98 138 173 224 284 338 397
#
# _framework density 23.151495000000001
#
# number of rings (size 3 to 8) (size 9 to 14) (size 15 to 20)
#    0.857    0.571    2.857    1.714    0.000    5.143 
#    0.000    5.000    0.000    0.000    0.000    0.000 
#    0.000    0.000    0.000    0.000    0.000    0.000 
#
# Total GULP energy -78261.337830 kJ/mol
# GULP energy per Si atom -5590.095559 kJ/mol
# Density = 2.309880 g / cm^3
# Si number density = 23.151495 Si / 1000 Ang^3
#
#
#
# Elastic Constant Matrix: (Units=GPa)
#
#
# Indices 1 2 3 4 5 6 
#
# 1 163.4699 25.5257 27.2284 24.9367 22.0951 18.7770
# 2 25.5257 64.7028 12.6607 6.7323 4.2912 1.2751
# 3 27.2284 12.6607 79.0310 -13.5947 8.3218 3.7974
# 4 24.9367 6.7323 -13.5947 39.3983 13.9882 -7.0086
# 5 22.0951 4.2912 8.3218 13.9882 30.5148 1.5124
# 6 18.7770 1.2751 3.7974 -7.0086 1.5124 32.4174
#
#
#
# Elastic Compliance Matrix: (Units=1/GPa)
#
#
# Indices 1 2 3 4 5 6 
#
# 1 0.009036 -0.001893 -0.003550 -0.007104 -0.001745 -0.006198
# 2 -0.001893 0.016971 -0.002704 -0.003019 0.001104 0.000041
# 3 -0.003550 -0.002704 0.016914 0.011618 -0.007138 0.003026
# 4 -0.007104 -0.003019 0.011618 0.043116 -0.018011 0.013034
# 5 -0.001745 0.001104 -0.007138 -0.018011 0.044288 -0.004157
# 6 -0.006198 0.000041 0.003026 0.013034 -0.004157 0.037093
#
#
# Mechanical properties :
#
#
# Convention : Reuss Voigt Hill
#
# Bulk Modulus (GPa) = 37.55659 48.67039 43.11349
# Shear Modulus (GPa) = 25.96198 36.58535 31.27366
#
# Velocity S-wave (km/s) = 3.35236 3.97956 3.67935
# Velocity P-wave (km/s) = 5.58943 6.49493 6.05912
#
# Compressibility (1/GPa) = 0.02662648
#
# Stress axis : x y z
#
# Youngs Moduli (GPa) = 110.67330 58.92274 59.12155
#
# Poissons Ratio (x) = 0.11154 0.20989
# Poissons Ratio (y) = 0.20950 0.15988
# Poissons Ratio (z) = 0.39292 0.15934
#
# Static dielectric constant tensor:
#      x y z
#    x 1.856450 -0.010790 -0.010120 
#    y -0.010790 1.854080 -0.009410 
#    z -0.010120 -0.009410 1.915310 
# 
# From -- ./inp_files/456884.got.cif
#   From: 2010.05.17/outbox.cif.g08.bks.cpg/sg2_229_cif.got.tgz:456884.got - 2010.06.03 11:33:40.
