data_PCOD9044534
_publ_section_title
;
Structure prediction by ZEFSAII (Michael W. Deem and Ramdas Pophale) SiO2 
 PCOD9044534
Probable space group: P -1
;
_chemical_formula_sum "Si O2"
_cell_formula_units_Z 15
_cell_length_a 9.600527
_cell_length_b 19.603522
_cell_length_c 5.478854
_cell_angle_alpha 113.266168
_cell_angle_beta 71.847240
_cell_angle_gamma 139.378306
_cell_volume 616.625649
_symmetry_space_group_name_H-M "P -1"
_symmetry_group_IT_number 2
_symmetry_cell_setting 'triclinic'
loop_
_space_group_symop_operation_xyz
x,y,z
-x,-y,-z
loop_
_atom_site_type_symbol
_atom_site_label
_atom_site_fract_x
_atom_site_fract_y
_atom_site_fract_z
Si Si1 0.795805 0.068562 0.499266
Si Si2 0.853545 0.382598 0.791543
Si Si3 0.898074 0.263953 0.966311
Si Si4 0.636170 0.750175 0.187755
Si Si5 0.653658 0.663587 0.550622
Si Si6 0.807614 0.580715 0.602667
Si Si7 0.631836 0.097314 0.250780
Si Si8 0.000000 0.000000 0.500000
O O1 0.802892 0.102661 0.271675
O O2 0.549262 0.951629 0.519782
O O3 0.938185 0.052426 0.462319
O O4 0.857874 0.165966 0.751305
O O5 0.616776 0.321771 0.765776
O O6 0.007917 0.410705 0.533934
O O7 0.834117 0.304807 0.874650
O O8 0.000000 0.500000 0.000000
O O9 0.739680 0.204178 0.204701
O O10 0.134291 0.365345 0.088023
O O11 0.682205 0.716076 0.352954
O O12 0.794615 0.878683 0.307594
O O13 0.664812 0.719862 0.865949
O O14 0.805358 0.649117 0.511942
O O15 0.417043 0.541617 0.482076
O O16 0.500000 0.000000 0.000000
#
# Coordination Sequence:
#
# PCOD9044534 Si02
#       8
#     2   2   2   2   2   2   2   1
#     4  10  23  47  65 107 142 201 256 316 384 466
#     4  12  27  48  79 117 155 201 267 327 393 463
#     4  11  24  42  78 105 152 196 258 314 396 464
#     4  12  30  53  76 117 161 210 258 335 390 475
#     4  11  28  53  80 112 163 204 264 319 413 466
#     4  11  26  45  82 113 150 208 256 326 392 488
#     4   9  21  41  71  96 139 194 257 313 372 454
#     4  12  30  46  76 106 162 202 262 318 398 462
#
# _framework density 24.325942999999999
#
# number of rings (size 3 to 8) (size 9 to 14) (size 15 to 20)
#    0.000    1.067    1.333    2.400   14.933    2.667 
#    2.400    0.000    0.000    0.000    0.000    0.000 
#    0.000    0.000    0.000    0.000    0.000    0.000 
#
# Total GULP energy -83603.278497 kJ/mol
# GULP energy per Si atom -5573.551900 kJ/mol
# Density = 2.427058 g / cm^3
# Si number density = 24.325943 Si / 1000 Ang^3
#
#
#
# Elastic Constant Matrix: (Units=GPa)
#
#
# Indices 1 2 3 4 5 6 
#
# 1 133.7147 27.9850 43.5842 8.0822 14.4904 -6.0601
# 2 27.9850 150.0928 45.5708 37.4550 3.6731 -3.2286
# 3 43.5842 45.5708 112.9853 31.2203 18.1300 -9.1372
# 4 8.0822 37.4550 31.2203 53.4155 -0.9291 12.9383
# 5 14.4904 3.6731 18.1300 -0.9291 32.8233 -3.4165
# 6 -6.0601 -3.2286 -9.1372 12.9383 -3.4165 47.2875
#
#
#
# Elastic Compliance Matrix: (Units=1/GPa)
#
#
# Indices 1 2 3 4 5 6 
#
# 1 0.008809 -0.000943 -0.002948 0.000998 -0.002120 0.000069
# 2 -0.000943 0.008699 -0.001553 -0.005452 0.000322 0.001688
# 3 -0.002948 -0.001553 0.014042 -0.007723 -0.006093 0.003902
# 4 0.000998 -0.005452 -0.007723 0.029267 0.004282 -0.009435
# 5 -0.002120 0.000322 -0.006093 0.004282 0.034844 -0.000081
# 6 0.000069 0.001688 0.003902 -0.009435 -0.000081 0.024601
#
#
# Mechanical properties :
#
#
# Convention : Reuss Voigt Hill
#
# Bulk Modulus (GPa) = 48.39922 70.11920 59.25921
# Shear Modulus (GPa) = 36.22174 45.34878 40.78526
#
# Velocity S-wave (km/s) = 3.86296 4.32234 4.09909
# Velocity P-wave (km/s) = 6.31158 7.33468 6.84228
#
# Compressibility (1/GPa) = 0.02066149
#
# Stress axis : x y z
#
# Youngs Moduli (GPa) = 113.51555 114.95455 71.21625
#
# Poissons Ratio (x) = 0.10842 0.20993
# Poissons Ratio (y) = 0.10706 0.11063
# Poissons Ratio (z) = 0.33462 0.17857
#
# Static dielectric constant tensor:
#      x y z
#    x 1.918240 0.061000 -0.034160 
#    y 0.061000 1.965840 -0.063560 
#    z -0.034160 -0.063560 2.051010 
# 
# From -- ./inp_files/45389.got.cif
#   From: 2010.05.17/outbox.cif.g08.bks.cpg/sg2_23_cif.got.tgz:45389.got - 2010.06.03 11:33:40.
