data_PCOD9044713
_publ_section_title
;
Structure prediction by ZEFSAII (Michael W. Deem and Ramdas Pophale) SiO2 
 PCOD9044713
Probable space group: P -1
;
_chemical_formula_sum "Si O2"
_cell_formula_units_Z 11
_cell_length_a 7.914155
_cell_length_b 11.900352
_cell_length_c 8.511244
_cell_angle_alpha 54.984283
_cell_angle_beta 106.602204
_cell_angle_gamma 136.585079
_cell_volume 438.795705
_symmetry_space_group_name_H-M "P -1"
_symmetry_group_IT_number 2
_symmetry_cell_setting 'triclinic'
loop_
_space_group_symop_operation_xyz
x,y,z
-x,-y,-z
loop_
_atom_site_type_symbol
_atom_site_label
_atom_site_fract_x
_atom_site_fract_y
_atom_site_fract_z
Si Si1 0.942792 0.114560 0.082626
Si Si2 0.166429 0.477648 0.649594
Si Si3 0.662259 0.222073 0.322167
Si Si4 0.000000 0.000000 0.500000
Si Si5 0.581326 0.771691 0.035041
Si Si6 0.183236 0.368474 0.409046
O O1 0.946192 0.099584 0.281648
O O2 0.176796 0.150984 0.055525
O O3 0.010815 0.300879 0.876430
O O4 0.687300 0.918539 0.090462
O O5 0.382354 0.678025 0.645056
O O6 0.240297 0.426069 0.562058
O O7 0.000000 0.500000 0.500000
O O8 0.579628 0.225623 0.127854
O O9 0.948977 0.336648 0.326984
O O10 0.500000 0.000000 0.500000
O O11 0.108831 0.170522 0.520899
O O12 0.409172 0.550001 0.218416
#
# Coordination Sequence:
#
# PCOD9044713 Si02
#       6
#     2   2   2   1   2   2
#     4  11  25  44  68 100 139 183 228 283 341 406
#     4  10  23  47  72 101 138 179 228 282 343 405
#     4  11  23  44  71 100 139 183 228 282 341 405
#     4  12  26  46  70 102 138 182 234 280 344 408
#     4  11  24  44  69 101 140 181 230 283 342 407
#     4  11  25  43  69 103 138 181 229 280 340 409
#
# _framework density 25.068615000000001
#
# number of rings (size 3 to 8) (size 9 to 14) (size 15 to 20)
#    0.000    1.091    0.000    7.091    0.000   11.636 
#    0.000    5.455    0.000    0.000    0.000    0.000 
#    0.000    0.000    0.000    0.000    0.000    0.000 
#
# Total GULP energy -61437.071160 kJ/mol
# GULP energy per Si atom -5585.188287 kJ/mol
# Density = 2.501156 g / cm^3
# Si number density = 25.068615 Si / 1000 Ang^3
#
#
#
# Elastic Constant Matrix: (Units=GPa)
#
#
# Indices 1 2 3 4 5 6 
#
# 1 43.4126 25.3829 26.0619 2.5615 9.2845 5.5430
# 2 25.3829 165.0799 68.9499 11.4435 0.5378 -27.5109
# 3 26.0619 68.9499 192.2070 17.3059 32.2844 5.1550
# 4 2.5615 11.4435 17.3059 55.1562 4.4261 17.4402
# 5 9.2845 0.5378 32.2844 4.4261 41.0305 5.1929
# 6 5.5430 -27.5109 5.1550 17.4402 5.1929 55.8239
#
#
#
# Elastic Compliance Matrix: (Units=1/GPa)
#
#
# Indices 1 2 3 4 5 6 
#
# 1 0.028221 -0.004785 -0.001353 0.002157 -0.004826 -0.005260
# 2 -0.004785 0.009250 -0.003064 -0.002847 0.002929 0.005933
# 3 -0.001353 -0.003064 0.007481 -0.000806 -0.005286 -0.001323
# 4 0.002157 -0.002847 -0.000806 0.021546 -0.001106 -0.008171
# 5 -0.004826 0.002929 -0.005286 -0.001106 0.029705 -0.000007
# 6 -0.005260 0.005933 -0.001323 -0.008171 -0.000007 0.024035
#
#
# Mechanical properties :
#
#
# Convention : Reuss Voigt Hill
#
# Bulk Modulus (GPa) = 37.66645 71.27656 54.47150
# Shear Modulus (GPa) = 33.90032 49.08910 41.49471
#
# Velocity S-wave (km/s) = 3.68135 4.42994 4.07288
# Velocity P-wave (km/s) = 5.75567 7.39325 6.62525
#
# Compressibility (1/GPa) = 0.02654882
#
# Stress axis : x y z
#
# Youngs Moduli (GPa) = 35.43478 108.11078 133.66752
#
# Poissons Ratio (x) = 0.51728 0.18082
# Poissons Ratio (y) = 0.16954 0.40957
# Poissons Ratio (z) = 0.04793 0.33126
#
# Static dielectric constant tensor:
#      x y z
#    x 2.088620 0.002730 -0.014560 
#    y 0.002730 1.990030 -0.021330 
#    z -0.014560 -0.021330 1.931750 
# 
# From -- ./inp_files/154382.got.cif
#   From: 2010.05.17/outbox.cif.g08.bks.cpg/sg2_78_cif.got.tgz:154382.got - 2010.06.03 11:33:40.
