data_PCOD9044857
_publ_section_title
;
Structure prediction by ZEFSAII (Michael W. Deem and Ramdas Pophale) SiO2 
 PCOD9044857
Probable space group: P -1
;
_chemical_formula_sum "Si O2"
_cell_formula_units_Z 12
_cell_length_a 10.647001
_cell_length_b 10.613865
_cell_length_c 5.158812
_cell_angle_alpha 105.297381
_cell_angle_beta 82.390434
_cell_angle_gamma 122.851122
_cell_volume 472.354881
_symmetry_space_group_name_H-M "P -1"
_symmetry_group_IT_number 2
_symmetry_cell_setting 'triclinic'
loop_
_space_group_symop_operation_xyz
x,y,z
-x,-y,-z
loop_
_atom_site_type_symbol
_atom_site_label
_atom_site_fract_x
_atom_site_fract_y
_atom_site_fract_z
Si Si1 0.841036 0.892222 0.622950
Si Si2 0.912519 0.545596 0.848251
Si Si3 0.707515 0.212633 0.584657
Si Si4 0.550952 0.733105 0.282635
Si Si5 0.191009 0.869999 0.960977
Si Si6 0.323438 0.405414 0.208209
O O1 0.702580 0.849239 0.450007
O O2 0.797707 0.723340 0.635926
O O3 0.000000 0.000000 0.500000
O O4 0.832883 0.989961 0.915849
O O5 0.829835 0.396483 0.602985
O O6 0.770353 0.561354 0.962078
O O7 0.036834 0.718573 0.834952
O O8 0.000000 0.500000 0.000000
O O9 0.554455 0.201014 0.690360
O O10 0.696870 0.119118 0.282075
O O11 0.763562 0.162614 0.789698
O O12 0.443638 0.572266 0.379123
O O13 0.593445 0.671221 0.986559
#
# Coordination Sequence:
#
# PCOD9044857 Si02
#       6
#     2   2   2   2   2   2
#     4  12  28  44  72 108 152 194 240 306 374 444
#     4   9  20  44  73 104 144 187 251 303 366 435
#     4  10  24  45  72 105 145 199 244 307 361 445
#     4  10  24  47  74 105 143 193 252 302 369 435
#     4  11  25  43  71 107 151 192 246 301 374 438
#     4  10  23  47  76 103 144 194 249 304 368 442
#
# _framework density 25.404630000000001
#
# number of rings (size 3 to 8) (size 9 to 14) (size 15 to 20)
#    0.000    1.667    0.000    2.000    7.000    2.667 
#   21.000    0.000    0.000    0.000    0.000    0.000 
#    0.000    0.000    0.000    0.000    0.000    0.000 
#
# Total GULP energy -67075.154835 kJ/mol
# GULP energy per Si atom -5589.596236 kJ/mol
# Density = 2.534681 g / cm^3
# Si number density = 25.404630 Si / 1000 Ang^3
#
#
#
# Elastic Constant Matrix: (Units=GPa)
#
#
# Indices 1 2 3 4 5 6 
#
# 1 123.6801 36.0417 16.9465 11.9725 -7.2996 21.5279
# 2 36.0417 186.9165 30.8967 17.5724 -0.4446 37.8746
# 3 16.9465 30.8967 97.6926 25.5401 -20.8632 1.9697
# 4 11.9725 17.5724 25.5401 32.1935 -7.7831 9.0102
# 5 -7.2996 -0.4446 -20.8632 -7.7831 28.1068 6.7022
# 6 21.5279 37.8746 1.9697 9.0102 6.7022 34.3529
#
#
#
# Elastic Compliance Matrix: (Units=1/GPa)
#
#
# Indices 1 2 3 4 5 6 
#
# 1 0.009586 -0.000499 -0.000570 -0.000341 0.003394 -0.005997
# 2 -0.000499 0.007347 -0.002013 0.000024 0.000346 -0.007746
# 3 -0.000570 -0.002013 0.015054 -0.009526 0.007711 0.002708
# 4 -0.000341 0.000024 -0.009526 0.044147 0.008025 -0.012411
# 5 0.003394 0.000346 0.007711 0.008025 0.047843 -0.014389
# 6 -0.005997 -0.007746 0.002708 -0.012411 -0.014389 0.047315
#
#
# Mechanical properties :
#
#
# Convention : Reuss Voigt Hill
#
# Bulk Modulus (GPa) = 38.72502 64.00657 51.36579
# Shear Modulus (GPa) = 26.87236 40.55761 33.71498
#
# Velocity S-wave (km/s) = 3.25587 3.99991 3.64692
# Velocity P-wave (km/s) = 5.42316 6.82510 6.16411
#
# Compressibility (1/GPa) = 0.02582310
#
# Stress axis : x y z
#
# Youngs Moduli (GPa) = 104.31762 136.10821 66.42592
#
# Poissons Ratio (x) = 0.06789 0.03787
# Poissons Ratio (y) = 0.05203 0.13374
# Poissons Ratio (z) = 0.05948 0.27403
#
# Static dielectric constant tensor:
#      x y z
#    x 2.020170 0.001030 -0.025970 
#    y 0.001030 2.081150 -0.032410 
#    z -0.025970 -0.032410 1.978110 
# 
# From -- ./inp_files/67570.got.cif
#   From: 2010.05.17/outbox.cif.g08.bks.cpg/sg2_34_cif.got.tgz:67570.got - 2010.06.03 11:33:40.
