data_PCOD9044917
_publ_section_title
;
Structure prediction by ZEFSAII (Michael W. Deem and Ramdas Pophale) SiO2 
 PCOD9044917
Probable space group: P -1
;
_chemical_formula_sum "Si O2"
_cell_formula_units_Z 16
_cell_length_a 5.301800
_cell_length_b 9.476131
_cell_length_c 13.822683
_cell_angle_alpha 91.056137
_cell_angle_beta 86.528374
_cell_angle_gamma 101.972000
_cell_volume 678.095160
_symmetry_space_group_name_H-M "P -1"
_symmetry_group_IT_number 2
_symmetry_cell_setting 'triclinic'
loop_
_space_group_symop_operation_xyz
x,y,z
-x,-y,-z
loop_
_atom_site_type_symbol
_atom_site_label
_atom_site_fract_x
_atom_site_fract_y
_atom_site_fract_z
Si Si1 0.570065 0.654924 0.452920
Si Si2 0.732029 0.126572 0.527664
Si Si3 0.100390 0.098492 0.890012
Si Si4 0.628199 0.215175 0.992564
Si Si5 0.806756 0.641799 0.245570
Si Si6 0.748287 0.799772 0.837843
Si Si7 0.150900 0.138505 0.383973
Si Si8 0.276630 0.523267 0.143180
O O1 0.500000 0.500000 0.500000
O O2 0.344429 0.733897 0.422150
O O3 0.756736 0.644225 0.360001
O O4 0.683738 0.762978 0.537223
O O5 0.874895 0.168047 0.422701
O O6 0.500000 0.000000 0.500000
O O7 0.871648 0.032698 0.596528
O O8 0.376722 0.128640 0.937634
O O9 0.145924 0.196327 0.794846
O O10 0.882662 0.158891 0.956595
O O11 0.965283 0.936755 0.865481
O O12 0.676207 0.380017 0.954093
O O13 0.524550 0.197274 0.103950
O O14 0.544193 0.557534 0.197897
O O15 0.048928 0.575615 0.207142
O O16 0.746437 0.811417 0.722448
O O17 0.804628 0.647755 0.870243
#
# Coordination Sequence:
#
# PCOD9044917 Si02
#       8
#     2   2   2   2   2   2   2   2
#     4  11  24  41  67  94 133 179 224 279 332 399
#     4   9  22  43  61  89 136 168 223 274 333 394
#     4  10  24  43  69  99 133 174 225 272 340 409
#     4  10  23  48  66 100 137 177 216 281 343 410
#     4  10  24  44  67  95 137 183 219 276 342 403
#     4  12  24  41  71  99 131 176 224 284 333 402
#     4  10  24  42  63  96 132 172 228 271 335 401
#     4  10  24  44  68 100 137 173 231 272 344 405
#
# _framework density 23.595510000000001
#
# number of rings (size 3 to 8) (size 9 to 14) (size 15 to 20)
#    0.000    1.750    0.000    1.875    8.750    4.500 
#    6.750    3.750    0.000    0.000    0.000    0.000 
#    0.000    0.000    0.000    0.000    0.000    0.000 
#
# Total GULP energy -89463.443897 kJ/mol
# GULP energy per Si atom -5591.465244 kJ/mol
# Density = 2.354181 g / cm^3
# Si number density = 23.595510 Si / 1000 Ang^3
#
#
#
# Elastic Constant Matrix: (Units=GPa)
#
#
# Indices 1 2 3 4 5 6 
#
# 1 99.5202 23.3339 26.1831 3.3050 -22.4730 5.8980
# 2 23.3339 176.8412 35.2887 -17.1352 -13.0083 11.6986
# 3 26.1831 35.2887 159.3663 -22.6034 -35.3789 14.1119
# 4 3.3050 -17.1352 -22.6034 25.5240 6.4513 -6.9803
# 5 -22.4730 -13.0083 -35.3789 6.4513 29.7086 4.0599
# 6 5.8980 11.6986 14.1119 -6.9803 4.0599 22.3240
#
#
#
# Elastic Compliance Matrix: (Units=1/GPa)
#
#
# Indices 1 2 3 4 5 6 
#
# 1 0.014001 -0.001166 0.000634 -0.007792 0.013676 -0.008412
# 2 -0.001166 0.006410 -0.000343 0.003340 0.001062 -0.001983
# 3 0.000634 -0.000343 0.010280 0.003409 0.012892 -0.007765
# 4 -0.007792 0.003340 0.003409 0.053943 -0.014498 0.017657
# 5 0.013676 0.001062 0.012892 -0.014498 0.066938 -0.029026
# 6 -0.008412 -0.001983 -0.007765 0.017657 -0.029026 0.063765
#
#
# Mechanical properties :
#
#
# Convention : Reuss Voigt Hill
#
# Bulk Modulus (GPa) = 34.55406 67.25989 50.90697
# Shear Modulus (GPa) = 22.05242 38.90612 30.47927
#
# Velocity S-wave (km/s) = 3.06044 4.06504 3.59798
# Velocity P-wave (km/s) = 5.21196 7.11337 6.23557
#
# Compressibility (1/GPa) = 0.02894016
#
# Stress axis : x y z
#
# Youngs Moduli (GPa) = 71.42601 156.00580 97.27954
#
# Poissons Ratio (x) = 0.18195 -0.06167
# Poissons Ratio (y) = 0.08331 0.03333
# Poissons Ratio (z) = -0.04528 0.05345
#
# Static dielectric constant tensor:
#      x y z
#    x 2.132670 -0.094560 0.070550 
#    y -0.094560 1.880640 -0.010630 
#    z 0.070550 -0.010630 1.876610 
# 
# From -- ./inp_files/480510.got.cif
#   From: 2010.05.17/outbox.cif.g08.bks.cpg/sg2_241_cif.got.tgz:480510.got - 2010.06.03 11:33:40.
