data_PCOD9044002
_publ_section_title
;
Structure prediction by ZEFSAII (Michael W. Deem and Ramdas Pophale) SiO2 
 PCOD9044002
Probable space group: P -1
;
_chemical_formula_sum "Si O2"
_cell_formula_units_Z 16
_cell_length_a 15.764574
_cell_length_b 11.337006
_cell_length_c 5.352325
_cell_angle_alpha 109.082397
_cell_angle_beta 124.295007
_cell_angle_gamma 59.543103
_cell_volume 680.081722
_symmetry_space_group_name_H-M "P -1"
_symmetry_group_IT_number 2
_symmetry_cell_setting 'triclinic'
loop_
_space_group_symop_operation_xyz
x,y,z
-x,-y,-z
loop_
_atom_site_type_symbol
_atom_site_label
_atom_site_fract_x
_atom_site_fract_y
_atom_site_fract_z
Si Si1 0.546769 0.542407 0.361831
Si Si2 0.383193 0.078877 0.712019
Si Si3 0.186687 0.607712 0.333538
Si Si4 0.618615 0.181036 0.611459
Si Si5 0.244068 0.843684 0.704667
Si Si6 0.823520 0.850269 0.216839
Si Si7 0.216201 0.325957 0.372489
Si Si8 0.004328 0.354058 0.337178
O O1 0.500000 0.500000 0.500000
O O2 0.680103 0.465735 0.542225
O O3 0.505716 0.703551 0.464220
O O4 0.500000 0.500000 0.000000
O O5 0.277334 0.092101 0.711569
O O6 0.337066 0.234086 0.637955
O O7 0.384075 0.965690 0.435353
O O8 0.500000 0.000000 0.000000
O O9 0.168003 0.759482 0.488336
O O10 0.176078 0.489363 0.408298
O O11 0.107745 0.625775 0.977354
O O12 0.675316 0.182260 0.432526
O O13 0.685768 0.214848 0.967186
O O14 0.178878 0.004882 0.772549
O O15 0.951192 0.754609 0.442777
O O16 0.782210 0.744677 0.936949
O O17 0.114332 0.297130 0.302939
O O18 0.000000 0.500000 0.500000
#
# Coordination Sequence:
#
# PCOD9044002 Si02
#       8
#     2   2   2   2   2   2   2   2
#     4  12  25  45  68 105 148 188 233 297 365 437
#     4  10  24  41  71 102 138 188 242 297 360 440
#     4  12  26  43  74 107 136 192 244 293 367 434
#     4  11  22  45  68  98 149 185 229 297 363 419
#     4  11  24  46  72 101 140 191 234 291 362 434
#     4  10  23  46  68  95 143 189 231 301 362 422
#     4  11  24  46  70 103 143 185 243 298 360 434
#     4  11  25  45  72 104 144 184 241 308 362 422
#
# _framework density 23.526582000000001
#
# number of rings (size 3 to 8) (size 9 to 14) (size 15 to 20)
#    0.000    1.000    5.000    0.375    1.750    6.000 
#    0.000    0.625    0.000    0.000    0.000    0.000 
#    0.000    0.000    0.000    0.000    0.000    0.000 
#
# Total GULP energy -89103.365430 kJ/mol
# GULP energy per Si atom -5568.960339 kJ/mol
# Density = 2.347303 g / cm^3
# Si number density = 23.526582 Si / 1000 Ang^3
#
#
#
# Elastic Constant Matrix: (Units=GPa)
#
#
# Indices 1 2 3 4 5 6 
#
# 1 58.1140 -0.4735 22.3265 -5.9020 3.4546 -1.1088
# 2 -0.4735 115.7918 22.1001 -8.8867 14.6789 2.3570
# 3 22.3265 22.1001 133.9854 -20.8658 24.3711 -9.9159
# 4 -5.9020 -8.8867 -20.8658 41.4052 -4.0059 11.4104
# 5 3.4546 14.6789 24.3711 -4.0059 34.8695 -0.5871
# 6 -1.1088 2.3570 -9.9159 11.4104 -0.5871 30.0465
#
#
#
# Elastic Compliance Matrix: (Units=1/GPa)
#
#
# Indices 1 2 3 4 5 6 
#
# 1 0.018524 0.000782 -0.003074 0.001542 0.000145 -0.000975
# 2 0.000782 0.009402 -0.000946 0.001834 -0.003193 -0.001780
# 3 -0.003074 -0.000946 0.009821 0.003238 -0.005758 0.001860
# 4 0.001542 0.001834 0.003238 0.029180 -0.000006 -0.010100
# 5 0.000145 -0.003193 -0.005758 -0.000006 0.034015 -0.000977
# 6 -0.000975 -0.001780 0.001860 -0.010100 -0.000977 0.037815
#
#
# Mechanical properties :
#
#
# Convention : Reuss Voigt Hill
#
# Bulk Modulus (GPa) = 31.97879 43.97749 37.97814
# Shear Modulus (GPa) = 32.12171 38.86011 35.49091
#
# Velocity S-wave (km/s) = 3.69906 4.06859 3.88821
# Velocity P-wave (km/s) = 5.64501 6.38784 6.02788
#
# Compressibility (1/GPa) = 0.03127073
#
# Stress axis : x y z
#
# Youngs Moduli (GPa) = 53.98291 106.36258 101.82107
#
# Poissons Ratio (x) = -0.08321 0.31302
# Poissons Ratio (y) = -0.04223 0.09637
# Poissons Ratio (z) = 0.16595 0.10066
#
# Static dielectric constant tensor:
#      x y z
#    x 1.758250 0.133310 0.005170 
#    y 0.133310 1.983010 -0.083990 
#    z 0.005170 -0.083990 1.945330 
# 
# From -- ./inp_files/109890.got.cif
#   From: 2010.05.17/outbox.cif.g08.bks.cpg/sg2_55_cif.got.tgz:109890.got - 2010.06.03 11:33:40.
