data_PCOD9044176
_publ_section_title
;
Structure prediction by ZEFSAII (Michael W. Deem and Ramdas Pophale) SiO2 
 PCOD9044176
Probable space group: P -1
;
_chemical_formula_sum "Si O2"
_cell_formula_units_Z 14
_cell_length_a 6.374241
_cell_length_b 7.644282
_cell_length_c 15.947127
_cell_angle_alpha 126.858454
_cell_angle_beta 60.088013
_cell_angle_gamma 118.269975
_cell_volume 521.573619
_symmetry_space_group_name_H-M "P -1"
_symmetry_group_IT_number 2
_symmetry_cell_setting 'triclinic'
loop_
_space_group_symop_operation_xyz
x,y,z
-x,-y,-z
loop_
_atom_site_type_symbol
_atom_site_label
_atom_site_fract_x
_atom_site_fract_y
_atom_site_fract_z
Si Si1 0.755783 0.423058 0.410469
Si Si2 0.248990 0.283937 0.698625
Si Si3 0.237732 0.551487 0.123575
Si Si4 0.761493 0.767143 0.114295
Si Si5 0.722213 0.883152 0.902051
Si Si6 0.432225 0.258760 0.292904
Si Si7 0.927331 0.181750 0.464670
O O1 0.500000 0.500000 0.500000
O O2 0.682035 0.260331 0.297918
O O3 0.995009 0.642274 0.423488
O O4 0.816097 0.293532 0.441860
O O5 0.261486 0.232121 0.780201
O O6 0.482854 0.478623 0.678218
O O7 0.003104 0.379371 0.775470
O O8 0.228051 0.075211 0.579251
O O9 0.481445 0.761847 0.138034
O O10 0.290833 0.349238 0.112315
O O11 0.203031 0.455090 0.007760
O O12 0.004316 0.954011 0.090808
O O13 0.677705 0.849046 0.802682
O O14 0.500000 0.000000 0.000000
O O15 0.201089 0.172904 0.375801
#
# Coordination Sequence:
#
# PCOD9044176 Si02
#       7
#     2   2   2   2   2   2   2
#     4   9  22  46  73  98 133 173 220 278 333 407
#     4  12  25  41  69 100 134 174 222 278 338 394
#     4  11  27  43  64  96 135 180 230 280 326 389
#     4  11  25  44  66  92 136 182 229 279 327 389
#     4  12  26  44  67  98 138 185 227 272 331 392
#     4  11  24  43  68 101 140 173 224 276 329 404
#     4  10  23  46  71 100 132 174 223 275 340 395
#
# _framework density 26.841844999999999
#
# number of rings (size 3 to 8) (size 9 to 14) (size 15 to 20)
#    0.000    1.143    2.857    1.714    6.000    5.143 
#    0.000    6.429    0.000    0.000    0.000    0.000 
#    0.000    0.000    0.000    0.000    0.000    0.000 
#
# Total GULP energy -78285.257982 kJ/mol
# GULP energy per Si atom -5591.804142 kJ/mol
# Density = 2.678075 g / cm^3
# Si number density = 26.841845 Si / 1000 Ang^3
#
#
#
# Elastic Constant Matrix: (Units=GPa)
#
#
# Indices 1 2 3 4 5 6 
#
# 1 132.8150 27.2620 36.2111 19.1161 24.7174 0.4339
# 2 27.2620 97.1542 4.3366 14.2798 16.5125 20.9170
# 3 36.2111 4.3366 74.3805 6.7126 24.2101 20.1017
# 4 19.1161 14.2798 6.7126 39.2186 2.3018 13.6496
# 5 24.7174 16.5125 24.2101 2.3018 55.5801 1.9426
# 6 0.4339 20.9170 20.1017 13.6496 1.9426 58.7283
#
#
#
# Elastic Compliance Matrix: (Units=1/GPa)
#
#
# Indices 1 2 3 4 5 6 
#
# 1 0.010315 -0.002518 -0.004909 -0.004421 -0.001643 0.003583
# 2 -0.002518 0.012913 0.003305 -0.002033 -0.003893 -0.005110
# 3 -0.004909 0.003305 0.020098 0.000964 -0.007313 -0.008002
# 4 -0.004421 -0.002033 0.000964 0.030494 0.001122 -0.006698
# 5 -0.001643 -0.003893 -0.007313 0.001122 0.022918 0.002883
# 6 0.003583 -0.005110 -0.008002 -0.006698 0.002883 0.023021
#
#
# Mechanical properties :
#
#
# Convention : Reuss Voigt Hill
#
# Bulk Modulus (GPa) = 28.50599 48.88546 38.69573
# Shear Modulus (GPa) = 35.79193 46.47473 41.13333
#
# Velocity S-wave (km/s) = 3.65559 4.16556 3.91888
# Velocity P-wave (km/s) = 5.33487 6.43333 5.90968
#
# Compressibility (1/GPa) = 0.03508035
#
# Stress axis : x y z
#
# Youngs Moduli (GPa) = 96.94647 77.44378 49.75690
#
# Poissons Ratio (x) = 0.19497 0.24428
# Poissons Ratio (y) = 0.24407 -0.16443
# Poissons Ratio (z) = 0.47595 -0.25592
#
# Static dielectric constant tensor:
#      x y z
#    x 2.068070 -0.054360 0.012060 
#    y -0.054360 2.115210 0.086280 
#    z 0.012060 0.086280 2.320140 
# 
# From -- ./inp_files/548394.got.cif
#   From: 2010.05.17/outbox.cif.g08.bks.cpg/sg2_275_cif.got.tgz:548394.got - 2010.06.03 11:33:40.
