data_PCOD9044259
_publ_section_title
;
Structure prediction by ZEFSAII (Michael W. Deem and Ramdas Pophale) SiO2 
 PCOD9044259
Probable space group: P -1
;
_chemical_formula_sum "Si O2"
_cell_formula_units_Z 16
_cell_length_a 19.046829
_cell_length_b 5.856269
_cell_length_c 8.262310
_cell_angle_alpha 98.216555
_cell_angle_beta 85.614192
_cell_angle_gamma 134.851080
_cell_volume 646.269893
_symmetry_space_group_name_H-M "P -1"
_symmetry_group_IT_number 2
_symmetry_cell_setting 'triclinic'
loop_
_space_group_symop_operation_xyz
x,y,z
-x,-y,-z
loop_
_atom_site_type_symbol
_atom_site_label
_atom_site_fract_x
_atom_site_fract_y
_atom_site_fract_z
Si Si1 0.850315 0.280674 0.586191
Si Si2 0.631287 0.408980 0.684892
Si Si3 0.271861 0.333228 0.632219
Si Si4 0.537768 0.168513 0.186936
Si Si5 0.410390 0.239143 0.114124
Si Si6 0.085871 0.066459 0.811366
Si Si7 0.229201 0.567474 0.109369
Si Si8 0.992813 0.645383 0.300948
O O1 0.823117 0.394658 0.742127
O O2 0.935842 0.556601 0.473134
O O3 0.893539 0.149594 0.653992
O O4 0.762412 0.997835 0.454729
O O5 0.667160 0.429579 0.504712
O O6 0.646515 0.703359 0.767299
O O7 0.699051 0.431553 0.802319
O O8 0.513493 0.119794 0.707812
O O9 0.348119 0.514060 0.785362
O O10 0.173351 0.242496 0.682415
O O11 0.472484 0.243083 0.236753
O O12 0.500000 0.000000 0.000000
O O13 0.314617 0.891791 0.017281
O O14 0.500000 0.500000 0.000000
O O15 0.027566 0.171089 0.783593
O O16 0.041798 0.697691 0.789011
O O17 0.144959 0.258148 0.984932
#
# Coordination Sequence:
#
# PCOD9044259 Si02
#       8
#     2   2   2   2   2   2   2   2
#     4  10  23  46  72 100 139 183 235 291 353 424
#     4  11  23  41  64  95 134 183 226 290 341 410
#     4  11  23  43  69  98 136 185 239 283 347 428
#     4  11  23  42  62  97 133 179 230 286 351 412
#     4  11  23  39  65  91 138 182 222 290 350 403
#     4  11  26  44  73 107 142 186 236 291 357 424
#     4  11  25  43  69 102 136 184 237 288 347 422
#     4  10  25  47  72 106 143 186 229 299 362 415
#
# _framework density 24.757459999999998
#
# number of rings (size 3 to 8) (size 9 to 14) (size 15 to 20)
#    0.000    1.250    2.500    2.625    1.750    8.000 
#    2.250    0.000    0.000    0.000    0.000    0.000 
#    0.000    0.000    0.000    0.000    0.000    0.000 
#
# Total GULP energy -89181.685374 kJ/mol
# GULP energy per Si atom -5573.855336 kJ/mol
# Density = 2.470111 g / cm^3
# Si number density = 24.757460 Si / 1000 Ang^3
#
#
#
# Elastic Constant Matrix: (Units=GPa)
#
#
# Indices 1 2 3 4 5 6 
#
# 1 125.8749 26.2245 30.1085 23.2362 -8.6302 -9.3349
# 2 26.2245 96.8025 38.6257 20.1184 -5.5530 13.2181
# 3 30.1085 38.6257 109.8178 32.2553 -20.2770 7.0164
# 4 23.2362 20.1184 32.2553 37.8105 7.9080 -1.7195
# 5 -8.6302 -5.5530 -20.2770 7.9080 36.0171 2.1472
# 6 -9.3349 13.2181 7.0164 -1.7195 2.1472 28.2455
#
#
#
# Elastic Compliance Matrix: (Units=1/GPa)
#
#
# Indices 1 2 3 4 5 6 
#
# 1 0.009821 -0.001792 -0.000154 -0.005408 0.002965 0.003568
# 2 -0.001792 0.013793 -0.001914 -0.005392 0.002225 -0.007069
# 3 -0.000154 -0.001914 0.017782 -0.017199 0.013793 -0.005668
# 4 -0.005408 -0.005392 -0.017199 0.052788 -0.023999 0.010046
# 5 0.002965 0.002225 0.013793 -0.023999 0.042339 -0.008167
# 6 0.003568 -0.007069 -0.005668 0.010046 -0.008167 0.042532
#
#
# Mechanical properties :
#
#
# Convention : Reuss Voigt Hill
#
# Bulk Modulus (GPa) = 29.69587 58.04585 43.87086
# Shear Modulus (GPa) = 25.25248 36.25039 30.75143
#
# Velocity S-wave (km/s) = 3.19720 3.83066 3.52818
# Velocity P-wave (km/s) = 5.06460 6.56217 5.86141
#
# Compressibility (1/GPa) = 0.03367472
#
# Stress axis : x y z
#
# Youngs Moduli (GPa) = 101.82415 72.50092 56.23691
#
# Poissons Ratio (x) = 0.12994 0.00869
# Poissons Ratio (y) = 0.18249 0.10763
# Poissons Ratio (z) = 0.01573 0.13876
#
# Static dielectric constant tensor:
#      x y z
#    x 1.997720 -0.078070 0.007680 
#    y -0.078070 2.535740 -0.006800 
#    z 0.007680 -0.006800 1.998790 
# 
# From -- ./inp_files/323879.got.cif
#   From: 2010.05.17/outbox.cif.g08.bks.cpg/sg2_162_cif.got.tgz:323879.got - 2010.06.03 11:33:40.
