data_PCOD9044731
_publ_section_title
;
Structure prediction by ZEFSAII (Michael W. Deem and Ramdas Pophale) SiO2 
 PCOD9044731
Probable space group: P -1
;
_chemical_formula_sum "Si O2"
_cell_formula_units_Z 12
_cell_length_a 16.931554
_cell_length_b 5.257598
_cell_length_c 15.212243
_cell_angle_alpha 47.998158
_cell_angle_beta 152.799741
_cell_angle_gamma 126.660394
_cell_volume 459.985885
_symmetry_space_group_name_H-M "P -1"
_symmetry_group_IT_number 2
_symmetry_cell_setting 'triclinic'
loop_
_space_group_symop_operation_xyz
x,y,z
-x,-y,-z
loop_
_atom_site_type_symbol
_atom_site_label
_atom_site_fract_x
_atom_site_fract_y
_atom_site_fract_z
Si Si1 0.772197 0.443696 0.100705
Si Si2 0.301204 0.008836 0.275951
Si Si3 0.191129 0.357796 0.713549
Si Si4 0.589055 0.681564 0.212195
Si Si5 0.107786 0.431707 0.335591
Si Si6 0.872887 0.313716 0.984239
O O1 0.739973 0.594521 0.131029
O O2 0.815543 0.036648 0.233248
O O3 0.954884 0.577384 0.212266
O O4 0.575605 0.469520 0.863536
O O5 0.232878 0.385102 0.143223
O O6 0.500000 0.000000 0.500000
O O7 0.256175 0.900379 0.155979
O O8 0.255069 0.256046 0.579975
O O9 0.000000 0.500000 0.500000
O O10 0.317176 0.524241 0.726393
O O11 0.500000 0.000000 0.000000
O O12 0.196978 0.740300 0.297822
O O13 0.000000 0.500000 0.000000
O O14 0.002795 0.194255 0.217748
#
# Coordination Sequence:
#
# PCOD9044731 Si02
#       6
#     2   2   2   2   2   2
#     4  11  25  43  68 101 139 189 245 292 357 422
#     4  11  25  48  77 109 145 187 238 304 369 437
#     4  11  22  44  68  93 143 190 234 298 354 410
#     4  10  24  45  70 105 147 193 246 293 356 428
#     4  11  24  45  75 107 148 190 247 297 364 429
#     4  10  23  47  72 103 146 187 233 300 368 429
#
# _framework density 26.087755000000001
#
# number of rings (size 3 to 8) (size 9 to 14) (size 15 to 20)
#    0.000    1.333    1.667    3.500    4.667    4.000 
#    0.000    0.000    0.000    0.000    0.000    0.000 
#    0.000    0.000    0.000    0.000    0.000    0.000 
#
# Total GULP energy -67071.210957 kJ/mol
# GULP energy per Si atom -5589.267580 kJ/mol
# Density = 2.602838 g / cm^3
# Si number density = 26.087755 Si / 1000 Ang^3
#
#
#
# Elastic Constant Matrix: (Units=GPa)
#
#
# Indices 1 2 3 4 5 6 
#
# 1 176.6434 59.5103 95.3193 23.6154 10.8061 -10.2480
# 2 59.5103 125.6593 66.3041 27.6912 2.8439 -22.8858
# 3 95.3193 66.3041 276.0923 30.3679 0.4833 -17.9479
# 4 23.6154 27.6912 30.3679 39.5380 0.2668 0.2992
# 5 10.8061 2.8439 0.4833 0.2668 67.1433 16.6062
# 6 -10.2480 -22.8858 -17.9479 0.2992 16.6062 52.7045
#
#
#
# Elastic Compliance Matrix: (Units=1/GPa)
#
#
# Indices 1 2 3 4 5 6 
#
# 1 0.007764 -0.002224 -0.001954 -0.001573 -0.001201 0.000266
# 2 -0.002224 0.011841 -0.001085 -0.006159 -0.001294 0.004783
# 3 -0.001954 -0.001085 0.004800 -0.001766 0.000148 0.000747
# 4 -0.001573 -0.006159 -0.001766 0.031924 0.001443 -0.004218
# 5 -0.001201 -0.001294 0.000148 0.001443 0.016616 -0.005989
# 6 0.000266 0.004783 0.000747 -0.004218 -0.005989 0.023267
#
#
# Mechanical properties :
#
#
# Convention : Reuss Voigt Hill
#
# Bulk Modulus (GPa) = 72.05168 113.40695 92.72932
# Shear Modulus (GPa) = 44.89777 55.69458 50.29617
#
# Velocity S-wave (km/s) = 4.15303 4.62550 4.39562
# Velocity P-wave (km/s) = 7.11869 8.49074 7.83481
#
# Compressibility (1/GPa) = 0.01387893
#
# Stress axis : x y z
#
# Youngs Moduli (GPa) = 128.80258 84.44967 208.34338
#
# Poissons Ratio (x) = 0.18778 0.40711
# Poissons Ratio (y) = 0.28640 0.22615
# Poissons Ratio (z) = 0.25168 0.09167
#
# Static dielectric constant tensor:
#      x y z
#    x 2.202290 0.195770 -0.085440 
#    y 0.195770 2.305530 -0.020900 
#    z -0.085440 -0.020900 2.017840 
# 
# From -- ./inp_files/321366.got.cif
#   From: 2010.05.17/outbox.cif.g08.bks.cpg/sg2_161_cif.got.tgz:321366.got - 2010.06.03 11:33:40.
