data_PCOD9044036
_publ_section_title
;
Structure prediction by ZEFSAII (Michael W. Deem and Ramdas Pophale) SiO2 
 PCOD9044036
Probable space group: P -1
;
_chemical_formula_sum "Si O2"
_cell_formula_units_Z 16
_cell_length_a 14.715748
_cell_length_b 15.071024
_cell_length_c 8.980636
_cell_angle_alpha 101.409677
_cell_angle_beta 97.968427
_cell_angle_gamma 150.593284
_cell_volume 731.688469
_symmetry_space_group_name_H-M "P -1"
_symmetry_group_IT_number 2
_symmetry_cell_setting 'triclinic'
loop_
_space_group_symop_operation_xyz
x,y,z
-x,-y,-z
loop_
_atom_site_type_symbol
_atom_site_label
_atom_site_fract_x
_atom_site_fract_y
_atom_site_fract_z
Si Si1 0.112527 0.520484 0.129160
Si Si2 0.098764 0.855035 0.104298
Si Si3 0.974114 0.736731 0.375456
Si Si4 0.396037 0.063947 0.759966
Si Si5 0.531974 0.209826 0.174671
Si Si6 0.207361 0.247421 0.040378
Si Si7 0.751327 0.269823 0.456386
Si Si8 0.756805 0.732264 0.293035
O O1 0.334969 0.673621 0.148908
O O2 0.202635 0.645273 0.344753
O O3 0.000000 0.500000 0.000000
O O4 0.938628 0.275935 0.027223
O O5 0.095388 0.835456 0.273878
O O6 0.359195 0.123629 0.190328
O O7 0.900539 0.749477 0.986991
O O8 0.797011 0.493093 0.296764
O O9 0.805370 0.670024 0.302740
O O10 0.188220 0.940512 0.612719
O O11 0.333063 0.910047 0.621203
O O12 0.419840 0.081675 0.947789
O O13 0.567051 0.159803 0.280133
O O14 0.495182 0.514402 0.236891
O O15 0.233612 0.237219 0.871603
O O16 0.000000 0.000000 0.000000
O O17 0.000000 0.500000 0.500000
O O18 0.000000 0.000000 0.500000
#
# Coordination Sequence:
#
# PCOD9044036 Si02
#       8
#     2   2   2   2   2   2   2   2
#     4  12  24  42  67  98 137 179 226 272 334 394
#     4  11  24  43  68  98 135 180 220 274 335 403
#     4  11  24  44  66 100 133 172 225 272 335 401
#     4  12  24  42  69  91 134 181 220 276 334 389
#     4  12  24  44  66  97 136 174 227 276 328 392
#     4  10  23  46  69 101 139 174 225 282 342 404
#     4  12  23  41  62  97 134 174 228 275 324 394
#     4  10  24  43  71 101 134 176 222 279 341 413
#
# _framework density 21.867228000000001
#
# number of rings (size 3 to 8) (size 9 to 14) (size 15 to 20)
#    0.000    0.750    2.500    5.250    1.750    2.500 
#    0.000    0.000    0.000    0.000    0.000    0.000 
#    0.000    0.000    0.000    0.000    0.000    0.000 
#
# Total GULP energy -89375.239954 kJ/mol
# GULP energy per Si atom -5585.952497 kJ/mol
# Density = 2.181746 g / cm^3
# Si number density = 21.867228 Si / 1000 Ang^3
#
#
#
# Elastic Constant Matrix: (Units=GPa)
#
#
# Indices 1 2 3 4 5 6 
#
# 1 61.8149 39.6836 19.7992 -0.6073 24.3503 16.0729
# 2 39.6836 126.3869 50.4610 1.0024 9.3647 19.8117
# 3 19.7992 50.4610 101.7817 0.6024 28.7925 19.0300
# 4 -0.6073 1.0024 0.6024 31.4504 -0.7285 0.9159
# 5 24.3503 9.3647 28.7925 -0.7285 30.8567 7.0295
# 6 16.0729 19.8117 19.0300 0.9159 7.0295 42.9133
#
#
#
# Elastic Compliance Matrix: (Units=1/GPa)
#
#
# Indices 1 2 3 4 5 6 
#
# 1 0.033807 -0.010732 0.008382 0.000336 -0.029740 -0.006560
# 2 -0.010732 0.013677 -0.007912 -0.000196 0.011861 -0.000725
# 3 0.008382 -0.007912 0.018823 -0.000299 -0.020777 -0.004424
# 4 0.000336 -0.000196 -0.000299 0.031859 0.000995 -0.000746
# 5 -0.029740 0.011861 -0.020777 0.000995 0.070951 0.003233
# 6 -0.006560 -0.000725 -0.004424 -0.000746 0.003233 0.027543
#
#
# Mechanical properties :
#
#
# Convention : Reuss Voigt Hill
#
# Bulk Modulus (GPa) = 21.84213 56.65234 39.24724
# Shear Modulus (GPa) = 21.51047 33.04675 27.27861
#
# Velocity S-wave (km/s) = 3.13978 3.89169 3.53578
# Velocity P-wave (km/s) = 4.81191 6.79392 5.88693
#
# Compressibility (1/GPa) = 0.04578308
#
# Stress axis : x y z
#
# Youngs Moduli (GPa) = 29.58002 73.11479 53.12561
#
# Poissons Ratio (x) = 0.78468 -0.44530
# Poissons Ratio (y) = 0.31746 0.42032
# Poissons Ratio (z) = -0.24794 0.57847
#
# Static dielectric constant tensor:
#      x y z
#    x 2.304410 0.206660 0.507640 
#    y 0.206660 1.985920 0.286910 
#    z 0.507640 0.286910 2.350650 
# 
# From -- ./inp_files/52370.got.cif
#   From: 2010.05.17/outbox.cif.g08.bks.cpg/sg2_27_cif.got.tgz:52370.got - 2010.06.03 11:33:40.
