data_PCOD9044869
_publ_section_title
;
Structure prediction by ZEFSAII (Michael W. Deem and Ramdas Pophale) SiO2 
 PCOD9044869
Probable space group: P -1
;
_chemical_formula_sum "Si O2"
_cell_formula_units_Z 12
_cell_length_a 28.422917
_cell_length_b 9.440076
_cell_length_c 8.549499
_cell_angle_alpha 147.830588
_cell_angle_beta 27.144071
_cell_angle_gamma 150.784710
_cell_volume 485.069759
_symmetry_space_group_name_H-M "P -1"
_symmetry_group_IT_number 2
_symmetry_cell_setting 'triclinic'
loop_
_space_group_symop_operation_xyz
x,y,z
-x,-y,-z
loop_
_atom_site_type_symbol
_atom_site_label
_atom_site_fract_x
_atom_site_fract_y
_atom_site_fract_z
Si Si1 0.020215 0.800077 0.627650
Si Si2 0.598979 0.344439 0.479681
Si Si3 0.706260 0.776706 0.864704
Si Si4 0.412795 0.318324 0.449428
Si Si5 0.794501 0.544801 0.848573
Si Si6 0.689854 0.221832 0.578117
O O1 0.000000 0.500000 0.500000
O O2 0.922796 0.719646 0.706606
O O3 0.153121 0.003977 0.365815
O O4 0.000000 0.000000 0.000000
O O5 0.659004 0.610643 0.680959
O O6 0.542987 0.487829 0.657864
O O7 0.500000 0.000000 0.500000
O O8 0.707149 0.338584 0.058658
O O9 0.672600 0.480742 0.792543
O O10 0.679371 0.003744 0.262394
O O11 0.500000 0.500000 0.500000
O O12 0.396277 0.985022 0.218493
O O13 0.279748 0.279439 0.811679
O O14 0.803397 0.400503 0.522328
#
# Coordination Sequence:
#
# PCOD9044869 Si02
#       6
#     2   2   2   2   2   2
#     4  12  26  48  79 113 156 199 253 319 384 450
#     4  10  23  47  79 114 145 203 264 313 374 457
#     4  12  26  46  78 115 152 196 260 319 372 461
#     4  10  23  47  77 104 156 199 252 312 385 443
#     4  10  26  47  76 110 156 202 253 308 394 448
#     4  12  26  48  72 115 154 198 254 313 387 454
#
# _framework density 24.738707999999999
#
# number of rings (size 3 to 8) (size 9 to 14) (size 15 to 20)
#    1.000    0.000    3.333    2.000    4.667    3.333 
#    0.000    2.500    0.000    0.000    0.000    0.000 
#    0.000    0.000    0.000    0.000    0.000    0.000 
#
# Total GULP energy -66888.634692 kJ/mol
# GULP energy per Si atom -5574.052891 kJ/mol
# Density = 2.468240 g / cm^3
# Si number density = 24.738708 Si / 1000 Ang^3
#
#
#
# Elastic Constant Matrix: (Units=GPa)
#
#
# Indices 1 2 3 4 5 6 
#
# 1 240.9254 76.5297 48.0262 24.0800 15.0218 38.4228
# 2 76.5297 134.8880 61.7324 11.3894 -12.3390 -7.0795
# 3 48.0262 61.7324 121.4302 17.5498 17.4394 8.7830
# 4 24.0800 11.3894 17.5498 49.8165 1.7410 0.1166
# 5 15.0218 -12.3390 17.4394 1.7410 46.5259 16.1488
# 6 38.4228 -7.0795 8.7830 0.1166 16.1488 64.3038
#
#
#
# Elastic Compliance Matrix: (Units=1/GPa)
#
#
# Indices 1 2 3 4 5 6 
#
# 1 0.006240 -0.003874 0.000345 -0.002181 -0.001789 -0.003749
# 2 -0.003874 0.013173 -0.006384 0.000892 0.006020 0.003124
# 3 0.000345 -0.006384 0.012728 -0.002976 -0.006076 -0.001116
# 4 -0.002181 0.000892 -0.002976 0.021945 0.000681 0.001597
# 5 -0.001789 0.006020 -0.006076 0.000681 0.027421 -0.004326
# 6 -0.003749 0.003124 -0.001116 0.001597 -0.004326 0.019371
#
#
# Mechanical properties :
#
#
# Convention : Reuss Voigt Hill
#
# Bulk Modulus (GPa) = 81.21012 96.64669 88.92841
# Shear Modulus (GPa) = 40.06157 52.85960 46.46059
#
# Velocity S-wave (km/s) = 4.02853 4.62748 4.33835
# Velocity P-wave (km/s) = 7.38493 8.22820 7.81794
#
# Compressibility (1/GPa) = 0.01231374
#
# Stress axis : x y z
#
# Youngs Moduli (GPa) = 160.25689 75.91558 78.56949
#
# Poissons Ratio (x) = 0.29413 -0.02710
# Poissons Ratio (y) = 0.62090 0.50156
# Poissons Ratio (z) = -0.05528 0.48462
#
# Static dielectric constant tensor:
#      x y z
#    x 2.060820 0.013190 0.092040 
#    y 0.013190 2.086570 -0.012250 
#    z 0.092040 -0.012250 2.336800 
# 
# From -- ./inp_files/356317.got.cif
#   From: 2010.05.17/outbox.cif.g08.bks.cpg/sg2_179_cif.got.tgz:356317.got - 2010.06.03 11:33:40.
