data_PCOD9044455
_publ_section_title
;
Structure prediction by ZEFSAII (Michael W. Deem and Ramdas Pophale) SiO2 
 PCOD9044455
Probable space group: P -1
;
_chemical_formula_sum "Si O2"
_cell_formula_units_Z 13
_cell_length_a 8.928443
_cell_length_b 9.385692
_cell_length_c 7.620777
_cell_angle_alpha 105.481274
_cell_angle_beta 100.806488
_cell_angle_gamma 54.857651
_cell_volume 502.802186
_symmetry_space_group_name_H-M "P -1"
_symmetry_group_IT_number 2
_symmetry_cell_setting 'triclinic'
loop_
_space_group_symop_operation_xyz
x,y,z
-x,-y,-z
loop_
_atom_site_type_symbol
_atom_site_label
_atom_site_fract_x
_atom_site_fract_y
_atom_site_fract_z
Si Si1 0.393438 0.192717 0.120740
Si Si2 0.716714 0.281941 0.823475
Si Si3 0.677667 0.965129 0.636947
Si Si4 0.413929 0.624535 0.691044
Si Si5 0.152490 0.498134 0.910805
Si Si6 0.000000 0.500000 0.500000
Si Si7 0.069838 0.755942 0.484323
O O1 0.275520 0.180510 0.248134
O O2 0.524212 0.240521 0.254640
O O3 0.318242 0.321776 0.979959
O O4 0.500000 0.000000 0.000000
O O5 0.523382 0.469768 0.807088
O O6 0.853943 0.211564 0.662051
O O7 0.671930 0.131390 0.778629
O O8 0.855442 0.871169 0.518818
O O9 0.500000 0.000000 0.500000
O O10 0.500000 0.500000 0.500000
O O11 0.176171 0.661145 0.006865
O O12 0.196048 0.747665 0.665598
O O13 0.123377 0.481547 0.695344
O O14 0.000000 0.500000 0.000000
O O15 0.111525 0.559624 0.421396
#
# Coordination Sequence:
#
# PCOD9044455 Si02
#       7
#     2   2   2   2   2   1   2
#     4  11  27  48  74 110 160 202 257 339 389 470
#     4  10  23  46  75 109 161 202 260 329 387 475
#     4  12  27  44  75 119 159 208 261 319 405 472
#     4   9  21  45  72 102 150 205 258 318 390 460
#     4  11  24  49  75 111 152 201 266 325 387 474
#     4  12  26  42  82 108 144 206 268 314 402 454
#     4  11  24  42  75 111 152 200 262 321 389 467
#
# _framework density 25.855098999999999
#
# number of rings (size 3 to 8) (size 9 to 14) (size 15 to 20)
#    0.000    1.231    1.538    3.231    8.615    2.462 
#    0.000    5.385    0.000    0.000    0.000    0.000 
#    0.000    0.000    0.000    0.000    0.000    0.000 
#
# Total GULP energy -72374.451028 kJ/mol
# GULP energy per Si atom -5567.265464 kJ/mol
# Density = 2.579625 g / cm^3
# Si number density = 25.855099 Si / 1000 Ang^3
#
#
#
# Elastic Constant Matrix: (Units=GPa)
#
#
# Indices 1 2 3 4 5 6 
#
# 1 210.1779 76.3272 53.8232 -4.2400 14.6566 23.7660
# 2 76.3272 101.2193 28.2668 2.9547 2.3333 22.6840
# 3 53.8232 28.2668 158.6937 -20.6315 9.1105 5.4798
# 4 -4.2400 2.9547 -20.6315 23.3286 0.3768 -7.7332
# 5 14.6566 2.3333 9.1105 0.3768 52.5012 8.3635
# 6 23.7660 22.6840 5.4798 -7.7332 8.3635 72.2223
#
#
#
# Elastic Compliance Matrix: (Units=1/GPa)
#
#
# Indices 1 2 3 4 5 6 
#
# 1 0.007006 -0.004781 -0.001355 0.000546 -0.001436 -0.000476
# 2 -0.004781 0.014936 -0.001724 -0.005561 0.001610 -0.003769
# 3 -0.001355 -0.001724 0.008077 0.007574 -0.001212 0.001326
# 4 0.000546 -0.005561 0.007574 0.052715 -0.002705 0.006950
# 5 -0.001436 0.001610 -0.001212 -0.002705 0.020012 -0.002548
# 6 -0.000476 -0.003769 0.001326 0.006950 -0.002548 0.016125
#
#
# Mechanical properties :
#
#
# Convention : Reuss Voigt Hill
#
# Bulk Modulus (GPa) = 69.93471 87.43615 78.68543
# Shear Modulus (GPa) = 35.87894 50.38868 43.13381
#
# Velocity S-wave (km/s) = 3.72922 4.41941 4.08890
# Velocity P-wave (km/s) = 6.75649 7.74162 7.26577
#
# Compressibility (1/GPa) = 0.01429905
#
# Stress axis : x y z
#
# Youngs Moduli (GPa) = 142.73440 66.95194 123.81533
#
# Poissons Ratio (x) = 0.32009 0.16773
# Poissons Ratio (y) = 0.68239 0.21349
# Poissons Ratio (z) = 0.19336 0.11544
#
# Static dielectric constant tensor:
#      x y z
#    x 1.932450 -0.402110 -0.195600 
#    y -0.402110 1.841070 -0.378620 
#    z -0.195600 -0.378620 1.881930 
# 
# From -- ./inp_files/168432.got.cif
#   From: 2010.05.17/outbox.cif.g08.bks.cpg/sg2_85_cif.got.tgz:168432.got - 2010.06.03 11:33:40.
