data_PCOD9044446
_publ_section_title
;
Structure prediction by ZEFSAII (Michael W. Deem and Ramdas Pophale) SiO2 
 PCOD9044446
Probable space group: P -1
;
_chemical_formula_sum "Si O2"
_cell_formula_units_Z 12
_cell_length_a 10.535369
_cell_length_b 6.019519
_cell_length_c 9.259656
_cell_angle_alpha 123.137842
_cell_angle_beta 90.185158
_cell_angle_gamma 72.927955
_cell_volume 460.892912
_symmetry_space_group_name_H-M "P -1"
_symmetry_group_IT_number 2
_symmetry_cell_setting 'triclinic'
loop_
_space_group_symop_operation_xyz
x,y,z
-x,-y,-z
loop_
_atom_site_type_symbol
_atom_site_label
_atom_site_fract_x
_atom_site_fract_y
_atom_site_fract_z
Si Si1 0.635983 0.774850 0.850753
Si Si2 0.204433 0.815055 0.305842
Si Si3 0.137045 0.750419 0.957873
Si Si4 0.925086 0.779714 0.326029
Si Si5 0.502999 0.824508 0.586077
Si Si6 0.246941 0.975982 0.825537
O O1 0.658308 0.442170 0.749708
O O2 0.620977 0.837194 0.702078
O O3 0.500000 0.000000 0.000000
O O4 0.753239 0.814362 0.967101
O O5 0.080239 0.726693 0.340445
O O6 0.169003 0.108269 0.495506
O O7 0.183600 0.817759 0.136660
O O8 0.097715 0.475917 0.848122
O O9 0.258399 0.706011 0.827309
O O10 0.000000 0.000000 0.000000
O O11 0.873831 0.007964 0.278255
O O12 0.500000 0.500000 0.500000
O O13 0.362637 0.991175 0.726164
O O14 0.500000 0.000000 0.500000
#
# Coordination Sequence:
#
# PCOD9044446 Si02
#       6
#     2   2   2   2   2   2
#     4  10  23  46  75 105 145 203 255 318 387 464
#     4  11  23  45  72 109 156 201 258 313 394 459
#     4  12  24  43  73 107 153 204 245 317 394 463
#     4  11  24  44  70 108 156 194 257 319 385 472
#     4  11  27  49  75 110 150 200 266 327 387 462
#     4  11  24  45  71 107 145 200 254 317 385 469
#
# _framework density 26.036418000000001
#
# number of rings (size 3 to 8) (size 9 to 14) (size 15 to 20)
#    0.000    1.000    3.333    2.500    2.333    3.333 
#    3.000    4.167    0.000    0.000    0.000    0.000 
#    0.000    0.000    0.000    0.000    0.000    0.000 
#
# Total GULP energy -66872.885664 kJ/mol
# GULP energy per Si atom -5572.740472 kJ/mol
# Density = 2.597716 g / cm^3
# Si number density = 26.036418 Si / 1000 Ang^3
#
#
#
# Elastic Constant Matrix: (Units=GPa)
#
#
# Indices 1 2 3 4 5 6 
#
# 1 75.7530 20.6019 40.1478 -18.6769 -0.2794 -3.8911
# 2 20.6019 117.0003 89.4008 -37.4579 -10.0920 -15.1730
# 3 40.1478 89.4008 168.7790 -37.3564 9.3162 -2.8907
# 4 -18.6769 -37.4579 -37.3564 54.2248 -0.0442 -6.5836
# 5 -0.2794 -10.0920 9.3162 -0.0442 56.0788 -9.9543
# 6 -3.8911 -15.1730 -2.8907 -6.5836 -9.9543 45.3388
#
#
#
# Elastic Compliance Matrix: (Units=1/GPa)
#
#
# Indices 1 2 3 4 5 6 
#
# 1 0.016024 0.002275 -0.004025 0.004675 0.001681 0.002928
# 2 0.002275 0.019995 -0.009290 0.009311 0.006782 0.009136
# 3 -0.004025 -0.009290 0.011981 0.000005 -0.004328 -0.003640
# 4 0.004675 0.009311 0.000005 0.027486 0.003176 0.008206
# 5 0.001681 0.006782 -0.004328 0.003176 0.021065 0.007224
# 6 0.002928 0.009136 -0.003640 0.008206 0.007224 0.027910
#
#
# Mechanical properties :
#
#
# Convention : Reuss Voigt Hill
#
# Bulk Modulus (GPa) = 38.57730 73.53702 56.05716
# Shear Modulus (GPa) = 32.22057 45.22063 38.72060
#
# Velocity S-wave (km/s) = 3.52166 4.17204 3.86057
# Velocity P-wave (km/s) = 5.60222 7.17726 6.43809
#
# Compressibility (1/GPa) = 0.02592198
#
# Stress axis : x y z
#
# Youngs Moduli (GPa) = 62.40490 50.01184 83.46895
#
# Poissons Ratio (x) = -0.11379 0.33595
# Poissons Ratio (y) = -0.14199 0.77539
# Poissons Ratio (z) = 0.25117 0.46459
#
# Static dielectric constant tensor:
#      x y z
#    x 2.314940 -0.006130 -0.013970 
#    y -0.006130 2.205050 0.111260 
#    z -0.013970 0.111260 2.121260 
# 
# From -- ./inp_files/26422.got.cif
#   From: 2010.05.17/outbox.cif.g08.bks.cpg/sg2_14_cif.got.tgz:26422.got - 2010.06.03 11:33:40.
