data_PCOD9044395
_publ_section_title
;
Structure prediction by ZEFSAII (Michael W. Deem and Ramdas Pophale) SiO2 
 PCOD9044395
Probable space group: P -1
;
_chemical_formula_sum "Si O2"
_cell_formula_units_Z 16
_cell_length_a 13.903130
_cell_length_b 13.998615
_cell_length_c 14.525747
_cell_angle_alpha 53.153572
_cell_angle_beta 147.859753
_cell_angle_gamma 149.311075
_cell_volume 676.206372
_symmetry_space_group_name_H-M "P -1"
_symmetry_group_IT_number 2
_symmetry_cell_setting 'triclinic'
loop_
_space_group_symop_operation_xyz
x,y,z
-x,-y,-z
loop_
_atom_site_type_symbol
_atom_site_label
_atom_site_fract_x
_atom_site_fract_y
_atom_site_fract_z
Si Si1 0.733356 0.302292 0.326487
Si Si2 0.609568 0.925651 0.644816
Si Si3 0.342950 0.291786 0.021122
Si Si4 0.630686 0.599333 0.817954
Si Si5 0.040823 0.445693 0.947781
Si Si6 0.479120 0.720430 0.493948
Si Si7 0.088695 0.859890 0.511781
Si Si8 0.463992 0.870576 0.116575
O O1 0.567854 0.321601 0.130195
O O2 0.816570 0.225190 0.389681
O O3 0.000000 0.500000 0.500000
O O4 0.430812 0.113818 0.257698
O O5 0.500000 0.000000 0.500000
O O6 0.377483 0.724498 0.506169
O O7 0.968898 0.090116 0.811159
O O8 0.352027 0.305933 0.133042
O O9 0.500000 0.500000 0.000000
O O10 0.894390 0.639167 0.007774
O O11 0.618967 0.671367 0.671974
O O12 0.288566 0.346763 0.688597
O O13 0.371789 0.694085 0.097237
O O14 0.829088 0.432514 0.732986
O O15 0.833357 0.286073 0.959918
O O16 0.732086 0.945973 0.518890
O O17 0.216901 0.955097 0.662957
O O18 0.500000 0.000000 0.000000
#
# Coordination Sequence:
#
# PCOD9044395 Si02
#       8
#     2   2   2   2   2   2   2   2
#     4  12  23  42  64  95 141 182 227 282 336 407
#     4  12  22  38  65  91 134 184 227 280 338 402
#     4  12  26  40  62 100 140 185 238 278 338 412
#     4  12  25  44  69 101 141 182 231 286 346 405
#     4  10  25  46  71 105 135 176 233 292 346 419
#     4  11  23  43  69  97 139 181 230 281 344 405
#     4  11  24  43  69 101 136 182 232 283 344 417
#     4  10  23  46  74 101 136 177 229 289 361 412
#
# _framework density 23.661414000000001
#
# number of rings (size 3 to 8) (size 9 to 14) (size 15 to 20)
#    0.000    0.750    3.750    3.375    1.750    3.500 
#    0.000    8.750    0.000    0.000    0.000    0.000 
#    0.000    0.000    0.000    0.000    0.000    0.000 
#
# Total GULP energy -89305.761454 kJ/mol
# GULP energy per Si atom -5581.610091 kJ/mol
# Density = 2.360756 g / cm^3
# Si number density = 23.661414 Si / 1000 Ang^3
#
#
#
# Elastic Constant Matrix: (Units=GPa)
#
#
# Indices 1 2 3 4 5 6 
#
# 1 45.2527 12.6939 19.4846 -4.0479 -4.9178 -4.3399
# 2 12.6939 72.5878 11.2556 0.6487 -0.0790 0.1745
# 3 19.4846 11.2556 92.9346 5.8603 -10.5182 -1.4842
# 4 -4.0479 0.6487 5.8603 44.9338 -3.1087 -10.0538
# 5 -4.9178 -0.0790 -10.5182 -3.1087 45.9145 -5.3874
# 6 -4.3399 0.1745 -1.4842 -10.0538 -5.3874 29.6850
#
#
#
# Elastic Compliance Matrix: (Units=1/GPa)
#
#
# Indices 1 2 3 4 5 6 
#
# 1 0.026595 -0.003928 -0.004994 0.004563 0.002675 0.005692
# 2 -0.003928 0.014628 -0.001011 -0.000737 -0.000807 -0.001107
# 3 -0.004994 -0.001011 0.012286 -0.001982 0.002097 -0.000401
# 4 0.004563 -0.000737 -0.001982 0.025296 0.002880 0.009662
# 5 0.002675 -0.000807 0.002097 0.002880 0.023412 0.005725
# 6 0.005692 -0.001107 -0.000401 0.009662 0.005725 0.038817
#
#
# Mechanical properties :
#
#
# Convention : Reuss Voigt Hill
#
# Bulk Modulus (GPa) = 29.72366 33.07145 31.39755
# Shear Modulus (GPa) = 29.05042 35.26271 32.15657
#
# Velocity S-wave (km/s) = 3.50773 3.86463 3.69050
# Velocity P-wave (km/s) = 5.38470 5.82419 5.60875
#
# Compressibility (1/GPa) = 0.03364324
#
# Stress axis : x y z
#
# Youngs Moduli (GPa) = 37.60096 68.36005 81.39584
#
# Poissons Ratio (x) = 0.26852 0.40651
# Poissons Ratio (y) = 0.14770 0.08227
# Poissons Ratio (z) = 0.18779 0.06909
#
# Static dielectric constant tensor:
#      x y z
#    x 2.032490 -0.012990 -0.044280 
#    y -0.012990 2.004000 -0.054810 
#    z -0.044280 -0.054810 1.892450 
# 
# From -- ./inp_files/534337.got.cif
#   From: 2010.05.17/outbox.cif.g08.bks.cpg/sg2_268_cif.got.tgz:534337.got - 2010.06.03 11:33:40.
