data_PCOD9044050
_publ_section_title
;
Structure prediction by ZEFSAII (Michael W. Deem and Ramdas Pophale) SiO2 
 PCOD9044050
Probable space group: P -1
;
_chemical_formula_sum "Si O2"
_cell_formula_units_Z 14
_cell_length_a 8.268643
_cell_length_b 15.473197
_cell_length_c 11.432669
_cell_angle_alpha 153.961458
_cell_angle_beta 69.387800
_cell_angle_gamma 98.891459
_cell_volume 552.468282
_symmetry_space_group_name_H-M "P -1"
_symmetry_group_IT_number 2
_symmetry_cell_setting 'triclinic'
loop_
_space_group_symop_operation_xyz
x,y,z
-x,-y,-z
loop_
_atom_site_type_symbol
_atom_site_label
_atom_site_fract_x
_atom_site_fract_y
_atom_site_fract_z
Si Si1 0.901338 0.489106 0.392967
Si Si2 0.509926 0.769367 0.576793
Si Si3 0.333224 0.770689 0.868693
Si Si4 0.306560 0.671512 0.307135
Si Si5 0.895301 0.736166 0.489658
Si Si6 0.453772 0.896266 0.202299
Si Si7 0.229766 0.119346 0.740009
O O1 0.733615 0.416838 0.372266
O O2 0.864356 0.705141 0.596466
O O3 0.000000 0.500000 0.500000
O O4 0.033374 0.301236 0.044577
O O5 0.456705 0.789421 0.750609
O O6 0.367343 0.689610 0.447394
O O7 0.740406 0.658863 0.376529
O O8 0.480386 0.984063 0.770984
O O9 0.401158 0.733502 0.941185
O O10 0.170827 0.011277 0.209748
O O11 0.119396 0.625937 0.279783
O O12 0.261790 0.896115 0.524629
O O13 0.500000 0.500000 0.000000
O O14 0.615040 0.807938 0.150616
O O15 0.280349 0.062905 0.523301
#
# Coordination Sequence:
#
# PCOD9044050 Si02
#       7
#     2   2   2   2   2   2   2
#     4  12  28  42  71 111 142 192 240 289 364 435
#     4  10  24  45  73 104 141 190 242 299 359 427
#     4  11  24  50  71 104 142 193 241 303 359 422
#     4  11  25  45  72 104 144 194 240 295 368 426
#     4  11  25  46  72 103 143 186 242 298 356 425
#     4   9  21  42  75  94 136 192 237 291 369 411
#     4  10  23  46  69 103 147 184 238 304 352 433
#
# _framework density 25.340820999999998
#
# number of rings (size 3 to 8) (size 9 to 14) (size 15 to 20)
#    0.000    1.429    1.429    2.571   12.000    4.000 
#    2.571    0.000    0.000    0.000    0.000    0.000 
#    0.000    0.000    0.000    0.000    0.000    0.000 
#
# Total GULP energy -78226.393531 kJ/mol
# GULP energy per Si atom -5587.599538 kJ/mol
# Density = 2.528314 g / cm^3
# Si number density = 25.340821 Si / 1000 Ang^3
#
#
#
# Elastic Constant Matrix: (Units=GPa)
#
#
# Indices 1 2 3 4 5 6 
#
# 1 126.4535 33.5864 39.9454 -23.0851 0.9167 14.0893
# 2 33.5864 108.5514 29.7704 -16.1976 11.9621 -5.4045
# 3 39.9454 29.7704 93.8912 -22.0065 -14.6146 0.5445
# 4 -23.0851 -16.1976 -22.0065 49.7480 0.3283 1.5167
# 5 0.9167 11.9621 -14.6146 0.3283 49.5989 -8.9710
# 6 14.0893 -5.4045 0.5445 1.5167 -8.9710 41.6732
#
#
#
# Elastic Compliance Matrix: (Units=1/GPa)
#
#
# Indices 1 2 3 4 5 6 
#
# 1 0.010493 -0.001931 -0.003386 0.002880 -0.001502 -0.004182
# 2 -0.001931 0.011264 -0.002931 0.001454 -0.003303 0.001388
# 3 -0.003386 -0.002931 0.014769 0.003923 0.005383 0.001588
# 4 0.002880 0.001454 0.003923 0.023695 0.000300 -0.001634
# 5 -0.001502 -0.003303 0.005383 0.000300 0.023484 0.005053
# 6 -0.004182 0.001388 0.001588 -0.001634 0.005053 0.026717
#
#
# Mechanical properties :
#
#
# Convention : Reuss Voigt Hill
#
# Bulk Modulus (GPa) = 49.92885 59.50007 54.71446
# Shear Modulus (GPa) = 37.42656 43.24360 40.33508
#
# Velocity S-wave (km/s) = 3.84725 4.13544 3.99394
# Velocity P-wave (km/s) = 6.28338 6.80686 6.55035
#
# Compressibility (1/GPa) = 0.02002850
#
# Stress axis : x y z
#
# Youngs Moduli (GPa) = 95.29941 88.78112 67.70932
#
# Poissons Ratio (x) = 0.17143 0.22930
# Poissons Ratio (y) = 0.18402 0.19848
# Poissons Ratio (z) = 0.32273 0.26024
#
# Static dielectric constant tensor:
#      x y z
#    x 2.102110 0.030810 -0.001280 
#    y 0.030810 1.971280 0.020700 
#    z -0.001280 0.020700 2.040690 
# 
# From -- ./inp_files/396717.got.cif
#   From: 2010.05.17/outbox.cif.g08.bks.cpg/sg2_199_cif.got.tgz:396717.got - 2010.06.03 11:33:40.
