data_PCOD9044436
_publ_section_title
;
Structure prediction by ZEFSAII (Michael W. Deem and Ramdas Pophale) SiO2 
 PCOD9044436
Probable space group: P -1
;
_chemical_formula_sum "Si O2"
_cell_formula_units_Z 12
_cell_length_a 6.525222
_cell_length_b 11.594357
_cell_length_c 10.230431
_cell_angle_alpha 60.749061
_cell_angle_beta 117.728607
_cell_angle_gamma 77.647219
_cell_volume 490.556354
_symmetry_space_group_name_H-M "P -1"
_symmetry_group_IT_number 2
_symmetry_cell_setting 'triclinic'
loop_
_space_group_symop_operation_xyz
x,y,z
-x,-y,-z
loop_
_atom_site_type_symbol
_atom_site_label
_atom_site_fract_x
_atom_site_fract_y
_atom_site_fract_z
Si Si1 0.117696 0.167267 0.107479
Si Si2 0.612605 0.867900 0.284021
Si Si3 0.581704 0.672737 0.883905
Si Si4 0.849774 0.383282 0.310878
Si Si5 0.502342 0.601902 0.320619
Si Si6 0.096985 0.971170 0.697253
O O1 0.254255 0.254700 0.158113
O O2 0.111679 0.050119 0.272367
O O3 0.326532 0.039796 0.130715
O O4 0.809072 0.305794 0.887109
O O5 0.543253 0.745908 0.277664
O O6 0.824755 0.761361 0.524577
O O7 0.822881 0.917512 0.268058
O O8 0.365290 0.669910 0.727259
O O9 0.386693 0.793405 0.875368
O O10 0.776712 0.500402 0.103342
O O11 0.757824 0.480728 0.365299
O O12 0.500000 0.500000 0.500000
O O13 0.000000 0.000000 0.500000
#
# Coordination Sequence:
#
# PCOD9044436 Si02
#       6
#     2   2   2   2   2   2
#     4  11  26  47  71 105 138 183 241 287 343 421
#     4  11  26  44  72 101 142 185 232 286 348 414
#     4  10  23  46  75 100 141 181 235 293 353 401
#     4  11  23  48  70 104 143 183 230 295 352 410
#     4  12  27  46  72 103 142 189 235 280 354 421
#     4  11  23  46  70 104 140 184 231 288 352 406
#
# _framework density 24.462019999999999
#
# number of rings (size 3 to 8) (size 9 to 14) (size 15 to 20)
#    0.000    1.000    3.333    2.000    2.333    5.333 
#    0.000    0.000    0.000    0.000    0.000    0.000 
#    0.000    0.000    0.000    0.000    0.000    0.000 
#
# Total GULP energy -66948.020457 kJ/mol
# GULP energy per Si atom -5579.001705 kJ/mol
# Density = 2.440634 g / cm^3
# Si number density = 24.462020 Si / 1000 Ang^3
#
#
#
# Elastic Constant Matrix: (Units=GPa)
#
#
# Indices 1 2 3 4 5 6 
#
# 1 96.1644 48.6918 10.4730 10.7309 -13.2305 35.9989
# 2 48.6918 126.5621 -3.8432 -6.2725 -9.2951 43.9728
# 3 10.4730 -3.8432 72.7870 -8.0614 11.8577 -8.6477
# 4 10.7309 -6.2725 -8.0614 26.9438 -3.8094 0.7698
# 5 -13.2305 -9.2951 11.8577 -3.8094 32.4332 -5.2950
# 6 35.9989 43.9728 -8.6477 0.7698 -5.2950 50.5765
#
#
#
# Elastic Compliance Matrix: (Units=1/GPa)
#
#
# Indices 1 2 3 4 5 6 
#
# 1 0.018651 -0.003807 -0.006076 -0.008990 0.006011 -0.010238
# 2 -0.003807 0.012494 0.000634 0.004995 0.001075 -0.008008
# 3 -0.006076 0.000634 0.017190 0.006574 -0.006847 0.005896
# 4 -0.008990 0.004995 0.006574 0.043883 0.000941 0.002610
# 5 0.006011 0.001075 -0.006847 0.000941 0.035774 -0.002653
# 6 -0.010238 -0.008008 0.005896 0.002610 -0.002653 0.034712
#
#
# Mechanical properties :
#
#
# Convention : Reuss Voigt Hill
#
# Bulk Modulus (GPa) = 33.51443 45.12854 39.32149
# Shear Modulus (GPa) = 26.15776 38.00349 32.08062
#
# Velocity S-wave (km/s) = 3.27360 3.94581 3.62532
# Velocity P-wave (km/s) = 5.29329 6.26480 5.79942
#
# Compressibility (1/GPa) = 0.02983789
#
# Stress axis : x y z
#
# Youngs Moduli (GPa) = 53.61646 80.03829 58.17176
#
# Poissons Ratio (x) = 0.30470 0.35345
# Poissons Ratio (y) = 0.20412 -0.03689
# Poissons Ratio (z) = 0.32577 -0.05075
#
# Static dielectric constant tensor:
#      x y z
#    x 1.987430 0.004400 -0.014220 
#    y 0.004400 1.997920 -0.034670 
#    z -0.014220 -0.034670 2.001970 
# 
# From -- ./inp_files/76933.got.cif
#   From: 2010.05.17/outbox.cif.g08.bks.cpg/sg2_39_cif.got.tgz:76933.got - 2010.06.03 11:33:40.
