data_PCOD9044947
_publ_section_title
;
Structure prediction by ZEFSAII (Michael W. Deem and Ramdas Pophale) SiO2 
 PCOD9044947
Probable space group: P -1
;
_chemical_formula_sum "Si O2"
_cell_formula_units_Z 16
_cell_length_a 6.647249
_cell_length_b 5.671881
_cell_length_c 23.992622
_cell_angle_alpha 108.128314
_cell_angle_beta 127.045431
_cell_angle_gamma 75.647651
_cell_volume 683.977778
_symmetry_space_group_name_H-M "P -1"
_symmetry_group_IT_number 2
_symmetry_cell_setting 'triclinic'
loop_
_space_group_symop_operation_xyz
x,y,z
-x,-y,-z
loop_
_atom_site_type_symbol
_atom_site_label
_atom_site_fract_x
_atom_site_fract_y
_atom_site_fract_z
Si Si1 0.934994 0.956438 0.229061
Si Si2 0.520276 0.222806 0.648186
Si Si3 0.893784 0.937144 0.858492
Si Si4 0.352547 0.364558 0.513078
Si Si5 0.886489 0.137467 0.435826
Si Si6 0.587403 0.279608 0.041613
Si Si7 0.534629 0.365370 0.856543
Si Si8 0.588922 0.368735 0.256580
O O1 0.191204 0.830092 0.288881
O O2 0.705093 0.781167 0.176895
O O3 0.989472 0.013432 0.178397
O O4 0.836628 0.202787 0.265451
O O5 0.503385 0.218353 0.577745
O O6 0.408198 0.485515 0.674545
O O7 0.339919 0.026169 0.631122
O O8 0.640771 0.804931 0.794761
O O9 0.107720 0.762985 0.912283
O O10 0.793771 0.190521 0.891811
O O11 0.500000 0.500000 0.500000
O O12 0.228378 0.600552 0.542581
O O13 0.128725 0.196649 0.443781
O O14 0.000000 0.000000 0.500000
O O15 0.483405 0.386883 0.091414
O O16 0.500000 0.500000 0.000000
O O17 0.500000 0.000000 0.000000
O O18 0.487314 0.430337 0.789045
#
# Coordination Sequence:
#
# PCOD9044947 Si02
#       8
#     2   2   2   2   2   2   2   2
#     4  11  24  46  71 108 144 191 238 305 376 438
#     4  11  24  44  71 104 140 180 247 298 361 451
#     4  11  25  47  75  99 157 189 239 311 377 426
#     4  10  23  48  69  95 139 191 229 295 369 430
#     4   9  22  46  65  95 141 178 231 293 359 427
#     4  12  28  47  76 113 152 202 261 302 366 465
#     4  11  25  47  73 103 150 196 238 308 380 425
#     4  11  25  44  73 107 141 189 238 303 374 432
#
# _framework density 23.392574
#
# number of rings (size 3 to 8) (size 9 to 14) (size 15 to 20)
#    0.000    1.250    2.500    1.500    5.250    3.000 
#   18.000    0.000    0.000    0.000    0.000    0.000 
#    0.000    0.000    0.000    0.000    0.000    0.000 
#
# Total GULP energy -89465.539521 kJ/mol
# GULP energy per Si atom -5591.596220 kJ/mol
# Density = 2.333933 g / cm^3
# Si number density = 23.392574 Si / 1000 Ang^3
#
#
#
# Elastic Constant Matrix: (Units=GPa)
#
#
# Indices 1 2 3 4 5 6 
#
# 1 151.3105 63.5159 48.3761 0.5220 4.7102 -4.4247
# 2 63.5159 120.2848 39.5798 4.1967 3.0996 -19.0172
# 3 48.3761 39.5798 77.5423 -8.1792 -3.5244 -12.7457
# 4 0.5220 4.1967 -8.1792 47.3738 -2.3310 -5.1935
# 5 4.7102 3.0996 -3.5244 -2.3310 22.0764 -5.1447
# 6 -4.4247 -19.0172 -12.7457 -5.1935 -5.1447 61.6678
#
#
#
# Elastic Compliance Matrix: (Units=1/GPa)
#
#
# Indices 1 2 3 4 5 6 
#
# 1 0.009716 -0.003774 -0.004642 -0.000901 -0.002783 -0.001734
# 2 -0.003774 0.011932 -0.003522 -0.001401 -0.001002 0.002479
# 3 -0.004642 -0.003522 0.018843 0.004261 0.005714 0.003311
# 4 -0.000901 -0.001401 0.004261 0.022464 0.004050 0.002614
# 5 -0.002783 -0.001002 0.005714 0.004050 0.048552 0.005064
# 6 -0.001734 0.002479 0.003311 0.002614 0.005064 0.018183
#
#
# Mechanical properties :
#
#
# Convention : Reuss Voigt Hill
#
# Bulk Modulus (GPa) = 60.18325 72.45344 66.31834
# Shear Modulus (GPa) = 31.42586 39.40132 35.41359
#
# Velocity S-wave (km/s) = 3.66923 4.10854 3.89508
# Velocity P-wave (km/s) = 6.61320 7.31757 6.97428
#
# Compressibility (1/GPa) = 0.01661592
#
# Stress axis : x y z
#
# Youngs Moduli (GPa) = 102.91891 83.80747 53.07020
#
# Poissons Ratio (x) = 0.31632 0.24634
# Poissons Ratio (y) = 0.38845 0.18689
# Poissons Ratio (z) = 0.47773 0.29514
#
# Static dielectric constant tensor:
#      x y z
#    x 1.922930 0.028430 -0.009320 
#    y 0.028430 1.940970 -0.020230 
#    z -0.009320 -0.020230 1.922130 
# 
# From -- ./inp_files/603341.got.cif
#   From: 2010.05.17/outbox.cif.g08.bks.cpg/sg2_302_cif.got.tgz:603341.got - 2010.06.03 11:33:40.
