data_PCOD9044497
_publ_section_title
;
Structure prediction by ZEFSAII (Michael W. Deem and Ramdas Pophale) SiO2 
 PCOD9044497
Probable space group: P -1
;
_chemical_formula_sum "Si O2"
_cell_formula_units_Z 12
_cell_length_a 8.861356
_cell_length_b 9.550615
_cell_length_c 7.525090
_cell_angle_alpha 75.578558
_cell_angle_beta 128.084421
_cell_angle_gamma 100.604311
_cell_volume 485.091983
_symmetry_space_group_name_H-M "P -1"
_symmetry_group_IT_number 2
_symmetry_cell_setting 'triclinic'
loop_
_space_group_symop_operation_xyz
x,y,z
-x,-y,-z
loop_
_atom_site_type_symbol
_atom_site_label
_atom_site_fract_x
_atom_site_fract_y
_atom_site_fract_z
Si Si1 0.393050 0.841644 0.478203
Si Si2 0.043548 0.200630 0.894854
Si Si3 0.015128 0.526856 0.792419
Si Si4 0.674407 0.893478 0.163303
Si Si5 0.409897 0.654763 0.911040
Si Si6 0.750025 0.761304 0.585797
O O1 0.177003 0.852684 0.250887
O O2 0.395924 0.757264 0.694657
O O3 0.527545 0.747270 0.481355
O O4 0.500000 0.000000 0.500000
O O5 0.034356 0.369125 0.770612
O O6 0.175366 0.110661 0.886999
O O7 0.862612 0.792183 0.843274
O O8 0.200416 0.625727 0.848113
O O9 0.831876 0.620542 0.596470
O O10 0.000000 0.500000 0.000000
O O11 0.778342 0.894626 0.428026
O O12 0.556946 0.741363 0.115575
O O13 0.500000 0.000000 0.000000
O O14 0.500000 0.500000 0.000000
#
# Coordination Sequence:
#
# PCOD9044497 Si02
#       6
#     2   2   2   2   2   2
#     4  12  28  50  80 115 164 216 264 336 416 486
#     4  11  26  52  78 114 165 206 269 341 409 483
#     4  10  23  46  77 121 152 205 271 333 405 479
#     4  12  27  48  79 117 161 217 272 332 409 491
#     4  12  24  49  82 116 165 214 275 336 407 484
#     4  11  26  47  77 115 153 209 267 327 410 475
#
# _framework density 24.737577999999999
#
# number of rings (size 3 to 8) (size 9 to 14) (size 15 to 20)
#    0.000    0.667    3.333    3.000    7.000    4.000 
#    0.000    3.333    0.000    0.000    0.000    0.000 
#    0.000    0.000    0.000    0.000    0.000    0.000 
#
# Total GULP energy -67193.774154 kJ/mol
# GULP energy per Si atom -5599.481179 kJ/mol
# Density = 2.468127 g / cm^3
# Si number density = 24.737578 Si / 1000 Ang^3
#
#
#
# Elastic Constant Matrix: (Units=GPa)
#
#
# Indices 1 2 3 4 5 6 
#
# 1 197.8761 62.1345 84.1321 -18.8725 22.2063 -5.0047
# 2 62.1345 112.5350 46.8599 -22.2048 20.1767 2.6585
# 3 84.1321 46.8599 142.6416 -30.1196 0.8741 -4.8809
# 4 -18.8725 -22.2048 -30.1196 46.3211 6.6632 11.7654
# 5 22.2063 20.1767 0.8741 6.6632 51.6814 -11.2882
# 6 -5.0047 2.6585 -4.8809 11.7654 -11.2882 52.5350
#
#
#
# Elastic Compliance Matrix: (Units=1/GPa)
#
#
# Indices 1 2 3 4 5 6 
#
# 1 0.007604 -0.002237 -0.003753 -0.000084 -0.002318 0.000010
# 2 -0.002237 0.013167 -0.001840 0.005940 -0.005702 -0.003606
# 3 -0.003753 -0.001840 0.010732 0.004304 0.001620 0.000117
# 4 -0.000084 0.005940 0.004304 0.030530 -0.008148 -0.008497
# 5 -0.002318 -0.005702 0.001620 -0.008148 0.025224 0.007463
# 6 0.000010 -0.003606 0.000117 -0.008497 0.007463 0.022736
#
#
# Mechanical properties :
#
#
# Convention : Reuss Voigt Hill
#
# Bulk Modulus (GPa) = 63.12459 93.25618 78.19038
# Shear Modulus (GPa) = 38.18675 47.43593 42.81134
#
# Velocity S-wave (km/s) = 3.93322 4.38375 4.16458
# Velocity P-wave (km/s) = 6.79706 7.96260 7.40281
#
# Compressibility (1/GPa) = 0.01584169
#
# Stress axis : x y z
#
# Youngs Moduli (GPa) = 131.50496 75.94771 93.18026
#
# Poissons Ratio (x) = 0.16988 0.34974
# Poissons Ratio (y) = 0.29416 0.17149
# Poissons Ratio (z) = 0.49359 0.13978
#
# Static dielectric constant tensor:
#      x y z
#    x 2.009760 -0.017160 -0.099020 
#    y -0.017160 1.981010 -0.046960 
#    z -0.099020 -0.046960 2.069980 
# 
# From -- ./inp_files/150600.got.cif
#   From: 2010.05.17/outbox.cif.g08.bks.cpg/sg2_76_cif.got.tgz:150600.got - 2010.06.03 11:33:40.
