data_PCOD9044145
_publ_section_title
;
Structure prediction by ZEFSAII (Michael W. Deem and Ramdas Pophale) SiO2 
 PCOD9044145
Probable space group: P -1
;
_chemical_formula_sum "Si O2"
_cell_formula_units_Z 12
_cell_length_a 5.179757
_cell_length_b 21.616516
_cell_length_c 15.744120
_cell_angle_alpha 19.170121
_cell_angle_beta 70.710789
_cell_angle_gamma 63.121060
_cell_volume 487.381336
_symmetry_space_group_name_H-M "P -1"
_symmetry_group_IT_number 2
_symmetry_cell_setting 'triclinic'
loop_
_space_group_symop_operation_xyz
x,y,z
-x,-y,-z
loop_
_atom_site_type_symbol
_atom_site_label
_atom_site_fract_x
_atom_site_fract_y
_atom_site_fract_z
Si Si1 0.288321 0.533323 0.396560
Si Si2 0.355211 0.867213 0.236252
Si Si3 0.771664 0.826220 0.392744
Si Si4 0.204617 0.683018 0.750367
Si Si5 0.218358 0.910467 0.798430
Si Si6 0.790436 0.589483 0.045812
O O1 0.500000 0.500000 0.500000
O O2 0.476006 0.360615 0.529813
O O3 0.000000 0.500000 0.500000
O O4 0.182226 0.753063 0.073826
O O5 0.474369 0.878964 0.301732
O O6 0.000847 0.911607 0.215459
O O7 0.500000 0.000000 0.000000
O O8 0.702849 0.931435 0.356867
O O9 0.956340 0.570627 0.709026
O O10 0.932898 0.681931 0.839653
O O11 0.500000 0.500000 0.000000
O O12 0.261601 0.581862 0.781562
O O13 0.079016 0.933562 0.425616
O O14 0.497458 0.766032 0.894228
#
# Coordination Sequence:
#
# PCOD9044145 Si02
#       6
#     2   2   2   2   2   2
#     4  12  26  47  72 114 152 196 257 306 367 449
#     4  12  24  46  70 102 152 196 248 313 368 434
#     4  11  25  44  72 105 147 195 248 303 376 439
#     4  10  24  46  74 109 147 189 251 311 382 449
#     4  11  24  47  75 108 150 201 248 310 377 445
#     4  10  23  46  70 107 147 191 246 310 372 453
#
# _framework density 24.621378
#
# number of rings (size 3 to 8) (size 9 to 14) (size 15 to 20)
#    0.000    1.000    1.667    4.000    4.667    0.667 
#    9.000    0.000    0.000    0.000    0.000    0.000 
#    0.000    0.000    0.000    0.000    0.000    0.000 
#
# Total GULP energy -67046.127268 kJ/mol
# GULP energy per Si atom -5587.177272 kJ/mol
# Density = 2.456534 g / cm^3
# Si number density = 24.621378 Si / 1000 Ang^3
#
#
#
# Elastic Constant Matrix: (Units=GPa)
#
#
# Indices 1 2 3 4 5 6 
#
# 1 133.8959 47.8917 46.6215 14.6666 -0.9968 -17.2904
# 2 47.8917 153.8948 54.2111 -22.5566 3.6281 -30.8687
# 3 46.6215 54.2111 190.0003 -4.5405 15.7137 -15.5628
# 4 14.6666 -22.5566 -4.5405 53.7969 -6.3984 -2.5300
# 5 -0.9968 3.6281 15.7137 -6.3984 26.6191 9.4411
# 6 -17.2904 -30.8687 -15.5628 -2.5300 9.4411 40.8827
#
#
#
# Elastic Compliance Matrix: (Units=1/GPa)
#
#
# Indices 1 2 3 4 5 6 
#
# 1 0.009571 -0.002782 -0.001597 -0.003815 0.000405 0.001010
# 2 -0.002782 0.009901 -0.001345 0.004889 -0.001791 0.006503
# 3 -0.001597 -0.001345 0.006550 -0.000012 -0.004390 0.001816
# 4 -0.003815 0.004889 -0.000012 0.022230 0.003614 0.002614
# 5 0.000405 -0.001791 -0.004390 0.003614 0.045986 -0.013248
# 6 0.001010 0.006503 0.001816 0.002614 -0.013248 0.033710
#
#
# Mechanical properties :
#
#
# Convention : Reuss Voigt Hill
#
# Bulk Modulus (GPa) = 68.61087 86.13772 77.37429
# Shear Modulus (GPa) = 34.66148 46.19753 40.42950
#
# Velocity S-wave (km/s) = 3.75611 4.33635 4.05662
# Velocity P-wave (km/s) = 6.83652 7.75453 7.30995
#
# Compressibility (1/GPa) = 0.01457495
#
# Stress axis : x y z
#
# Youngs Moduli (GPa) = 104.48438 101.00344 152.66986
#
# Poissons Ratio (x) = 0.28101 0.24375
# Poissons Ratio (y) = 0.29069 0.20527
# Poissons Ratio (z) = 0.16682 0.13580
#
# Static dielectric constant tensor:
#      x y z
#    x 2.059910 0.010150 0.042270 
#    y 0.010150 1.945270 0.072380 
#    z 0.042270 0.072380 2.108990 
# 
# From -- ./inp_files/104365.got.cif
#   From: 2010.05.17/outbox.cif.g08.bks.cpg/sg2_53_cif.got.tgz:104365.got - 2010.06.03 11:33:40.
