data_PCOD9044346
_publ_section_title
;
Structure prediction by ZEFSAII (Michael W. Deem and Ramdas Pophale) SiO2 
 PCOD9044346
Probable space group: P -1
;
_chemical_formula_sum "Si O2"
_cell_formula_units_Z 14
_cell_length_a 8.981667
_cell_length_b 8.917273
_cell_length_c 8.739914
_cell_angle_alpha 109.303385
_cell_angle_beta 92.253080
_cell_angle_gamma 64.275872
_cell_volume 590.687067
_symmetry_space_group_name_H-M "P -1"
_symmetry_group_IT_number 2
_symmetry_cell_setting 'triclinic'
loop_
_space_group_symop_operation_xyz
x,y,z
-x,-y,-z
loop_
_atom_site_type_symbol
_atom_site_label
_atom_site_fract_x
_atom_site_fract_y
_atom_site_fract_z
Si Si1 0.033410 0.896440 0.626987
Si Si2 0.220361 0.479925 0.412856
Si Si3 0.510059 0.839732 0.545323
Si Si4 0.266698 0.666468 0.955734
Si Si5 0.593329 0.387129 0.738291
Si Si6 0.090706 0.243929 0.172177
Si Si7 0.293062 0.963036 0.863976
O O1 0.130683 0.682728 0.530834
O O2 0.141725 0.966935 0.755400
O O3 0.891732 0.893574 0.734936
O O4 0.000000 0.000000 0.500000
O O5 0.309798 0.328681 0.491556
O O6 0.371834 0.474623 0.314862
O O7 0.104315 0.415192 0.293637
O O8 0.397974 0.763092 0.427866
O O9 0.442772 0.913757 0.735926
O O10 0.500000 0.000000 0.500000
O O11 0.412461 0.479214 0.841077
O O12 0.319274 0.809874 0.934588
O O13 0.087787 0.704380 0.895411
O O14 0.273243 0.674706 0.141348
O O15 0.231254 0.143269 0.017400
#
# Coordination Sequence:
#
# PCOD9044346 Si02
#       7
#     2   2   2   2   2   2   2
#     4  11  25  46  76 105 142 199 246 300 368 437
#     4  12  26  46  76 107 149 192 247 309 365 431
#     4  12  27  46  76 107 146 196 255 302 360 440
#     4  10  23  46  73 104 145 194 240 305 374 430
#     4  11  24  46  76 102 142 197 249 303 368 437
#     4  11  27  45  71 110 153 189 242 307 365 440
#     4  11  24  44  71 103 149 192 244 302 363 435
#
# _framework density 23.701212999999999
#
# number of rings (size 3 to 8) (size 9 to 14) (size 15 to 20)
#    0.000    0.857    2.857    4.286    8.000    3.429 
#    0.000    0.000    0.000    0.000    0.000    0.000 
#    0.000    0.000    0.000    0.000    0.000    0.000 
#
# Total GULP energy -78344.753303 kJ/mol
# GULP energy per Si atom -5596.053807 kJ/mol
# Density = 2.364727 g / cm^3
# Si number density = 23.701213 Si / 1000 Ang^3
#
#
#
# Elastic Constant Matrix: (Units=GPa)
#
#
# Indices 1 2 3 4 5 6 
#
# 1 52.4950 30.6667 23.5795 16.2659 6.2568 2.0442
# 2 30.6667 132.5007 45.6637 -12.1004 3.4152 0.0261
# 3 23.5795 45.6637 119.1428 4.9706 -6.4567 -14.6938
# 4 16.2659 -12.1004 4.9706 25.9971 -5.5931 1.9247
# 5 6.2568 3.4152 -6.4567 -5.5931 34.4872 -1.6958
# 6 2.0442 0.0261 -14.6938 1.9247 -1.6958 19.3415
#
#
#
# Elastic Compliance Matrix: (Units=1/GPa)
#
#
# Indices 1 2 3 4 5 6 
#
# 1 0.036748 -0.009617 -0.003575 -0.028868 -0.011297 -0.004705
# 2 -0.009617 0.012124 -0.003530 0.012940 0.001844 -0.002807
# 3 -0.003575 -0.003530 0.011934 -0.001680 0.003448 0.009918
# 4 -0.028868 0.012940 -0.001680 0.066192 0.014200 -0.003585
# 5 -0.011297 0.001844 0.003448 0.014200 0.034076 0.005385
# 6 -0.004705 -0.002807 0.009918 -0.003585 0.005385 0.060567
#
#
# Mechanical properties :
#
#
# Convention : Reuss Voigt Hill
#
# Bulk Modulus (GPa) = 36.54670 55.99536 46.27103
# Shear Modulus (GPa) = 18.92462 29.58040 24.25251
#
# Velocity S-wave (km/s) = 2.82878 3.53661 3.20231
# Velocity P-wave (km/s) = 5.11102 6.35245 5.76525
#
# Compressibility (1/GPa) = 0.02736225
#
# Stress axis : x y z
#
# Youngs Moduli (GPa) = 27.21244 82.47985 83.79623
#
# Poissons Ratio (x) = 0.79324 0.29956
# Poissons Ratio (y) = 0.26171 0.29577
# Poissons Ratio (z) = 0.09728 0.29112
#
# Static dielectric constant tensor:
#      x y z
#    x 1.962550 -0.072400 -0.049800 
#    y -0.072400 1.887490 0.006440 
#    z -0.049800 0.006440 1.926280 
# 
# From -- ./inp_files/159727.got.cif
#   From: 2010.05.17/outbox.cif.g08.bks.cpg/sg2_80_cif.got.tgz:159727.got - 2010.06.03 11:33:40.
