data_PCOD9044113
_publ_section_title
;
Structure prediction by ZEFSAII (Michael W. Deem and Ramdas Pophale) SiO2 
 PCOD9044113
Probable space group: P -1
;
_chemical_formula_sum "Si O2"
_cell_formula_units_Z 12
_cell_length_a 6.627216
_cell_length_b 14.113604
_cell_length_c 14.405706
_cell_angle_alpha 30.886902
_cell_angle_beta 127.345427
_cell_angle_gamma 115.638293
_cell_volume 536.983690
_symmetry_space_group_name_H-M "P -1"
_symmetry_group_IT_number 2
_symmetry_cell_setting 'triclinic'
loop_
_space_group_symop_operation_xyz
x,y,z
-x,-y,-z
loop_
_atom_site_type_symbol
_atom_site_label
_atom_site_fract_x
_atom_site_fract_y
_atom_site_fract_z
Si Si1 0.771423 0.381359 0.638885
Si Si2 0.724394 0.568086 0.271153
Si Si3 0.618696 0.002172 0.930581
Si Si4 0.635524 0.149306 0.359575
Si Si5 0.299967 0.417147 0.176817
Si Si6 0.751127 0.915670 0.415133
O O1 0.500000 0.500000 0.500000
O O2 0.763799 0.427163 0.488330
O O3 0.792449 0.159823 0.849619
O O4 0.001897 0.467031 0.677207
O O5 0.466577 0.549442 0.162207
O O6 0.716359 0.781006 0.122918
O O7 0.410244 0.075947 0.730140
O O8 0.500000 0.000000 0.000000
O O9 0.465144 0.339416 0.196050
O O10 0.943045 0.112415 0.498481
O O11 0.500000 0.000000 0.500000
O O12 0.644441 0.102839 0.291398
O O13 0.291672 0.251055 0.388500
O O14 0.000000 0.500000 0.000000
#
# Coordination Sequence:
#
# PCOD9044113 Si02
#       6
#     2   2   2   2   2   2
#     4  11  24  49  69 102 140 187 242 298 352 418
#     4  11  26  44  73 103 143 187 237 297 361 424
#     4  12  25  46  73 104 143 190 237 295 362 426
#     4   9  22  44  70  99 135 191 235 294 358 426
#     4  11  25  45  69 108 144 186 240 295 369 429
#     4  10  23  46  70 101 146 185 241 299 356 432
#
# _framework density 22.347048999999998
#
# number of rings (size 3 to 8) (size 9 to 14) (size 15 to 20)
#    0.000    1.333    3.333    0.500    9.333    0.667 
#    9.000    0.000    0.000    0.000    0.000    0.000 
#    0.000    0.000    0.000    0.000    0.000    0.000 
#
# Total GULP energy -66997.053706 kJ/mol
# GULP energy per Si atom -5583.087809 kJ/mol
# Density = 2.229619 g / cm^3
# Si number density = 22.347049 Si / 1000 Ang^3
#
#
#
# Elastic Constant Matrix: (Units=GPa)
#
#
# Indices 1 2 3 4 5 6 
#
# 1 157.0398 56.4413 44.5654 2.9662 8.5994 17.3584
# 2 56.4413 94.5459 24.2329 10.1839 -5.9545 18.7818
# 3 44.5654 24.2329 100.6534 -1.6831 -25.4826 0.4025
# 4 2.9662 10.1839 -1.6831 45.8207 4.2235 -2.7850
# 5 8.5994 -5.9545 -25.4826 4.2235 40.3608 -7.6817
# 6 17.3584 18.7818 0.4025 -2.7850 -7.6817 40.4129
#
#
#
# Elastic Compliance Matrix: (Units=1/GPa)
#
#
# Indices 1 2 3 4 5 6 
#
# 1 0.010213 -0.004591 -0.005115 0.000588 -0.006801 -0.003454
# 2 -0.004591 0.015096 -0.001157 -0.003576 0.001913 -0.004915
# 3 -0.005115 -0.001157 0.015377 0.000385 0.011500 0.004794
# 4 0.000588 -0.003576 0.000385 0.022964 -0.002329 0.002545
# 5 -0.006801 0.001913 0.011500 -0.002329 0.035636 0.008531
# 6 -0.003454 -0.004915 0.004794 0.002545 0.008531 0.030262
#
#
# Mechanical properties :
#
#
# Convention : Reuss Voigt Hill
#
# Bulk Modulus (GPa) = 52.74467 66.96872 59.85669
# Shear Modulus (GPa) = 31.72706 40.45219 36.08963
#
# Velocity S-wave (km/s) = 3.77204 4.25924 4.02302
# Velocity P-wave (km/s) = 6.52876 7.36348 6.95865
#
# Compressibility (1/GPa) = 0.01895926
#
# Stress axis : x y z
#
# Youngs Moduli (GPa) = 97.91894 66.24076 65.03227
#
# Poissons Ratio (x) = 0.30413 0.33262
# Poissons Ratio (y) = 0.44957 0.07527
# Poissons Ratio (z) = 0.50082 0.07667
#
# Static dielectric constant tensor:
#      x y z
#    x 1.782670 -0.018620 0.062180 
#    y -0.018620 1.849580 -0.048260 
#    z 0.062180 -0.048260 1.881700 
# 
# From -- ./inp_files/105695.got.cif
#   From: 2010.05.17/outbox.cif.g08.bks.cpg/sg2_53_cif.got.tgz:105695.got - 2010.06.03 11:33:40.
