data_PCOD9044224
_publ_section_title
;
Structure prediction by ZEFSAII (Michael W. Deem and Ramdas Pophale) SiO2 
 PCOD9044224
Probable space group: P -1
;
_chemical_formula_sum "Si O2"
_cell_formula_units_Z 14
_cell_length_a 17.289044
_cell_length_b 5.192101
_cell_length_c 9.080796
_cell_angle_alpha 70.174840
_cell_angle_beta 107.818393
_cell_angle_gamma 132.868043
_cell_volume 558.673822
_symmetry_space_group_name_H-M "P -1"
_symmetry_group_IT_number 2
_symmetry_cell_setting 'triclinic'
loop_
_space_group_symop_operation_xyz
x,y,z
-x,-y,-z
loop_
_atom_site_type_symbol
_atom_site_label
_atom_site_fract_x
_atom_site_fract_y
_atom_site_fract_z
Si Si1 0.538791 0.227139 0.330014
Si Si2 0.931477 0.073462 0.026189
Si Si3 0.752313 0.993329 0.397100
Si Si4 0.809689 0.109059 0.737457
Si Si5 0.354124 0.117709 0.090051
Si Si6 0.354515 0.754902 0.867857
Si Si7 0.040434 0.835303 0.649704
O O1 0.656031 0.601694 0.354812
O O2 0.549403 0.043135 0.234015
O O3 0.500000 0.000000 0.500000
O O4 0.456673 0.278999 0.217992
O O5 0.913118 0.968193 0.205047
O O6 0.831697 0.896774 0.895745
O O7 0.000000 0.500000 0.000000
O O8 0.000000 0.000000 0.000000
O O9 0.747856 0.961077 0.577780
O O10 0.730689 0.249938 0.273565
O O11 0.866829 0.133077 0.381811
O O12 0.746596 0.161296 0.806971
O O13 0.929338 0.441662 0.693303
O O14 0.362625 0.942327 0.987033
O O15 0.346071 0.413484 0.970369
O O16 0.000000 0.000000 0.500000
#
# Coordination Sequence:
#
# PCOD9044224 Si02
#       7
#     2   2   2   2   2   2   2
#     4  12  30  53  83 118 164 211 274 337 408 484
#     4  10  23  46  71 107 152 201 256 315 385 467
#     4  12  28  51  79 120 162 217 268 337 406 482
#     4  11  27  48  77 120 158 210 265 324 406 480
#     4  12  29  51  84 117 164 214 269 337 405 480
#     4  12  28  54  81 120 161 211 275 335 405 485
#     4  11  26  48  81 118 162 212 269 333 402 483
#
# _framework density 25.059343999999999
#
# number of rings (size 3 to 8) (size 9 to 14) (size 15 to 20)
#    0.000    0.571    1.429    3.857    8.000    6.857 
#    0.000    0.000    0.000    0.000    0.000    0.000 
#    0.000    0.000    0.000    0.000    0.000    0.000 
#
# Total GULP energy -78304.368945 kJ/mol
# GULP energy per Si atom -5593.169210 kJ/mol
# Density = 2.500231 g / cm^3
# Si number density = 25.059344 Si / 1000 Ang^3
#
#
#
# Elastic Constant Matrix: (Units=GPa)
#
#
# Indices 1 2 3 4 5 6 
#
# 1 204.0778 64.2134 97.3034 -6.6200 -7.9160 -9.9684
# 2 64.2134 109.9511 57.8737 0.8726 -5.6796 -15.4554
# 3 97.3034 57.8737 249.0567 24.0662 9.0602 -19.3571
# 4 -6.6200 0.8726 24.0662 32.5438 -1.5177 -5.2930
# 5 -7.9160 -5.6796 9.0602 -1.5177 69.6548 1.1655
# 6 -9.9684 -15.4554 -19.3571 -5.2930 1.1655 47.5031
#
#
#
# Elastic Compliance Matrix: (Units=1/GPa)
#
#
# Indices 1 2 3 4 5 6 
#
# 1 0.007127 -0.002837 -0.002497 0.003403 0.000979 -0.000090
# 2 -0.002837 0.011999 -0.001570 0.000745 0.000831 0.002732
# 3 -0.002497 -0.001570 0.005932 -0.004770 -0.001302 0.000883
# 4 0.003403 0.000745 -0.004770 0.035486 0.001792 0.002923
# 5 0.000979 0.000831 -0.001302 0.001792 0.014748 -0.000217
# 6 -0.000090 0.002732 0.000883 0.002923 -0.000217 0.022612
#
#
# Mechanical properties :
#
#
# Convention : Reuss Voigt Hill
#
# Bulk Modulus (GPa) = 88.87821 111.31852 100.09837
# Shear Modulus (GPa) = 43.30415 52.85334 48.07874
#
# Velocity S-wave (km/s) = 4.16151 4.59751 4.38493
# Velocity P-wave (km/s) = 7.65735 8.52650 8.10358
#
# Compressibility (1/GPa) = 0.01125135
#
# Stress axis : x y z
#
# Youngs Moduli (GPa) = 140.30649 83.33913 168.57131
#
# Poissons Ratio (x) = 0.23646 0.42086
# Poissons Ratio (y) = 0.39810 0.26460
# Poissons Ratio (z) = 0.35030 0.13081
#
# Static dielectric constant tensor:
#      x y z
#    x 2.018990 0.092990 -0.085830 
#    y 0.092990 2.118600 -0.096270 
#    z -0.085830 -0.096270 2.143500 
# 
# From -- ./inp_files/287751.got.cif
#   From: 2010.05.17/outbox.cif.g08.bks.cpg/sg2_144_cif.got.tgz:287751.got - 2010.06.03 11:33:40.
