data_PCOD9044173
_publ_section_title
;
Structure prediction by ZEFSAII (Michael W. Deem and Ramdas Pophale) SiO2 
 PCOD9044173
Probable space group: P -1
;
_chemical_formula_sum "Si O2"
_cell_formula_units_Z 14
_cell_length_a 14.327856
_cell_length_b 13.705135
_cell_length_c 15.024644
_cell_angle_alpha 139.294678
_cell_angle_beta 160.911119
_cell_angle_gamma 34.736230
_cell_volume 547.051390
_symmetry_space_group_name_H-M "P -1"
_symmetry_group_IT_number 2
_symmetry_cell_setting 'triclinic'
loop_
_space_group_symop_operation_xyz
x,y,z
-x,-y,-z
loop_
_atom_site_type_symbol
_atom_site_label
_atom_site_fract_x
_atom_site_fract_y
_atom_site_fract_z
Si Si1 0.194960 0.630905 0.527667
Si Si2 0.633109 0.765634 0.299085
Si Si3 0.977407 0.992009 0.767562
Si Si4 0.777575 0.482155 0.083884
Si Si5 0.598689 0.810902 0.492603
Si Si6 0.382443 0.382857 0.263812
Si Si7 0.153967 0.987001 0.531808
O O1 0.441851 0.644172 0.691121
O O2 0.025222 0.519848 0.272533
O O3 0.884679 0.825313 0.385830
O O4 0.435482 0.544923 0.769248
O O5 0.890474 0.836402 0.584049
O O6 0.719437 0.605627 0.202034
O O7 0.588706 0.721666 0.329624
O O8 0.301934 0.925303 0.071896
O O9 0.019940 0.023838 0.724018
O O10 0.670208 0.154332 0.649819
O O11 0.030231 0.288437 0.206488
O O12 0.500000 0.000000 0.500000
O O13 0.500000 0.500000 0.500000
O O14 0.510058 0.193208 0.287990
O O15 0.000000 0.500000 0.000000
O O16 0.000000 0.000000 0.500000
#
# Coordination Sequence:
#
# PCOD9044173 Si02
#       7
#     2   2   2   2   2   2   2
#     4  11  25  44  68 102 133 182 227 274 341 400
#     4  11  22  44  68  96 132 174 226 275 331 406
#     4  11  23  43  67  99 133 172 223 278 337 394
#     4  12  23  44  69  98 138 176 227 280 331 410
#     4  10  26  44  68 101 138 178 224 281 348 400
#     4  11  26  45  69 102 140 175 227 281 337 400
#     4  10  23  46  70  99 138 181 223 276 335 405
#
# _framework density 25.591746000000001
#
# number of rings (size 3 to 8) (size 9 to 14) (size 15 to 20)
#    0.000    1.143    2.857    1.714    4.000    6.857 
#    0.000   11.429    0.000    0.000    0.000    0.000 
#    0.000    0.000    0.000    0.000    0.000    0.000 
#
# Total GULP energy -78247.496815 kJ/mol
# GULP energy per Si atom -5589.106915 kJ/mol
# Density = 2.553350 g / cm^3
# Si number density = 25.591746 Si / 1000 Ang^3
#
#
#
# Elastic Constant Matrix: (Units=GPa)
#
#
# Indices 1 2 3 4 5 6 
#
# 1 113.9188 15.7590 22.1644 -13.7525 -20.3294 -1.8364
# 2 15.7590 141.3349 52.8533 -50.2491 -3.5695 9.3250
# 3 22.1644 52.8533 163.5174 -30.7604 4.2510 10.4221
# 4 -13.7525 -50.2491 -30.7604 48.4548 -0.9091 2.6560
# 5 -20.3294 -3.5695 4.2510 -0.9091 39.0324 -5.9628
# 6 -1.8364 9.3250 10.4221 2.6560 -5.9628 37.0234
#
#
#
# Elastic Compliance Matrix: (Units=1/GPa)
#
#
# Indices 1 2 3 4 5 6 
#
# 1 0.010353 0.000207 -0.001279 0.002363 0.005849 0.001594
# 2 0.000207 0.012063 -0.001530 0.011797 0.001155 -0.003258
# 3 -0.001279 -0.001530 0.007530 0.002922 -0.001912 -0.002315
# 4 0.002363 0.011797 0.002922 0.035758 0.001918 -0.005933
# 5 0.005849 0.001155 -0.001912 0.001918 0.029819 0.005203
# 6 0.001594 -0.003258 -0.002315 -0.005933 0.005203 0.029825
#
#
# Mechanical properties :
#
#
# Convention : Reuss Voigt Hill
#
# Bulk Modulus (GPa) = 40.41884 66.70272 53.56078
# Shear Modulus (GPa) = 36.02258 46.76841 41.39549
#
# Velocity S-wave (km/s) = 3.75585 4.27954 4.02622
# Velocity P-wave (km/s) = 5.88528 7.10915 6.52597
#
# Compressibility (1/GPa) = 0.02474094
#
# Stress axis : x y z
#
# Youngs Moduli (GPa) = 96.58791 82.89868 132.79395
#
# Poissons Ratio (x) = -0.01713 0.16988
# Poissons Ratio (y) = -0.01996 0.20321
# Poissons Ratio (z) = 0.12357 0.12685
#
# Static dielectric constant tensor:
#      x y z
#    x 1.972570 -0.077340 0.045400 
#    y -0.077340 2.043950 0.041550 
#    z 0.045400 0.041550 1.921350 
# 
# From -- ./inp_files/138152.got.cif
#   From: 2010.05.17/outbox.cif.g08.bks.cpg/sg2_70_cif.got.tgz:138152.got - 2010.06.03 11:33:40.
