data_PCOD9044306
_publ_section_title
;
Structure prediction by ZEFSAII (Michael W. Deem and Ramdas Pophale) SiO2 
 PCOD9044306
Probable space group: P -1
;
_chemical_formula_sum "Si O2"
_cell_formula_units_Z 12
_cell_length_a 6.712831
_cell_length_b 16.178326
_cell_length_c 9.333147
_cell_angle_alpha 50.494706
_cell_angle_beta 133.505689
_cell_angle_gamma 120.882660
_cell_volume 562.069442
_symmetry_space_group_name_H-M "P -1"
_symmetry_group_IT_number 2
_symmetry_cell_setting 'triclinic'
loop_
_space_group_symop_operation_xyz
x,y,z
-x,-y,-z
loop_
_atom_site_type_symbol
_atom_site_label
_atom_site_fract_x
_atom_site_fract_y
_atom_site_fract_z
Si Si1 0.669019 0.985137 0.960379
Si Si2 0.735120 0.081910 0.606500
Si Si3 0.414216 0.561862 0.531908
Si Si4 0.913577 0.613328 0.885656
Si Si5 0.582999 0.217895 0.133693
Si Si6 0.816092 0.621131 0.151566
O O1 0.526942 0.882234 0.912204
O O2 0.665661 0.084715 0.737537
O O3 0.973777 0.965316 0.185905
O O4 0.500000 0.000000 0.000000
O O5 0.731093 0.185168 0.389917
O O6 0.500000 0.000000 0.500000
O O7 0.500000 0.500000 0.500000
O O8 0.683076 0.639816 0.630451
O O9 0.327004 0.471848 0.710836
O O10 0.146546 0.622702 0.321819
O O11 0.186599 0.699952 0.923976
O O12 0.770223 0.600165 0.983686
O O13 0.000000 0.500000 0.000000
O O14 0.317330 0.273903 0.984973
#
# Coordination Sequence:
#
# PCOD9044306 Si02
#       6
#     2   2   2   2   2   2
#     4  10  23  46  72  96 134 168 215 281 342 394
#     4   9  22  44  68  95 130 167 215 275 339 393
#     4  11  23  42  64  90 131 186 223 273 326 374
#     4  12  24  42  64  95 137 177 226 271 321 389
#     4  11  25  41  66 102 132 175 228 264 332 403
#     4  11  24  41  65  90 135 179 225 271 326 380
#
# _framework density 21.349675999999999
#
# number of rings (size 3 to 8) (size 9 to 14) (size 15 to 20)
#    0.000    1.333    3.333    0.500    0.000   12.000 
#    0.000    0.000    0.000    0.000    0.000    0.000 
#    0.000    0.000    0.000    0.000    0.000    0.000 
#
# Total GULP energy -66989.267049 kJ/mol
# GULP energy per Si atom -5582.438921 kJ/mol
# Density = 2.130108 g / cm^3
# Si number density = 21.349676 Si / 1000 Ang^3
#
#
#
# Elastic Constant Matrix: (Units=GPa)
#
#
# Indices 1 2 3 4 5 6 
#
# 1 172.4525 40.8530 63.7941 10.6869 -21.3057 -13.2507
# 2 40.8530 67.8040 34.8978 14.4556 0.4684 2.4750
# 3 63.7941 34.8978 137.1792 16.6426 -3.6556 -3.7223
# 4 10.6869 14.4556 16.6426 35.8606 12.0264 2.1327
# 5 -21.3057 0.4684 -3.6556 12.0264 41.3237 7.4491
# 6 -13.2507 2.4750 -3.7223 2.1327 7.4491 34.3809
#
#
#
# Elastic Compliance Matrix: (Units=1/GPa)
#
#
# Indices 1 2 3 4 5 6 
#
# 1 0.008392 -0.003507 -0.002671 -0.001364 0.004095 0.002395
# 2 -0.003507 0.019515 -0.002771 -0.005292 -0.000252 -0.002673
# 3 -0.002671 -0.002771 0.009568 -0.002615 0.000203 0.000324
# 4 -0.001364 -0.005292 -0.002615 0.035386 -0.011135 -0.000210
# 5 0.004095 -0.000252 0.000203 -0.011135 0.030341 -0.004265
# 6 0.002395 -0.002673 0.000324 -0.000210 -0.004265 0.031174
#
#
# Mechanical properties :
#
#
# Convention : Reuss Voigt Hill
#
# Bulk Modulus (GPa) = 51.07783 72.94727 62.01255
# Shear Modulus (GPa) = 31.48649 38.17242 34.82946
#
# Velocity S-wave (km/s) = 3.84448 4.23302 4.04342
# Velocity P-wave (km/s) = 6.60931 7.62452 7.13500
#
# Compressibility (1/GPa) = 0.01957796
#
# Stress axis : x y z
#
# Youngs Moduli (GPa) = 119.16242 51.24279 104.51210
#
# Poissons Ratio (x) = 0.17968 0.27915
# Poissons Ratio (y) = 0.41784 0.28961
# Poissons Ratio (z) = 0.31828 0.14200
#
# Static dielectric constant tensor:
#      x y z
#    x 1.751600 0.046470 -0.010320 
#    y 0.046470 1.811320 -0.002920 
#    z -0.010320 -0.002920 1.834710 
# 
# From -- ./inp_files/137301.got.cif
#   From: 2010.05.17/outbox.cif.g08.bks.cpg/sg2_69_cif.got.tgz:137301.got - 2010.06.03 11:33:40.
