data_PCOD9044232
_publ_section_title
;
Structure prediction by ZEFSAII (Michael W. Deem and Ramdas Pophale) SiO2 
 PCOD9044232
Probable space group: P -1
;
_chemical_formula_sum "Si O2"
_cell_formula_units_Z 12
_cell_length_a 17.181907
_cell_length_b 9.178203
_cell_length_c 10.184049
_cell_angle_alpha 151.512220
_cell_angle_beta 43.734688
_cell_angle_gamma 140.883961
_cell_volume 478.854786
_symmetry_space_group_name_H-M "P -1"
_symmetry_group_IT_number 2
_symmetry_cell_setting 'triclinic'
loop_
_space_group_symop_operation_xyz
x,y,z
-x,-y,-z
loop_
_atom_site_type_symbol
_atom_site_label
_atom_site_fract_x
_atom_site_fract_y
_atom_site_fract_z
Si Si1 0.127409 0.832492 0.622421
Si Si2 0.031305 0.067578 0.698483
Si Si3 0.277286 0.405477 0.053916
Si Si4 0.611019 0.369575 0.627585
Si Si5 0.487748 0.633610 0.764488
Si Si6 0.135139 0.578728 0.753787
O O1 0.000000 0.500000 0.500000
O O2 0.164214 0.037943 0.876375
O O3 0.229028 0.696410 0.352913
O O4 0.107042 0.089759 0.753697
O O5 0.123892 0.333916 0.696081
O O6 0.974736 0.683911 0.412384
O O7 0.912193 0.151561 0.922583
O O8 0.352205 0.443541 0.127996
O O9 0.360865 0.457628 0.864257
O O10 0.578952 0.577784 0.717062
O O11 0.731487 0.324190 0.394773
O O12 0.500000 0.000000 0.500000
O O13 0.500000 0.500000 0.500000
O O14 0.500000 0.000000 0.000000
#
# Coordination Sequence:
#
# PCOD9044232 Si02
#       6
#     2   2   2   2   2   2
#     4  12  26  46  79 116 160 205 261 324 397 469
#     4  10  23  46  71 114 146 207 252 326 374 475
#     4  12  28  49  78 116 161 206 266 319 402 474
#     4  12  28  52  82 118 162 215 266 338 402 485
#     4  12  29  52  79 116 154 210 270 332 399 472
#     4  10  24  45  76 104 157 197 265 307 403 455
#
# _framework density 25.059788999999999
#
# number of rings (size 3 to 8) (size 9 to 14) (size 15 to 20)
#    0.000    0.667    0.000    6.000    4.667   10.667 
#    0.000    0.000    0.000    0.000    0.000    0.000 
#    0.000    0.000    0.000    0.000    0.000    0.000 
#
# Total GULP energy -67191.232665 kJ/mol
# GULP energy per Si atom -5599.269389 kJ/mol
# Density = 2.500275 g / cm^3
# Si number density = 25.059789 Si / 1000 Ang^3
#
#
#
# Elastic Constant Matrix: (Units=GPa)
#
#
# Indices 1 2 3 4 5 6 
#
# 1 215.8114 67.9426 62.3010 14.0171 -2.1309 -19.9196
# 2 67.9426 118.7039 39.8161 -18.8507 17.2780 -28.7361
# 3 62.3010 39.8161 158.0556 9.6879 11.0412 -3.0998
# 4 14.0171 -18.8507 9.6879 43.7579 2.5139 4.3431
# 5 -2.1309 17.2780 11.0412 2.5139 56.7827 1.9824
# 6 -19.9196 -28.7361 -3.0998 4.3431 1.9824 35.7196
#
#
#
# Elastic Compliance Matrix: (Units=1/GPa)
#
#
# Indices 1 2 3 4 5 6 
#
# 1 0.006650 -0.003991 -0.001508 -0.003695 0.001896 0.000711
# 2 -0.003991 0.015859 -0.002358 0.007974 -0.005207 0.009648
# 3 -0.001508 -0.002358 0.007650 -0.002010 -0.000675 -0.001792
# 4 -0.003695 0.007974 -0.002010 0.028019 -0.003448 0.000965
# 5 0.001896 -0.005207 -0.000675 -0.003448 0.019685 -0.003863
# 6 0.000711 0.009648 -0.001792 0.000965 -0.003863 0.036095
#
#
# Mechanical properties :
#
#
# Convention : Reuss Voigt Hill
#
# Bulk Modulus (GPa) = 69.22237 92.52114 80.87176
# Shear Modulus (GPa) = 37.17795 48.75279 42.96537
#
# Velocity S-wave (km/s) = 3.85589 4.41552 4.14516
# Velocity P-wave (km/s) = 6.89251 7.93701 7.43313
#
# Compressibility (1/GPa) = 0.01444620
#
# Stress axis : x y z
#
# Youngs Moduli (GPa) = 150.38149 63.05419 130.71252
#
# Poissons Ratio (x) = 0.25165 0.19708
# Poissons Ratio (y) = 0.60019 0.30820
# Poissons Ratio (z) = 0.22674 0.14867
#
# Static dielectric constant tensor:
#      x y z
#    x 2.039500 0.002050 -0.022550 
#    y 0.002050 2.033620 0.133710 
#    z -0.022550 0.133710 1.846270 
# 
# From -- ./inp_files/541204.got.cif
#   From: 2010.05.17/outbox.cif.g08.bks.cpg/sg2_271_cif.got.tgz:541204.got - 2010.06.03 11:33:40.
