data_PCOD9044101
_publ_section_title
;
Structure prediction by ZEFSAII (Michael W. Deem and Ramdas Pophale) SiO2 
 PCOD9044101
Probable space group: P -1
;
_chemical_formula_sum "Si O2"
_cell_formula_units_Z 16
_cell_length_a 5.896379
_cell_length_b 8.314784
_cell_length_c 14.825178
_cell_angle_alpha 73.839846
_cell_angle_beta 108.826963
_cell_angle_gamma 88.314337
_cell_volume 655.057751
_symmetry_space_group_name_H-M "P -1"
_symmetry_group_IT_number 2
_symmetry_cell_setting 'triclinic'
loop_
_space_group_symop_operation_xyz
x,y,z
-x,-y,-z
loop_
_atom_site_type_symbol
_atom_site_label
_atom_site_fract_x
_atom_site_fract_y
_atom_site_fract_z
Si Si1 0.084912 0.199677 0.087663
Si Si2 0.758420 0.461323 0.726649
Si Si3 0.986779 0.124334 0.755396
Si Si4 0.808421 0.469181 0.109904
Si Si5 0.170990 0.058442 0.590514
Si Si6 0.450900 0.724527 0.753527
Si Si7 0.321345 0.172778 0.939939
Si Si8 0.761964 0.577966 0.516940
O O1 0.328752 0.247837 0.156832
O O2 0.884947 0.360537 0.049108
O O3 0.126767 0.154494 0.996483
O O4 0.028385 0.045522 0.165546
O O5 0.521280 0.573589 0.715099
O O6 0.844707 0.552460 0.634985
O O7 0.765493 0.266814 0.730101
O O8 0.951506 0.466498 0.829632
O O9 0.022457 0.101567 0.657618
O O10 0.224092 0.184339 0.823386
O O11 0.743066 0.335541 0.195340
O O12 0.381471 0.361082 0.943025
O O13 0.278733 0.225792 0.546421
O O14 0.365953 0.898761 0.664916
O O15 0.000000 0.000000 0.500000
O O16 0.500000 0.000000 0.000000
O O17 0.500000 0.500000 0.500000
O O18 0.000000 0.500000 0.500000
#
# Coordination Sequence:
#
# PCOD9044101 Si02
#       8
#     2   2   2   2   2   2   2   2
#     4  11  24  45  70 104 142 191 243 303 379 446
#     4  10  25  44  72 101 143 196 246 310 379 454
#     4  11  24  48  72 102 149 188 247 311 372 462
#     4  10  23  46  69  99 150 184 246 303 379 456
#     4  12  27  48  79 110 156 199 260 319 392 464
#     4  11  25  44  73 105 140 197 245 310 373 462
#     4  11  25  43  72 105 138 192 245 303 378 451
#     4  12  29  49  77 115 157 206 266 328 399 470
#
# _framework density 24.425325000000001
#
# number of rings (size 3 to 8) (size 9 to 14) (size 15 to 20)
#    0.000    1.000    2.500    2.250    8.750    1.000 
#    2.250    0.000    0.000    0.000    0.000    0.000 
#    0.000    0.000    0.000    0.000    0.000    0.000 
#
# Total GULP energy -89425.806933 kJ/mol
# GULP energy per Si atom -5589.112933 kJ/mol
# Density = 2.436973 g / cm^3
# Si number density = 24.425325 Si / 1000 Ang^3
#
#
#
# Elastic Constant Matrix: (Units=GPa)
#
#
# Indices 1 2 3 4 5 6 
#
# 1 85.8008 67.1356 51.1610 8.0373 -10.0724 -4.1457
# 2 67.1356 188.7203 61.1995 -25.7034 -10.1423 -21.1727
# 3 51.1610 61.1995 128.5314 -3.2374 -14.0898 -8.3393
# 4 8.0373 -25.7034 -3.2374 54.4568 -0.1682 -15.4490
# 5 -10.0724 -10.1423 -14.0898 -0.1682 48.9360 1.3762
# 6 -4.1457 -21.1727 -8.3393 -15.4490 1.3762 47.4494
#
#
#
# Elastic Compliance Matrix: (Units=1/GPa)
#
#
# Indices 1 2 3 4 5 6 
#
# 1 0.021504 -0.007601 -0.005342 -0.008574 0.001432 -0.005285
# 2 -0.007601 0.010104 -0.001196 0.007548 0.000040 0.006091
# 3 -0.005342 -0.001196 0.010776 0.001222 0.001725 0.001242
# 4 -0.008574 0.007548 0.001222 0.026517 -0.000080 0.011470
# 5 0.001432 0.000040 0.001725 -0.000080 0.021240 -0.000196
# 6 -0.005285 0.006091 0.001242 0.011470 -0.000196 0.027289
#
#
# Mechanical properties :
#
#
# Convention : Reuss Voigt Hill
#
# Bulk Modulus (GPa) = 70.89066 84.67163 77.78115
# Shear Modulus (GPa) = 33.24231 45.07221 39.15726
#
# Velocity S-wave (km/s) = 3.69314 4.30036 4.00827
# Velocity P-wave (km/s) = 6.87548 7.70703 7.30310
#
# Compressibility (1/GPa) = 0.01410623
#
# Stress axis : x y z
#
# Youngs Moduli (GPa) = 46.50366 98.96946 92.79588
#
# Poissons Ratio (x) = 0.75228 0.49572
# Poissons Ratio (y) = 0.35348 0.11096
# Poissons Ratio (z) = 0.24843 0.11835
#
# Static dielectric constant tensor:
#      x y z
#    x 1.990730 0.000350 0.062780 
#    y 0.000350 2.019430 0.007620 
#    z 0.062780 0.007620 1.920750 
# 
# From -- ./inp_files/480446.got.cif
#   From: 2010.05.17/outbox.cif.g08.bks.cpg/sg2_241_cif.got.tgz:480446.got - 2010.06.03 11:33:40.
