data_PCOD9044581
_publ_section_title
;
Structure prediction by ZEFSAII (Michael W. Deem and Ramdas Pophale) SiO2 
 PCOD9044581
Probable space group: P -1
;
_chemical_formula_sum "Si O2"
_cell_formula_units_Z 16
_cell_length_a 7.539693
_cell_length_b 13.651238
_cell_length_c 16.824653
_cell_angle_alpha 156.441609
_cell_angle_beta 91.251863
_cell_angle_gamma 89.485737
_cell_volume 691.700617
_symmetry_space_group_name_H-M "P -1"
_symmetry_group_IT_number 2
_symmetry_cell_setting 'triclinic'
loop_
_space_group_symop_operation_xyz
x,y,z
-x,-y,-z
loop_
_atom_site_type_symbol
_atom_site_label
_atom_site_fract_x
_atom_site_fract_y
_atom_site_fract_z
Si Si1 0.508059 0.568050 0.959315
Si Si2 0.902745 0.755562 0.055659
Si Si3 0.460425 0.867157 0.983091
Si Si4 0.960424 0.214957 0.099023
Si Si5 0.991944 0.258156 0.649422
Si Si6 0.423498 0.068994 0.293271
Si Si7 0.923495 0.741822 0.517545
Si Si8 0.597258 0.344151 0.644248
O O1 0.702266 0.689006 0.030541
O O2 0.374651 0.784675 0.100676
O O3 0.500000 0.500000 0.000000
O O4 0.493211 0.350339 0.732706
O O5 0.006792 0.502562 0.884929
O O6 0.964429 0.008357 0.284047
O O7 0.936723 0.800136 0.994832
O O8 0.250000 0.801312 0.933772
O O9 0.563278 0.615779 0.810475
O O10 0.500000 0.000000 0.000000
O O11 0.506264 0.050524 0.193165
O O12 0.006263 0.478445 0.335804
O O13 0.000000 0.000000 0.000000
O O14 0.797737 0.286394 0.627928
O O15 0.125352 0.267324 0.583325
O O16 0.000000 0.000000 0.500000
O O17 0.250001 0.229473 0.409826
O O18 0.535575 0.164577 0.440266
#
# Coordination Sequence:
#
# PCOD9044581 Si02
#       8
#     2   2   2   2   2   2   2   2
#     4  10  24  43  70 104 140 194 241 298 362 426
#     4  10  23  47  68 100 150 186 240 304 358 442
#     4  11  25  45  72 103 141 189 244 312 374 439
#     4  11  25  45  72 103 141 189 244 312 374 439
#     4  10  24  43  70 104 140 194 241 298 362 426
#     4  11  23  44  68 100 142 186 239 300 366 439
#     4  11  23  44  68 100 142 186 239 300 366 439
#     4  10  23  47  68 100 150 186 240 304 358 442
#
# _framework density 23.131392999999999
#
# number of rings (size 3 to 8) (size 9 to 14) (size 15 to 20)
#    0.000    1.500    2.500    0.750   10.500    2.000 
#    4.500    0.000    0.000    0.000    0.000    0.000 
#    0.000    0.000    0.000    0.000    0.000    0.000 
#
# Total GULP energy -89393.443731 kJ/mol
# GULP energy per Si atom -5587.090233 kJ/mol
# Density = 2.307874 g / cm^3
# Si number density = 23.131393 Si / 1000 Ang^3
#
#
#
# Elastic Constant Matrix: (Units=GPa)
#
#
# Indices 1 2 3 4 5 6 
#
# 1 94.5248 30.9872 41.0377 -0.9575 4.2329 -0.9785
# 2 30.9872 176.0261 60.5728 3.5302 -22.3486 3.4821
# 3 41.0377 60.5728 183.2541 -9.7561 -9.5683 -3.2235
# 4 -0.9575 3.5302 -9.7561 48.3576 -6.1979 -6.9119
# 5 4.2329 -22.3486 -9.5683 -6.1979 42.3809 -0.0228
# 6 -0.9785 3.4821 -3.2235 -6.9119 -0.0228 30.7011
#
#
#
# Elastic Compliance Matrix: (Units=1/GPa)
#
#
# Indices 1 2 3 4 5 6 
#
# 1 0.012273 -0.001693 -0.002349 -0.000420 -0.002710 0.000240
# 2 -0.001693 0.007079 -0.001840 -0.000658 0.003390 -0.001196
# 3 -0.002349 -0.001840 0.006762 0.001764 0.001049 0.001242
# 4 -0.000420 -0.000658 0.001764 0.022256 0.003351 0.005260
# 5 -0.002710 0.003390 0.001049 0.003351 0.026381 0.000413
# 6 0.000240 -0.001196 0.001242 0.005260 0.000413 0.034030
#
#
# Mechanical properties :
#
#
# Convention : Reuss Voigt Hill
#
# Bulk Modulus (GPa) = 69.67879 79.88894 74.78387
# Shear Modulus (GPa) = 39.89519 45.70173 42.79846
#
# Velocity S-wave (km/s) = 4.15748 4.44976 4.30610
# Velocity P-wave (km/s) = 7.29621 7.81105 7.55801
#
# Compressibility (1/GPa) = 0.01435157
#
# Stress axis : x y z
#
# Youngs Moduli (GPa) = 81.47705 141.25533 147.89418
#
# Poissons Ratio (x) = 0.23912 0.34735
# Poissons Ratio (y) = 0.13792 0.27213
# Poissons Ratio (z) = 0.19136 0.25991
#
# Static dielectric constant tensor:
#      x y z
#    x 1.974590 0.007340 0.019790 
#    y 0.007340 1.825000 -0.023400 
#    z 0.019790 -0.023400 1.914250 
# 
# From -- ./inp_files/561239.got.cif
#   From: 2010.05.17/outbox.cif.g08.bks.cpg/sg2_281_cif.got.tgz:561239.got - 2010.06.03 11:33:40.
