data_PCOD9044433
_publ_section_title
;
Structure prediction by ZEFSAII (Michael W. Deem and Ramdas Pophale) SiO2 
 PCOD9044433
Probable space group: P -1
;
_chemical_formula_sum "Si O2"
_cell_formula_units_Z 14
_cell_length_a 6.564253
_cell_length_b 19.947651
_cell_length_c 14.045295
_cell_angle_alpha 161.756355
_cell_angle_beta 86.639214
_cell_angle_gamma 92.762138
_cell_volume 574.594139
_symmetry_space_group_name_H-M "P -1"
_symmetry_group_IT_number 2
_symmetry_cell_setting 'triclinic'
loop_
_space_group_symop_operation_xyz
x,y,z
-x,-y,-z
loop_
_atom_site_type_symbol
_atom_site_label
_atom_site_fract_x
_atom_site_fract_y
_atom_site_fract_z
Si Si1 0.911945 0.624249 0.262331
Si Si2 0.694180 0.861152 0.271889
Si Si3 0.204386 0.874595 0.724894
Si Si4 0.903670 0.248757 0.232594
Si Si5 0.458956 0.433841 0.681208
Si Si6 0.788841 0.413962 0.268040
Si Si7 0.072658 0.019023 0.393477
O O1 0.721752 0.517015 0.172667
O O2 0.069160 0.692773 0.432155
O O3 0.850901 0.851680 0.524084
O O4 0.000000 0.500000 0.000000
O O5 0.829414 0.980858 0.350538
O O6 0.500000 0.000000 0.500000
O O7 0.854350 0.852723 0.343421
O O8 0.615400 0.627996 0.935541
O O9 0.187404 0.868093 0.831498
O O10 0.433345 0.787034 0.585307
O O11 0.100241 0.097441 0.993506
O O12 0.754288 0.313744 0.238134
O O13 0.000348 0.465773 0.561166
O O14 0.365573 0.427581 0.569011
O O15 0.821779 0.213725 0.927022
#
# Coordination Sequence:
#
# PCOD9044433 Si02
#       7
#     2   2   2   2   2   2   2
#     4  12  26  46  71 104 149 189 230 295 362 423
#     4  11  23  41  70 104 140 187 236 297 345 427
#     4  11  24  47  70 102 144 189 233 298 353 423
#     4  10  23  46  74  98 144 191 235 290 362 411
#     4  12  26  44  75 109 144 181 246 289 356 421
#     4  11  22  44  71 102 136 189 236 293 346 421
#     4  11  24  43  69  99 145 188 234 286 363 415
#
# _framework density 24.365023000000001
#
# number of rings (size 3 to 8) (size 9 to 14) (size 15 to 20)
#    0.000    0.857    4.286    2.571    2.000    4.571 
#    0.000    0.000    0.000    0.000    0.000    0.000 
#    0.000    0.000    0.000    0.000    0.000    0.000 
#
# Total GULP energy -78203.431047 kJ/mol
# GULP energy per Si atom -5585.959360 kJ/mol
# Density = 2.430957 g / cm^3
# Si number density = 24.365023 Si / 1000 Ang^3
#
#
#
# Elastic Constant Matrix: (Units=GPa)
#
#
# Indices 1 2 3 4 5 6 
#
# 1 87.6173 44.0741 19.1977 -2.9002 -1.2485 3.2290
# 2 44.0741 115.3103 18.0829 -3.1280 3.3204 2.0014
# 3 19.1977 18.0829 65.1104 -2.5733 1.5666 -2.5889
# 4 -2.9002 -3.1280 -2.5733 35.9032 -4.4868 4.4147
# 5 -1.2485 3.3204 1.5666 -4.4868 40.2577 2.5591
# 6 3.2290 2.0014 -2.5889 4.4147 2.5591 25.8589
#
#
#
# Elastic Compliance Matrix: (Units=1/GPa)
#
#
# Indices 1 2 3 4 5 6 
#
# 1 0.014788 -0.005157 -0.003002 0.000934 0.001234 -0.002030
# 2 -0.005157 0.010919 -0.001488 0.000349 -0.000944 -0.000316
# 3 -0.003002 -0.001488 0.016779 0.000477 -0.000707 0.002158
# 4 0.000934 0.000349 0.000477 0.029105 0.003570 -0.005418
# 5 0.001234 -0.000944 -0.000707 0.003570 0.025591 -0.003294
# 6 -0.002030 -0.000316 0.002158 -0.005418 -0.003294 0.040416
#
#
# Mechanical properties :
#
#
# Convention : Reuss Voigt Hill
#
# Bulk Modulus (GPa) = 43.11686 47.86080 45.48883
# Shear Modulus (GPa) = 30.37277 32.84950 31.61113
#
# Velocity S-wave (km/s) = 3.53451 3.67580 3.60585
# Velocity P-wave (km/s) = 5.86444 6.14013 6.00387
#
# Compressibility (1/GPa) = 0.02319279
#
# Stress axis : x y z
#
# Youngs Moduli (GPa) = 67.62163 91.58592 59.60005
#
# Poissons Ratio (x) = 0.47227 0.17890
# Poissons Ratio (y) = 0.34870 0.08869
# Poissons Ratio (z) = 0.20297 0.13629
#
# Static dielectric constant tensor:
#      x y z
#    x 1.955910 -0.018260 -0.053920 
#    y -0.018260 1.966090 0.012570 
#    z -0.053920 0.012570 1.974900 
# 
# From -- ./inp_files/100606.got.cif
#   From: 2010.05.17/outbox.cif.g08.bks.cpg/sg2_51_cif.got.tgz:100606.got - 2010.06.03 11:33:40.
