data_PCOD9044726
_publ_section_title
;
Structure prediction by ZEFSAII (Michael W. Deem and Ramdas Pophale) SiO2 
 PCOD9044726
Probable space group: P -1
;
_chemical_formula_sum "Si O2"
_cell_formula_units_Z 14
_cell_length_a 20.088681
_cell_length_b 8.017489
_cell_length_c 18.180473
_cell_angle_alpha 46.532742
_cell_angle_beta 160.070402
_cell_angle_gamma 142.778019
_cell_volume 577.033057
_symmetry_space_group_name_H-M "P -1"
_symmetry_group_IT_number 2
_symmetry_cell_setting 'triclinic'
loop_
_space_group_symop_operation_xyz
x,y,z
-x,-y,-z
loop_
_atom_site_type_symbol
_atom_site_label
_atom_site_fract_x
_atom_site_fract_y
_atom_site_fract_z
Si Si1 0.024937 0.894342 0.318595
Si Si2 0.241688 0.631604 0.661062
Si Si3 0.397122 0.321255 0.696883
Si Si4 0.142996 0.735942 0.016463
Si Si5 0.590375 0.134417 0.467595
Si Si6 0.086533 0.308095 0.962248
Si Si7 0.463978 0.327696 0.926737
O O1 0.187751 0.063695 0.508116
O O2 0.180832 0.779582 0.491788
O O3 0.997363 0.122065 0.183023
O O4 0.738513 0.627232 0.111729
O O5 0.286424 0.409517 0.741975
O O6 0.000000 0.500000 0.500000
O O7 0.483900 0.819051 0.909327
O O8 0.343512 0.552712 0.566927
O O9 0.388660 0.204014 0.804616
O O10 0.671466 0.518383 0.888649
O O11 0.397119 0.955611 0.256265
O O12 0.137189 0.555725 0.996468
O O13 0.000000 0.500000 0.000000
O O14 0.842038 0.184774 0.701680
O O15 0.500000 0.000000 0.500000
O O16 0.000000 0.000000 0.000000
#
# Coordination Sequence:
#
# PCOD9044726 Si02
#       7
#     2   2   2   2   2   2   2
#     4  11  24  43  70 104 139 180 235 279 350 415
#     4   9  22  47  75 102 137 178 229 284 355 424
#     4  12  25  42  68 105 138 182 232 287 344 414
#     4  12  24  45  69  96 142 190 230 291 345 399
#     4  12  23  46  63  93 141 179 236 291 335 408
#     4  12  27  44  67 101 140 189 242 285 344 415
#     4  10  23  47  72 102 142 179 223 293 353 412
#
# _framework density 24.262043999999999
#
# number of rings (size 3 to 8) (size 9 to 14) (size 15 to 20)
#    0.000    0.857    5.714    0.000    2.000    4.571 
#    0.000    6.429    0.000    0.000    0.000    0.000 
#    0.000    0.000    0.000    0.000    0.000    0.000 
#
# Total GULP energy -78052.573105 kJ/mol
# GULP energy per Si atom -5575.183793 kJ/mol
# Density = 2.420682 g / cm^3
# Si number density = 24.262044 Si / 1000 Ang^3
#
#
#
# Elastic Constant Matrix: (Units=GPa)
#
#
# Indices 1 2 3 4 5 6 
#
# 1 75.7268 3.5343 54.7973 -25.8639 -8.7048 7.6472
# 2 3.5343 95.9219 53.1938 -25.9698 7.5792 -0.3638
# 3 54.7973 53.1938 208.6226 -35.0083 -4.0606 -8.7487
# 4 -25.8639 -25.9698 -35.0083 59.5731 -8.6247 3.1492
# 5 -8.7048 7.5792 -4.0606 -8.6247 40.0957 -6.4618
# 6 7.6472 -0.3638 -8.7487 3.1492 -6.4618 20.0976
#
#
#
# Elastic Compliance Matrix: (Units=1/GPa)
#
#
# Indices 1 2 3 4 5 6 
#
# 1 0.021785 0.004540 -0.005738 0.009152 0.003483 -0.011019
# 2 0.004540 0.014188 -0.004068 0.005778 -0.001617 -0.004667
# 3 -0.005738 -0.004068 0.007621 0.000087 0.001251 0.005816
# 4 0.009152 0.005778 0.000087 0.024381 0.005267 -0.005467
# 5 0.003483 -0.001617 0.001251 0.005267 0.028474 0.007520
# 6 -0.011019 -0.004667 0.005816 -0.005467 0.007520 0.059671
#
#
# Mechanical properties :
#
#
# Convention : Reuss Voigt Hill
#
# Bulk Modulus (GPa) = 30.24634 67.03580 48.64107
# Shear Modulus (GPa) = 28.14180 41.86969 35.00574
#
# Velocity S-wave (km/s) = 3.40944 4.15870 3.80257
# Velocity P-wave (km/s) = 5.29081 7.12387 6.27464
#
# Compressibility (1/GPa) = 0.03306185
#
# Stress axis : x y z
#
# Youngs Moduli (GPa) = 45.90417 70.48135 131.22265
#
# Poissons Ratio (x) = -0.32000 0.75298
# Poissons Ratio (y) = -0.20841 0.53378
# Poissons Ratio (z) = 0.26341 0.28670
#
# Static dielectric constant tensor:
#      x y z
#    x 2.101750 -0.040280 -0.156420 
#    y -0.040280 2.060840 0.030240 
#    z -0.156420 0.030240 1.913320 
# 
# From -- ./inp_files/577276.got.cif
#   From: 2010.05.17/outbox.cif.g08.bks.cpg/sg2_289_cif.got.tgz:577276.got - 2010.06.03 11:33:40.
