data_PCOD9044008
_publ_section_title
;
Structure prediction by ZEFSAII (Michael W. Deem and Ramdas Pophale) SiO2 
 PCOD9044008
Probable space group: P -1
;
_chemical_formula_sum "Si O2"
_cell_formula_units_Z 12
_cell_length_a 12.389792
_cell_length_b 14.618838
_cell_length_c 6.938379
_cell_angle_alpha 120.742372
_cell_angle_beta 108.881985
_cell_angle_gamma 29.336743
_cell_volume 506.492972
_symmetry_space_group_name_H-M "P -1"
_symmetry_group_IT_number 2
_symmetry_cell_setting 'triclinic'
loop_
_space_group_symop_operation_xyz
x,y,z
-x,-y,-z
loop_
_atom_site_type_symbol
_atom_site_label
_atom_site_fract_x
_atom_site_fract_y
_atom_site_fract_z
Si Si1 0.871158 0.976269 0.522399
Si Si2 0.314205 0.942460 0.102007
Si Si3 0.647944 0.866175 0.187431
Si Si4 0.685789 0.256755 0.373093
Si Si5 0.020378 0.687585 0.988510
Si Si6 0.764708 0.673616 0.436442
O O1 0.014891 0.779113 0.253938
O O2 0.057520 0.901568 0.652030
O O3 0.742230 0.020666 0.666573
O O4 0.700099 0.180775 0.503265
O O5 0.360694 0.790818 0.871822
O O6 0.089296 0.168006 0.104307
O O7 0.513376 0.864918 0.080137
O O8 0.847728 0.736265 0.019955
O O9 0.753568 0.766080 0.353171
O O10 0.456546 0.114030 0.338863
O O11 0.500000 0.500000 0.500000
O O12 0.235648 0.444666 0.780172
O O13 0.000000 0.500000 0.500000
#
# Coordination Sequence:
#
# PCOD9044008 Si02
#       6
#     2   2   2   2   2   2
#     4  10  23  46  68  97 136 167 225 281 329 400
#     4  11  23  44  69  99 134 178 220 278 332 397
#     4  11  24  44  64 102 145 173 228 270 323 414
#     4  10  24  46  70  97 127 175 223 280 343 392
#     4  11  24  44  69  99 144 183 214 277 336 395
#     4  11  23  40  65  95 133 189 225 262 332 389
#
# _framework density 23.692333000000001
#
# number of rings (size 3 to 8) (size 9 to 14) (size 15 to 20)
#    0.000    1.333    1.667    3.500    2.333    0.667 
#    9.000    0.000    0.000    0.000    0.000    0.000 
#    0.000    0.000    0.000    0.000    0.000    0.000 
#
# Total GULP energy -67151.917279 kJ/mol
# GULP energy per Si atom -5595.993107 kJ/mol
# Density = 2.363841 g / cm^3
# Si number density = 23.692333 Si / 1000 Ang^3
#
#
#
# Elastic Constant Matrix: (Units=GPa)
#
#
# Indices 1 2 3 4 5 6 
#
# 1 89.9219 10.9574 38.5468 -6.6445 12.4151 2.9392
# 2 10.9574 101.8834 40.9081 2.1612 5.1004 10.8459
# 3 38.5468 40.9081 107.6379 -0.9946 36.8152 -4.4519
# 4 -6.6445 2.1612 -0.9946 41.4305 9.0176 5.3642
# 5 12.4151 5.1004 36.8152 9.0176 43.8144 -3.5121
# 6 2.9392 10.8459 -4.4519 5.3642 -3.5121 33.7402
#
#
#
# Elastic Compliance Matrix: (Units=1/GPa)
#
#
# Indices 1 2 3 4 5 6 
#
# 1 0.013525 0.000845 -0.005143 0.002397 -0.000307 -0.002542
# 2 0.000845 0.012669 -0.006546 -0.000886 0.003608 -0.004493
# 3 -0.005143 -0.006546 0.018387 0.002482 -0.013486 0.003180
# 4 0.002397 -0.000886 0.002482 0.027128 -0.008630 -0.004808
# 5 -0.000307 0.003608 -0.013486 -0.008630 0.035774 0.002183
# 6 -0.002542 -0.004493 0.003180 -0.004808 0.002183 0.032715
#
#
# Mechanical properties :
#
#
# Convention : Reuss Voigt Hill
#
# Bulk Modulus (GPa) = 43.67829 53.36310 48.52070
# Shear Modulus (GPa) = 29.49584 37.73242 33.61413
#
# Velocity S-wave (km/s) = 3.53222 3.99507 3.77075
# Velocity P-wave (km/s) = 5.92546 6.62216 6.28347
#
# Compressibility (1/GPa) = 0.02289467
#
# Stress axis : x y z
#
# Youngs Moduli (GPa) = 73.93776 78.93324 54.38614
#
# Poissons Ratio (x) = -0.06673 0.27970
# Poissons Ratio (y) = -0.06251 0.35599
# Poissons Ratio (z) = 0.38025 0.51667
#
# Static dielectric constant tensor:
#      x y z
#    x 1.894620 0.002800 0.025850 
#    y 0.002800 1.912970 -0.030330 
#    z 0.025850 -0.030330 1.974600 
# 
# From -- ./inp_files/337937.got.cif
#   From: 2010.05.17/outbox.cif.g08.bks.cpg/sg2_169_cif.got.tgz:337937.got - 2010.06.03 11:33:40.
