data_PCOD9044493
_publ_section_title
;
Structure prediction by ZEFSAII (Michael W. Deem and Ramdas Pophale) SiO2 
 PCOD9044493
Probable space group: P -1
;
_chemical_formula_sum "Si O2"
_cell_formula_units_Z 10
_cell_length_a 8.592669
_cell_length_b 4.876544
_cell_length_c 10.062344
_cell_angle_alpha 77.474263
_cell_angle_beta 121.321127
_cell_angle_gamma 89.172769
_cell_volume 347.505287
_symmetry_space_group_name_H-M "P -1"
_symmetry_group_IT_number 2
_symmetry_cell_setting 'triclinic'
loop_
_space_group_symop_operation_xyz
x,y,z
-x,-y,-z
loop_
_atom_site_type_symbol
_atom_site_label
_atom_site_fract_x
_atom_site_fract_y
_atom_site_fract_z
Si Si1 0.581180 0.836902 0.306182
Si Si2 0.674410 0.409641 0.179096
Si Si3 0.175606 0.033324 0.159757
Si Si4 0.943889 0.902561 0.629515
Si Si5 0.616325 0.668967 0.588064
O O1 0.690444 0.680445 0.247408
O O2 0.510123 0.571505 0.397820
O O3 0.628321 0.161497 0.282337
O O4 0.355916 0.930621 0.164248
O O5 0.873365 0.296193 0.216255
O O6 0.500000 0.500000 0.000000
O O7 0.234985 0.319557 0.224698
O O8 0.132982 0.893423 0.302009
O O9 0.000000 0.000000 0.000000
O O10 0.766968 0.747117 0.530524
O O11 0.000000 0.000000 0.500000
O O12 0.500000 0.000000 0.500000
#
# Coordination Sequence:
#
# PCOD9044493 Si02
#       5
#     2   2   2   2   2
#     4  12  25  48  78 113 166 215 279 331 422 498
#     4  12  26  49  77 119 165 218 267 353 417 490
#     4  10  23  46  77 113 155 213 273 332 404 491
#     4  10  23  49  80 118 160 212 280 336 413 493
#     4  10  23  46  80 112 162 208 279 329 416 484
#
# _framework density 28.776537999999999
#
# number of rings (size 3 to 8) (size 9 to 14) (size 15 to 20)
#    1.200    0.000    2.000    3.600    0.000    2.400 
#    7.200    3.000    0.000    0.000    0.000    0.000 
#    0.000    0.000    0.000    0.000    0.000    0.000 
#
# Total GULP energy -55686.624171 kJ/mol
# GULP energy per Si atom -5568.662417 kJ/mol
# Density = 2.871104 g / cm^3
# Si number density = 28.776538 Si / 1000 Ang^3
#
#
#
# Elastic Constant Matrix: (Units=GPa)
#
#
# Indices 1 2 3 4 5 6 
#
# 1 226.5397 42.3965 41.6811 2.4454 44.0424 33.8232
# 2 42.3965 165.6473 54.8430 17.6273 11.2128 31.8062
# 3 41.6811 54.8430 142.5878 35.6363 35.0709 28.1455
# 4 2.4454 17.6273 35.6363 48.4934 6.7882 10.8971
# 5 44.0424 11.2128 35.0709 6.7882 57.9504 13.4309
# 6 33.8232 31.8062 28.1455 10.8971 13.4309 64.2778
#
#
#
# Elastic Compliance Matrix: (Units=1/GPa)
#
#
# Indices 1 2 3 4 5 6 
#
# 1 0.005596 -0.000846 -0.000372 0.001209 -0.003584 -0.001819
# 2 -0.000846 0.007455 -0.002293 -0.000615 0.001214 -0.002389
# 3 -0.000372 -0.002293 0.011057 -0.006267 -0.004901 -0.001424
# 4 0.001209 -0.000615 -0.006267 0.025788 0.000448 -0.002053
# 5 -0.003584 0.001214 -0.004901 0.000448 0.022995 -0.001449
# 6 -0.001819 -0.002389 -0.001424 -0.002053 -0.001449 0.018972
#
#
# Mechanical properties :
#
#
# Convention : Reuss Voigt Hill
#
# Bulk Modulus (GPa) = 58.52977 90.29067 74.41022
# Shear Modulus (GPa) = 47.81020 60.53461 54.17241
#
# Velocity S-wave (km/s) = 4.08049 4.59149 4.34351
# Velocity P-wave (km/s) = 6.52565 7.71710 7.14625
#
# Compressibility (1/GPa) = 0.01708532
#
# Stress axis : x y z
#
# Youngs Moduli (GPa) = 178.68438 134.14417 90.44136
#
# Poissons Ratio (x) = 0.11347 0.03365
# Poissons Ratio (y) = 0.15115 0.20742
# Poissons Ratio (z) = 0.06648 0.30764
#
# Static dielectric constant tensor:
#      x y z
#    x 2.207870 0.023700 -0.039370 
#    y 0.023700 2.183060 0.007960 
#    z -0.039370 0.007960 2.472720 
# 
# From -- ./inp_files/72662.got.cif
#   From: 2010.05.17/outbox.cif.g08.bks.cpg/sg2_37_cif.got.tgz:72662.got - 2010.06.03 11:33:40.
