data_PCOD9044728
_publ_section_title
;
Structure prediction by ZEFSAII (Michael W. Deem and Ramdas Pophale) SiO2 
 PCOD9044728
Probable space group: P -1
;
_chemical_formula_sum "Si O2"
_cell_formula_units_Z 16
_cell_length_a 24.736574
_cell_length_b 15.587781
_cell_length_c 16.681570
_cell_angle_alpha 153.489722
_cell_angle_beta 164.871079
_cell_angle_gamma 21.994054
_cell_volume 628.709873
_symmetry_space_group_name_H-M "P -1"
_symmetry_group_IT_number 2
_symmetry_cell_setting 'triclinic'
loop_
_space_group_symop_operation_xyz
x,y,z
-x,-y,-z
loop_
_atom_site_type_symbol
_atom_site_label
_atom_site_fract_x
_atom_site_fract_y
_atom_site_fract_z
Si Si1 0.857692 0.772995 0.266481
Si Si2 0.548411 0.561100 0.932345
Si Si3 0.332993 0.183032 0.792800
Si Si4 0.649037 0.240250 0.028504
Si Si5 0.234449 0.513692 0.331617
Si Si6 0.260748 0.980792 0.362389
Si Si7 0.780503 0.049907 0.893773
Si Si8 0.218299 0.620059 0.223273
O O1 0.083163 0.804656 0.606282
O O2 0.668008 0.597926 0.056691
O O3 0.611077 0.978980 0.043600
O O4 0.885984 0.540369 0.079895
O O5 0.480888 0.740852 0.057293
O O6 0.292138 0.604906 0.569481
O O7 0.708147 0.303540 0.978076
O O8 0.245811 0.118908 0.534775
O O9 0.063608 0.857477 0.154275
O O10 0.184237 0.228630 0.699312
O O11 0.664119 0.086492 0.846809
O O12 0.500000 0.500000 0.000000
O O13 0.488082 0.268774 0.474239
O O14 0.193812 0.658400 0.315186
O O15 0.000000 0.500000 0.000000
O O16 0.289638 0.035793 0.357040
O O17 0.000000 0.000000 0.000000
O O18 0.500000 0.500000 0.500000
#
# Coordination Sequence:
#
# PCOD9044728 Si02
#       8
#     2   2   2   2   2   2   2   2
#     4  11  25  45  72 109 144 186 248 302 372 426
#     4  10  24  47  73 109 146 193 243 301 369 437
#     4  11  25  45  77 109 143 191 249 310 362 437
#     4  10  23  47  72 102 152 189 236 299 372 443
#     4  11  24  45  70 109 150 189 244 305 367 441
#     4  11  23  46  73 103 146 194 249 300 365 444
#     4  10  25  44  71 101 146 190 238 295 361 437
#     4  12  25  45  74 103 144 198 243 298 367 438
#
# _framework density 25.448941000000001
#
# number of rings (size 3 to 8) (size 9 to 14) (size 15 to 20)
#    0.000    1.250    1.250    3.000    5.250    4.500 
#    0.000   15.000    0.000    0.000    0.000    0.000 
#    0.000    0.000    0.000    0.000    0.000    0.000 
#
# Total GULP energy -89560.869949 kJ/mol
# GULP energy per Si atom -5597.554372 kJ/mol
# Density = 2.539102 g / cm^3
# Si number density = 25.448941 Si / 1000 Ang^3
#
#
#
# Elastic Constant Matrix: (Units=GPa)
#
#
# Indices 1 2 3 4 5 6 
#
# 1 177.0690 49.2513 66.9806 -7.4607 -19.5401 0.2032
# 2 49.2513 67.1071 58.2263 -9.8675 -10.4304 3.3845
# 3 66.9806 58.2263 128.3539 -2.2841 -21.9600 0.2617
# 4 -7.4607 -9.8675 -2.2841 28.9486 -1.8716 -13.7514
# 5 -19.5401 -10.4304 -21.9600 -1.8716 47.5975 9.6856
# 6 0.2032 3.3845 0.2617 -13.7514 9.6856 49.4086
#
#
#
# Elastic Compliance Matrix: (Units=1/GPa)
#
#
# Indices 1 2 3 4 5 6 
#
# 1 0.007594 -0.003342 -0.002198 0.000812 0.001369 0.000167
# 2 -0.003342 0.027820 -0.010734 0.007954 0.000008 0.000377
# 3 -0.002198 -0.010734 0.014335 -0.003312 0.003417 -0.000923
# 4 0.000812 0.007954 -0.003312 0.042584 -0.000084 0.011338
# 5 0.001369 0.000008 0.003417 -0.000084 0.024118 -0.004776
# 6 0.000167 0.000377 -0.000923 0.011338 -0.004776 0.024309
#
#
# Mechanical properties :
#
#
# Convention : Reuss Voigt Hill
#
# Bulk Modulus (GPa) = 58.14042 80.16073 69.15058
# Shear Modulus (GPa) = 27.92655 38.39573 33.16114
#
# Velocity S-wave (km/s) = 3.31623 3.88846 3.61369
# Velocity P-wave (km/s) = 6.12851 7.19216 6.68154
#
# Compressibility (1/GPa) = 0.01719974
#
# Stress axis : x y z
#
# Youngs Moduli (GPa) = 131.68703 35.94599 69.75941
#
# Poissons Ratio (x) = 0.12013 0.15336
# Poissons Ratio (y) = 0.44010 0.74879
# Poissons Ratio (z) = 0.28950 0.38584
#
# Static dielectric constant tensor:
#      x y z
#    x 2.033400 -0.032070 0.021890 
#    y -0.032070 2.015120 0.042860 
#    z 0.021890 0.042860 2.015000 
# 
# From -- ./inp_files/397021.got.cif
#   From: 2010.05.17/outbox.cif.g08.bks.cpg/sg2_199_cif.got.tgz:397021.got - 2010.06.03 11:33:40.
