data_PCOD9044513
_publ_section_title
;
Structure prediction by ZEFSAII (Michael W. Deem and Ramdas Pophale) SiO2 
 PCOD9044513
Probable space group: P -1
;
_chemical_formula_sum "Si O2"
_cell_formula_units_Z 10
_cell_length_a 10.883448
_cell_length_b 7.032594
_cell_length_c 9.036877
_cell_angle_alpha 65.292802
_cell_angle_beta 119.609912
_cell_angle_gamma 141.875842
_cell_volume 370.698633
_symmetry_space_group_name_H-M "P -1"
_symmetry_group_IT_number 2
_symmetry_cell_setting 'triclinic'
loop_
_space_group_symop_operation_xyz
x,y,z
-x,-y,-z
loop_
_atom_site_type_symbol
_atom_site_label
_atom_site_fract_x
_atom_site_fract_y
_atom_site_fract_z
Si Si1 0.720548 0.676168 0.505044
Si Si2 0.672773 0.195383 0.168139
Si Si3 0.488417 0.330642 0.191090
Si Si4 0.947482 0.084052 0.765614
Si Si5 0.990139 0.290647 0.169535
O O1 0.500000 0.500000 0.500000
O O2 0.666719 0.582402 0.333325
O O3 0.809253 0.554712 0.664773
O O4 0.881436 0.011711 0.574345
O O5 0.532482 0.138467 0.233905
O O6 0.800535 0.127479 0.222100
O O7 0.869555 0.567194 0.185474
O O8 0.500000 0.000000 0.000000
O O9 0.268464 0.113749 0.213196
O O10 0.500000 0.500000 0.000000
O O11 0.977785 0.074682 0.127026
O O12 0.000000 0.500000 0.000000
#
# Coordination Sequence:
#
# PCOD9044513 Si02
#       5
#     2   2   2   2   2
#     4   8  20  48  77 113 160 209 259 329 401 484
#     4  12  29  44  75 121 156 212 276 326 394 479
#     4  11  24  45  81 115 155 214 257 328 412 476
#     4   9  24  51  75 109 167 208 262 332 397 477
#     4  10  23  46  79 114 155 209 261 322 406 479
#
# _framework density 26.976091
#
# number of rings (size 3 to 8) (size 9 to 14) (size 15 to 20)
#    1.200    0.800    0.000    1.200    5.600    3.200 
#    0.000    6.000    0.000    0.000    0.000    0.000 
#    0.000    0.000    0.000    0.000    0.000    0.000 
#
# Total GULP energy -55789.876162 kJ/mol
# GULP energy per Si atom -5578.987616 kJ/mol
# Density = 2.691469 g / cm^3
# Si number density = 26.976091 Si / 1000 Ang^3
#
#
#
# Elastic Constant Matrix: (Units=GPa)
#
#
# Indices 1 2 3 4 5 6 
#
# 1 283.2742 67.5718 60.0528 18.9278 11.6621 2.7766
# 2 67.5718 147.1782 77.6447 53.8508 -2.7897 -1.7253
# 3 60.0528 77.6447 240.0456 43.3336 -2.2984 10.9829
# 4 18.9278 53.8508 43.3336 54.0726 -2.8450 -8.0641
# 5 11.6621 -2.7897 -2.2984 -2.8450 62.3635 18.9850
# 6 2.7766 -1.7253 10.9829 -8.0641 18.9850 42.5251
#
#
#
# Elastic Compliance Matrix: (Units=1/GPa)
#
#
# Indices 1 2 3 4 5 6 
#
# 1 0.004089 -0.001935 -0.000605 0.000994 -0.000958 0.000427
# 2 -0.001935 0.012354 -0.001540 -0.010548 0.000779 -0.001323
# 3 -0.000605 -0.001540 0.005462 -0.002941 0.000831 -0.002362
# 4 0.000994 -0.010548 -0.002941 0.031971 -0.001429 0.006967
# 5 -0.000958 0.000779 0.000831 -0.001429 0.018903 -0.008830
# 6 0.000427 -0.001323 -0.002362 0.006967 -0.008830 0.029307
#
#
# Mechanical properties :
#
#
# Convention : Reuss Voigt Hill
#
# Bulk Modulus (GPa) = 72.75153 120.11517 96.43335
# Shear Modulus (GPa) = 43.54368 62.80748 53.17558
#
# Velocity S-wave (km/s) = 4.02202 4.83044 4.44465
# Velocity P-wave (km/s) = 6.97110 8.70253 7.88449
#
# Compressibility (1/GPa) = 0.01374542
#
# Stress axis : x y z
#
# Youngs Moduli (GPa) = 244.56954 80.94694 183.07588
#
# Poissons Ratio (x) = 0.15661 0.11080
# Poissons Ratio (y) = 0.47318 0.28189
# Poissons Ratio (z) = 0.14802 0.12464
#
# Static dielectric constant tensor:
#      x y z
#    x 2.071780 0.064190 -0.092130 
#    y 0.064190 2.023770 0.071650 
#    z -0.092130 0.071650 1.976280 
# 
# From -- ./inp_files/243684.got.cif
#   From: 2010.05.17/outbox.cif.g08.bks.cpg/sg2_122_cif.got.tgz:243684.got - 2010.06.03 11:33:40.
