data_PCOD9044620
_publ_section_title
;
Structure prediction by ZEFSAII (Michael W. Deem and Ramdas Pophale) SiO2 
 PCOD9044620
Probable space group: P -1
;
_chemical_formula_sum "Si O2"
_cell_formula_units_Z 10
_cell_length_a 13.533535
_cell_length_b 11.151633
_cell_length_c 14.125037
_cell_angle_alpha 31.274271
_cell_angle_beta 150.153678
_cell_angle_gamma 158.695178
_cell_volume 372.443452
_symmetry_space_group_name_H-M "P -1"
_symmetry_group_IT_number 2
_symmetry_cell_setting 'triclinic'
loop_
_space_group_symop_operation_xyz
x,y,z
-x,-y,-z
loop_
_atom_site_type_symbol
_atom_site_label
_atom_site_fract_x
_atom_site_fract_y
_atom_site_fract_z
Si Si1 0.401106 0.448288 0.062223
Si Si2 0.720012 0.364173 0.984294
Si Si3 0.853508 0.636313 0.581222
Si Si4 0.930078 0.214449 0.696526
Si Si5 0.840778 0.916972 0.638222
O O1 0.381364 0.163550 0.274818
O O2 0.500000 0.500000 0.000000
O O3 0.452381 0.643226 0.069443
O O4 0.104498 0.331353 0.859448
O O5 0.995527 0.456603 0.186933
O O6 0.822700 0.627859 0.809640
O O7 0.500000 0.000000 0.000000
O O8 0.501937 0.311767 0.507197
O O9 0.000000 0.000000 0.500000
O O10 0.967454 0.761268 0.485530
O O11 0.000000 0.500000 0.500000
O O12 0.989246 0.071384 0.760675
#
# Coordination Sequence:
#
# PCOD9044620 Si02
#       5
#     2   2   2   2   2
#     4  10  24  47  72 109 150 196 261 315 379 469
#     4  11  25  48  76 111 152 205 250 322 388 453
#     4  12  26  48  74 113 153 199 261 314 383 471
#     4  10  23  47  69 106 146 198 249 313 384 450
#     4  11  27  48  75 111 154 199 259 317 388 459
#
# _framework density 26.849715
#
# number of rings (size 3 to 8) (size 9 to 14) (size 15 to 20)
#    0.000    1.200    2.000    1.800    5.600    3.200 
#   21.600    0.000    0.000    0.000    0.000    0.000 
#    0.000    0.000    0.000    0.000    0.000    0.000 
#
# Total GULP energy -55698.504889 kJ/mol
# GULP energy per Si atom -5569.850489 kJ/mol
# Density = 2.678860 g / cm^3
# Si number density = 26.849715 Si / 1000 Ang^3
#
#
#
# Elastic Constant Matrix: (Units=GPa)
#
#
# Indices 1 2 3 4 5 6 
#
# 1 113.4508 36.1266 16.0736 -0.8202 -2.1624 2.1159
# 2 36.1266 97.8909 45.0531 4.1823 -0.3833 -13.5455
# 3 16.0736 45.0531 194.7299 -13.3835 -1.3337 23.3428
# 4 -0.8202 4.1823 -13.3835 64.0863 2.1751 -7.9350
# 5 -2.1624 -0.3833 -1.3337 2.1751 38.9979 -7.8331
# 6 2.1159 -13.5455 23.3428 -7.9350 -7.8331 39.0450
#
#
#
# Elastic Compliance Matrix: (Units=1/GPa)
#
#
# Indices 1 2 3 4 5 6 
#
# 1 0.010156 -0.004263 0.000431 0.000220 0.000076 -0.002227
# 2 -0.004263 0.014802 -0.004074 -0.000942 0.001408 0.007893
# 3 0.000431 -0.004074 0.006761 0.001040 -0.000939 -0.005456
# 4 0.000220 -0.000942 0.001040 0.016177 -0.000413 0.002245
# 5 0.000076 0.001408 -0.000939 -0.000413 0.026930 0.006364
# 6 -0.002227 0.007893 -0.005456 0.002245 0.006364 0.033465
#
#
# Mechanical properties :
#
#
# Convention : Reuss Voigt Hill
#
# Bulk Modulus (GPa) = 62.87114 66.73091 64.80102
# Shear Modulus (GPa) = 38.63833 49.01372 43.82603
#
# Velocity S-wave (km/s) = 3.79761 4.27720 4.04452
# Velocity P-wave (km/s) = 6.53421 7.02140 6.78218
#
# Compressibility (1/GPa) = 0.01590555
#
# Stress axis : x y z
#
# Youngs Moduli (GPa) = 98.46828 67.56013 147.89977
#
# Poissons Ratio (x) = 0.28803 -0.06370
# Poissons Ratio (y) = 0.41981 0.60252
# Poissons Ratio (z) = -0.04241 0.27523
#
# Static dielectric constant tensor:
#      x y z
#    x 2.857950 0.153710 -0.190770 
#    y 0.153710 2.451020 0.095690 
#    z -0.190770 0.095690 2.275670 
# 
# From -- ./inp_files/91574.got.cif
#   From: 2010.05.17/outbox.cif.g08.bks.cpg/sg2_46_cif.got.tgz:91574.got - 2010.06.03 11:33:40.
