data_PCOD9044122
_publ_section_title
;
Structure prediction by ZEFSAII (Michael W. Deem and Ramdas Pophale) SiO2 
 PCOD9044122
Probable space group: P -1
;
_chemical_formula_sum "Si O2"
_cell_formula_units_Z 16
_cell_length_a 20.497062
_cell_length_b 11.428988
_cell_length_c 12.222250
_cell_angle_alpha 141.254855
_cell_angle_beta 28.045978
_cell_angle_gamma 152.146534
_cell_volume 628.967036
_symmetry_space_group_name_H-M "P -1"
_symmetry_group_IT_number 2
_symmetry_cell_setting 'triclinic'
loop_
_space_group_symop_operation_xyz
x,y,z
-x,-y,-z
loop_
_atom_site_type_symbol
_atom_site_label
_atom_site_fract_x
_atom_site_fract_y
_atom_site_fract_z
Si Si1 0.215338 0.153342 0.259492
Si Si2 0.401066 0.697061 0.608374
Si Si3 0.707967 0.783177 0.569541
Si Si4 0.991822 0.392179 0.313801
Si Si5 0.826528 0.230033 0.108059
Si Si6 0.586509 0.234925 0.119100
Si Si7 0.198741 0.070746 0.872445
Si Si8 0.120643 0.319367 0.333689
O O1 0.335804 0.254506 0.263790
O O2 0.223841 0.963894 0.051250
O O3 0.000000 0.000000 0.500000
O O4 0.245061 0.331999 0.251579
O O5 0.255721 0.402810 0.641326
O O6 0.333341 0.757986 0.651750
O O7 0.431939 0.830221 0.773776
O O8 0.586929 0.759211 0.347199
O O9 0.545681 0.709775 0.677451
O O10 0.898698 0.071171 0.488117
O O11 0.869252 0.451523 0.487622
O O12 0.000000 0.500000 0.500000
O O13 0.900328 0.108415 0.218663
O O14 0.197921 0.559632 0.081872
O O15 0.850998 0.127557 0.104657
O O16 0.000000 0.500000 0.000000
O O17 0.500000 0.000000 0.000000
O O18 0.168991 0.250923 0.099488
#
# Coordination Sequence:
#
# PCOD9044122 Si02
#       8
#     2   2   2   2   2   2   2   2
#     4   9  20  38  67 102 127 168 226 286 337 409
#     4  12  26  43  68 103 139 186 225 295 349 412
#     4  11  23  42  70  98 136 178 239 287 346 415
#     4  12  27  45  73 101 140 187 231 290 354 421
#     4  11  22  42  72 101 136 183 232 283 350 413
#     4  12  24  45  69 100 136 181 240 286 346 423
#     4  11  27  46  67 103 148 179 232 290 351 418
#     4  10  23  46  70 104 133 183 236 284 355 411
#
# _framework density 25.438535000000002
#
# number of rings (size 3 to 8) (size 9 to 14) (size 15 to 20)
#    0.000    1.000    1.250    6.000    8.750    0.500 
#    0.000    1.250    0.000    0.000    0.000    0.000 
#    0.000    0.000    0.000    0.000    0.000    0.000 
#
# Total GULP energy -89423.025097 kJ/mol
# GULP energy per Si atom -5588.939069 kJ/mol
# Density = 2.538064 g / cm^3
# Si number density = 25.438535 Si / 1000 Ang^3
#
#
#
# Elastic Constant Matrix: (Units=GPa)
#
#
# Indices 1 2 3 4 5 6 
#
# 1 96.8774 -13.7732 12.6341 -3.4981 3.1320 0.4334
# 2 -13.7732 50.2371 13.9158 11.8837 4.3408 7.0907
# 3 12.6341 13.9158 107.1084 5.7297 3.0264 7.4858
# 4 -3.4981 11.8837 5.7297 44.5654 1.0301 3.2848
# 5 3.1320 4.3408 3.0264 1.0301 42.0141 11.5596
# 6 0.4334 7.0907 7.4858 3.2848 11.5596 30.3816
#
#
#
# Elastic Compliance Matrix: (Units=1/GPa)
#
#
# Indices 1 2 3 4 5 6 
#
# 1 0.011102 0.003602 -0.001744 0.000173 -0.001024 -0.000199
# 2 0.003602 0.023605 -0.002906 -0.005330 -0.001333 -0.003761
# 3 -0.001744 -0.002906 0.010068 -0.000528 0.000214 -0.001802
# 4 0.000173 -0.005330 -0.000528 0.024034 0.000362 -0.001365
# 5 -0.001024 -0.001333 0.000214 0.000362 0.026725 -0.009934
# 6 -0.000199 -0.003761 -0.001802 -0.001365 -0.009934 0.038167
#
#
# Mechanical properties :
#
#
# Convention : Reuss Voigt Hill
#
# Bulk Modulus (GPa) = 23.43042 31.08625 27.25834
# Shear Modulus (GPa) = 33.32837 39.48862 36.40850
#
# Velocity S-wave (km/s) = 3.62353 3.94422 3.78727
# Velocity P-wave (km/s) = 5.17081 5.74362 5.46472
#
# Compressibility (1/GPa) = 0.04267956
#
# Stress axis : x y z
#
# Youngs Moduli (GPa) = 90.07233 42.36369 99.32676
#
# Poissons Ratio (x) = -0.15261 0.17323
# Poissons Ratio (y) = -0.32448 0.28865
# Poissons Ratio (z) = 0.15709 0.12311
#
# Static dielectric constant tensor:
#      x y z
#    x 2.253390 -0.039170 -0.068740 
#    y -0.039170 2.087220 -0.017000 
#    z -0.068740 -0.017000 2.021870 
# 
# From -- ./inp_files/427426.got.cif
#   From: 2010.05.17/outbox.cif.g08.bks.cpg/sg2_214_cif.got.tgz:427426.got - 2010.06.03 11:33:40.
