data_PCOD9044210
_publ_section_title
;
Structure prediction by ZEFSAII (Michael W. Deem and Ramdas Pophale) SiO2 
 PCOD9044210
Probable space group: P -1
;
_chemical_formula_sum "Si O2"
_cell_formula_units_Z 14
_cell_length_a 12.444234
_cell_length_b 11.905713
_cell_length_c 9.491896
_cell_angle_alpha 96.747855
_cell_angle_beta 144.182312
_cell_angle_gamma 57.266724
_cell_volume 524.897773
_symmetry_space_group_name_H-M "P -1"
_symmetry_group_IT_number 2
_symmetry_cell_setting 'triclinic'
loop_
_space_group_symop_operation_xyz
x,y,z
-x,-y,-z
loop_
_atom_site_type_symbol
_atom_site_label
_atom_site_fract_x
_atom_site_fract_y
_atom_site_fract_z
Si Si1 0.838324 0.963720 0.217990
Si Si2 0.581551 0.697967 0.998864
Si Si3 0.362265 0.087411 0.521689
Si Si4 0.424295 0.429675 0.592346
Si Si5 0.778715 0.491537 0.915678
Si Si6 0.000325 0.962805 0.832312
Si Si7 0.914072 0.370135 0.461587
O O1 0.987820 0.804316 0.457257
O O2 0.045084 0.915264 0.308533
O O3 0.597976 0.012591 0.875313
O O4 0.692648 0.125978 0.185775
O O5 0.665413 0.533590 0.121158
O O6 0.791614 0.955151 0.598031
O O7 0.652450 0.649399 0.902422
O O8 0.500000 0.000000 0.500000
O O9 0.816292 0.679344 0.294806
O O10 0.588750 0.468735 0.739234
O O11 0.274446 0.457163 0.296008
O O12 0.193850 0.555205 0.485431
O O13 0.673670 0.228752 0.877734
O O14 0.105664 0.300838 0.266951
O O15 0.000000 0.000000 0.000000
#
# Coordination Sequence:
#
# PCOD9044210 Si02
#       7
#     2   2   2   2   2   2   2
#     4  12  25  48  74 107 151 192 244 303 359 441
#     4  11  25  48  70 107 147 194 240 293 375 439
#     4  11  22  42  72 111 147 189 243 307 359 425
#     4  10  23  46  71 105 144 181 247 308 350 433
#     4  10  24  43  74 105 139 192 240 299 370 425
#     4  11  24  43  72 110 151 190 242 305 367 424
#     4  11  24  45  76 101 145 193 237 304 362 427
#
# _framework density 26.671859999999999
#
# number of rings (size 3 to 8) (size 9 to 14) (size 15 to 20)
#    0.000    1.143    2.857    3.000    4.000    2.286 
#    2.571    2.143    0.000    0.000    0.000    0.000 
#    0.000    0.000    0.000    0.000    0.000    0.000 
#
# Total GULP energy -78596.859903 kJ/mol
# GULP energy per Si atom -5614.061422 kJ/mol
# Density = 2.661115 g / cm^3
# Si number density = 26.671860 Si / 1000 Ang^3
#
#
#
# Elastic Constant Matrix: (Units=GPa)
#
#
# Indices 1 2 3 4 5 6 
#
# 1 127.4639 41.2135 34.8450 -7.3927 4.7335 -5.7065
# 2 41.2135 144.0294 56.5640 -8.4277 -4.7772 -24.1055
# 3 34.8450 56.5640 103.9525 6.7609 1.8985 -6.1733
# 4 -7.3927 -8.4277 6.7609 59.7365 -7.4547 -3.5520
# 5 4.7335 -4.7772 1.8985 -7.4547 52.3470 3.0130
# 6 -5.7065 -24.1055 -6.1733 -3.5520 3.0130 60.9712
#
#
#
# Elastic Compliance Matrix: (Units=1/GPa)
#
#
# Indices 1 2 3 4 5 6 
#
# 1 0.009079 -0.001701 -0.002168 0.001038 -0.000753 0.000055
# 2 -0.001701 0.010083 -0.004879 0.002136 0.001360 0.003391
# 3 -0.002168 -0.004879 0.013138 -0.002628 -0.001048 -0.000903
# 4 0.001038 0.002136 -0.002628 0.017893 0.002653 0.001587
# 5 -0.000753 0.001360 -0.001048 0.002653 0.019738 -0.000460
# 6 0.000055 0.003391 -0.000903 0.001587 -0.000460 0.017771
#
#
# Mechanical properties :
#
#
# Convention : Reuss Voigt Hill
#
# Bulk Modulus (GPa) = 67.55128 71.18785 69.36957
# Shear Modulus (GPa) = 45.40016 50.79916 48.09966
#
# Velocity S-wave (km/s) = 4.13022 4.36890 4.25124
# Velocity P-wave (km/s) = 6.93734 7.22482 7.08254
#
# Compressibility (1/GPa) = 0.01480357
#
# Stress axis : x y z
#
# Youngs Moduli (GPa) = 110.14693 99.17248 76.11746
#
# Poissons Ratio (x) = 0.16874 0.16501
# Poissons Ratio (y) = 0.18741 0.37136
# Poissons Ratio (z) = 0.23879 0.48384
#
# Static dielectric constant tensor:
#      x y z
#    x 2.076660 0.048840 0.065780 
#    y 0.048840 2.030900 -0.014910 
#    z 0.065780 -0.014910 2.239360 
# 
# From -- ./inp_files/334974.got.cif
#   From: 2010.05.17/outbox.cif.g08.bks.cpg/sg2_168_cif.got.tgz:334974.got - 2010.06.03 11:33:40.
