data_PCOD9044193
_publ_section_title
;
Structure prediction by ZEFSAII (Michael W. Deem and Ramdas Pophale) SiO2 
 PCOD9044193
Probable space group: P -1
;
_chemical_formula_sum "Si O2"
_cell_formula_units_Z 12
_cell_length_a 12.238680
_cell_length_b 5.411070
_cell_length_c 15.333939
_cell_angle_alpha 112.185447
_cell_angle_beta 139.266709
_cell_angle_gamma 92.727960
_cell_volume 511.503110
_symmetry_space_group_name_H-M "P -1"
_symmetry_group_IT_number 2
_symmetry_cell_setting 'triclinic'
loop_
_space_group_symop_operation_xyz
x,y,z
-x,-y,-z
loop_
_atom_site_type_symbol
_atom_site_label
_atom_site_fract_x
_atom_site_fract_y
_atom_site_fract_z
Si Si1 0.726033 0.556618 0.480669
Si Si2 0.320994 0.848713 0.441074
Si Si3 0.584398 0.542789 0.843095
Si Si4 0.113732 0.377668 0.107096
Si Si5 0.499418 0.214395 0.914614
Si Si6 0.187140 0.851407 0.820069
O O1 0.630793 0.299915 0.467599
O O2 0.582750 0.405043 0.289568
O O3 0.954595 0.654425 0.629493
O O4 0.733950 0.888691 0.541884
O O5 0.149052 0.536289 0.243919
O O6 0.500000 0.000000 0.500000
O O7 0.690952 0.514768 0.819275
O O8 0.475637 0.240616 0.801315
O O9 0.747737 0.829640 0.042052
O O10 0.000000 0.500000 0.000000
O O11 0.000000 0.000000 0.000000
O O12 0.318452 0.925462 0.821637
O O13 0.500000 0.500000 0.000000
O O14 0.718175 0.286538 0.077335
#
# Coordination Sequence:
#
# PCOD9044193 Si02
#       6
#     2   2   2   2   2   2
#     4  12  28  44  76 106 144 193 237 295 355 426
#     4  12  26  48  66 105 152 186 235 296 349 414
#     4  11  25  43  71 103 139 187 242 286 357 427
#     4  12  27  43  72 104 143 193 240 289 351 424
#     4   9  22  45  71 100 138 181 232 302 358 428
#     4  10  23  46  71 102 141 181 236 300 363 418
#
# _framework density 23.460269
#
# number of rings (size 3 to 8) (size 9 to 14) (size 15 to 20)
#    0.000    1.000    1.667    3.500   14.000    0.667 
#    0.000    7.500    0.000    0.000    0.000    0.000 
#    0.000    0.000    0.000    0.000    0.000    0.000 
#
# Total GULP energy -67034.270663 kJ/mol
# GULP energy per Si atom -5586.189222 kJ/mol
# Density = 2.340687 g / cm^3
# Si number density = 23.460269 Si / 1000 Ang^3
#
#
#
# Elastic Constant Matrix: (Units=GPa)
#
#
# Indices 1 2 3 4 5 6 
#
# 1 109.0308 36.4557 34.0686 -13.6818 3.7623 13.0281
# 2 36.4557 151.8404 23.5344 -27.8338 -3.9836 21.1815
# 3 34.0686 23.5344 93.5915 -27.4450 19.9106 29.2455
# 4 -13.6818 -27.8338 -27.4450 48.9595 -8.8333 -15.2788
# 5 3.7623 -3.9836 19.9106 -8.8333 45.3197 -7.8985
# 6 13.0281 21.1815 29.2455 -15.2788 -7.8985 44.3078
#
#
#
# Elastic Compliance Matrix: (Units=1/GPa)
#
#
# Indices 1 2 3 4 5 6 
#
# 1 0.010965 -0.002087 -0.003684 0.000016 0.000583 0.000315
# 2 -0.002087 0.008032 0.000136 0.003714 0.001227 -0.001816
# 3 -0.003684 0.000136 0.018802 0.004352 -0.009101 -0.011513
# 4 0.000016 0.003714 0.004352 0.027635 0.004798 0.005732
# 5 0.000583 0.001227 -0.009101 0.004798 0.029168 0.012103
# 6 0.000315 -0.001816 -0.011513 0.005732 0.012103 0.035079
#
#
# Mechanical properties :
#
#
# Convention : Reuss Voigt Hill
#
# Bulk Modulus (GPa) = 37.69763 60.28666 48.99215
# Shear Modulus (GPa) = 33.37883 45.07767 39.22825
#
# Velocity S-wave (km/s) = 3.77607 4.38819 4.09359
# Velocity P-wave (km/s) = 5.92581 7.17133 6.57812
#
# Compressibility (1/GPa) = 0.02652686
#
# Stress axis : x y z
#
# Youngs Moduli (GPa) = 91.19821 124.49696 53.18634
#
# Poissons Ratio (x) = 0.25987 0.19596
# Poissons Ratio (y) = 0.19036 -0.00721
# Poissons Ratio (z) = 0.33601 -0.01687
#
# Static dielectric constant tensor:
#      x y z
#    x 1.890190 0.024870 -0.006180 
#    y 0.024870 2.016650 0.102840 
#    z -0.006180 0.102840 1.960420 
# 
# From -- ./inp_files/29105.got.cif
#   From: 2010.05.17/outbox.cif.g08.bks.cpg/sg2_15_cif.got.tgz:29105.got - 2010.06.03 11:33:40.
