data_PCOD9044443
_publ_section_title
;
Structure prediction by ZEFSAII (Michael W. Deem and Ramdas Pophale) SiO2 
 PCOD9044443
Probable space group: P -1
;
_chemical_formula_sum "Si O2"
_cell_formula_units_Z 14
_cell_length_a 13.954182
_cell_length_b 8.036335
_cell_length_c 7.584447
_cell_angle_alpha 101.812709
_cell_angle_beta 108.700729
_cell_angle_gamma 124.892746
_cell_volume 572.426172
_symmetry_space_group_name_H-M "P -1"
_symmetry_group_IT_number 2
_symmetry_cell_setting 'triclinic'
loop_
_space_group_symop_operation_xyz
x,y,z
-x,-y,-z
loop_
_atom_site_type_symbol
_atom_site_label
_atom_site_fract_x
_atom_site_fract_y
_atom_site_fract_z
Si Si1 0.103542 0.762683 0.318182
Si Si2 0.571581 0.745289 0.693100
Si Si3 0.156770 0.107746 0.129152
Si Si4 0.574647 0.408014 0.065226
Si Si5 0.106592 0.281086 0.609629
Si Si6 0.200873 0.517792 0.339284
Si Si7 0.608917 0.977511 0.400144
O O1 0.112288 0.574612 0.219798
O O2 0.961827 0.644079 0.306237
O O3 0.131168 0.948649 0.241616
O O4 0.242924 0.932321 0.560629
O O5 0.500000 0.500000 0.500000
O O6 0.723577 0.865789 0.889587
O O7 0.479713 0.694236 0.792846
O O8 0.596229 0.898582 0.575886
O O9 0.229475 0.376713 0.227681
O O10 0.000000 0.000000 0.000000
O O11 0.741571 0.598984 0.208475
O O12 0.500000 0.500000 0.000000
O O13 0.515578 0.211991 0.841277
O O14 0.125546 0.368621 0.440580
O O15 0.000000 0.000000 0.500000
O O16 0.346549 0.776991 0.515313
#
# Coordination Sequence:
#
# PCOD9044443 Si02
#       7
#     2   2   2   2   2   2   2
#     4   9  22  44  71 103 147 193 242 312 377 428
#     4  11  23  46  72 106 153 195 241 315 373 442
#     4  11  24  43  75 106 143 203 251 295 388 453
#     4  12  25  42  78 112 147 199 257 303 374 467
#     4  12  23  42  74 106 145 197 250 310 378 441
#     4  10  23  46  75 104 151 192 249 318 374 445
#     4   9  23  47  73 105 149 194 244 309 385 429
#
# _framework density 24.457301999999999
#
# number of rings (size 3 to 8) (size 9 to 14) (size 15 to 20)
#    0.857    0.571    2.857    2.143    2.000    2.286 
#    0.000    2.857    0.000    0.000    0.000    0.000 
#    0.000    0.000    0.000    0.000    0.000    0.000 
#
# Total GULP energy -78031.720752 kJ/mol
# GULP energy per Si atom -5573.694339 kJ/mol
# Density = 2.440164 g / cm^3
# Si number density = 24.457302 Si / 1000 Ang^3
#
#
#
# Elastic Constant Matrix: (Units=GPa)
#
#
# Indices 1 2 3 4 5 6 
#
# 1 146.1838 43.6843 48.6435 -0.4008 43.3591 10.6479
# 2 43.6843 159.9288 57.8949 3.8782 3.7541 -15.4310
# 3 48.6435 57.8949 101.3873 9.1089 28.8501 -1.0706
# 4 -0.4008 3.8782 9.1089 39.4796 3.8447 7.5124
# 5 43.3591 3.7541 28.8501 3.8447 48.5514 6.4486
# 6 10.6479 -15.4310 -1.0706 7.5124 6.4486 51.9404
#
#
#
# Elastic Compliance Matrix: (Units=1/GPa)
#
#
# Indices 1 2 3 4 5 6 
#
# 1 0.010722 -0.002413 -0.001603 0.001942 -0.008298 -0.002199
# 2 -0.002413 0.008900 -0.005021 -0.000642 0.004154 0.002612
# 3 -0.001603 -0.005021 0.015856 -0.002542 -0.007462 0.000458
# 4 0.001942 -0.000642 -0.002542 0.026992 -0.001737 -0.004330
# 5 -0.008298 0.004154 -0.007462 -0.001737 0.032389 -0.000988
# 6 -0.002199 0.002612 0.000458 -0.004330 -0.000988 0.021238
#
#
# Mechanical properties :
#
#
# Convention : Reuss Voigt Hill
#
# Bulk Modulus (GPa) = 57.45914 78.66060 68.05987
# Shear Modulus (GPa) = 35.72185 45.14608 40.43396
#
# Velocity S-wave (km/s) = 3.82590 4.30107 4.07043
# Velocity P-wave (km/s) = 6.56211 7.54307 7.06963
#
# Compressibility (1/GPa) = 0.01740367
#
# Stress axis : x y z
#
# Youngs Moduli (GPa) = 93.26821 112.36432 63.06850
#
# Poissons Ratio (x) = 0.27112 0.10108
# Poissons Ratio (y) = 0.22504 0.31667
# Poissons Ratio (z) = 0.14948 0.56420
#
# Static dielectric constant tensor:
#      x y z
#    x 2.041520 -0.006690 0.084910 
#    y -0.006690 1.985310 0.007260 
#    z 0.084910 0.007260 2.076960 
# 
# From -- ./inp_files/298896.got.cif
#   From: 2010.05.17/outbox.cif.g08.bks.cpg/sg2_150_cif.got.tgz:298896.got - 2010.06.03 11:33:40.
