data_PCOD9044131
_publ_section_title
;
Structure prediction by ZEFSAII (Michael W. Deem and Ramdas Pophale) SiO2 
 PCOD9044131
Probable space group: P -1
;
_chemical_formula_sum "Si O2"
_cell_formula_units_Z 16
_cell_length_a 5.461947
_cell_length_b 22.179127
_cell_length_c 16.534758
_cell_angle_alpha 20.157118
_cell_angle_beta 81.954916
_cell_angle_gamma 73.843724
_cell_volume 616.882097
_symmetry_space_group_name_H-M "P -1"
_symmetry_group_IT_number 2
_symmetry_cell_setting 'triclinic'
loop_
_space_group_symop_operation_xyz
x,y,z
-x,-y,-z
loop_
_atom_site_type_symbol
_atom_site_label
_atom_site_fract_x
_atom_site_fract_y
_atom_site_fract_z
Si Si1 0.129925 0.197466 0.443204
Si Si2 0.897256 0.415198 0.868989
Si Si3 0.729199 0.832513 0.145211
Si Si4 0.497379 0.587262 0.801855
Si Si5 0.639948 0.474321 0.651814
Si Si6 0.180538 0.120147 0.354149
Si Si7 0.056371 0.750812 0.384740
Si Si8 0.367268 0.900932 0.934832
O O1 0.300603 0.310551 0.324189
O O2 0.102749 0.217290 0.323096
O O3 0.811875 0.282767 0.375470
O O4 0.307645 0.988070 0.737744
O O5 0.645128 0.440263 0.907676
O O6 0.866536 0.348745 0.865018
O O7 0.924165 0.612728 0.599468
O O8 0.140278 0.263333 0.101226
O O9 0.722069 0.623896 0.413197
O O10 0.991337 0.792236 0.239833
O O11 0.625715 0.902524 0.970816
O O12 0.500000 0.000000 0.000000
O O13 0.500000 0.500000 0.000000
O O14 0.379930 0.619783 0.533919
O O15 0.592598 0.318768 0.796499
O O16 0.500000 0.000000 0.500000
O O17 0.000000 0.000000 0.500000
O O18 0.903146 0.949295 0.191872
#
# Coordination Sequence:
#
# PCOD9044131 Si02
#       8
#     2   2   2   2   2   2   2   2
#     4  12  26  45  70 110 144 197 252 304 377 443
#     4  11  25  44  71  99 148 185 249 307 370 446
#     4   9  22  45  69 105 144 184 242 301 370 444
#     4  12  25  46  74 104 144 196 254 312 372 439
#     4  11  24  44  74 104 139 196 239 303 375 442
#     4  12  28  45  69 103 150 196 248 314 375 440
#     4  10  23  46  70 105 139 189 241 301 374 440
#     4  11  23  45  69 104 149 183 250 305 366 449
#
# _framework density 25.936885
#
# number of rings (size 3 to 8) (size 9 to 14) (size 15 to 20)
#    0.000    1.000    2.500    3.000    3.500    2.500 
#    4.500    0.000    0.000    0.000    0.000    0.000 
#    0.000    0.000    0.000    0.000    0.000    0.000 
#
# Total GULP energy -89467.663951 kJ/mol
# GULP energy per Si atom -5591.728997 kJ/mol
# Density = 2.587785 g / cm^3
# Si number density = 25.936885 Si / 1000 Ang^3
#
#
#
# Elastic Constant Matrix: (Units=GPa)
#
#
# Indices 1 2 3 4 5 6 
#
# 1 105.0719 36.6694 36.9797 5.0297 15.4450 14.3347
# 2 36.6694 82.2413 40.8595 8.3939 5.9725 7.8021
# 3 36.9797 40.8595 128.2122 30.1332 13.2937 18.7439
# 4 5.0297 8.3939 30.1332 53.4297 13.6899 9.9914
# 5 15.4450 5.9725 13.2937 13.6899 49.9737 -5.4821
# 6 14.3347 7.8021 18.7439 9.9914 -5.4821 45.3215
#
#
#
# Elastic Compliance Matrix: (Units=1/GPa)
#
#
# Indices 1 2 3 4 5 6 
#
# 1 0.012609 -0.004308 -0.001876 0.002174 -0.003853 -0.003416
# 2 -0.004308 0.015972 -0.003930 -0.000082 0.000525 0.000320
# 3 -0.001876 -0.003930 0.011168 -0.004839 -0.000858 -0.002386
# 4 0.002174 -0.000082 -0.004839 0.023770 -0.006401 -0.004687
# 5 -0.003853 0.000525 -0.000858 -0.006401 0.023753 0.005767
# 6 -0.003416 0.000320 -0.002386 -0.004687 0.005767 0.025808
#
#
# Mechanical properties :
#
#
# Convention : Reuss Voigt Hill
#
# Bulk Modulus (GPa) = 51.22311 60.50471 55.86391
# Shear Modulus (GPa) = 35.76158 43.14611 39.45385
#
# Velocity S-wave (km/s) = 3.71724 4.08303 3.90442
# Velocity P-wave (km/s) = 6.18189 6.75326 6.47388
#
# Compressibility (1/GPa) = 0.01952244
#
# Stress axis : x y z
#
# Youngs Moduli (GPa) = 79.30540 62.60784 89.54266
#
# Poissons Ratio (x) = 0.26973 0.16797
# Poissons Ratio (y) = 0.34167 0.35186
# Poissons Ratio (z) = 0.14877 0.24602
#
# Static dielectric constant tensor:
#      x y z
#    x 2.208730 0.072850 -0.046630 
#    y 0.072850 2.248530 -0.049940 
#    z -0.046630 -0.049940 2.061150 
# 
# From -- ./inp_files/551209.got.cif
#   From: 2010.05.17/outbox.cif.g08.bks.cpg/sg2_276_cif.got.tgz:551209.got - 2010.06.03 11:33:40.
