data_PCOD9044185
_publ_section_title
;
Structure prediction by ZEFSAII (Michael W. Deem and Ramdas Pophale) SiO2 
 PCOD9044185
Probable space group: P -1
;
_chemical_formula_sum "Si O2"
_cell_formula_units_Z 12
_cell_length_a 8.195977
_cell_length_b 15.464183
_cell_length_c 15.161799
_cell_angle_alpha 153.197653
_cell_angle_beta 140.260204
_cell_angle_gamma 29.673154
_cell_volume 428.780407
_symmetry_space_group_name_H-M "P -1"
_symmetry_group_IT_number 2
_symmetry_cell_setting 'triclinic'
loop_
_space_group_symop_operation_xyz
x,y,z
-x,-y,-z
loop_
_atom_site_type_symbol
_atom_site_label
_atom_site_fract_x
_atom_site_fract_y
_atom_site_fract_z
Si Si1 0.528471 0.629740 0.899470
Si Si2 0.921233 0.058405 0.417990
Si Si3 0.215536 0.604039 0.595057
Si Si4 0.816895 0.977675 0.122384
Si Si5 0.267929 0.468451 0.762457
Si Si6 0.794515 0.697071 0.228130
O O1 0.213428 0.725905 0.796559
O O2 0.557983 0.423464 0.784274
O O3 0.838664 0.511057 0.852363
O O4 0.561311 0.783425 0.124634
O O5 0.543984 0.319449 0.487030
O O6 0.927385 0.903936 0.201657
O O7 0.182176 0.100607 0.540293
O O8 0.000000 0.000000 0.500000
O O9 0.243516 0.768620 0.688966
O O10 0.932362 0.595874 0.435562
O O11 0.500000 0.000000 0.000000
O O12 0.059394 0.762534 0.959177
O O13 0.304464 0.378343 0.796310
#
# Coordination Sequence:
#
# PCOD9044185 Si02
#       6
#     2   2   2   2   2   2
#     4  10  24  41  73 102 138 192 230 285 357 413
#     4  11  24  42  71 105 138 187 237 286 353 419
#     4  11  24  46  67 103 146 180 234 300 340 415
#     4  12  24  41  73 106 140 188 234 287 358 412
#     4  12  24  45  72 103 143 185 237 288 351 419
#     4  10  23  46  71 100 150 180 234 293 351 413
#
# _framework density 27.986355
#
# number of rings (size 3 to 8) (size 9 to 14) (size 15 to 20)
#    0.000    1.000    3.333    3.500    9.333    0.667 
#    0.000    4.167    0.000    0.000    0.000    0.000 
#    0.000    0.000    0.000    0.000    0.000    0.000 
#
# Total GULP energy -67094.211984 kJ/mol
# GULP energy per Si atom -5591.184332 kJ/mol
# Density = 2.792266 g / cm^3
# Si number density = 27.986355 Si / 1000 Ang^3
#
#
#
# Elastic Constant Matrix: (Units=GPa)
#
#
# Indices 1 2 3 4 5 6 
#
# 1 153.6682 51.1261 40.8283 3.2823 -6.7590 21.0224
# 2 51.1261 141.1713 55.9413 -42.7201 -10.6249 25.9588
# 3 40.8283 55.9413 193.8442 -48.3949 -14.1253 0.1537
# 4 3.2823 -42.7201 -48.3949 58.2392 15.0358 -2.5732
# 5 -6.7590 -10.6249 -14.1253 15.0358 61.1511 -1.8353
# 6 21.0224 25.9588 0.1537 -2.5732 -1.8353 46.0261
#
#
#
# Elastic Compliance Matrix: (Units=1/GPa)
#
#
# Indices 1 2 3 4 5 6 
#
# 1 0.008617 -0.003326 -0.002019 -0.004979 0.001064 -0.002289
# 2 -0.003326 0.011902 -0.000709 0.008285 -0.000643 -0.004753
# 3 -0.002019 -0.000709 0.007196 0.005652 -0.000025 0.001613
# 4 -0.004979 0.008285 0.005652 0.029495 -0.005087 -0.000971
# 5 0.001064 -0.000643 -0.000025 -0.005087 0.017613 0.000295
# 6 -0.002289 -0.004753 0.001613 -0.000971 0.000295 0.025405
#
#
# Mechanical properties :
#
#
# Convention : Reuss Voigt Hill
#
# Bulk Modulus (GPa) = 64.07263 87.16390 75.61827
# Shear Modulus (GPa) = 42.53944 55.80249 49.17097
#
# Velocity S-wave (km/s) = 3.90296 4.47018 4.19616
# Velocity P-wave (km/s) = 6.57683 7.60632 7.11023
#
# Compressibility (1/GPa) = 0.01560729
#
# Stress axis : x y z
#
# Youngs Moduli (GPa) = 116.05196 84.01991 138.95940
#
# Poissons Ratio (x) = 0.27949 0.28051
# Poissons Ratio (y) = 0.38604 0.09850
# Poissons Ratio (z) = 0.23426 0.05956
#
# Static dielectric constant tensor:
#      x y z
#    x 2.366200 -0.083810 -0.072450 
#    y -0.083810 2.402380 0.202310 
#    z -0.072450 0.202310 2.193200 
# 
# From -- ./inp_files/505990.got.cif
#   From: 2010.05.17/outbox.cif.g08.bks.cpg/sg2_253_cif.got.tgz:505990.got - 2010.06.03 11:33:40.
