data_PCOD9044219
_publ_section_title
;
Structure prediction by ZEFSAII (Michael W. Deem and Ramdas Pophale) SiO2 
 PCOD9044219
Probable space group: P -1
;
_chemical_formula_sum "Si O2"
_cell_formula_units_Z 16
_cell_length_a 13.955327
_cell_length_b 13.817857
_cell_length_c 10.287759
_cell_angle_alpha 117.659426
_cell_angle_beta 146.937256
_cell_angle_gamma 41.437541
_cell_volume 638.034228
_symmetry_space_group_name_H-M "P -1"
_symmetry_group_IT_number 2
_symmetry_cell_setting 'triclinic'
loop_
_space_group_symop_operation_xyz
x,y,z
-x,-y,-z
loop_
_atom_site_type_symbol
_atom_site_label
_atom_site_fract_x
_atom_site_fract_y
_atom_site_fract_z
Si Si1 0.696711 0.390096 0.932604
Si Si2 0.923169 0.584722 0.625589
Si Si3 0.518178 0.954738 0.310391
Si Si4 0.778906 0.121673 0.434076
Si Si5 0.721462 0.769859 0.176654
Si Si6 0.905284 0.959138 0.756515
Si Si7 0.895733 0.275494 0.803572
Si Si8 0.153978 0.558581 0.363057
O O1 0.393154 0.505009 0.677443
O O2 0.760497 0.321419 0.815691
O O3 0.834063 0.443575 0.123358
O O4 0.860060 0.236675 0.118134
O O5 0.663280 0.776545 0.414819
O O6 0.858448 0.561089 0.679458
O O7 0.055117 0.410405 0.610438
O O8 0.601312 0.911434 0.226258
O O9 0.661971 0.996516 0.552691
O O10 0.205996 0.105747 0.064837
O O11 0.769764 0.253247 0.540689
O O12 0.844480 0.040504 0.599466
O O13 0.510335 0.197753 0.120496
O O14 0.000000 0.000000 0.500000
O O15 0.885892 0.738286 0.223406
O O16 0.000000 0.000000 0.000000
O O17 0.841058 0.419510 0.769793
#
# Coordination Sequence:
#
# PCOD9044219 Si02
#       8
#     2   2   2   2   2   2   2   2
#     4  11  24  48  70 105 147 198 252 296 375 447
#     4   9  24  45  72 106 144 197 244 308 365 450
#     4  11  24  46  75 107 148 195 253 305 377 446
#     4  12  25  43  73 110 152 188 247 311 370 440
#     4  10  23  46  71 106 148 196 245 305 376 436
#     4  11  26  47  71 109 150 197 247 310 374 444
#     4  12  25  43  73 109 146 195 245 311 370 445
#     4  10  25  42  71 101 149 191 244 303 369 440
#
# _framework density 25.077024000000002
#
# number of rings (size 3 to 8) (size 9 to 14) (size 15 to 20)
#    0.750    0.500    2.500    2.250    3.500    4.500 
#    2.250    1.250    0.000    0.000    0.000    0.000 
#    0.000    0.000    0.000    0.000    0.000    0.000 
#
# Total GULP energy -89433.408052 kJ/mol
# GULP energy per Si atom -5589.588003 kJ/mol
# Density = 2.501995 g / cm^3
# Si number density = 25.077024 Si / 1000 Ang^3
#
#
#
# Elastic Constant Matrix: (Units=GPa)
#
#
# Indices 1 2 3 4 5 6 
#
# 1 62.4382 19.9866 27.8545 -13.6931 1.8271 15.6333
# 2 19.9866 76.6199 32.5576 -0.7563 0.8855 16.6687
# 3 27.8545 32.5576 155.1450 -1.1345 20.2560 0.5903
# 4 -13.6931 -0.7563 -1.1345 50.1704 -3.8336 -7.6573
# 5 1.8271 0.8855 20.2560 -3.8336 35.4160 -3.9878
# 6 15.6333 16.6687 0.5903 -7.6573 -3.9878 50.7195
#
#
#
# Elastic Compliance Matrix: (Units=1/GPa)
#
#
# Indices 1 2 3 4 5 6 
#
# 1 0.020539 -0.003019 -0.003107 0.004865 0.000813 -0.004504
# 2 -0.003019 0.016020 -0.002915 -0.001264 0.000787 -0.004429
# 3 -0.003107 -0.002915 0.008176 -0.000836 -0.004382 0.001350
# 4 0.004865 -0.001264 -0.000836 0.021817 0.002896 0.002447
# 5 0.000813 0.000787 -0.004382 0.002896 0.031268 0.002438
# 6 -0.004504 -0.004429 0.001350 0.002447 0.002438 0.023106
#
#
# Mechanical properties :
#
#
# Convention : Reuss Voigt Hill
#
# Bulk Modulus (GPa) = 37.51983 50.55560 44.03772
# Shear Modulus (GPa) = 33.80851 41.51480 37.66166
#
# Velocity S-wave (km/s) = 3.67575 4.07319 3.87956
# Velocity P-wave (km/s) = 5.74536 6.50577 6.13735
#
# Compressibility (1/GPa) = 0.02665257
#
# Stress axis : x y z
#
# Youngs Moduli (GPa) = 48.68720 62.42379 122.30930
#
# Poissons Ratio (x) = 0.18844 0.38007
# Poissons Ratio (y) = 0.14698 0.35652
# Poissons Ratio (z) = 0.15129 0.18196
#
# Static dielectric constant tensor:
#      x y z
#    x 2.112300 0.028260 -0.031500 
#    y 0.028260 2.037860 0.003560 
#    z -0.031500 0.003560 1.947650 
# 
# From -- ./inp_files/455762.got.cif
#   From: 2010.05.17/outbox.cif.g08.bks.cpg/sg2_228_cif.got.tgz:455762.got - 2010.06.03 11:33:40.
