data_PCOD9044549
_publ_section_title
;
Structure prediction by ZEFSAII (Michael W. Deem and Ramdas Pophale) SiO2 
 PCOD9044549
Probable space group: P -1
;
_chemical_formula_sum "Si O2"
_cell_formula_units_Z 16
_cell_length_a 17.904343
_cell_length_b 15.144191
_cell_length_c 23.442243
_cell_angle_alpha 159.863287
_cell_angle_beta 159.698691
_cell_angle_gamma 25.798462
_cell_volume 748.739006
_symmetry_space_group_name_H-M "P -1"
_symmetry_group_IT_number 2
_symmetry_cell_setting 'triclinic'
loop_
_space_group_symop_operation_xyz
x,y,z
-x,-y,-z
loop_
_atom_site_type_symbol
_atom_site_label
_atom_site_fract_x
_atom_site_fract_y
_atom_site_fract_z
Si Si1 0.343338 0.385703 0.911912
Si Si2 0.687019 0.092594 0.151899
Si Si3 0.931647 0.724719 0.791216
Si Si4 0.181779 0.033956 0.489955
Si Si5 0.548181 0.879868 0.813319
Si Si6 0.632262 0.824234 0.406416
Si Si7 0.706838 0.665885 0.487700
Si Si8 0.569203 0.642151 0.563791
O O1 0.308533 0.233392 0.736342
O O2 0.104677 0.550207 0.849257
O O3 0.414248 0.160607 0.871761
O O4 0.506936 0.593646 0.154779
O O5 0.618077 0.396759 0.270456
O O6 0.924051 0.057787 0.330599
O O7 0.500000 0.000000 0.000000
O O8 0.705516 0.928195 0.006647
O O9 0.913727 0.630925 0.656691
O O10 0.702056 0.734844 0.663427
O O11 0.000000 0.000000 0.000000
O O12 0.218509 0.088343 0.482876
O O13 0.316089 0.758533 0.440462
O O14 0.639449 0.757627 0.743997
O O15 0.403930 0.667783 0.602017
O O16 0.753087 0.715275 0.484934
O O17 0.457097 0.077867 0.453144
#
# Coordination Sequence:
#
# PCOD9044549 Si02
#       8
#     2   2   2   2   2   2   2   2
#     4  11  22  42  68 102 128 175 221 266 330 390
#     4  12  26  46  67  97 132 176 222 273 330 396
#     4  12  22  40  69  99 134 178 217 267 330 389
#     4  11  24  42  71  97 129 177 217 275 333 386
#     4  10  24  46  66  93 133 170 223 275 324 385
#     4  11  23  43  66  98 139 169 221 268 331 398
#     4  11  23  43  64  98 138 174 214 273 326 393
#     4  10  23  47  66  96 132 170 225 275 321 396
#
# _framework density 21.369261000000002
#
# number of rings (size 3 to 8) (size 9 to 14) (size 15 to 20)
#    0.000    1.000    5.000    1.125    0.000    3.500 
#    4.500    0.000    0.000    0.000    0.000    0.000 
#    0.000    0.000    0.000    0.000    0.000    0.000 
#
# Total GULP energy -89311.335410 kJ/mol
# GULP energy per Si atom -5581.958463 kJ/mol
# Density = 2.132062 g / cm^3
# Si number density = 21.369261 Si / 1000 Ang^3
#
#
#
# Elastic Constant Matrix: (Units=GPa)
#
#
# Indices 1 2 3 4 5 6 
#
# 1 76.1028 5.9116 29.7207 -4.9152 0.0441 24.5582
# 2 5.9116 69.1332 24.8419 14.1785 11.0887 3.3648
# 3 29.7207 24.8419 90.5045 14.5136 -11.7942 8.5598
# 4 -4.9152 14.1785 14.5136 39.4344 4.0497 -0.7085
# 5 0.0441 11.0887 -11.7942 4.0497 31.2277 -2.1106
# 6 24.5582 3.3648 8.5598 -0.7085 -2.1106 23.8482
#
#
#
# Elastic Compliance Matrix: (Units=1/GPa)
#
#
# Indices 1 2 3 4 5 6 
#
# 1 0.023445 0.001636 -0.007669 0.005346 -0.005689 -0.021966
# 2 0.001636 0.018718 -0.005951 -0.003503 -0.008649 -0.003059
# 3 -0.007669 -0.005951 0.017111 -0.006040 0.009590 0.003265
# 4 0.005346 -0.003503 -0.006040 0.029987 -0.005096 -0.002403
# 5 -0.005689 -0.008649 0.009590 -0.005096 0.039859 0.007012
# 6 -0.021966 -0.003059 0.003265 -0.002403 0.007012 0.064360
#
#
# Mechanical properties :
#
#
# Convention : Reuss Voigt Hill
#
# Bulk Modulus (GPa) = 28.32456 39.63210 33.97833
# Shear Modulus (GPa) = 21.81333 30.58647 26.19990
#
# Velocity S-wave (km/s) = 3.19843 3.78740 3.50531
# Velocity P-wave (km/s) = 5.18879 6.14104 5.68489
#
# Compressibility (1/GPa) = 0.03530505
#
# Stress axis : x y z
#
# Youngs Moduli (GPa) = 42.65294 53.42491 58.44274
#
# Poissons Ratio (x) = -0.08741 0.44822
# Poissons Ratio (y) = -0.06979 0.34780
# Poissons Ratio (z) = 0.32712 0.31794
#
# Static dielectric constant tensor:
#      x y z
#    x 1.779210 -0.013320 -0.048940 
#    y -0.013320 1.834160 0.019740 
#    z -0.048940 0.019740 1.763560 
# 
# From -- ./inp_files/239942.got.cif
#   From: 2010.05.17/outbox.cif.g08.bks.cpg/sg2_120_cif.got.tgz:239942.got - 2010.06.03 11:33:40.
