data_PCOD9044921
_publ_section_title
;
Structure prediction by ZEFSAII (Michael W. Deem and Ramdas Pophale) SiO2 
 PCOD9044921
Probable space group: P -1
;
_chemical_formula_sum "Si O2"
_cell_formula_units_Z 16
_cell_length_a 11.878849
_cell_length_b 11.043533
_cell_length_c 11.732942
_cell_angle_alpha 37.210915
_cell_angle_beta 73.789078
_cell_angle_gamma 102.872135
_cell_volume 574.039489
_symmetry_space_group_name_H-M "P -1"
_symmetry_group_IT_number 2
_symmetry_cell_setting 'triclinic'
loop_
_space_group_symop_operation_xyz
x,y,z
-x,-y,-z
loop_
_atom_site_type_symbol
_atom_site_label
_atom_site_fract_x
_atom_site_fract_y
_atom_site_fract_z
Si Si1 0.022058 0.465628 0.199148
Si Si2 0.759912 0.877735 0.358774
Si Si3 0.615313 0.421393 0.401420
Si Si4 0.709886 0.372243 0.171011
Si Si5 0.668028 0.604387 0.821832
Si Si6 0.764100 0.019190 0.933383
Si Si7 0.641052 0.023163 0.731971
Si Si8 0.843595 0.534398 0.606210
O O1 0.142162 0.580040 0.966387
O O2 0.079464 0.766751 0.994000
O O3 0.083771 0.394380 0.336704
O O4 0.802108 0.181146 0.478042
O O5 0.579741 0.758873 0.457087
O O6 0.771156 0.655745 0.497274
O O7 0.764907 0.863462 0.506294
O O8 0.717695 0.478001 0.214846
O O9 0.639614 0.252865 0.593669
O O10 0.690400 0.712408 0.227576
O O11 0.758892 0.628625 0.886510
O O12 0.500000 0.000000 0.500000
O O13 0.558443 0.280460 0.032874
O O14 0.500000 0.500000 0.000000
O O15 0.677565 0.933702 0.896796
O O16 0.728149 0.181085 0.884063
O O17 0.977968 0.266302 0.671116
#
# Coordination Sequence:
#
# PCOD9044921 Si02
#       8
#     2   2   2   2   2   2   2   2
#     4  11  24  43  67 102 129 174 223 268 321 397
#     4  12  23  40  68  97 128 170 222 266 325 387
#     4  12  24  40  68  96 134 174 214 266 330 392
#     4  12  21  41  65  93 138 174 211 265 327 388
#     4  12  21  41  64  91 134 179 212 264 327 385
#     4  10  23  48  66  97 130 175 216 281 331 382
#     4  11  24  43  66  96 136 169 222 268 326 390
#     4  10  24  45  72  91 133 171 225 274 330 386
#
# _framework density 27.872644999999999
#
# number of rings (size 3 to 8) (size 9 to 14) (size 15 to 20)
#    0.000    0.750    6.250    0.750    0.000    2.000 
#    2.250    6.875    0.000    0.000    0.000    0.000 
#    0.000    0.000    0.000    0.000    0.000    0.000 
#
# Total GULP energy -89513.925389 kJ/mol
# GULP energy per Si atom -5594.620337 kJ/mol
# Density = 2.780921 g / cm^3
# Si number density = 27.872645 Si / 1000 Ang^3
#
#
#
# Elastic Constant Matrix: (Units=GPa)
#
#
# Indices 1 2 3 4 5 6 
#
# 1 134.2636 25.8861 45.8402 4.6195 10.9487 -34.9606
# 2 25.8861 103.4795 23.3207 3.9420 3.5495 -25.9156
# 3 45.8402 23.3207 116.1900 2.1646 3.2906 -12.6200
# 4 4.6195 3.9420 2.1646 55.5106 -10.0443 10.5625
# 5 10.9487 3.5495 3.2906 -10.0443 55.4278 -1.3976
# 6 -34.9606 -25.9156 -12.6200 10.5625 -1.3976 43.2000
#
#
#
# Elastic Compliance Matrix: (Units=1/GPa)
#
#
# Indices 1 2 3 4 5 6 
#
# 1 0.011138 0.000400 -0.003386 -0.002940 -0.002333 0.008908
# 2 0.000400 0.011964 -0.001662 -0.002441 -0.000998 0.007580
# 3 -0.003386 -0.001662 0.010180 0.000189 0.000185 -0.000804
# 4 -0.002940 -0.002441 0.000189 0.020866 0.004286 -0.008752
# 5 -0.002333 -0.000998 0.000185 0.004286 0.019260 -0.002857
# 6 0.008908 0.007580 -0.000804 -0.008752 -0.002857 0.036716
#
#
# Mechanical properties :
#
#
# Convention : Reuss Voigt Hill
#
# Bulk Modulus (GPa) = 41.69276 60.44745 51.07011
# Shear Modulus (GPa) = 39.24168 48.08675 43.66422
#
# Velocity S-wave (km/s) = 3.75626 4.15810 3.96228
# Velocity P-wave (km/s) = 5.81407 6.69232 6.26859
#
# Compressibility (1/GPa) = 0.02398498
#
# Stress axis : x y z
#
# Youngs Moduli (GPa) = 89.78380 83.58600 98.23157
#
# Poissons Ratio (x) = -0.03341 0.33262
# Poissons Ratio (y) = -0.03589 0.16326
# Poissons Ratio (z) = 0.30402 0.13892
#
# Static dielectric constant tensor:
#      x y z
#    x 5.479020 -0.042680 -0.256250 
#    y -0.042680 2.323540 -0.018500 
#    z -0.256250 -0.018500 2.194160 
# 
# From -- ./inp_files/519478.got.cif
#   From: 2010.05.17/outbox.cif.g08.bks.cpg/sg2_260_cif.got.tgz:519478.got - 2010.06.03 11:33:40.
