data_PCOD9044735
_publ_section_title
;
Structure prediction by ZEFSAII (Michael W. Deem and Ramdas Pophale) SiO2 
 PCOD9044735
Probable space group: P -1
;
_chemical_formula_sum "Si O2"
_cell_formula_units_Z 16
_cell_length_a 5.949627
_cell_length_b 12.362229
_cell_length_c 25.450127
_cell_angle_alpha 28.835609
_cell_angle_beta 124.010051
_cell_angle_gamma 131.163519
_cell_volume 678.891345
_symmetry_space_group_name_H-M "P -1"
_symmetry_group_IT_number 2
_symmetry_cell_setting 'triclinic'
loop_
_space_group_symop_operation_xyz
x,y,z
-x,-y,-z
loop_
_atom_site_type_symbol
_atom_site_label
_atom_site_fract_x
_atom_site_fract_y
_atom_site_fract_z
Si Si1 0.776998 0.607706 0.299665
Si Si2 0.184672 0.019126 0.120497
Si Si3 0.676102 0.901587 0.724689
Si Si4 0.586550 0.174744 0.387063
Si Si5 0.237514 0.586908 0.443895
Si Si6 0.127931 0.689200 0.887810
Si Si7 0.912963 0.557195 0.122914
Si Si8 0.183114 0.527073 0.278879
O O1 0.622299 0.439107 0.300941
O O2 0.500565 0.538363 0.331593
O O3 0.023141 0.531171 0.388901
O O4 0.930211 0.897392 0.183158
O O5 0.512715 0.184770 0.115103
O O6 0.179463 0.770781 0.200691
O O7 0.095017 0.181361 0.999842
O O8 0.641101 0.929303 0.646021
O O9 0.414323 0.638976 0.818019
O O10 0.986938 0.888569 0.783651
O O11 0.622933 0.117073 0.655403
O O12 0.922711 0.261982 0.372404
O O13 0.500000 0.000000 0.500000
O O14 0.500000 0.500000 0.500000
O O15 0.000000 0.500000 0.500000
O O16 0.027859 0.538885 0.884272
O O17 0.000000 0.500000 0.000000
O O18 0.132543 0.563682 0.195303
#
# Coordination Sequence:
#
# PCOD9044735 Si02
#       8
#     2   2   2   2   2   2   2   2
#     4  11  25  46  70 104 144 194 246 309 375 450
#     4  11  24  41  68 103 148 190 243 300 368 451
#     4  11  25  47  73 105 146 189 250 313 374 455
#     4  10  23  47  72 105 139 189 253 314 378 434
#     4  12  30  50  76 106 147 200 255 319 387 448
#     4  12  25  41  71 106 145 193 243 299 377 447
#     4  11  24  43  69 106 145 191 243 298 372 447
#     4  10  24  44  71 102 146 192 245 305 370 452
#
# _framework density 23.567837000000001
#
# number of rings (size 3 to 8) (size 9 to 14) (size 15 to 20)
#    0.000    1.000    1.250    3.750   10.500    1.000 
#    4.500    0.000    0.000    0.000    0.000    0.000 
#    0.000    0.000    0.000    0.000    0.000    0.000 
#
# Total GULP energy -89415.221307 kJ/mol
# GULP energy per Si atom -5588.451332 kJ/mol
# Density = 2.351420 g / cm^3
# Si number density = 23.567837 Si / 1000 Ang^3
#
#
#
# Elastic Constant Matrix: (Units=GPa)
#
#
# Indices 1 2 3 4 5 6 
#
# 1 92.6460 30.8122 51.7404 19.2119 8.0646 14.9538
# 2 30.8122 106.7771 25.0853 12.2480 5.2720 -9.8534
# 3 51.7404 25.0853 103.0298 10.4833 -7.4760 17.5814
# 4 19.2119 12.2480 10.4833 35.4009 -2.3534 -0.3311
# 5 8.0646 5.2720 -7.4760 -2.3534 43.8519 4.7531
# 6 14.9538 -9.8534 17.5814 -0.3311 4.7531 47.9988
#
#
#
# Elastic Compliance Matrix: (Units=1/GPa)
#
#
# Indices 1 2 3 4 5 6 
#
# 1 0.018287 -0.002758 -0.007583 -0.007044 -0.004366 -0.003102
# 2 -0.002758 0.011310 -0.001995 -0.001902 -0.001736 0.004071
# 3 -0.007583 -0.001995 0.014950 0.000650 0.004649 -0.003979
# 4 -0.007044 -0.001902 0.000650 0.032765 0.003234 0.001472
# 5 -0.004366 -0.001736 0.004649 0.003234 0.025125 -0.003165
# 6 -0.003102 0.004071 -0.003979 0.001472 -0.003165 0.024417
#
#
# Mechanical properties :
#
#
# Convention : Reuss Voigt Hill
#
# Bulk Modulus (GPa) = 50.31764 57.52542 53.92153
# Shear Modulus (GPa) = 31.61517 38.43799 35.02658
#
# Velocity S-wave (km/s) = 3.66656 4.04288 3.85931
# Velocity P-wave (km/s) = 6.27067 6.80108 6.54125
#
# Compressibility (1/GPa) = 0.01987375
#
# Stress axis : x y z
#
# Youngs Moduli (GPa) = 54.68226 88.42006 66.88970
#
# Poissons Ratio (x) = 0.24390 0.50721
# Poissons Ratio (y) = 0.15084 0.13347
# Poissons Ratio (z) = 0.41465 0.17643
#
# Static dielectric constant tensor:
#      x y z
#    x 2.272660 -0.004990 -0.057620 
#    y -0.004990 1.864840 -0.002940 
#    z -0.057620 -0.002940 1.888740 
# 
# From -- ./inp_files/615495.got.cif
#   From: 2010.05.17/outbox.cif.g08.bks.cpg/sg2_308_cif.got.tgz:615495.got - 2010.06.03 11:33:40.
