data_PCOD9044266
_publ_section_title
;
Structure prediction by ZEFSAII (Michael W. Deem and Ramdas Pophale) SiO2 
 PCOD9044266
Probable space group: P -1
;
_chemical_formula_sum "Si O2"
_cell_formula_units_Z 16
_cell_length_a 20.077292
_cell_length_b 23.317472
_cell_length_c 6.407498
_cell_angle_alpha 117.346776
_cell_angle_beta 117.960335
_cell_angle_gamma 14.609214
_cell_volume 668.062273
_symmetry_space_group_name_H-M "P -1"
_symmetry_group_IT_number 2
_symmetry_cell_setting 'triclinic'
loop_
_space_group_symop_operation_xyz
x,y,z
-x,-y,-z
loop_
_atom_site_type_symbol
_atom_site_label
_atom_site_fract_x
_atom_site_fract_y
_atom_site_fract_z
Si Si1 0.454010 0.422533 0.762346
Si Si2 0.376468 0.781540 0.970797
Si Si3 0.293308 0.728799 0.494743
Si Si4 0.981998 0.613218 0.226182
Si Si5 0.452991 0.235603 0.629984
Si Si6 0.795326 0.656997 0.272310
Si Si7 0.027560 0.232777 0.618292
Si Si8 0.901968 0.242541 0.814890
O O1 0.583545 0.369432 0.718847
O O2 0.260909 0.537330 0.530265
O O3 0.682895 0.196132 0.845553
O O4 0.260937 0.606524 0.964979
O O5 0.433324 0.669410 0.739073
O O6 0.589852 0.661925 0.137550
O O7 0.160242 0.995993 0.878553
O O8 0.242530 0.696260 0.428533
O O9 0.000000 0.000000 0.500000
O O10 0.230246 0.412902 0.418979
O O11 0.899251 0.752104 0.263026
O O12 0.760498 0.753139 0.259459
O O13 0.076723 0.495209 0.967078
O O14 0.438324 0.189604 0.699443
O O15 0.742401 0.994751 0.546974
O O16 0.000000 0.500000 0.500000
O O17 0.995938 0.224938 0.782582
#
# Coordination Sequence:
#
# PCOD9044266 Si02
#       8
#     2   2   2   2   2   2   2   2
#     4  12  25  44  71  97 132 187 227 291 347 404
#     4  11  25  44  69  99 134 185 232 286 341 404
#     4  10  26  45  68  97 136 184 235 290 344 405
#     4  10  23  46  72 102 138 182 224 276 340 408
#     4  11  24  42  72 102 140 180 228 284 335 405
#     4   9  22  45  73 101 138 179 224 275 336 410
#     4  12  27  42  71 107 140 176 229 284 344 408
#     4  11  27  45  65 102 139 179 235 289 346 408
#
# _framework density 23.949860999999999
#
# number of rings (size 3 to 8) (size 9 to 14) (size 15 to 20)
#    0.000    1.250    2.500    1.125    8.750    5.500 
#    0.000    5.625    0.000    0.000    0.000    0.000 
#    0.000    0.000    0.000    0.000    0.000    0.000 
#
# Total GULP energy -89349.572660 kJ/mol
# GULP energy per Si atom -5584.348291 kJ/mol
# Density = 2.389535 g / cm^3
# Si number density = 23.949861 Si / 1000 Ang^3
#
#
#
# Elastic Constant Matrix: (Units=GPa)
#
#
# Indices 1 2 3 4 5 6 
#
# 1 202.7657 40.3502 68.6794 17.3972 -16.5497 27.8796
# 2 40.3502 34.5428 31.5208 8.4833 -10.3127 10.2345
# 3 68.6794 31.5208 129.8814 -3.0671 3.8882 9.4513
# 4 17.3972 8.4833 -3.0671 33.9756 2.3619 -2.4323
# 5 -16.5497 -10.3127 3.8882 2.3619 50.9489 3.2257
# 6 27.8796 10.2345 9.4513 -2.4323 3.2257 40.8398
#
#
#
# Elastic Compliance Matrix: (Units=1/GPa)
#
#
# Indices 1 2 3 4 5 6 
#
# 1 0.007779 -0.003165 -0.003209 -0.003964 0.002582 -0.004214
# 2 -0.003165 0.052794 -0.011078 -0.014118 0.011809 -0.010279
# 3 -0.003209 -0.011078 0.012158 0.006038 -0.004675 0.002882
# 4 -0.003964 -0.014118 0.006038 0.036545 -0.006779 0.007558
# 5 0.002582 0.011809 -0.004675 -0.006779 0.023903 -0.005931
# 6 -0.004214 -0.010279 0.002882 0.007558 -0.005931 0.030191
#
#
# Mechanical properties :
#
#
# Convention : Reuss Voigt Hill
#
# Bulk Modulus (GPa) = 26.43710 72.03230 49.23470
# Shear Modulus (GPa) = 23.70996 40.26216 31.98606
#
# Velocity S-wave (km/s) = 3.14981 4.10457 3.65847
# Velocity P-wave (km/s) = 4.92858 7.25293 6.20064
#
# Compressibility (1/GPa) = 0.03782563
#
# Stress axis : x y z
#
# Youngs Moduli (GPa) = 128.54998 18.94171 82.25268
#
# Poissons Ratio (x) = 0.05996 0.26399
# Poissons Ratio (y) = 0.40690 0.91116
# Poissons Ratio (z) = 0.41258 0.20983
#
# Static dielectric constant tensor:
#      x y z
#    x 1.944110 0.035120 0.031800 
#    y 0.035120 2.051980 -0.062420 
#    z 0.031800 -0.062420 1.932600 
# 
# From -- ./inp_files/48830.got.cif
#   From: 2010.05.17/outbox.cif.g08.bks.cpg/sg2_25_cif.got.tgz:48830.got - 2010.06.03 11:33:40.
