data_PCOD9044152
_publ_section_title
;
Structure prediction by ZEFSAII (Michael W. Deem and Ramdas Pophale) SiO2 
 PCOD9044152
Probable space group: P -1
;
_chemical_formula_sum "Si O2"
_cell_formula_units_Z 14
_cell_length_a 11.751737
_cell_length_b 14.365447
_cell_length_c 15.511989
_cell_angle_alpha 37.613148
_cell_angle_beta 153.068185
_cell_angle_gamma 148.449989
_cell_volume 614.792642
_symmetry_space_group_name_H-M "P -1"
_symmetry_group_IT_number 2
_symmetry_cell_setting 'triclinic'
loop_
_space_group_symop_operation_xyz
x,y,z
-x,-y,-z
loop_
_atom_site_type_symbol
_atom_site_label
_atom_site_fract_x
_atom_site_fract_y
_atom_site_fract_z
Si Si1 0.087957 0.121551 0.888522
Si Si2 0.650497 0.263500 0.065282
Si Si3 0.222003 0.005418 0.409733
Si Si4 0.072929 0.358500 0.428529
Si Si5 0.967149 0.102732 0.318834
Si Si6 0.684992 0.491627 0.783350
Si Si7 0.125003 0.631972 0.405756
O O1 0.096947 0.296972 0.799133
O O2 0.391407 0.151573 0.037704
O O3 0.874007 0.039319 0.721360
O O4 0.000000 0.000000 0.000000
O O5 0.692428 0.128709 0.131780
O O6 0.947998 0.369469 0.244352
O O7 0.568836 0.398113 0.866869
O O8 0.546307 0.186176 0.499575
O O9 0.994202 0.028311 0.299797
O O10 0.168044 0.824144 0.551181
O O11 0.383609 0.367459 0.617606
O O12 0.124861 0.519401 0.406949
O O13 0.227150 0.311082 0.328554
O O14 0.000000 0.000000 0.500000
O O15 0.000000 0.500000 0.000000
O O16 0.000000 0.500000 0.500000
#
# Coordination Sequence:
#
# PCOD9044152 Si02
#       7
#     2   2   2   2   2   2   2
#     4  12  28  47  74 114 156 197 263 324 377 460
#     4  11  25  47  75 115 151 202 259 310 390 462
#     4  12  25  49  76 110 155 198 257 323 381 456
#     4  12  24  48  79 107 158 202 252 319 382 458
#     4  11  24  45  78 109 150 197 257 307 394 458
#     4  10  23  46  70 111 153 194 255 314 374 457
#     4  12  26  47  78 107 146 212 255 307 395 453
#
# _framework density 22.771906000000001
#
# number of rings (size 3 to 8) (size 9 to 14) (size 15 to 20)
#    0.000    0.571    5.714    1.286    2.000    4.571 
#    0.000    0.000    0.000    0.000    0.000    0.000 
#    0.000    0.000    0.000    0.000    0.000    0.000 
#
# Total GULP energy -78000.768802 kJ/mol
# GULP energy per Si atom -5571.483486 kJ/mol
# Density = 2.272008 g / cm^3
# Si number density = 22.771906 Si / 1000 Ang^3
#
#
#
# Elastic Constant Matrix: (Units=GPa)
#
#
# Indices 1 2 3 4 5 6 
#
# 1 135.2715 21.0643 15.6881 -12.1702 14.0687 -9.7654
# 2 21.0643 110.3028 24.2929 -20.8375 -1.8152 2.7915
# 3 15.6881 24.2929 85.6965 -10.4530 -20.1619 -4.8223
# 4 -12.1702 -20.8375 -10.4530 47.1517 13.4272 -8.4460
# 5 14.0687 -1.8152 -20.1619 13.4272 41.0014 -3.8970
# 6 -9.7654 2.7915 -4.8223 -8.4460 -3.8970 38.5945
#
#
#
# Elastic Compliance Matrix: (Units=1/GPa)
#
#
# Indices 1 2 3 4 5 6 
#
# 1 0.008699 -0.000741 -0.002003 0.003256 -0.004857 0.002227
# 2 -0.000741 0.010655 -0.002897 0.004396 -0.002193 -0.000580
# 3 -0.002003 -0.002897 0.014870 -0.000433 0.008231 0.002297
# 4 0.003256 0.004396 -0.000433 0.027635 -0.009661 0.005524
# 5 -0.004857 -0.002193 0.008231 -0.009661 0.033285 0.001205
# 6 0.002227 -0.000580 0.002297 0.005524 0.001205 0.028133
#
#
# Mechanical properties :
#
#
# Convention : Reuss Voigt Hill
#
# Bulk Modulus (GPa) = 43.58942 50.37350 46.98146
# Shear Modulus (GPa) = 35.16027 43.36455 39.26241
#
# Velocity S-wave (km/s) = 3.93366 4.36856 4.15681
# Velocity P-wave (km/s) = 6.30991 6.90034 6.61172
#
# Compressibility (1/GPa) = 0.02294135
#
# Stress axis : x y z
#
# Youngs Moduli (GPa) = 114.95525 93.85689 67.24984
#
# Poissons Ratio (x) = 0.06959 0.13468
# Poissons Ratio (y) = 0.08523 0.19482
# Poissons Ratio (z) = 0.23021 0.27190
#
# Static dielectric constant tensor:
#      x y z
#    x 1.917600 0.039130 0.050770 
#    y 0.039130 1.883750 0.018710 
#    z 0.050770 0.018710 1.876680 
# 
# From -- ./inp_files/520777.got.cif
#   From: 2010.05.17/outbox.cif.g08.bks.cpg/sg2_261_cif.got.tgz:520777.got - 2010.06.03 11:33:40.
