data_PCOD9044747
_publ_section_title
;
Structure prediction by ZEFSAII (Michael W. Deem and Ramdas Pophale) SiO2 
 PCOD9044747
Probable space group: P -1
;
_chemical_formula_sum "Si O2"
_cell_formula_units_Z 14
_cell_length_a 5.108233
_cell_length_b 12.210489
_cell_length_c 8.779161
_cell_angle_alpha 89.674958
_cell_angle_beta 97.640720
_cell_angle_gamma 80.002202
_cell_volume 534.256012
_symmetry_space_group_name_H-M "P -1"
_symmetry_group_IT_number 2
_symmetry_cell_setting 'triclinic'
loop_
_space_group_symop_operation_xyz
x,y,z
-x,-y,-z
loop_
_atom_site_type_symbol
_atom_site_label
_atom_site_fract_x
_atom_site_fract_y
_atom_site_fract_z
Si Si1 0.789838 0.429891 0.050535
Si Si2 0.570707 0.218498 0.996775
Si Si3 0.891874 0.520889 0.659016
Si Si4 0.643849 0.740574 0.536342
Si Si5 0.150334 0.852184 0.667603
Si Si6 0.096512 0.285416 0.770435
Si Si7 0.892989 0.059857 0.830407
O O1 0.877954 0.431896 0.231630
O O2 0.500000 0.500000 0.000000
O O3 0.773506 0.305796 0.997314
O O4 0.000000 0.500000 0.000000
O O5 0.285279 0.288289 0.932646
O O6 0.606140 0.118012 0.877520
O O7 0.642221 0.175595 0.172355
O O8 0.643069 0.622621 0.624222
O O9 0.122433 0.601817 0.275740
O O10 0.000000 0.500000 0.500000
O O11 0.366438 0.824710 0.547621
O O12 0.709494 0.719019 0.363525
O O13 0.907384 0.785325 0.618873
O O14 0.978015 0.970898 0.705204
O O15 0.997479 0.169083 0.779294
O O16 0.000000 0.000000 0.000000
#
# Coordination Sequence:
#
# PCOD9044747 Si02
#       7
#     2   2   2   2   2   2   2
#     4  12  25  43  71 108 145 189 245 299 359 439
#     4  11  25  44  75 106 145 196 250 307 367 441
#     4  10  23  47  72 108 151 195 234 303 369 444
#     4  11  27  48  73 111 152 198 241 308 372 443
#     4  11  27  48  76 104 150 196 253 302 374 437
#     4  11  25  47  74 111 150 192 254 304 374 444
#     4  10  26  47  75 107 146 197 250 315 372 432
#
# _framework density 26.204666
#
# number of rings (size 3 to 8) (size 9 to 14) (size 15 to 20)
#    0.000    1.143    2.857    0.857   10.000    2.286 
#    2.571    2.857    0.000    0.000    0.000    0.000 
#    0.000    0.000    0.000    0.000    0.000    0.000 
#
# Total GULP energy -78132.091226 kJ/mol
# GULP energy per Si atom -5580.863659 kJ/mol
# Density = 2.614502 g / cm^3
# Si number density = 26.204666 Si / 1000 Ang^3
#
#
#
# Elastic Constant Matrix: (Units=GPa)
#
#
# Indices 1 2 3 4 5 6 
#
# 1 101.3926 15.0830 26.3712 4.6960 -2.1244 -10.4026
# 2 15.0830 130.5551 21.8552 2.0234 3.7931 -16.7545
# 3 26.3712 21.8552 52.1317 -1.5160 16.7460 -6.8623
# 4 4.6960 2.0234 -1.5160 48.2504 -11.0025 -8.2391
# 5 -2.1244 3.7931 16.7460 -11.0025 39.1561 2.4095
# 6 -10.4026 -16.7545 -6.8623 -8.2391 2.4095 39.8479
#
#
#
# Elastic Compliance Matrix: (Units=1/GPa)
#
#
# Indices 1 2 3 4 5 6 
#
# 1 0.011919 -0.000114 -0.006874 -0.000319 0.003409 0.001608
# 2 -0.000114 0.008595 -0.003278 0.000161 0.000422 0.003027
# 3 -0.006874 -0.003278 0.028341 -0.000767 -0.012534 0.002307
# 4 -0.000319 0.000161 -0.000767 0.022919 0.006477 0.004199
# 5 0.003409 0.000422 -0.012534 0.006477 0.032971 -0.001746
# 6 0.001608 0.003027 0.002307 0.004199 -0.001746 0.028159
#
#
# Mechanical properties :
#
#
# Convention : Reuss Voigt Hill
#
# Bulk Modulus (GPa) = 35.30713 45.63315 40.47014
# Shear Modulus (GPa) = 30.69787 40.16885 35.43336
#
# Velocity S-wave (km/s) = 3.42638 3.91946 3.68119
# Velocity P-wave (km/s) = 5.39966 6.15913 5.79185
#
# Compressibility (1/GPa) = 0.02832289
#
# Stress axis : x y z
#
# Youngs Moduli (GPa) = 83.90229 116.34263 35.28421
#
# Poissons Ratio (x) = 0.01327 0.24254
# Poissons Ratio (y) = 0.00957 0.11567
# Poissons Ratio (z) = 0.57675 0.38139
#
# Static dielectric constant tensor:
#      x y z
#    x 2.013710 -0.019560 -0.036190 
#    y -0.019560 2.092930 -0.021200 
#    z -0.036190 -0.021200 2.147250 
# 
# From -- ./inp_files/131628.got.cif
#   From: 2010.05.17/outbox.cif.g08.bks.cpg/sg2_66_cif.got.tgz:131628.got - 2010.06.03 11:33:40.
