data_PCOD9044198
_publ_section_title
;
Structure prediction by ZEFSAII (Michael W. Deem and Ramdas Pophale) SiO2 
 PCOD9044198
Probable space group: P -1
;
_chemical_formula_sum "Si O2"
_cell_formula_units_Z 16
_cell_length_a 11.882532
_cell_length_b 14.665828
_cell_length_c 5.751827
_cell_angle_alpha 111.880619
_cell_angle_beta 90.087885
_cell_angle_gamma 51.820834
_cell_volume 694.265671
_symmetry_space_group_name_H-M "P -1"
_symmetry_group_IT_number 2
_symmetry_cell_setting 'triclinic'
loop_
_space_group_symop_operation_xyz
x,y,z
-x,-y,-z
loop_
_atom_site_type_symbol
_atom_site_label
_atom_site_fract_x
_atom_site_fract_y
_atom_site_fract_z
Si Si1 0.575498 0.360725 0.485017
Si Si2 0.669772 0.499139 0.049183
Si Si3 0.710179 0.090901 0.711481
Si Si4 0.187292 0.056793 0.926573
Si Si5 0.164389 0.780740 0.986628
Si Si6 0.885752 0.542700 0.244249
Si Si7 0.169218 0.292642 0.237499
Si Si8 0.595414 0.677964 0.867746
O O1 0.500000 0.500000 0.500000
O O2 0.504613 0.408432 0.784956
O O3 0.504238 0.301755 0.327839
O O4 0.745588 0.262361 0.300436
O O5 0.749418 0.549270 0.203662
O O6 0.766169 0.351763 0.997746
O O7 0.672251 0.531290 0.813476
O O8 0.796167 0.145135 0.794713
O O9 0.745284 0.024809 0.394607
O O10 0.530733 0.210880 0.848751
O O11 0.756360 0.009297 0.877664
O O12 0.010415 0.132752 0.980022
O O13 0.207953 0.162456 0.032784
O O14 0.825431 0.682256 0.467295
O O15 0.995454 0.417566 0.296402
O O16 0.000000 0.500000 0.000000
O O17 0.280568 0.311194 0.154838
#
# Coordination Sequence:
#
# PCOD9044198 Si02
#       8
#     2   2   2   2   2   2   2   2
#     4   9  21  39  61  99 135 178 220 281 356 421
#     4  11  21  41  71 103 143 172 234 291 374 420
#     4  11  29  48  73  99 145 194 250 289 347 414
#     4  12  27  51  71 105 140 196 245 294 345 420
#     4  10  23  46  71 103 138 188 236 303 351 424
#     4  11  22  40  67 107 140 180 218 294 363 435
#     4  11  25  41  71 101 144 180 236 287 362 423
#     4  11  24  43  68 105 138 186 231 298 354 431
#
# _framework density 23.045933000000002
#
# number of rings (size 3 to 8) (size 9 to 14) (size 15 to 20)
#    0.000    1.250    3.750    0.750    5.250    5.500 
#    9.000    0.000    0.000    0.000    0.000    0.000 
#    0.000    0.000    0.000    0.000    0.000    0.000 
#
# Total GULP energy -89259.321700 kJ/mol
# GULP energy per Si atom -5578.707606 kJ/mol
# Density = 2.299348 g / cm^3
# Si number density = 23.045933 Si / 1000 Ang^3
#
#
#
# Elastic Constant Matrix: (Units=GPa)
#
#
# Indices 1 2 3 4 5 6 
#
# 1 125.6348 23.1432 62.0215 3.6851 1.4207 1.9470
# 2 23.1432 85.2869 35.0055 -10.8849 0.3062 4.1001
# 3 62.0215 35.0055 157.0402 15.8065 5.9327 14.8472
# 4 3.6851 -10.8849 15.8065 24.1150 3.5287 -0.2281
# 5 1.4207 0.3062 5.9327 3.5287 46.2508 8.0141
# 6 1.9470 4.1001 14.8472 -0.2281 8.0141 39.0760
#
#
#
# Elastic Compliance Matrix: (Units=1/GPa)
#
#
# Indices 1 2 3 4 5 6 
#
# 1 0.010046 -0.001125 -0.003871 0.000509 -0.000034 0.001098
# 2 -0.001125 0.014779 -0.003788 0.009370 -0.000303 0.000061
# 3 -0.003871 -0.003788 0.009804 -0.007576 0.000016 -0.003182
# 4 0.000509 0.009370 -0.007576 0.051126 -0.003507 0.002888
# 5 -0.000034 -0.000303 0.000016 -0.003507 0.022695 -0.004648
# 6 0.001098 0.000061 -0.003182 0.002888 -0.004648 0.027709
#
#
# Mechanical properties :
#
#
# Convention : Reuss Voigt Hill
#
# Bulk Modulus (GPa) = 58.60892 67.58915 63.09904
# Shear Modulus (GPa) = 31.36512 38.40780 34.88646
#
# Velocity S-wave (km/s) = 3.69315 4.08680 3.89495
# Velocity P-wave (km/s) = 6.60851 7.18755 6.90410
#
# Compressibility (1/GPa) = 0.01706225
#
# Stress axis : x y z
#
# Youngs Moduli (GPa) = 99.54178 67.66349 102.00366
#
# Poissons Ratio (x) = 0.07612 0.39482
# Poissons Ratio (y) = 0.11199 0.38634
# Poissons Ratio (z) = 0.38529 0.25628
#
# Static dielectric constant tensor:
#      x y z
#    x 1.847230 -0.003610 0.075900 
#    y -0.003610 1.940500 -0.109270 
#    z 0.075900 -0.109270 2.064530 
# 
# From -- ./inp_files/78364.got.cif
#   From: 2010.05.17/outbox.cif.g08.bks.cpg/sg2_40_cif.got.tgz:78364.got - 2010.06.03 11:33:40.
