data_PCOD9044431
_publ_section_title
;
Structure prediction by ZEFSAII (Michael W. Deem and Ramdas Pophale) SiO2 
 PCOD9044431
Probable space group: P -1
;
_chemical_formula_sum "Si O2"
_cell_formula_units_Z 14
_cell_length_a 13.996851
_cell_length_b 22.268739
_cell_length_c 27.872673
_cell_angle_alpha 10.579415
_cell_angle_beta 159.504702
_cell_angle_gamma 158.425205
_cell_volume 552.775066
_symmetry_space_group_name_H-M "P -1"
_symmetry_group_IT_number 2
_symmetry_cell_setting 'triclinic'
loop_
_space_group_symop_operation_xyz
x,y,z
-x,-y,-z
loop_
_atom_site_type_symbol
_atom_site_label
_atom_site_fract_x
_atom_site_fract_y
_atom_site_fract_z
Si Si1 0.307765 0.706933 0.042032
Si Si2 0.173903 0.699929 0.812046
Si Si3 0.984451 0.796994 0.103722
Si Si4 0.291109 0.896329 0.439133
Si Si5 0.386720 0.092357 0.689911
Si Si6 0.467715 0.957178 0.365340
Si Si7 0.275220 0.830046 0.064660
O O1 0.442216 0.377244 0.352113
O O2 0.041561 0.610256 0.027187
O O3 0.208147 0.861748 0.825210
O O4 0.559359 0.986233 0.956907
O O5 0.394570 0.840626 0.846261
O O6 0.325773 0.743140 0.798260
O O7 0.000000 0.000000 0.500000
O O8 0.846933 0.445187 0.334230
O O9 0.296854 0.783999 0.246238
O O10 0.821875 0.967138 0.852467
O O11 0.000000 0.000000 0.000000
O O12 0.451284 0.916146 0.447387
O O13 0.500000 0.000000 0.500000
O O14 0.024844 0.070961 0.162856
O O15 0.265151 0.437581 0.360708
O O16 0.500000 0.000000 0.000000
#
# Coordination Sequence:
#
# PCOD9044431 Si02
#       7
#     2   2   2   2   2   2   2
#     4  11  25  47  84 119 153 214 268 331 406 479
#     4  10  23  46  74 115 156 204 262 328 392 473
#     4  12  24  47  82 117 156 206 269 328 405 481
#     4  12  30  53  82 117 159 219 273 332 404 477
#     4  12  24  47  76 120 159 210 263 327 405 485
#     4  11  25  50  81 115 165 206 274 339 394 475
#     4  12  25  51  78 111 171 206 262 336 402 479
#
# _framework density 25.326758000000002
#
# number of rings (size 3 to 8) (size 9 to 14) (size 15 to 20)
#    0.000    0.571    2.857    5.143    0.000    5.714 
#    5.143    1.429    0.000    0.000    0.000    0.000 
#    0.000    0.000    0.000    0.000    0.000    0.000 
#
# Total GULP energy -78144.414687 kJ/mol
# GULP energy per Si atom -5581.743906 kJ/mol
# Density = 2.526911 g / cm^3
# Si number density = 25.326758 Si / 1000 Ang^3
#
#
#
# Elastic Constant Matrix: (Units=GPa)
#
#
# Indices 1 2 3 4 5 6 
#
# 1 185.7016 60.4421 27.6737 -9.3138 -31.0249 12.5344
# 2 60.4421 158.6813 29.6414 -10.1613 -2.5386 8.9119
# 3 27.6737 29.6414 91.6746 -0.8078 -14.2471 10.8965
# 4 -9.3138 -10.1613 -0.8078 47.9346 9.0652 3.3369
# 5 -31.0249 -2.5386 -14.2471 9.0652 42.3100 0.7296
# 6 12.5344 8.9119 10.8965 3.3369 0.7296 39.5593
#
#
#
# Elastic Compliance Matrix: (Units=1/GPa)
#
#
# Indices 1 2 3 4 5 6 
#
# 1 0.007213 -0.002497 -0.000384 0.000033 0.005032 -0.001713
# 2 -0.002497 0.007726 -0.002045 0.001604 -0.002391 -0.000477
# 3 -0.000384 -0.002045 0.012660 -0.000867 0.004094 -0.002907
# 4 0.000033 0.001604 -0.000867 0.022255 -0.004906 -0.001920
# 5 0.005032 -0.002391 0.004094 -0.004906 0.029652 -0.002317
# 6 -0.001713 -0.000477 -0.002907 -0.001920 -0.002317 0.026934
#
#
# Mechanical properties :
#
#
# Convention : Reuss Voigt Hill
#
# Bulk Modulus (GPa) = 56.34929 74.61908 65.48418
# Shear Modulus (GPa) = 40.91407 47.18079 44.04743
#
# Velocity S-wave (km/s) = 4.02362 4.32080 4.17485
# Velocity P-wave (km/s) = 6.62445 7.37691 7.01078
#
# Compressibility (1/GPa) = 0.01774645
#
# Stress axis : x y z
#
# Youngs Moduli (GPa) = 138.64030 129.42842 78.99155
#
# Poissons Ratio (x) = 0.32316 0.03034
# Poissons Ratio (y) = 0.34616 0.16156
# Poissons Ratio (z) = 0.05325 0.26471
#
# Static dielectric constant tensor:
#      x y z
#    x 1.312410 0.001630 -0.348500 
#    y 0.001630 1.283450 -0.197100 
#    z -0.348500 -0.197100 1.710090 
# 
# From -- ./inp_files/623709.got.cif
#   From: 2010.05.17/outbox.cif.g08.bks.cpg/sg2_312_cif.got.tgz:623709.got - 2010.06.03 11:33:40.
