data_PCOD9044397
_publ_section_title
;
Structure prediction by ZEFSAII (Michael W. Deem and Ramdas Pophale) SiO2 
 PCOD9044397
Probable space group: P -1
;
_chemical_formula_sum "Si O2"
_cell_formula_units_Z 16
_cell_length_a 20.503569
_cell_length_b 18.081209
_cell_length_c 6.040217
_cell_angle_alpha 114.644800
_cell_angle_beta 65.982764
_cell_angle_gamma 159.510054
_cell_volume 711.498661
_symmetry_space_group_name_H-M "P -1"
_symmetry_group_IT_number 2
_symmetry_cell_setting 'triclinic'
loop_
_space_group_symop_operation_xyz
x,y,z
-x,-y,-z
loop_
_atom_site_type_symbol
_atom_site_label
_atom_site_fract_x
_atom_site_fract_y
_atom_site_fract_z
Si Si1 0.677025 0.514088 0.923756
Si Si2 0.842388 0.818222 0.808270
Si Si3 0.959370 0.317608 0.325936
Si Si4 0.020736 0.892751 0.275025
Si Si5 0.307919 0.058930 0.105025
Si Si6 0.643761 0.034380 0.728773
Si Si7 0.275061 0.590670 0.530523
Si Si8 0.850538 0.401269 0.972954
O O1 0.681080 0.606451 0.913122
O O2 0.685164 0.462212 0.632398
O O3 0.856533 0.698171 0.077298
O O4 0.492251 0.295390 0.044046
O O5 0.920478 0.837317 0.539991
O O6 0.831975 0.892480 0.785747
O O7 0.000000 0.000000 0.000000
O O8 0.129704 0.449798 0.360963
O O9 0.834979 0.219931 0.570647
O O10 0.063191 0.491715 0.250136
O O11 0.814435 0.113544 0.129068
O O12 0.150727 0.958105 0.279477
O O13 0.371117 0.053642 0.179309
O O14 0.473663 0.844190 0.557446
O O15 0.671873 0.155462 0.922779
O O16 0.187051 0.548740 0.806387
O O17 0.000000 0.500000 0.000000
#
# Coordination Sequence:
#
# PCOD9044397 Si02
#       8
#     2   2   2   2   2   2   2   2
#     4  11  25  42  71 105 140 181 234 283 344 414
#     4   9  22  45  72 104 141 182 226 274 347 416
#     4  12  25  46  70  97 135 188 228 293 350 411
#     4  10  23  46  74 101 141 185 224 283 343 411
#     4  12  26  43  72 106 140 178 236 288 344 414
#     4  12  28  46  66 103 140 184 240 291 350 412
#     4  12  27  44  70 101 138 186 232 293 346 412
#     4  12  26  46  70  99 139 184 239 294 350 411
#
# _framework density 22.487746999999999
#
# number of rings (size 3 to 8) (size 9 to 14) (size 15 to 20)
#    0.000    0.750    5.000    0.750    7.000    1.000 
#    0.000    5.625    0.000    0.000    0.000    0.000 
#    0.000    0.000    0.000    0.000    0.000    0.000 
#
# Total GULP energy -89127.961058 kJ/mol
# GULP energy per Si atom -5570.497566 kJ/mol
# Density = 2.243656 g / cm^3
# Si number density = 22.487747 Si / 1000 Ang^3
#
#
#
# Elastic Constant Matrix: (Units=GPa)
#
#
# Indices 1 2 3 4 5 6 
#
# 1 -47.2536 30.6881 36.8828 -62.2907 -51.3287 12.7038
# 2 30.6881 218.0453 33.8526 21.8415 39.3137 -27.3879
# 3 36.8828 33.8526 77.5233 30.7804 3.2398 -17.2145
# 4 -62.2907 21.8415 30.7804 18.8754 -19.3117 7.0233
# 5 -51.3287 39.3137 3.2398 -19.3117 28.0707 -8.8101
# 6 12.7038 -27.3879 -17.2145 7.0233 -8.8101 34.8784
#
#
#
# Elastic Compliance Matrix: (Units=1/GPa)
#
#
# Indices 1 2 3 4 5 6 
#
# 1 0.001371 0.001598 0.003173 -0.009253 -0.005593 0.002772
# 2 0.001598 0.005315 -0.003464 0.001726 -0.002664 0.000861
# 3 0.003173 -0.003464 0.014673 -0.002008 0.009516 0.006174
# 4 -0.009253 0.001726 -0.002008 0.014368 -0.009728 -0.001616
# 5 -0.005593 -0.002664 0.009516 -0.009728 0.025424 0.013023
# 6 0.002772 0.000861 0.006174 -0.001616 0.013023 0.035000
#
#
# Mechanical properties :
#
#
# Convention : Reuss Voigt Hill
#
# Bulk Modulus (GPa) = 41.71287 50.12912 45.92099
# Shear Modulus (GPa) = 49.24835 26.15768 37.70301
#
# Velocity S-wave (km/s) = 4.68483 3.41427 4.09908
# Velocity P-wave (km/s) = 6.91758 6.15493 6.54737
#
# Compressibility (1/GPa) = 0.02397342
#
# Stress axis : x y z
#
# Youngs Moduli (GPa) = 729.40427 188.15874 68.15307
#
# Poissons Ratio (x) = -0.30067 -0.21627
# Poissons Ratio (y) = -1.16555 0.23606
# Poissons Ratio (z) = -2.31459 0.65173
#
# Static dielectric constant tensor:
#      x y z
#    x 1.920890 -0.056770 -0.084200 
#    y -0.056770 1.843120 0.036930 
#    z -0.084200 0.036930 1.894680 
# 
# From -- ./inp_files/120102.got.cif
#   From: 2010.05.17/outbox.cif.g08.bks.cpg/sg2_61_cif.got.tgz:120102.got - 2010.06.03 11:33:40.
