data_PCOD9044888
_publ_section_title
;
Structure prediction by ZEFSAII (Michael W. Deem and Ramdas Pophale) SiO2 
 PCOD9044888
Probable space group: P -1
;
_chemical_formula_sum "Si O2"
_cell_formula_units_Z 14
_cell_length_a 11.755398
_cell_length_b 9.576156
_cell_length_c 12.273009
_cell_angle_alpha 155.984003
_cell_angle_beta 80.077885
_cell_angle_gamma 99.962974
_cell_volume 553.465360
_symmetry_space_group_name_H-M "P -1"
_symmetry_group_IT_number 2
_symmetry_cell_setting 'triclinic'
loop_
_space_group_symop_operation_xyz
x,y,z
-x,-y,-z
loop_
_atom_site_type_symbol
_atom_site_label
_atom_site_fract_x
_atom_site_fract_y
_atom_site_fract_z
Si Si1 0.759339 0.074918 0.239416
Si Si2 0.987233 0.715388 0.987362
Si Si3 0.368379 0.632355 0.325423
Si Si4 0.796354 0.423173 0.264552
Si Si5 0.432427 0.816846 0.979701
Si Si6 0.397358 0.759012 0.178583
Si Si7 0.848632 0.204900 0.773497
O O1 0.691745 0.194350 0.440646
O O2 0.761001 0.368048 0.355904
O O3 0.698844 0.729141 0.951693
O O4 0.889903 0.989964 0.188057
O O5 0.076721 0.717937 0.875943
O O6 0.916727 0.354162 0.763807
O O7 0.067013 0.763466 0.114928
O O8 0.496705 0.527735 0.262430
O O9 0.370780 0.864561 0.382575
O O10 0.698065 0.232022 0.073375
O O11 0.806794 0.811024 0.497709
O O12 0.432263 0.965848 0.209735
O O13 0.500000 0.000000 0.000000
O O14 0.270155 0.594884 0.050880
O O15 0.500000 0.500000 0.000000
#
# Coordination Sequence:
#
# PCOD9044888 Si02
#       7
#     2   2   2   2   2   2   2
#     4  12  28  49  82 113 164 213 261 329 397 480
#     4  11  26  50  75 110 161 207 267 324 396 478
#     4  11  27  50  79 115 158 210 267 322 402 471
#     4  12  27  46  81 115 157 207 269 330 402 469
#     4  11  24  48  81 114 162 202 264 331 405 468
#     4  10  23  47  78 111 158 201 264 322 398 466
#     4  11  25  45  78 113 153 203 270 323 401 464
#
# _framework density 25.295168
#
# number of rings (size 3 to 8) (size 9 to 14) (size 15 to 20)
#    0.000    0.857    4.286    0.857    6.000    6.857 
#    0.000    5.000    0.000    0.000    0.000    0.000 
#    0.000    0.000    0.000    0.000    0.000    0.000 
#
# Total GULP energy -78355.749621 kJ/mol
# GULP energy per Si atom -5596.839259 kJ/mol
# Density = 2.523760 g / cm^3
# Si number density = 25.295168 Si / 1000 Ang^3
#
#
#
# Elastic Constant Matrix: (Units=GPa)
#
#
# Indices 1 2 3 4 5 6 
#
# 1 162.6786 45.1593 37.5762 -3.6543 -13.1875 -0.1442
# 2 45.1593 219.8681 43.0209 -24.2811 5.7224 3.8389
# 3 37.5762 43.0209 84.0203 -19.4154 -1.5227 8.1102
# 4 -3.6543 -24.2811 -19.4154 43.6811 9.9244 -5.5567
# 5 -13.1875 5.7224 -1.5227 9.9244 36.7520 6.5019
# 6 -0.1442 3.8389 8.1102 -5.5567 6.5019 47.2355
#
#
#
# Elastic Compliance Matrix: (Units=1/GPa)
#
#
# Indices 1 2 3 4 5 6 
#
# 1 0.007439 -0.001247 -0.003138 -0.002234 0.003347 -0.000061
# 2 -0.001247 0.005490 -0.001703 0.002749 -0.002198 0.000468
# 3 -0.003138 -0.001703 0.015671 0.005887 -0.001507 -0.001662
# 4 -0.002234 0.002749 0.005887 0.029477 -0.009573 0.003544
# 5 0.003347 -0.002198 -0.001507 -0.009573 0.032179 -0.005108
# 6 -0.000061 0.000468 -0.001662 0.003544 -0.005108 0.022538
#
#
# Mechanical properties :
#
#
# Convention : Reuss Voigt Hill
#
# Bulk Modulus (GPa) = 60.88711 79.78666 70.33688
# Shear Modulus (GPa) = 38.33021 48.25443 43.29232
#
# Velocity S-wave (km/s) = 3.89693 4.37241 4.14150
# Velocity P-wave (km/s) = 6.66116 7.55654 7.12293
#
# Compressibility (1/GPa) = 0.01642384
#
# Stress axis : x y z
#
# Youngs Moduli (GPa) = 134.42327 182.14347 63.81175
#
# Poissons Ratio (x) = 0.22707 0.20026
# Poissons Ratio (y) = 0.16758 0.10869
# Poissons Ratio (z) = 0.42187 0.31025
#
# Static dielectric constant tensor:
#      x y z
#    x 2.014200 0.021330 -0.006320 
#    y 0.021330 1.975870 0.003680 
#    z -0.006320 0.003680 2.106570 
# 
# From -- ./inp_files/420223.got.cif
#   From: 2010.05.17/outbox.cif.g08.bks.cpg/sg2_211_cif.got.tgz:420223.got - 2010.06.03 11:33:40.
