data_PCOD9044022
_publ_section_title
;
Structure prediction by ZEFSAII (Michael W. Deem and Ramdas Pophale) SiO2 
 PCOD9044022
Probable space group: P -1
;
_chemical_formula_sum "Si O2"
_cell_formula_units_Z 16
_cell_length_a 13.931171
_cell_length_b 10.243601
_cell_length_c 8.269590
_cell_angle_alpha 133.315402
_cell_angle_beta 46.802091
_cell_angle_gamma 109.517545
_cell_volume 605.173346
_symmetry_space_group_name_H-M "P -1"
_symmetry_group_IT_number 2
_symmetry_cell_setting 'triclinic'
loop_
_space_group_symop_operation_xyz
x,y,z
-x,-y,-z
loop_
_atom_site_type_symbol
_atom_site_label
_atom_site_fract_x
_atom_site_fract_y
_atom_site_fract_z
Si Si1 0.387323 0.189989 0.782035
Si Si2 0.288278 0.785324 0.999158
Si Si3 0.933180 0.282608 0.245711
Si Si4 0.110265 0.271493 0.335398
Si Si5 0.363200 0.677744 0.474348
Si Si6 0.547969 0.705517 0.798506
Si Si7 0.989637 0.289854 0.823960
Si Si8 0.339179 0.080625 0.409077
O O1 0.488758 0.324990 0.770793
O O2 0.525066 0.091959 0.870320
O O3 0.500000 0.000000 0.500000
O O4 0.304727 0.179846 0.702722
O O5 0.341850 0.800766 0.768184
O O6 0.634482 0.762468 0.605153
O O7 0.161021 0.705565 0.056902
O O8 0.254482 0.966994 0.305959
O O9 0.923822 0.503676 0.439964
O O10 0.777158 0.259229 0.412605
O O11 0.022139 0.209382 0.240287
O O12 0.995953 0.214837 0.938254
O O13 0.270232 0.209977 0.064156
O O14 0.077960 0.205126 0.493012
O O15 0.371063 0.470224 0.348065
O O16 0.415017 0.653035 0.833756
O O17 0.000000 0.500000 0.000000
#
# Coordination Sequence:
#
# PCOD9044022 Si02
#       8
#     2   2   2   2   2   2   2   2
#     4  12  27  44  63 102 149 198 233 299 362 431
#     4   9  18  36  67 101 136 181 236 303 356 422
#     4   9  22  44  69 106 136 180 245 302 359 425
#     4  10  23  46  68  98 149 191 232 299 365 425
#     4  11  21  39  71 109 134 179 254 300 359 431
#     4   9  18  36  68 102 136 177 233 312 358 420
#     4   9  19  40  69 103 135 187 245 299 346 432
#     4   9  20  39  60 101 145 177 228 297 374 426
#
# _framework density 26.438707999999998
#
# number of rings (size 3 to 8) (size 9 to 14) (size 15 to 20)
#    0.750    1.500    1.250    0.375    1.750    4.500 
#    9.000    3.750    0.000    3.000    0.000    0.875 
#    0.000    0.000    0.000    0.000    0.000    0.000 
#
# Total GULP energy -89424.699931 kJ/mol
# GULP energy per Si atom -5589.043746 kJ/mol
# Density = 2.637853 g / cm^3
# Si number density = 26.438708 Si / 1000 Ang^3
#
#
#
# Elastic Constant Matrix: (Units=GPa)
#
#
# Indices 1 2 3 4 5 6 
#
# 1 179.7419 53.6068 64.3334 -6.6564 5.8793 34.8360
# 2 53.6068 100.3933 36.4911 0.2239 -0.5797 15.9877
# 3 64.3334 36.4911 152.6742 -31.6287 10.7557 7.4675
# 4 -6.6564 0.2239 -31.6287 30.2329 2.1676 -4.4275
# 5 5.8793 -0.5797 10.7557 2.1676 38.1930 5.9939
# 6 34.8360 15.9877 7.4675 -4.4275 5.9939 48.0493
#
#
#
# Elastic Compliance Matrix: (Units=1/GPa)
#
#
# Indices 1 2 3 4 5 6 
#
# 1 0.008297 -0.002487 -0.003151 -0.002212 0.000476 -0.004961
# 2 -0.002487 0.012782 -0.002892 -0.004202 0.002045 -0.002642
# 3 -0.003151 -0.002892 0.011106 0.011672 -0.003831 0.003074
# 4 -0.002212 -0.004202 0.011672 0.046224 -0.006618 0.006273
# 5 0.000476 0.002045 -0.003831 -0.006618 0.028313 -0.004572
# 6 -0.004961 -0.002642 0.003074 0.006273 -0.004572 0.025959
#
#
# Mechanical properties :
#
#
# Convention : Reuss Voigt Hill
#
# Bulk Modulus (GPa) = 66.11578 82.40800 74.26189
# Shear Modulus (GPa) = 32.30304 41.85359 37.07832
#
# Velocity S-wave (km/s) = 3.49923 3.98306 3.74896
# Velocity P-wave (km/s) = 6.43332 7.23811 6.84755
#
# Compressibility (1/GPa) = 0.01512498
#
# Stress axis : x y z
#
# Youngs Moduli (GPa) = 120.52219 78.23346 90.03813
#
# Poissons Ratio (x) = 0.19460 0.28370
# Poissons Ratio (y) = 0.29978 0.26041
# Poissons Ratio (z) = 0.37975 0.22627
#
# Static dielectric constant tensor:
#      x y z
#    x 2.059930 0.075510 0.099910 
#    y 0.075510 2.124780 0.001510 
#    z 0.099910 0.001510 2.104000 
# 
# From -- ./inp_files/268781.got.cif
#   From: 2010.05.17/outbox.cif.g08.bks.cpg/sg2_135_cif.got.tgz:268781.got - 2010.06.03 11:33:40.
