data_PCOD9044297
_publ_section_title
;
Structure prediction by ZEFSAII (Michael W. Deem and Ramdas Pophale) SiO2 
 PCOD9044297
Probable space group: P -1
;
_chemical_formula_sum "Si O2"
_cell_formula_units_Z 12
_cell_length_a 7.431373
_cell_length_b 8.717900
_cell_length_c 9.768965
_cell_angle_alpha 118.151747
_cell_angle_beta 106.819127
_cell_angle_gamma 53.462735
_cell_volume 448.321395
_symmetry_space_group_name_H-M "P -1"
_symmetry_group_IT_number 2
_symmetry_cell_setting 'triclinic'
loop_
_space_group_symop_operation_xyz
x,y,z
-x,-y,-z
loop_
_atom_site_type_symbol
_atom_site_label
_atom_site_fract_x
_atom_site_fract_y
_atom_site_fract_z
Si Si1 0.840972 0.811678 0.407075
Si Si2 0.866913 0.988318 0.741490
Si Si3 0.500368 0.027109 0.176571
Si Si4 0.240631 0.585509 0.015270
Si Si5 0.677120 0.518441 0.725661
Si Si6 0.760455 0.478266 0.313130
O O1 0.777397 0.674271 0.429168
O O2 0.104642 0.663055 0.375423
O O3 0.787936 0.000516 0.573527
O O4 0.710555 0.889597 0.266992
O O5 0.892688 0.174661 0.869107
O O6 0.685526 0.006191 0.814796
O O7 0.081781 0.756636 0.699827
O O8 0.425979 0.264315 0.279599
O O9 0.500000 0.000000 0.000000
O O10 0.247503 0.461742 0.096423
O O11 0.500000 0.500000 0.000000
O O12 0.160711 0.551455 0.841386
O O13 0.485384 0.471894 0.689667
#
# Coordination Sequence:
#
# PCOD9044297 Si02
#       6
#     2   2   2   2   2   2
#     4  12  28  51  75 111 157 198 244 317 377 451
#     4  12  26  49  77 110 155 201 247 309 388 440
#     4  12  26  46  78 112 146 201 259 306 371 452
#     4  10  23  46  72 109 150 196 247 310 367 443
#     4  11  26  46  74 112 148 194 258 303 376 440
#     4  11  24  48  79 106 157 198 250 311 376 448
#
# _framework density 26.766514999999998
#
# number of rings (size 3 to 8) (size 9 to 14) (size 15 to 20)
#    0.000    0.667    1.667    6.500    4.667    2.667 
#    0.000    0.000    0.000    0.000    0.000    0.000 
#    0.000    0.000    0.000    0.000    0.000    0.000 
#
# Total GULP energy -67248.643999 kJ/mol
# GULP energy per Si atom -5604.053667 kJ/mol
# Density = 2.670559 g / cm^3
# Si number density = 26.766515 Si / 1000 Ang^3
#
#
#
# Elastic Constant Matrix: (Units=GPa)
#
#
# Indices 1 2 3 4 5 6 
#
# 1 120.0050 45.8074 16.8900 0.6429 -25.9484 -2.1941
# 2 45.8074 202.1033 39.3993 3.1012 -2.8669 -0.3215
# 3 16.8900 39.3993 130.3029 -3.7428 -23.5700 -5.5647
# 4 0.6429 3.1012 -3.7428 25.6496 12.7821 3.8890
# 5 -25.9484 -2.8669 -23.5700 12.7821 32.5675 1.9594
# 6 -2.1941 -0.3215 -5.5647 3.8890 1.9594 45.8892
#
#
#
# Elastic Compliance Matrix: (Units=1/GPa)
#
#
# Indices 1 2 3 4 5 6 
#
# 1 0.011964 -0.002712 0.001421 -0.006209 0.012717 0.000709
# 2 -0.002712 0.005899 -0.002038 0.000798 -0.003414 -0.000257
# 3 0.001421 -0.002038 0.009716 -0.003089 0.009131 0.001104
# 4 -0.006209 0.000798 -0.003089 0.052987 -0.027670 -0.003975
# 5 0.012717 -0.003414 0.009131 -0.027670 0.057912 0.001564
# 6 0.000709 -0.000257 0.001104 -0.003975 0.001564 0.022228
#
#
# Mechanical properties :
#
#
# Convention : Reuss Voigt Hill
#
# Bulk Modulus (GPa) = 47.79460 72.95606 60.37533
# Shear Modulus (GPa) = 28.68013 44.17555 36.42784
#
# Velocity S-wave (km/s) = 3.27692 4.06692 3.69311
# Velocity P-wave (km/s) = 5.67560 7.02629 6.38675
#
# Compressibility (1/GPa) = 0.02092287
#
# Stress axis : x y z
#
# Youngs Moduli (GPa) = 83.58343 169.52568 102.91840
#
# Poissons Ratio (x) = 0.45976 -0.14629
# Poissons Ratio (y) = 0.22668 0.20971
# Poissons Ratio (z) = -0.11881 0.34544
#
# Static dielectric constant tensor:
#      x y z
#    x 2.057940 -0.043270 0.054480 
#    y -0.043270 2.069440 -0.064820 
#    z 0.054480 -0.064820 2.169170 
# 
# From -- ./inp_files/159805.got.cif
#   From: 2010.05.17/outbox.cif.g08.bks.cpg/sg2_80_cif.got.tgz:159805.got - 2010.06.03 11:33:40.
