data_PCOD9044963
_publ_section_title
;
Structure prediction by ZEFSAII (Michael W. Deem and Ramdas Pophale) SiO2 
 PCOD9044963
Probable space group: P -1
;
_chemical_formula_sum "Si O2"
_cell_formula_units_Z 14
_cell_length_a 7.135295
_cell_length_b 18.356856
_cell_length_c 6.853676
_cell_angle_alpha 125.830744
_cell_angle_beta 87.210720
_cell_angle_gamma 123.698255
_cell_volume 552.459513
_symmetry_space_group_name_H-M "P -1"
_symmetry_group_IT_number 2
_symmetry_cell_setting 'triclinic'
loop_
_space_group_symop_operation_xyz
x,y,z
-x,-y,-z
loop_
_atom_site_type_symbol
_atom_site_label
_atom_site_fract_x
_atom_site_fract_y
_atom_site_fract_z
Si Si1 0.524058 0.211904 0.046803
Si Si2 0.391979 0.870772 0.713555
Si Si3 0.870668 0.770119 0.013392
Si Si4 0.250808 0.428213 0.526445
Si Si5 0.929848 0.439053 0.124759
Si Si6 0.752870 0.979741 0.522397
Si Si7 0.860390 0.669197 0.215253
O O1 0.298614 0.213280 0.069870
O O2 0.412095 0.087475 0.761317
O O3 0.614070 0.209624 0.249263
O O4 0.700552 0.313126 0.036471
O O5 0.125842 0.784990 0.477488
O O6 0.597424 0.904247 0.599000
O O7 0.500000 0.000000 0.000000
O O8 0.137676 0.889666 0.239519
O O9 0.754243 0.710061 0.136249
O O10 0.910908 0.697948 0.763752
O O11 0.500000 0.500000 0.500000
O O12 0.110489 0.479890 0.626246
O O13 0.296250 0.408893 0.713476
O O14 0.109086 0.408461 0.047743
O O15 0.000000 0.500000 0.000000
O O16 0.000000 0.000000 0.500000
#
# Coordination Sequence:
#
# PCOD9044963 Si02
#       7
#     2   2   2   2   2   2   2
#     4  11  24  47  73 105 148 191 236 291 367 433
#     4  12  26  44  76 110 144 187 242 300 360 429
#     4  11  25  45  73 104 143 188 241 291 362 424
#     4  11  24  47  69 107 143 193 241 298 352 436
#     4  10  23  48  70 104 145 193 240 298 356 423
#     4  10  24  44  70 103 145 184 233 293 362 427
#     4  11  26  45  71 106 143 185 242 296 361 417
#
# _framework density 25.341225000000001
#
# number of rings (size 3 to 8) (size 9 to 14) (size 15 to 20)
#    0.000    1.143    2.857    1.714    4.000    6.857 
#    5.143    0.000    0.000    0.000    0.000    0.000 
#    0.000    0.000    0.000    0.000    0.000    0.000 
#
# Total GULP energy -78088.336324 kJ/mol
# GULP energy per Si atom -5577.738309 kJ/mol
# Density = 2.528355 g / cm^3
# Si number density = 25.341225 Si / 1000 Ang^3
#
#
#
# Elastic Constant Matrix: (Units=GPa)
#
#
# Indices 1 2 3 4 5 6 
#
# 1 120.3364 52.0185 55.8510 -21.4268 -5.8631 -7.3508
# 2 52.0185 123.7051 40.9354 -23.9788 -1.7659 3.5856
# 3 55.8510 40.9354 146.6168 9.2925 -25.1462 -6.6767
# 4 -21.4268 -23.9788 9.2925 55.7162 -5.7876 -3.2109
# 5 -5.8631 -1.7659 -25.1462 -5.7876 39.2133 -18.0386
# 6 -7.3508 3.5856 -6.6767 -3.2109 -18.0386 48.5679
#
#
#
# Elastic Compliance Matrix: (Units=1/GPa)
#
#
# Indices 1 2 3 4 5 6 
#
# 1 0.012407 -0.003161 -0.003866 0.004272 0.000869 0.002185
# 2 -0.003161 0.010986 -0.002547 0.003596 -0.002081 -0.002175
# 3 -0.003866 -0.002547 0.010622 -0.003399 0.007240 0.003527
# 4 0.004272 0.003596 -0.003399 0.022167 0.003048 0.002511
# 5 0.000869 -0.002081 0.007240 0.003048 0.037764 0.015508
# 6 0.002185 -0.002175 0.003527 0.002511 0.015508 0.027492
#
#
# Mechanical properties :
#
#
# Convention : Reuss Voigt Hill
#
# Bulk Modulus (GPa) = 67.26029 76.47423 71.86726
# Shear Modulus (GPa) = 34.35445 44.82304 39.58874
#
# Velocity S-wave (km/s) = 3.68594 4.21025 3.95679
# Velocity P-wave (km/s) = 6.68688 7.34018 7.02113
#
# Compressibility (1/GPa) = 0.01486761
#
# Stress axis : x y z
#
# Youngs Moduli (GPa) = 80.59856 91.02413 94.14353
#
# Poissons Ratio (x) = 0.28771 0.36395
# Poissons Ratio (y) = 0.25476 0.23979
# Poissons Ratio (z) = 0.31159 0.23185
#
# Static dielectric constant tensor:
#      x y z
#    x 2.066950 0.026140 -0.012560 
#    y 0.026140 2.108630 0.073410 
#    z -0.012560 0.073410 2.086370 
# 
# From -- ./inp_files/48962.got.cif
#   From: 2010.05.17/outbox.cif.g08.bks.cpg/sg2_25_cif.got.tgz:48962.got - 2010.06.03 11:33:40.
