data_PCOD9044457
_publ_section_title
;
Structure prediction by ZEFSAII (Michael W. Deem and Ramdas Pophale) SiO2 
 PCOD9044457
Probable space group: P -1
;
_chemical_formula_sum "Si O2"
_cell_formula_units_Z 16
_cell_length_a 7.404827
_cell_length_b 15.974401
_cell_length_c 11.657022
_cell_angle_alpha 153.855806
_cell_angle_beta 85.150289
_cell_angle_gamma 100.574164
_cell_volume 586.936677
_symmetry_space_group_name_H-M "P -1"
_symmetry_group_IT_number 2
_symmetry_cell_setting 'triclinic'
loop_
_space_group_symop_operation_xyz
x,y,z
-x,-y,-z
loop_
_atom_site_type_symbol
_atom_site_label
_atom_site_fract_x
_atom_site_fract_y
_atom_site_fract_z
Si Si1 0.627520 0.952686 0.198350
Si Si2 0.633922 0.795585 0.553680
Si Si3 0.662539 0.452465 0.283069
Si Si4 0.190302 0.519786 0.446201
Si Si5 0.279075 0.888701 0.389229
Si Si6 0.988628 0.677097 0.991433
Si Si7 0.201457 0.955452 0.937283
Si Si8 0.723458 0.540265 0.054560
O O1 0.700249 0.935448 0.045756
O O2 0.528102 0.134935 0.417810
O O3 0.768777 0.010448 0.367964
O O4 0.468706 0.759215 0.994768
O O5 0.579119 0.611049 0.416205
O O6 0.764424 0.720896 0.363875
O O7 0.720663 0.971007 0.851478
O O8 0.679575 0.486585 0.459998
O O9 0.866760 0.451553 0.218765
O O10 0.000000 0.500000 0.500000
O O11 0.147575 0.348506 0.143844
O O12 0.223191 0.734782 0.653500
O O13 0.500000 0.000000 0.500000
O O14 0.849024 0.593453 0.000591
O O15 0.134961 0.873727 0.272760
O O16 0.251347 0.659563 0.137510
O O17 0.000000 0.000000 0.000000
O O18 0.500000 0.500000 0.000000
#
# Coordination Sequence:
#
# PCOD9044457 Si02
#       8
#     2   2   2   2   2   2   2   2
#     4  12  26  49  77 111 160 200 256 328 378 462
#     4  12  26  48  77 111 150 203 258 308 400 455
#     4  11  24  49  79 116 151 207 258 322 386 460
#     4  10  23  46  75 110 153 193 259 327 379 451
#     4  12  24  46  76 110 153 203 258 312 388 459
#     4  11  24  45  81 108 153 210 253 317 398 454
#     4  12  27  46  74 113 150 204 260 315 394 464
#     4  12  26  45  75 112 154 200 256 320 384 471
#
# _framework density 27.260179999999998
#
# number of rings (size 3 to 8) (size 9 to 14) (size 15 to 20)
#    0.000    0.500    5.000    3.000    1.750    0.500 
#    2.250    6.250    0.000    0.000    0.000    0.000 
#    0.000    0.000    0.000    0.000    0.000    0.000 
#
# Total GULP energy -89637.414317 kJ/mol
# GULP energy per Si atom -5602.338395 kJ/mol
# Density = 2.719813 g / cm^3
# Si number density = 27.260180 Si / 1000 Ang^3
#
#
#
# Elastic Constant Matrix: (Units=GPa)
#
#
# Indices 1 2 3 4 5 6 
#
# 1 138.4346 43.3039 46.6400 -12.9223 -1.9487 15.4723
# 2 43.3039 139.8097 74.8370 -24.6758 13.8301 1.8674
# 3 46.6400 74.8370 186.8410 -36.2791 1.7724 -10.6037
# 4 -12.9223 -24.6758 -36.2791 71.8654 -11.2528 6.2552
# 5 -1.9487 13.8301 1.7724 -11.2528 47.2125 -4.4289
# 6 15.4723 1.8674 -10.6037 6.2552 -4.4289 47.2924
#
#
#
# Elastic Compliance Matrix: (Units=1/GPa)
#
#
# Indices 1 2 3 4 5 6 
#
# 1 0.008720 -0.001823 -0.001520 0.000571 0.000794 -0.003123
# 2 -0.001823 0.009988 -0.003368 0.001059 -0.002711 -0.000947
# 3 -0.001520 -0.003368 0.007671 0.002479 0.001429 0.002156
# 4 0.000571 0.001059 0.002479 0.016290 0.003361 -0.001513
# 5 0.000794 -0.002711 0.001429 0.003361 0.022931 0.001871
# 6 -0.003123 -0.000947 0.002156 -0.001513 0.001871 0.023063
#
#
# Mechanical properties :
#
#
# Convention : Reuss Voigt Hill
#
# Bulk Modulus (GPa) = 77.18639 88.29412 82.74026
# Shear Modulus (GPa) = 46.99133 53.29437 50.14285
#
# Velocity S-wave (km/s) = 4.15638 4.42636 4.29350
# Velocity P-wave (km/s) = 7.17009 7.65397 7.41598
#
# Compressibility (1/GPa) = 0.01295565
#
# Stress axis : x y z
#
# Youngs Moduli (GPa) = 114.68425 100.12319 130.36705
#
# Poissons Ratio (x) = 0.18253 0.19821
# Poissons Ratio (y) = 0.20908 0.43904
# Poissons Ratio (z) = 0.17436 0.33718
#
# Static dielectric constant tensor:
#      x y z
#    x 2.209680 -0.044980 0.017780 
#    y -0.044980 1.592730 -0.393950 
#    z 0.017780 -0.393950 1.946180 
# 
# From -- ./inp_files/400101.got.cif
#   From: 2010.05.17/outbox.cif.g08.bks.cpg/sg2_201_cif.got.tgz:400101.got - 2010.06.03 11:33:40.
