data_PCOD9044754
_publ_section_title
;
Structure prediction by ZEFSAII (Michael W. Deem and Ramdas Pophale) SiO2 
 PCOD9044754
Probable space group: P -1
;
_chemical_formula_sum "Si O2"
_cell_formula_units_Z 16
_cell_length_a 8.850753
_cell_length_b 20.729975
_cell_length_c 10.283139
_cell_angle_alpha 147.673715
_cell_angle_beta 133.393736
_cell_angle_gamma 41.295727
_cell_volume 658.511997
_symmetry_space_group_name_H-M "P -1"
_symmetry_group_IT_number 2
_symmetry_cell_setting 'triclinic'
loop_
_space_group_symop_operation_xyz
x,y,z
-x,-y,-z
loop_
_atom_site_type_symbol
_atom_site_label
_atom_site_fract_x
_atom_site_fract_y
_atom_site_fract_z
Si Si1 0.829488 0.805087 0.217078
Si Si2 0.829833 0.189724 0.348423
Si Si3 0.246931 0.708344 0.103438
Si Si4 0.995417 0.525280 0.887347
Si Si5 0.403243 0.910983 0.532509
Si Si6 0.940313 0.751488 0.652329
Si Si7 0.549320 0.424535 0.746671
Si Si8 0.764710 0.973811 0.104945
O O1 0.968014 0.812249 0.439342
O O2 0.001004 0.769169 0.132969
O O3 0.633087 0.952866 0.328818
O O4 0.791549 0.672555 0.986201
O O5 0.608193 0.324845 0.491176
O O6 0.903439 0.204234 0.272355
O O7 0.795190 0.062137 0.157394
O O8 0.313501 0.812448 0.243259
O O9 0.426374 0.663798 0.260546
O O10 0.322601 0.563521 0.835969
O O11 0.986784 0.405315 0.595188
O O12 0.236665 0.537249 0.036985
O O13 0.000000 0.500000 0.000000
O O14 0.673551 0.827248 0.576317
O O15 0.232307 0.960454 0.642747
O O16 0.919898 0.817989 0.895434
O O17 0.500000 0.000000 0.000000
#
# Coordination Sequence:
#
# PCOD9044754 Si02
#       8
#     2   2   2   2   2   2   2   2
#     4  10  21  31  57  81 115 136 174 238 274 317
#     4  10  19  36  54  84 110 134 185 223 277 310
#     4   9  16  27  50  77 108 136 171 219 274 307
#     4  10  17  34  51  78 106 139 178 220 274 317
#     4  11  20  35  51  84 114 143 180 219 280 316
#     4  11  21  34  58  78 111 148 181 219 261 330
#     4   9  16  27  52  80 104 132 178 230 257 319
#     4  10  22  35  54  78 107 152 183 218 257 328
#
# _framework density 24.297201999999999
#
# number of rings (size 3 to 8) (size 9 to 14) (size 15 to 20)
#    0.000    2.250    6.250    0.750    0.000    0.500 
#    0.000    0.625    0.000    0.000    0.000    5.250 
#    0.000    0.000    0.000    0.000    0.000    0.000 
#
# Total GULP energy -89283.703855 kJ/mol
# GULP energy per Si atom -5580.231491 kJ/mol
# Density = 2.424190 g / cm^3
# Si number density = 24.297202 Si / 1000 Ang^3
#
#
#
# Elastic Constant Matrix: (Units=GPa)
#
#
# Indices 1 2 3 4 5 6 
#
# 1 60.6554 0.7128 23.2123 6.9678 -0.5280 16.6156
# 2 0.7128 46.4916 30.0049 19.9833 8.2357 1.7726
# 3 23.2123 30.0049 139.3360 34.6674 -1.9709 8.4848
# 4 6.9678 19.9833 34.6674 48.0811 6.0289 5.4471
# 5 -0.5280 8.2357 -1.9709 6.0289 38.3759 2.7764
# 6 16.6156 1.7726 8.4848 5.4471 2.7764 23.7343
#
#
#
# Elastic Compliance Matrix: (Units=1/GPa)
#
#
# Indices 1 2 3 4 5 6 
#
# 1 0.021580 0.002221 -0.003130 -0.000279 0.000729 -0.014175
# 2 0.002221 0.028972 -0.004607 -0.008451 -0.005130 0.000468
# 3 -0.003130 -0.004607 0.010003 -0.005114 0.002272 -0.000133
# 4 -0.000279 -0.008451 -0.005114 0.028790 -0.002713 -0.003636
# 5 0.000729 -0.005130 0.002272 -0.002713 0.027971 -0.003589
# 6 -0.014175 0.000468 -0.000133 -0.003636 -0.003589 0.053323
#
#
# Mechanical properties :
#
#
# Convention : Reuss Voigt Hill
#
# Bulk Modulus (GPa) = 20.19356 39.37145 29.78251
# Shear Modulus (GPa) = 25.22942 34.87512 30.05227
#
# Velocity S-wave (km/s) = 3.22587 3.79272 3.52072
# Velocity P-wave (km/s) = 4.71212 5.95138 5.36763
#
# Compressibility (1/GPa) = 0.04952074
#
# Stress axis : x y z
#
# Youngs Moduli (GPa) = 46.33936 34.51609 99.96901
#
# Poissons Ratio (x) = -0.07664 0.31294
# Poissons Ratio (y) = -0.10290 0.46059
# Poissons Ratio (z) = 0.14506 0.15903
#
# Static dielectric constant tensor:
#      x y z
#    x 1.962960 0.028890 -0.003150 
#    y 0.028890 2.077540 0.009150 
#    z -0.003150 0.009150 2.087880 
# 
# From -- ./inp_files/353152.got.cif
#   From: 2010.05.17/outbox.cif.g08.bks.cpg/sg2_177_cif.got.tgz:353152.got - 2010.06.03 11:33:40.
