data_PCOD9044390
_publ_section_title
;
Structure prediction by ZEFSAII (Michael W. Deem and Ramdas Pophale) SiO2 
 PCOD9044390
Probable space group: P -1
;
_chemical_formula_sum "Si O2"
_cell_formula_units_Z 16
_cell_length_a 8.782649
_cell_length_b 11.557909
_cell_length_c 14.931517
_cell_angle_alpha 37.565126
_cell_angle_beta 131.604576
_cell_angle_gamma 115.525953
_cell_volume 675.660767
_symmetry_space_group_name_H-M "P -1"
_symmetry_group_IT_number 2
_symmetry_cell_setting 'triclinic'
loop_
_space_group_symop_operation_xyz
x,y,z
-x,-y,-z
loop_
_atom_site_type_symbol
_atom_site_label
_atom_site_fract_x
_atom_site_fract_y
_atom_site_fract_z
Si Si1 0.156280 0.774927 0.339719
Si Si2 0.822807 0.276346 0.327166
Si Si3 0.861474 0.390059 0.949974
Si Si4 0.159693 0.526211 0.313460
Si Si5 0.679424 0.918980 0.048497
Si Si6 0.498716 0.856483 0.323254
Si Si7 0.140002 0.908501 0.722821
Si Si8 0.398876 0.507281 0.747047
O O1 0.161496 0.661302 0.316880
O O2 0.338632 0.895753 0.319995
O O3 0.229864 0.626917 0.539715
O O4 0.918172 0.879181 0.196875
O O5 0.823723 0.265940 0.227402
O O6 0.618327 0.378559 0.235968
O O7 0.986786 0.402429 0.343210
O O8 0.920514 0.056217 0.530386
O O9 0.903197 0.379280 0.866554
O O10 0.622918 0.501485 0.796547
O O11 0.861788 0.185396 0.123792
O O12 0.000000 0.500000 0.000000
O O13 0.374544 0.365161 0.488430
O O14 0.638085 0.711324 0.125648
O O15 0.500000 0.000000 0.000000
O O16 0.642297 0.078491 0.858485
O O17 0.678911 0.979060 0.303064
#
# Coordination Sequence:
#
# PCOD9044390 Si02
#       8
#     2   2   2   2   2   2   2   2
#     4  12  26  46  70 109 147 193 245 289 364 437
#     4  10  23  46  74 100 141 194 237 297 363 429
#     4  12  25  47  73 108 144 187 242 299 362 430
#     4  11  23  45  75 104 147 193 235 297 364 432
#     4  12  27  44  69 105 145 191 244 300 358 426
#     4  11  24  44  69 102 148 189 234 299 358 429
#     4  10  23  46  74 103 143 186 243 296 366 426
#     4  12  26  47  72 106 144 191 241 299 366 433
#
# _framework density 23.680522
#
# number of rings (size 3 to 8) (size 9 to 14) (size 15 to 20)
#    0.000    0.750    5.000    1.875    5.250    0.500 
#    4.500    1.250    0.000    0.000    0.000    0.000 
#    0.000    0.000    0.000    0.000    0.000    0.000 
#
# Total GULP energy -89465.415311 kJ/mol
# GULP energy per Si atom -5591.588457 kJ/mol
# Density = 2.362662 g / cm^3
# Si number density = 23.680522 Si / 1000 Ang^3
#
#
#
# Elastic Constant Matrix: (Units=GPa)
#
#
# Indices 1 2 3 4 5 6 
#
# 1 101.7745 23.1169 43.3011 -15.6599 -4.2072 -12.6735
# 2 23.1169 96.9868 17.6793 -4.5865 -6.0090 -10.4532
# 3 43.3011 17.6793 132.5097 8.7488 -14.3801 -16.4266
# 4 -15.6599 -4.5865 8.7488 20.3452 -0.3216 4.8808
# 5 -4.2072 -6.0090 -14.3801 -0.3216 50.4362 5.8708
# 6 -12.6735 -10.4532 -16.4266 4.8808 5.8708 43.0263
#
#
#
# Elastic Compliance Matrix: (Units=1/GPa)
#
#
# Indices 1 2 3 4 5 6 
#
# 1 0.014564 -0.001867 -0.005376 0.013003 -0.000501 0.000377
# 2 -0.001867 0.011151 -0.000644 0.000960 0.000798 0.001695
# 3 -0.005376 -0.000644 0.010634 -0.009572 0.002082 0.003122
# 4 0.013003 0.000960 -0.009572 0.065153 -0.000307 -0.006940
# 5 -0.000501 0.000798 0.002082 -0.000307 0.020699 -0.001948
# 6 0.000377 0.001695 0.003122 -0.006940 -0.001948 0.026010
#
#
# Mechanical properties :
#
#
# Convention : Reuss Voigt Hill
#
# Bulk Modulus (GPa) = 48.60435 55.49618 52.05027
# Shear Modulus (GPa) = 29.26669 39.23977 34.25323
#
# Velocity S-wave (km/s) = 3.51935 4.07510 3.80738
# Velocity P-wave (km/s) = 6.08966 6.75486 6.43087
#
# Compressibility (1/GPa) = 0.02057429
#
# Stress axis : x y z
#
# Youngs Moduli (GPa) = 68.66249 89.68093 94.03473
#
# Poissons Ratio (x) = 0.16742 0.50555
# Poissons Ratio (y) = 0.12818 0.06058
# Poissons Ratio (z) = 0.36915 0.05778
#
# Static dielectric constant tensor:
#      x y z
#    x 1.926460 0.030940 0.008420 
#    y 0.030940 1.962440 0.001350 
#    z 0.008420 0.001350 1.890060 
# 
# From -- ./inp_files/499937.got.cif
#   From: 2010.05.17/outbox.cif.g08.bks.cpg/sg2_250_cif.got.tgz:499937.got - 2010.06.03 11:33:40.
