data_PCOD9044430
_publ_section_title
;
Structure prediction by ZEFSAII (Michael W. Deem and Ramdas Pophale) SiO2 
 PCOD9044430
Probable space group: P -1
;
_chemical_formula_sum "Si O2"
_cell_formula_units_Z 12
_cell_length_a 10.983798
_cell_length_b 9.285651
_cell_length_c 5.105923
_cell_angle_alpha 77.155692
_cell_angle_beta 77.692704
_cell_angle_gamma 113.637456
_cell_volume 437.684635
_symmetry_space_group_name_H-M "P -1"
_symmetry_group_IT_number 2
_symmetry_cell_setting 'triclinic'
loop_
_space_group_symop_operation_xyz
x,y,z
-x,-y,-z
loop_
_atom_site_type_symbol
_atom_site_label
_atom_site_fract_x
_atom_site_fract_y
_atom_site_fract_z
Si Si1 0.664196 0.069305 0.331686
Si Si2 0.257864 0.302560 0.125638
Si Si3 0.935450 0.588543 0.190752
Si Si4 0.736842 0.268891 0.699990
Si Si5 0.445535 0.582545 0.282004
Si Si6 0.879333 0.029923 0.910569
O O1 0.740685 0.134476 0.550592
O O2 0.400059 0.715851 0.344688
O O3 0.700537 0.215915 0.038751
O O4 0.739415 0.974048 0.183069
O O5 0.303754 0.432239 0.288192
O O6 0.163658 0.103118 0.254395
O O7 0.177757 0.370030 0.932654
O O8 0.416704 0.327712 0.995445
O O9 0.861989 0.446506 0.497593
O O10 0.046991 0.766092 0.199823
O O11 0.000000 0.500000 0.000000
O O12 0.500000 0.000000 0.500000
O O13 0.500000 0.500000 0.500000
O O14 0.000000 0.000000 0.000000
#
# Coordination Sequence:
#
# PCOD9044430 Si02
#       6
#     2   2   2   2   2   2
#     4  12  27  51  81 117 164 216 275 351 415 493
#     4  10  23  46  74 114 159 214 269 339 409 490
#     4  11  22  47  80 117 162 217 274 329 409 501
#     4  12  26  48  80 118 158 213 282 335 412 495
#     4  11  23  44  77 109 159 209 272 338 413 485
#     4  10  24  50  80 118 169 216 271 341 417 497
#
# _framework density 27.417000999999999
#
# number of rings (size 3 to 8) (size 9 to 14) (size 15 to 20)
#    0.000    1.000    3.333    2.500    2.333    0.667 
#    3.000    1.667    0.000    0.000    0.000    0.000 
#    0.000    0.000    0.000    0.000    0.000    0.000 
#
# Total GULP energy -66993.789664 kJ/mol
# GULP energy per Si atom -5582.815805 kJ/mol
# Density = 2.735460 g / cm^3
# Si number density = 27.417001 Si / 1000 Ang^3
#
#
#
# Elastic Constant Matrix: (Units=GPa)
#
#
# Indices 1 2 3 4 5 6 
#
# 1 154.4525 54.9133 38.1959 -18.6055 -12.6652 1.9238
# 2 54.9133 219.0006 53.4600 -1.0351 5.0930 14.9929
# 3 38.1959 53.4600 130.2135 -12.6091 -11.7679 10.0219
# 4 -18.6055 -1.0351 -12.6091 39.9400 -0.1824 13.9560
# 5 -12.6652 5.0930 -11.7679 -0.1824 51.3005 7.3907
# 6 1.9238 14.9929 10.0219 13.9560 7.3907 67.0491
#
#
#
# Elastic Compliance Matrix: (Units=1/GPa)
#
#
# Indices 1 2 3 4 5 6 
#
# 1 0.007947 -0.001722 -0.001049 0.003562 0.001998 -0.000648
# 2 -0.001722 0.005538 -0.001958 -0.001102 -0.001353 -0.000518
# 3 -0.001049 -0.001958 0.009449 0.003102 0.002381 -0.001853
# 4 0.003562 -0.001102 0.003102 0.030067 0.002799 -0.006886
# 5 0.001998 -0.001353 0.002381 0.002799 0.021112 -0.003020
# 6 -0.000648 -0.000518 -0.001853 -0.006886 -0.003020 0.017092
#
#
# Mechanical properties :
#
#
# Convention : Reuss Voigt Hill
#
# Bulk Modulus (GPa) = 74.19938 88.53390 81.36664
# Shear Modulus (GPa) = 47.54966 55.46440 51.50703
#
# Velocity S-wave (km/s) = 4.16903 4.50265 4.33905
# Velocity P-wave (km/s) = 7.09200 7.70672 7.40574
#
# Compressibility (1/GPa) = 0.01347720
#
# Stress axis : x y z
#
# Youngs Moduli (GPa) = 125.83268 180.58622 105.82943
#
# Poissons Ratio (x) = 0.31096 0.11100
# Poissons Ratio (y) = 0.21668 0.20716
# Poissons Ratio (z) = 0.13197 0.35350
#
# Static dielectric constant tensor:
#      x y z
#    x 0.950680 0.364260 0.547140 
#    y 0.364260 2.045830 -0.143330 
#    z 0.547140 -0.143330 1.898560 
# 
# From -- ./inp_files/60238.got.cif
#   From: 2010.05.17/outbox.cif.g08.bks.cpg/sg2_31_cif.got.tgz:60238.got - 2010.06.03 11:33:40.
