data_PCOD9044844
_publ_section_title
;
Structure prediction by ZEFSAII (Michael W. Deem and Ramdas Pophale) SiO2 
 PCOD9044844
Probable space group: P -1
;
_chemical_formula_sum "Si O2"
_cell_formula_units_Z 11
_cell_length_a 7.702513
_cell_length_b 8.749923
_cell_length_c 11.857944
_cell_angle_alpha 63.733452
_cell_angle_beta 48.320263
_cell_angle_gamma 50.735052
_cell_volume 461.802270
_symmetry_space_group_name_H-M "P -1"
_symmetry_group_IT_number 2
_symmetry_cell_setting 'triclinic'
loop_
_space_group_symop_operation_xyz
x,y,z
-x,-y,-z
loop_
_atom_site_type_symbol
_atom_site_label
_atom_site_fract_x
_atom_site_fract_y
_atom_site_fract_z
Si Si1 0.095269 0.282234 0.078640
Si Si2 0.535773 0.913102 0.387454
Si Si3 0.227954 0.701020 0.581097
Si Si4 0.500000 0.500000 0.000000
Si Si5 0.377359 0.900935 0.928175
Si Si6 0.952567 0.507808 0.650843
O O1 0.356109 0.218232 0.066792
O O2 0.858107 0.295655 0.253635
O O3 0.000000 0.500000 0.000000
O O4 0.190102 0.106406 0.006381
O O5 0.291922 0.873707 0.477251
O O6 0.803875 0.698193 0.340782
O O7 0.500000 0.000000 0.500000
O O8 0.567942 0.040071 0.235989
O O9 0.500000 0.500000 0.500000
O O10 0.005850 0.680593 0.613915
O O11 0.713338 0.260061 0.986644
O O12 0.321006 0.469699 0.188649
O O13 0.000000 0.500000 0.500000
#
# Coordination Sequence:
#
# PCOD9044844 Si02
#       6
#     2   2   2   1   2   2
#     4  11  24  47  76 112 150 198 261 325 397 471
#     4  11  26  48  73 111 154 204 266 324 399 473
#     4  10  23  47  75 108 152 199 258 323 397 470
#     4  12  26  48  74 112 160 196 272 318 396 476
#     4  11  27  46  75 113 152 208 256 328 398 468
#     4  11  25  48  77 112 157 209 259 332 397 479
#
# _framework density 23.819718999999999
#
# number of rings (size 3 to 8) (size 9 to 14) (size 15 to 20)
#    0.000    1.091    1.818    3.273    2.545    8.727 
#    0.000    0.000    0.000    0.000    0.000    0.000 
#    0.000    0.000    0.000    0.000    0.000    0.000 
#
# Total GULP energy -61285.514822 kJ/mol
# GULP energy per Si atom -5571.410438 kJ/mol
# Density = 2.376550 g / cm^3
# Si number density = 23.819719 Si / 1000 Ang^3
#
#
#
# Elastic Constant Matrix: (Units=GPa)
#
#
# Indices 1 2 3 4 5 6 
#
# 1 76.9031 31.8864 53.4919 -1.9300 18.4653 -5.8376
# 2 31.8864 175.3111 75.3855 -22.2014 22.3964 -4.6773
# 3 53.4919 75.3855 222.4524 -14.0526 13.4819 12.4300
# 4 -1.9300 -22.2014 -14.0526 67.7751 -4.7703 0.1369
# 5 18.4653 22.3964 13.4819 -4.7703 30.8603 11.1639
# 6 -5.8376 -4.6773 12.4300 0.1369 11.1639 32.3785
#
#
#
# Elastic Compliance Matrix: (Units=1/GPa)
#
#
# Indices 1 2 3 4 5 6 
#
# 1 0.020450 0.000300 -0.004823 -0.001352 -0.014370 0.010542
# 2 0.000300 0.007806 -0.002485 0.001617 -0.006031 0.004208
# 3 -0.004823 -0.002485 0.006596 0.000690 0.003742 -0.005054
# 4 -0.001352 0.001617 0.000690 0.015541 0.002124 -0.001073
# 5 -0.014370 -0.006031 0.003742 0.002124 0.052382 -0.022969
# 6 0.010542 0.004208 -0.005054 -0.001073 -0.022969 0.043258
#
#
# Mechanical properties :
#
#
# Convention : Reuss Voigt Hill
#
# Bulk Modulus (GPa) = 47.99111 88.46603 68.22857
# Shear Modulus (GPa) = 29.94126 47.12962 38.53544
#
# Velocity S-wave (km/s) = 3.54926 4.45297 4.02655
# Velocity P-wave (km/s) = 6.08175 7.97866 7.09390
#
# Compressibility (1/GPa) = 0.02083719
#
# Stress axis : x y z
#
# Youngs Moduli (GPa) = 48.89895 128.11215 151.59944
#
# Poissons Ratio (x) = -0.03845 0.73114
# Poissons Ratio (y) = -0.01468 0.37670
# Poissons Ratio (z) = 0.23583 0.31834
#
# Static dielectric constant tensor:
#      x y z
#    x 2.025240 0.037880 0.048170 
#    y 0.037880 1.890590 -0.104950 
#    z 0.048170 -0.104950 1.619750 
# 
# From -- ./inp_files/173920.got.cif
#   From: 2010.05.17/outbox.cif.g08.bks.cpg/sg2_87_cif.got.tgz:173920.got - 2010.06.03 11:33:40.
