data_PCOD9044481
_publ_section_title
;
Structure prediction by ZEFSAII (Michael W. Deem and Ramdas Pophale) SiO2 
 PCOD9044481
Probable space group: P -1
;
_chemical_formula_sum "Si O2"
_cell_formula_units_Z 12
_cell_length_a 8.755940
_cell_length_b 11.361432
_cell_length_c 8.975466
_cell_angle_alpha 46.259265
_cell_angle_beta 84.547769
_cell_angle_gamma 57.322574
_cell_volume 482.798438
_symmetry_space_group_name_H-M "P -1"
_symmetry_group_IT_number 2
_symmetry_cell_setting 'triclinic'
loop_
_space_group_symop_operation_xyz
x,y,z
-x,-y,-z
loop_
_atom_site_type_symbol
_atom_site_label
_atom_site_fract_x
_atom_site_fract_y
_atom_site_fract_z
Si Si1 0.213338 0.297024 0.737220
Si Si2 0.984093 0.853649 0.036517
Si Si3 0.161578 0.477074 0.896928
Si Si4 0.974147 0.938214 0.401134
Si Si5 0.534288 0.175880 0.331614
Si Si6 0.566667 0.591240 0.545839
O O1 0.209173 0.323093 0.892349
O O2 0.391513 0.272995 0.668679
O O3 0.000000 0.500000 0.500000
O O4 0.193213 0.119671 0.887188
O O5 0.945576 0.967357 0.786074
O O6 0.207519 0.616929 0.232618
O O7 0.000000 0.000000 0.000000
O O8 0.091814 0.684332 0.626497
O O9 0.349493 0.378478 0.074136
O O10 0.000000 0.500000 0.000000
O O11 0.735036 0.062517 0.311482
O O12 0.000000 0.000000 0.500000
O O13 0.539394 0.270045 0.409180
O O14 0.500000 0.000000 0.500000
O O15 0.500000 0.500000 0.500000
#
# Coordination Sequence:
#
# PCOD9044481 Si02
#       6
#     2   2   2   2   2   2
#     4  10  23  46  77 103 154 205 251 314 389 457
#     4  11  26  45  74 110 149 202 258 307 388 464
#     4  12  24  48  78 110 153 202 256 326 382 457
#     4  12  27  45  76 109 154 199 257 316 386 458
#     4  12  29  48  80 117 152 204 265 314 391 462
#     4  11  27  50  75 112 156 196 255 326 382 459
#
# _framework density 24.855090000000001
#
# number of rings (size 3 to 8) (size 9 to 14) (size 15 to 20)
#    0.000    0.667    1.667    6.000    9.333    1.333 
#    0.000    1.667    0.000    0.000    0.000    0.000 
#    0.000    0.000    0.000    0.000    0.000    0.000 
#
# Total GULP energy -66836.872597 kJ/mol
# GULP energy per Si atom -5569.739383 kJ/mol
# Density = 2.479852 g / cm^3
# Si number density = 24.855090 Si / 1000 Ang^3
#
#
#
# Elastic Constant Matrix: (Units=GPa)
#
#
# Indices 1 2 3 4 5 6 
#
# 1 118.4545 5.4480 56.6203 -4.8780 -6.5353 6.1848
# 2 5.4480 83.4052 16.7812 17.2709 7.8725 19.1979
# 3 56.6203 16.7812 137.5145 9.6409 -1.4832 -15.7411
# 4 -4.8780 17.2709 9.6409 56.3374 5.5721 6.6303
# 5 -6.5353 7.8725 -1.4832 5.5721 65.3064 -6.0908
# 6 6.1848 19.1979 -15.7411 6.6303 -6.0908 35.6421
#
#
#
# Elastic Compliance Matrix: (Units=1/GPa)
#
#
# Indices 1 2 3 4 5 6 
#
# 1 0.011481 0.001178 -0.005656 0.002232 0.000174 -0.005510
# 2 0.001178 0.015725 -0.003401 -0.002692 -0.002569 -0.010114
# 3 -0.005656 -0.003401 0.011159 -0.002451 0.001088 0.008383
# 4 0.002232 -0.002692 -0.002451 0.019811 -0.001569 -0.003973
# 5 0.000174 -0.002569 0.001088 -0.001569 0.016255 0.004904
# 6 -0.005510 -0.010114 0.008383 -0.003973 0.004904 0.039740
#
#
# Mechanical properties :
#
#
# Convention : Reuss Voigt Hill
#
# Bulk Modulus (GPa) = 44.23465 55.23036 49.73250
# Shear Modulus (GPa) = 36.37292 48.82549 42.59921
#
# Velocity S-wave (km/s) = 3.82959 4.43697 4.14442
# Velocity P-wave (km/s) = 6.11474 6.96550 6.55394
#
# Compressibility (1/GPa) = 0.02260671
#
# Stress axis : x y z
#
# Youngs Moduli (GPa) = 87.10275 63.59315 89.61362
#
# Poissons Ratio (x) = -0.07490 0.50687
# Poissons Ratio (y) = -0.10258 0.30474
# Poissons Ratio (z) = 0.49266 0.21625
#
# Static dielectric constant tensor:
#      x y z
#    x 1.992470 0.170490 -0.104440 
#    y 0.170490 1.581570 -0.145450 
#    z -0.104440 -0.145450 1.833090 
# 
# From -- ./inp_files/159309.got.cif
#   From: 2010.05.17/outbox.cif.g08.bks.cpg/sg2_80_cif.got.tgz:159309.got - 2010.06.03 11:33:40.
