data_PCOD9044359
_publ_section_title
;
Structure prediction by ZEFSAII (Michael W. Deem and Ramdas Pophale) SiO2 
 PCOD9044359
Probable space group: P -1
;
_chemical_formula_sum "Si O2"
_cell_formula_units_Z 14
_cell_length_a 14.769622
_cell_length_b 14.726462
_cell_length_c 5.363918
_cell_angle_alpha 84.494125
_cell_angle_beta 90.822950
_cell_angle_gamma 29.616375
_cell_volume 562.448453
_symmetry_space_group_name_H-M "P -1"
_symmetry_group_IT_number 2
_symmetry_cell_setting 'triclinic'
loop_
_space_group_symop_operation_xyz
x,y,z
-x,-y,-z
loop_
_atom_site_type_symbol
_atom_site_label
_atom_site_fract_x
_atom_site_fract_y
_atom_site_fract_z
Si Si1 0.369320 0.399623 0.220830
Si Si2 0.213667 0.830147 0.476675
Si Si3 0.253549 0.005024 0.562052
Si Si4 0.443311 0.452125 0.722485
Si Si5 0.772125 0.681817 0.157766
Si Si6 0.620933 0.939829 0.735002
Si Si7 0.032208 0.612250 0.382082
O O1 0.387635 0.442773 0.470374
O O2 0.187391 0.497540 0.212967
O O3 0.541397 0.177859 0.264654
O O4 0.384228 0.450485 0.967590
O O5 0.335936 0.643249 0.662668
O O6 0.331406 0.728900 0.244060
O O7 0.227087 0.923806 0.522682
O O8 0.000000 0.000000 0.500000
O O9 0.270078 0.064400 0.327775
O O10 0.081906 0.193611 0.659261
O O11 0.858455 0.516486 0.330908
O O12 0.877180 0.672191 0.309124
O O13 0.548791 0.877862 0.142980
O O14 0.771591 0.730229 0.874866
O O15 0.500000 0.000000 0.500000
#
# Coordination Sequence:
#
# PCOD9044359 Si02
#       7
#     2   2   2   2   2   2   2
#     4  11  25  46  73 108 148 192 240 301 363 441
#     4  10  23  46  73 106 142 186 241 302 358 435
#     4  11  24  41  70 105 141 189 242 296 371 430
#     4  10  25  47  73 104 146 192 236 296 373 430
#     4  10  24  42  68 100 143 188 244 300 362 432
#     4  11  22  45  68  97 143 190 236 303 364 430
#     4  11  23  44  68 110 141 191 247 299 365 434
#
# _framework density 24.891171
#
# number of rings (size 3 to 8) (size 9 to 14) (size 15 to 20)
#    0.000    1.429    2.857    0.857    0.000   12.571 
#    0.000    4.286    0.000    0.000    0.000    0.000 
#    0.000    0.000    0.000    0.000    0.000    0.000 
#
# Total GULP energy -78111.160269 kJ/mol
# GULP energy per Si atom -5579.368591 kJ/mol
# Density = 2.483452 g / cm^3
# Si number density = 24.891171 Si / 1000 Ang^3
#
#
#
# Elastic Constant Matrix: (Units=GPa)
#
#
# Indices 1 2 3 4 5 6 
#
# 1 129.5988 77.2505 46.2213 7.2158 -27.0791 -7.5583
# 2 77.2505 173.8298 44.4730 -24.5874 -23.7134 -2.6923
# 3 46.2213 44.4730 137.9522 5.2294 -26.9614 9.9036
# 4 7.2158 -24.5874 5.2294 26.3746 4.7262 -15.6288
# 5 -27.0791 -23.7134 -26.9614 4.7262 39.8060 5.7152
# 6 -7.5583 -2.6923 9.9036 -15.6288 5.7152 59.5354
#
#
#
# Elastic Compliance Matrix: (Units=1/GPa)
#
#
# Indices 1 2 3 4 5 6 
#
# 1 0.014194 -0.007175 -0.000358 -0.013343 0.007103 -0.002647
# 2 -0.007175 0.011777 -0.002848 0.016750 -0.002462 0.004729
# 3 -0.000358 -0.002848 0.010276 -0.008646 0.006735 -0.004800
# 4 -0.013343 0.016750 -0.008646 0.074840 -0.016967 0.021777
# 5 0.007103 -0.002462 0.006735 -0.016967 0.036250 -0.008264
# 6 -0.002647 0.004729 -0.004800 0.021777 -0.008264 0.023983
#
#
# Mechanical properties :
#
#
# Convention : Reuss Voigt Hill
#
# Bulk Modulus (GPa) = 64.59004 86.36336 75.47670
# Shear Modulus (GPa) = 25.34947 43.37227 34.36087
#
# Velocity S-wave (km/s) = 3.19472 4.17883 3.71946
# Velocity P-wave (km/s) = 6.29393 7.61939 6.98816
#
# Compressibility (1/GPa) = 0.01548226
#
# Stress axis : x y z
#
# Youngs Moduli (GPa) = 70.45458 84.91341 97.31614
#
# Poissons Ratio (x) = 0.60928 0.03488
# Poissons Ratio (y) = 0.50553 0.27717
# Poissons Ratio (z) = 0.02525 0.24184
#
# Static dielectric constant tensor:
#      x y z
#    x 2.045840 -0.047080 0.014450 
#    y -0.047080 2.022720 0.135060 
#    z 0.014450 0.135060 2.208050 
# 
# From -- ./inp_files/97705.got.cif
#   From: 2010.05.17/outbox.cif.g08.bks.cpg/sg2_49_cif.got.tgz:97705.got - 2010.06.03 11:33:40.
