data_PCOD9044273
_publ_section_title
;
Structure prediction by ZEFSAII (Michael W. Deem and Ramdas Pophale) SiO2 
 PCOD9044273
Probable space group: P -1
;
_chemical_formula_sum "Si O2"
_cell_formula_units_Z 14
_cell_length_a 17.589352
_cell_length_b 7.443030
_cell_length_c 9.635309
_cell_angle_alpha 131.093850
_cell_angle_beta 143.935861
_cell_angle_gamma 55.703701
_cell_volume 558.174423
_symmetry_space_group_name_H-M "P -1"
_symmetry_group_IT_number 2
_symmetry_cell_setting 'triclinic'
loop_
_space_group_symop_operation_xyz
x,y,z
-x,-y,-z
loop_
_atom_site_type_symbol
_atom_site_label
_atom_site_fract_x
_atom_site_fract_y
_atom_site_fract_z
Si Si1 0.645528 0.928791 0.129697
Si Si2 0.277531 0.586861 0.057545
Si Si3 0.310097 0.029928 0.481582
Si Si4 0.136747 0.774759 0.447739
Si Si5 0.090224 0.854559 0.726985
Si Si6 0.504288 0.677926 0.228737
Si Si7 0.772522 0.702682 0.761608
O O1 0.709548 0.875634 0.347541
O O2 0.717289 0.144512 0.282022
O O3 0.677838 0.682220 0.973814
O O4 0.500000 0.000000 0.000000
O O5 0.142463 0.545459 0.241065
O O6 0.376368 0.666403 0.123502
O O7 0.291465 0.754323 0.295445
O O8 0.141196 0.667497 0.824446
O O9 0.453495 0.080396 0.660166
O O10 0.214972 0.178067 0.312398
O O11 0.089912 0.732543 0.513841
O O12 0.046706 0.000267 0.374980
O O13 0.183461 0.081279 0.970517
O O14 0.622499 0.641029 0.496043
O O15 0.500000 0.500000 0.000000
#
# Coordination Sequence:
#
# PCOD9044273 Si02
#       7
#     2   2   2   2   2   2   2
#     4  12  26  38  58  88 127 154 186 248 312 348
#     4  11  21  40  61  86 119 156 202 237 291 360
#     4   9  22  37  60  88 112 157 195 238 296 348
#     4  11  23  39  60  90 124 152 198 248 290 355
#     4  10  23  40  64  87 111 164 206 239 289 342
#     4  10  17  33  65  89 112 149 199 248 281 340
#     4   9  20  38  64  85 116 153 203 247 284 344
#
# _framework density 25.081762999999999
#
# number of rings (size 3 to 8) (size 9 to 14) (size 15 to 20)
#    0.857    0.857    1.429    3.429    2.000    2.286 
#    0.000    2.857    0.000    0.000    0.000    0.000 
#    0.000    0.000    0.000    0.000    0.000    0.000 
#
# Total GULP energy -78134.829397 kJ/mol
# GULP energy per Si atom -5581.059243 kJ/mol
# Density = 2.502468 g / cm^3
# Si number density = 25.081763 Si / 1000 Ang^3
#
#
#
# Elastic Constant Matrix: (Units=GPa)
#
#
# Indices 1 2 3 4 5 6 
#
# 1 42.5074 3.0648 -6.7947 -9.5039 3.2726 -3.7045
# 2 3.0648 114.9073 4.7228 6.7060 22.5874 4.3362
# 3 -6.7947 4.7228 48.7260 -3.9021 12.9470 -3.1703
# 4 -9.5039 6.7060 -3.9021 36.2589 0.5688 11.9208
# 5 3.2726 22.5874 12.9470 0.5688 22.8769 -4.7519
# 6 -3.7045 4.3362 -3.1703 11.9208 -4.7519 21.7138
#
#
#
# Elastic Compliance Matrix: (Units=1/GPa)
#
#
# Indices 1 2 3 4 5 6 
#
# 1 0.026909 0.000141 0.006463 0.008068 -0.007986 -0.000671
# 2 0.000141 0.011471 0.002204 -0.000018 -0.013613 -0.004914
# 3 0.006463 0.002204 0.026439 0.005227 -0.018700 -0.002439
# 4 0.008068 -0.000018 0.005227 0.037050 -0.009214 -0.020214
# 5 -0.007986 -0.013613 -0.018700 -0.009214 0.073201 0.019704
# 6 -0.000671 -0.004914 -0.002439 -0.020214 0.019704 0.061974
#
#
# Mechanical properties :
#
#
# Convention : Reuss Voigt Hill
#
# Bulk Modulus (GPa) = 12.13076 23.12517 17.62796
# Shear Modulus (GPa) = 20.25059 29.84644 25.04852
#
# Velocity S-wave (km/s) = 2.84453 3.45333 3.16361
# Velocity P-wave (km/s) = 3.95417 5.01404 4.51531
#
# Compressibility (1/GPa) = 0.08243509
#
# Stress axis : x y z
#
# Youngs Moduli (GPa) = 37.16277 87.17764 37.82235
#
# Poissons Ratio (x) = -0.01229 -0.24445
# Poissons Ratio (y) = -0.00524 -0.08336
# Poissons Ratio (z) = -0.24019 -0.19213
#
# Static dielectric constant tensor:
#      x y z
#    x 1.965850 0.028180 0.065870 
#    y 0.028180 2.001400 -0.070680 
#    z 0.065870 -0.070680 2.049310 
# 
# From -- ./inp_files/310583.got.cif
#   From: 2010.05.17/outbox.cif.g08.bks.cpg/sg2_156_cif.got.tgz:310583.got - 2010.06.03 11:33:40.
