data_PCOD9044404
_publ_section_title
;
Structure prediction by ZEFSAII (Michael W. Deem and Ramdas Pophale) SiO2 
 PCOD9044404
Probable space group: P -1
;
_chemical_formula_sum "Si O2"
_cell_formula_units_Z 14
_cell_length_a 7.804532
_cell_length_b 19.762163
_cell_length_c 11.554273
_cell_angle_alpha 28.377330
_cell_angle_beta 69.056923
_cell_angle_gamma 50.009506
_cell_volume 532.628492
_symmetry_space_group_name_H-M "P -1"
_symmetry_group_IT_number 2
_symmetry_cell_setting 'triclinic'
loop_
_space_group_symop_operation_xyz
x,y,z
-x,-y,-z
loop_
_atom_site_type_symbol
_atom_site_label
_atom_site_fract_x
_atom_site_fract_y
_atom_site_fract_z
Si Si1 0.724086 0.224134 0.969841
Si Si2 0.230484 0.517410 0.094650
Si Si3 0.776036 0.962385 0.196173
Si Si4 0.660484 0.916283 0.709341
Si Si5 0.429711 0.210688 0.704446
Si Si6 0.619003 0.256926 0.214411
Si Si7 0.111878 0.603004 0.468861
O O1 0.420215 0.384293 0.749000
O O2 0.863759 0.286607 0.798360
O O3 0.891392 0.997686 0.215117
O O4 0.666926 0.253014 0.074386
O O5 0.431768 0.312202 0.439855
O O6 0.309429 0.424803 0.085665
O O7 0.270690 0.664583 0.869890
O O8 0.926408 0.671628 0.983234
O O9 0.536190 0.016832 0.239382
O O10 0.633663 0.140144 0.862288
O O11 0.985486 0.741764 0.409723
O O12 0.500000 0.000000 0.500000
O O13 0.742368 0.031140 0.547526
O O14 0.108154 0.381894 0.547400
O O15 0.500000 0.000000 0.000000
#
# Coordination Sequence:
#
# PCOD9044404 Si02
#       7
#     2   2   2   2   2   2   2
#     4  11  24  41  68 103 139 183 231 284 354 418
#     4  11  27  49  74 101 146 193 235 298 351 423
#     4  11  24  45  70 102 138 179 233 295 352 405
#     4  12  26  46  73 109 141 188 241 289 354 429
#     4  10  23  46  74 103 136 183 240 290 356 420
#     4  11  26  48  69 106 145 192 239 286 356 427
#     4  10  24  42  65 103 138 181 228 291 348 417
#
# _framework density 26.284738999999998
#
# number of rings (size 3 to 8) (size 9 to 14) (size 15 to 20)
#    0.000    1.143    1.429    3.429    8.000    1.714 
#   10.286    0.000    0.000    0.000    0.000    0.000 
#    0.000    0.000    0.000    0.000    0.000    0.000 
#
# Total GULP energy -78288.520974 kJ/mol
# GULP energy per Si atom -5592.037212 kJ/mol
# Density = 2.622491 g / cm^3
# Si number density = 26.284739 Si / 1000 Ang^3
#
#
#
# Elastic Constant Matrix: (Units=GPa)
#
#
# Indices 1 2 3 4 5 6 
#
# 1 29.8209 6.2968 14.6445 -5.6033 -9.5533 0.4696
# 2 6.2968 219.3979 56.8308 -12.4364 -13.5878 11.8418
# 3 14.6445 56.8308 97.8506 -3.6870 -1.6369 7.4098
# 4 -5.6033 -12.4364 -3.6870 43.0597 -6.5834 -9.8073
# 5 -9.5533 -13.5878 -1.6369 -6.5834 27.5717 1.1279
# 6 0.4696 11.8418 7.4098 -9.8073 1.1279 49.6640
#
#
#
# Elastic Compliance Matrix: (Units=1/GPa)
#
#
# Indices 1 2 3 4 5 6 
#
# 1 0.044057 0.002165 -0.007332 0.008814 0.017940 0.001494
# 2 0.002165 0.005797 -0.003503 0.002132 0.003931 -0.000548
# 3 -0.007332 -0.003503 0.013324 -0.001715 -0.003831 -0.001335
# 4 0.008814 0.002132 -0.001715 0.027534 0.010378 0.004866
# 5 0.017940 0.003931 -0.003831 0.010378 0.046654 0.000455
# 6 0.001494 -0.000548 -0.001335 0.004866 0.000455 0.021402
#
#
# Mechanical properties :
#
#
# Convention : Reuss Voigt Hill
#
# Bulk Modulus (GPa) = 21.81640 55.84598 38.83119
# Shear Modulus (GPa) = 26.12496 42.01223 34.06860
#
# Velocity S-wave (km/s) = 3.15607 4.00228 3.60409
# Velocity P-wave (km/s) = 4.64748 6.53072 5.66786
#
# Compressibility (1/GPa) = 0.04583707
#
# Stress axis : x y z
#
# Youngs Moduli (GPa) = 22.69803 172.49882 75.05229
#
# Poissons Ratio (x) = -0.37342 0.55027
# Poissons Ratio (y) = -0.04914 0.26293
# Poissons Ratio (z) = 0.16642 0.60432
#
# Static dielectric constant tensor:
#      x y z
#    x 2.159070 -0.032380 0.010560 
#    y -0.032380 2.062070 -0.006550 
#    z 0.010560 -0.006550 2.125820 
# 
# From -- ./inp_files/405260.got.cif
#   From: 2010.05.17/outbox.cif.g08.bks.cpg/sg2_203_cif.got.tgz:405260.got - 2010.06.03 11:33:40.
