data_PCOD9044583
_publ_section_title
;
Structure prediction by ZEFSAII (Michael W. Deem and Ramdas Pophale) SiO2 
 PCOD9044583
Probable space group: P -1
;
_chemical_formula_sum "Si O2"
_cell_formula_units_Z 15
_cell_length_a 14.687375
_cell_length_b 5.136289
_cell_length_c 23.938483
_cell_angle_alpha 63.545735
_cell_angle_beta 158.950152
_cell_angle_gamma 111.240437
_cell_volume 572.634238
_symmetry_space_group_name_H-M "P -1"
_symmetry_group_IT_number 2
_symmetry_cell_setting 'triclinic'
loop_
_space_group_symop_operation_xyz
x,y,z
-x,-y,-z
loop_
_atom_site_type_symbol
_atom_site_label
_atom_site_fract_x
_atom_site_fract_y
_atom_site_fract_z
Si Si1 0.886823 0.118256 0.275508
Si Si2 0.519556 0.615745 0.822120
Si Si3 0.000000 0.500000 0.500000
Si Si4 0.171449 0.184434 0.115499
Si Si5 0.915332 0.887520 0.728184
Si Si6 0.596653 0.735137 0.651915
Si Si7 0.339827 0.076858 0.016543
Si Si8 0.198297 0.446803 0.510432
O O1 0.921115 0.226436 0.221877
O O2 0.036965 0.286912 0.389892
O O3 0.588338 0.131620 0.117876
O O4 0.028106 0.775311 0.393818
O O5 0.215133 0.638033 0.645424
O O6 0.597453 0.768020 0.796600
O O7 0.631622 0.271118 0.922162
O O8 0.638597 0.754912 0.930088
O O9 0.224138 0.336137 0.599291
O O10 0.283761 0.079654 0.249857
O O11 0.000000 0.500000 0.000000
O O12 0.000000 0.000000 0.000000
O O13 0.813316 0.668566 0.734880
O O14 0.653741 0.069533 0.536207
O O15 0.074112 0.116591 0.826657
O O16 0.470532 0.483282 0.635153
#
# Coordination Sequence:
#
# PCOD9044583 Si02
#       8
#     2   2   1   2   2   2   2   2
#     4  11  23  43  65 103 131 182 221 282 334 402
#     4  12  26  43  74 103 139 181 223 286 347 409
#     4  12  22  46  68 104 138 182 222 284 342 414
#     4  12  26  47  72 103 139 177 225 283 344 410
#     4  10  24  44  73  95 141 182 235 280 336 400
#     4  10  23  47  68 102 133 185 229 282 336 409
#     4  12  24  46  69 104 140 178 230 281 345 405
#     4  11  24  42  70  96 140 171 229 276 343 401
#
# _framework density 26.194734
#
# number of rings (size 3 to 8) (size 9 to 14) (size 15 to 20)
#    0.000    0.800    4.000    2.800    0.000    6.933 
#    0.000   10.000    0.000    0.000    0.000    0.000 
#    0.000    0.000    0.000    0.000    0.000    0.000 
#
# Total GULP energy -83863.698294 kJ/mol
# GULP energy per Si atom -5590.913220 kJ/mol
# Density = 2.613511 g / cm^3
# Si number density = 26.194734 Si / 1000 Ang^3
#
#
#
# Elastic Constant Matrix: (Units=GPa)
#
#
# Indices 1 2 3 4 5 6 
#
# 1 132.0342 25.8827 55.5625 21.8277 -5.3448 -24.7498
# 2 25.8827 135.2893 49.5111 39.0845 -20.9094 -23.2218
# 3 55.5625 49.5111 183.1245 44.1856 -11.9385 -9.3600
# 4 21.8277 39.0845 44.1856 46.4066 -11.1599 -8.7035
# 5 -5.3448 -20.9094 -11.9385 -11.1599 46.4537 19.8125
# 6 -24.7498 -23.2218 -9.3600 -8.7035 19.8125 26.1721
#
#
#
# Elastic Compliance Matrix: (Units=1/GPa)
#
#
# Indices 1 2 3 4 5 6 
#
# 1 0.011338 0.001079 -0.002833 -0.002221 -0.005472 0.014069
# 2 0.001079 0.011076 -0.001173 -0.007269 -0.000524 0.008408
# 3 -0.002833 -0.001173 0.007875 -0.005546 0.001491 -0.003877
# 4 -0.002221 -0.007269 -0.005546 0.034607 0.004349 -0.002317
# 5 -0.005472 -0.000524 0.001491 0.004349 0.034927 -0.030100
# 6 0.014069 0.008408 -0.003877 -0.002317 -0.030100 0.079602
#
#
# Mechanical properties :
#
#
# Convention : Reuss Voigt Hill
#
# Bulk Modulus (GPa) = 40.92650 79.15119 60.03884
# Shear Modulus (GPa) = 25.84991 45.10592 35.47791
#
# Velocity S-wave (km/s) = 3.14480 4.15414 3.68420
# Velocity P-wave (km/s) = 5.37068 7.30008 6.40841
#
# Compressibility (1/GPa) = 0.02443405
#
# Stress axis : x y z
#
# Youngs Moduli (GPa) = 88.20246 90.28163 126.98819
#
# Poissons Ratio (x) = -0.09738 0.35981
# Poissons Ratio (y) = -0.09513 0.14889
# Poissons Ratio (z) = 0.24991 0.10586
#
# Static dielectric constant tensor:
#      x y z
#    x 2.451920 0.212210 -0.023160 
#    y 0.212210 2.089100 0.037350 
#    z -0.023160 0.037350 1.950970 
# 
# From -- ./inp_files/611170.got.cif
#   From: 2010.05.17/outbox.cif.g08.bks.cpg/sg2_306_cif.got.tgz:611170.got - 2010.06.03 11:33:40.
