data_PCOD9044295
_publ_section_title
;
Structure prediction by ZEFSAII (Michael W. Deem and Ramdas Pophale) SiO2 
 PCOD9044295
Probable space group: P -1
;
_chemical_formula_sum "Si O2"
_cell_formula_units_Z 14
_cell_length_a 9.587088
_cell_length_b 9.600471
_cell_length_c 11.781380
_cell_angle_alpha 52.268445
_cell_angle_beta 53.532829
_cell_angle_gamma 46.822418
_cell_volume 595.701015
_symmetry_space_group_name_H-M "P -1"
_symmetry_group_IT_number 2
_symmetry_cell_setting 'triclinic'
loop_
_space_group_symop_operation_xyz
x,y,z
-x,-y,-z
loop_
_atom_site_type_symbol
_atom_site_label
_atom_site_fract_x
_atom_site_fract_y
_atom_site_fract_z
Si Si1 0.892402 0.993516 0.727954
Si Si2 0.200655 0.632383 0.873849
Si Si3 0.211798 0.090686 0.419756
Si Si4 0.790020 0.207053 0.976778
Si Si5 0.198947 0.462130 0.359567
Si Si6 0.480217 0.637397 0.548972
Si Si7 0.511850 0.190090 0.942765
O O1 0.873407 0.887336 0.676658
O O2 0.975766 0.820125 0.872357
O O3 0.676708 0.179571 0.777678
O O4 0.043674 0.078551 0.586405
O O5 0.297406 0.653274 0.701685
O O6 0.292474 0.390616 0.954163
O O7 0.282797 0.684625 0.920509
O O8 0.256648 0.262549 0.355087
O O9 0.409823 0.868608 0.433104
O O10 0.823290 0.358039 0.802148
O O11 0.623461 0.169802 0.017319
O O12 0.000000 0.000000 0.000000
O O13 0.348421 0.426144 0.408640
O O14 0.000000 0.500000 0.500000
O O15 0.500000 0.500000 0.500000
O O16 0.500000 0.000000 0.000000
#
# Coordination Sequence:
#
# PCOD9044295 Si02
#       7
#     2   2   2   2   2   2   2
#     4  10  23  46  72 108 153 184 248 309 375 433
#     4  11  25  46  78 101 151 200 240 306 383 435
#     4  10  24  44  76 104 147 195 245 307 373 443
#     4  12  27  52  74 106 156 199 246 315 375 445
#     4  12  28  46  76 111 148 194 256 305 377 449
#     4  11  25  47  77 108 149 197 247 310 375 445
#     4  12  26  44  71 105 145 191 249 302 370 448
#
# _framework density 23.501723999999999
#
# number of rings (size 3 to 8) (size 9 to 14) (size 15 to 20)
#    0.000    0.857    2.857    2.571   10.000    1.714 
#    2.571    0.000    0.000    0.000    0.000    0.000 
#    0.000    0.000    0.000    0.000    0.000    0.000 
#
# Total GULP energy -78230.758249 kJ/mol
# GULP energy per Si atom -5587.911303 kJ/mol
# Density = 2.344823 g / cm^3
# Si number density = 23.501724 Si / 1000 Ang^3
#
#
#
# Elastic Constant Matrix: (Units=GPa)
#
#
# Indices 1 2 3 4 5 6 
#
# 1 137.8893 69.0138 51.2097 -36.4754 26.4321 28.0190
# 2 69.0138 144.5584 48.9025 -28.8816 15.0427 34.4913
# 3 51.2097 48.9025 72.9089 -4.7913 21.4672 13.2417
# 4 -36.4754 -28.8816 -4.7913 50.1635 0.4258 4.7169
# 5 26.4321 15.0427 21.4672 0.4258 36.4736 1.5265
# 6 28.0190 34.4913 13.2417 4.7169 1.5265 53.8449
#
#
#
# Elastic Compliance Matrix: (Units=1/GPa)
#
#
# Indices 1 2 3 4 5 6 
#
# 1 0.015726 -0.000698 -0.006492 0.011123 -0.007128 -0.006912
# 2 -0.000698 0.012187 -0.005788 0.006582 -0.000915 -0.006570
# 3 -0.006492 -0.005788 0.023358 -0.005959 -0.006672 0.002053
# 4 0.011123 0.006582 -0.005959 0.032354 -0.007178 -0.011169
# 5 -0.007128 -0.000915 -0.006672 -0.007178 0.036740 0.005523
# 6 -0.006912 -0.006570 0.002053 -0.011169 0.005523 0.026694
#
#
# Mechanical properties :
#
#
# Convention : Reuss Voigt Hill
#
# Bulk Modulus (GPa) = 39.50497 77.06763 58.28630
# Shear Modulus (GPa) = 27.55504 40.51178 34.03341
#
# Velocity S-wave (km/s) = 3.42785 4.15635 3.80955
# Velocity P-wave (km/s) = 5.70199 7.47644 6.64868
#
# Compressibility (1/GPa) = 0.02531327
#
# Stress axis : x y z
#
# Youngs Moduli (GPa) = 63.58917 82.05436 42.81131
#
# Poissons Ratio (x) = 0.05731 0.27794
# Poissons Ratio (y) = 0.04441 0.24781
# Poissons Ratio (z) = 0.41283 0.47497
#
# Static dielectric constant tensor:
#      x y z
#    x 1.614060 0.027540 0.072080 
#    y 0.027540 2.000200 -0.063800 
#    z 0.072080 -0.063800 1.917400 
# 
# From -- ./inp_files/381223.got.cif
#   From: 2010.05.17/outbox.cif.g08.bks.cpg/sg2_191_cif.got.tgz:381223.got - 2010.06.03 11:33:40.
