data_PCOD9044150
_publ_section_title
;
Structure prediction by ZEFSAII (Michael W. Deem and Ramdas Pophale) SiO2 
 PCOD9044150
Probable space group: P -1
;
_chemical_formula_sum "Si O2"
_cell_formula_units_Z 16
_cell_length_a 26.782911
_cell_length_b 5.864828
_cell_length_c 5.880697
_cell_angle_alpha 106.109907
_cell_angle_beta 126.038184
_cell_angle_gamma 54.136677
_cell_volume 602.147165
_symmetry_space_group_name_H-M "P -1"
_symmetry_group_IT_number 2
_symmetry_cell_setting 'triclinic'
loop_
_space_group_symop_operation_xyz
x,y,z
-x,-y,-z
loop_
_atom_site_type_symbol
_atom_site_label
_atom_site_fract_x
_atom_site_fract_y
_atom_site_fract_z
Si Si1 0.670129 0.816383 0.378745
Si Si2 0.069060 0.303733 0.963841
Si Si3 0.270543 0.599438 0.206229
Si Si4 0.535599 0.868740 0.809031
Si Si5 0.243076 0.161034 0.755651
Si Si6 0.087927 0.801387 0.150720
Si Si7 0.374579 0.705693 0.266078
Si Si8 0.857287 0.963060 0.305013
O O1 0.625358 0.053689 0.519509
O O2 0.715502 0.506607 0.527600
O O3 0.730897 0.853768 0.434716
O O4 0.612571 0.851141 0.044774
O O5 0.105851 0.488346 0.084507
O O6 0.101475 0.984261 0.057094
O O7 0.000000 0.500000 0.000000
O O8 0.066098 0.244004 0.672462
O O9 0.346861 0.561390 0.326356
O O10 0.251245 0.391342 0.974554
O O11 0.206432 0.898746 0.017320
O O12 0.557132 0.546012 0.755274
O O13 0.500000 0.000000 0.500000
O O14 0.500000 0.000000 0.000000
O O15 0.168012 0.181748 0.621165
O O16 0.308896 0.868986 0.957567
O O17 0.132366 0.806911 0.485448
O O18 0.000000 0.000000 0.000000
#
# Coordination Sequence:
#
# PCOD9044150 Si02
#       8
#     2   2   2   2   2   2   2   2
#     4  11  25  47  77 103 156 199 264 322 415 457
#     4  10  25  47  73 109 153 208 259 322 405 485
#     4  10  23  46  70 108 149 199 251 329 401 473
#     4  12  28  48  77 114 155 210 271 321 389 498
#     4  10  24  44  72 108 144 202 251 332 402 473
#     4  10  25  46  74 108 151 205 257 321 399 480
#     4  10  24  47  72 104 149 205 246 327 399 458
#     4  11  26  45  73 114 153 193 267 323 404 491
#
# _framework density 26.571577999999999
#
# number of rings (size 3 to 8) (size 9 to 14) (size 15 to 20)
#    0.000    1.500    1.250    0.750    8.750    9.000 
#    0.000    0.000    0.000    0.000    0.000    0.000 
#    0.000    0.000    0.000    0.000    0.000    0.000 
#
# Total GULP energy -89321.061046 kJ/mol
# GULP energy per Si atom -5582.566315 kJ/mol
# Density = 2.651110 g / cm^3
# Si number density = 26.571578 Si / 1000 Ang^3
#
#
#
# Elastic Constant Matrix: (Units=GPa)
#
#
# Indices 1 2 3 4 5 6 
#
# 1 114.0297 31.4825 27.6741 -8.6380 -23.5728 12.0030
# 2 31.4825 134.4368 38.2408 1.3149 -15.6801 15.8955
# 3 27.6741 38.2408 109.6139 -9.9259 0.7629 4.6927
# 4 -8.6380 1.3149 -9.9259 60.5942 9.9376 2.0339
# 5 -23.5728 -15.6801 0.7629 9.9376 39.6902 5.0409
# 6 12.0030 15.8955 4.6927 2.0339 5.0409 50.6884
#
#
#
# Elastic Compliance Matrix: (Units=1/GPa)
#
#
# Indices 1 2 3 4 5 6 
#
# 1 0.011311 -0.000820 -0.002474 0.000214 0.006753 -0.002872
# 2 -0.000820 0.009307 -0.003073 -0.001376 0.003946 -0.002777
# 3 -0.002474 -0.003073 0.010997 0.002065 -0.003513 0.000798
# 4 0.000214 -0.001376 0.002065 0.017704 -0.004885 -0.000035
# 5 0.006753 0.003946 -0.003513 -0.004885 0.032763 -0.005574
# 6 -0.002872 -0.002777 0.000798 -0.000035 -0.005574 0.021761
#
#
# Mechanical properties :
#
#
# Convention : Reuss Voigt Hill
#
# Bulk Modulus (GPa) = 52.96531 61.43056 57.19793
# Shear Modulus (GPa) = 40.69317 47.57344 44.13330
#
# Velocity S-wave (km/s) = 3.91763 4.23589 4.07986
# Velocity P-wave (km/s) = 6.35925 6.86242 6.61562
#
# Compressibility (1/GPa) = 0.01888028
#
# Stress axis : x y z
#
# Youngs Moduli (GPa) = 88.40934 107.45037 90.93444
#
# Poissons Ratio (x) = 0.08809 0.22500
# Poissons Ratio (y) = 0.07248 0.27944
# Poissons Ratio (z) = 0.21875 0.33019
#
# Static dielectric constant tensor:
#      x y z
#    x 2.192320 -0.022810 -0.065470 
#    y -0.022810 2.087850 -0.042370 
#    z -0.065470 -0.042370 2.132810 
# 
# From -- ./inp_files/125895.got.cif
#   From: 2010.05.17/outbox.cif.g08.bks.cpg/sg2_63_cif.got.tgz:125895.got - 2010.06.03 11:33:40.
