data_PCOD9044199
_publ_section_title
;
Structure prediction by ZEFSAII (Michael W. Deem and Ramdas Pophale) SiO2 
 PCOD9044199
Probable space group: P -1
;
_chemical_formula_sum "Si O2"
_cell_formula_units_Z 16
_cell_length_a 11.600045
_cell_length_b 18.302224
_cell_length_c 20.829899
_cell_angle_alpha 160.605318
_cell_angle_beta 149.149819
_cell_angle_gamma 31.035081
_cell_volume 723.732619
_symmetry_space_group_name_H-M "P -1"
_symmetry_group_IT_number 2
_symmetry_cell_setting 'triclinic'
loop_
_space_group_symop_operation_xyz
x,y,z
-x,-y,-z
loop_
_atom_site_type_symbol
_atom_site_label
_atom_site_fract_x
_atom_site_fract_y
_atom_site_fract_z
Si Si1 0.604674 0.010084 0.488080
Si Si2 0.350965 0.509088 0.132821
Si Si3 0.841044 0.836385 0.913032
Si Si4 0.904019 0.336253 0.586078
Si Si5 0.106481 0.651971 0.759791
Si Si6 0.364461 0.009070 0.875579
Si Si7 0.121456 0.157117 0.325809
Si Si8 0.881072 0.467250 0.825715
O O1 0.672704 0.247150 0.710174
O O2 0.393453 0.023957 0.348940
O O3 0.500000 0.000000 0.500000
O O4 0.825426 0.797734 0.404986
O O5 0.619427 0.366541 0.132747
O O6 0.283291 0.566003 0.222209
O O7 0.152554 0.397822 0.919475
O O8 0.855616 0.594728 0.752435
O O9 0.570058 0.970484 0.888912
O O10 0.980935 0.787666 0.873248
O O11 0.969623 0.995989 0.145718
O O12 0.756344 0.192857 0.359058
O O13 0.846979 0.348386 0.644708
O O14 0.093261 0.390738 0.545100
O O15 0.970522 0.754985 0.715765
O O16 0.500000 0.000000 0.000000
O O17 0.189991 0.258949 0.992069
#
# Coordination Sequence:
#
# PCOD9044199 Si02
#       8
#     2   2   2   2   2   2   2   2
#     4  11  25  45  72 102 149 180 238 292 355 421
#     4  10  23  48  70 105 144 189 229 304 349 414
#     4  12  26  41  73 103 137 182 239 290 352 424
#     4  12  27  45  70 106 135 197 237 287 358 427
#     4  10  23  46  71 103 140 178 241 286 361 421
#     4  12  27  47  69 101 146 182 238 296 350 423
#     4  10  24  43  69 104 138 187 215 302 354 410
#     4  11  25  46  74 100 146 189 240 286 357 428
#
# _framework density 22.107610000000001
#
# number of rings (size 3 to 8) (size 9 to 14) (size 15 to 20)
#    0.000    1.000    2.500    3.000    7.000    4.000 
#    2.250    0.000    0.000    0.000    0.000    0.000 
#    0.000    0.000    0.000    0.000    0.000    0.000 
#
# Total GULP energy -89531.466154 kJ/mol
# GULP energy per Si atom -5595.716635 kJ/mol
# Density = 2.205729 g / cm^3
# Si number density = 22.107610 Si / 1000 Ang^3
#
#
#
# Elastic Constant Matrix: (Units=GPa)
#
#
# Indices 1 2 3 4 5 6 
#
# 1 129.6784 36.2395 33.6020 -6.4523 -10.0793 -4.9700
# 2 36.2395 112.6351 32.0132 -19.0067 -6.5037 -22.6757
# 3 33.6020 32.0132 118.5175 -2.1756 6.4176 -7.6559
# 4 -6.4523 -19.0067 -2.1756 27.9556 0.5441 8.4176
# 5 -10.0793 -6.5037 6.4176 0.5441 30.9841 -0.1989
# 6 -4.9700 -22.6757 -7.6559 8.4176 -0.1989 40.6028
#
#
#
# Elastic Compliance Matrix: (Units=1/GPa)
#
#
# Indices 1 2 3 4 5 6 
#
# 1 0.009119 -0.002165 -0.002189 0.000589 0.002951 -0.000614
# 2 -0.002165 0.012453 -0.002442 0.006242 0.002338 0.004947
# 3 -0.002189 -0.002442 0.009900 -0.001491 -0.003246 0.000528
# 4 0.000589 0.006242 -0.001491 0.041625 0.001046 -0.005347
# 5 0.002951 0.002338 -0.003246 0.001046 0.034386 0.001006
# 6 -0.000614 0.004947 0.000528 -0.005347 0.001006 0.028529
#
#
# Mechanical properties :
#
#
# Convention : Reuss Voigt Hill
#
# Bulk Modulus (GPa) = 55.93180 62.72672 59.32926
# Shear Modulus (GPa) = 32.14076 37.17358 34.65717
#
# Velocity S-wave (km/s) = 3.81705 4.10504 3.96366
# Velocity P-wave (km/s) = 6.69188 7.13466 6.91681
#
# Compressibility (1/GPa) = 0.01787892
#
# Stress axis : x y z
#
# Youngs Moduli (GPa) = 109.66182 80.30041 101.00580
#
# Poissons Ratio (x) = 0.17389 0.22111
# Poissons Ratio (y) = 0.23747 0.24669
# Poissons Ratio (z) = 0.24006 0.19612
#
# Static dielectric constant tensor:
#      x y z
#    x 1.831190 0.008520 -0.006450 
#    y 0.008520 1.801480 0.000270 
#    z -0.006450 0.000270 1.817270 
# 
# From -- ./inp_files/596083.got.cif
#   From: 2010.05.17/outbox.cif.g08.bks.cpg/sg2_299_cif.got.tgz:596083.got - 2010.06.03 11:33:40.
