data_PCOD9044482
_publ_section_title
;
Structure prediction by ZEFSAII (Michael W. Deem and Ramdas Pophale) SiO2 
 PCOD9044482
Probable space group: P -1
;
_chemical_formula_sum "Si O2"
_cell_formula_units_Z 14
_cell_length_a 15.232155
_cell_length_b 6.160908
_cell_length_c 15.765154
_cell_angle_alpha 104.481497
_cell_angle_beta 26.952996
_cell_angle_gamma 94.441167
_cell_volume 612.568662
_symmetry_space_group_name_H-M "P -1"
_symmetry_group_IT_number 2
_symmetry_cell_setting 'triclinic'
loop_
_space_group_symop_operation_xyz
x,y,z
-x,-y,-z
loop_
_atom_site_type_symbol
_atom_site_label
_atom_site_fract_x
_atom_site_fract_y
_atom_site_fract_z
Si Si1 0.716546 0.039971 0.797215
Si Si2 0.686802 0.262353 0.338594
Si Si3 0.035762 0.638155 0.399041
Si Si4 0.252257 0.011857 0.574082
Si Si5 0.941412 0.813715 0.752823
Si Si6 0.318868 0.048816 0.844204
Si Si7 0.977456 0.511477 0.919509
O O1 0.758034 0.288748 0.768725
O O2 0.847792 0.947656 0.760460
O O3 0.836815 0.874505 0.599587
O O4 0.500000 0.000000 0.000000
O O5 0.500000 0.500000 0.500000
O O6 0.653027 0.101101 0.427975
O O7 0.871763 0.343423 0.221158
O O8 0.744166 0.106660 0.188590
O O9 0.044340 0.459631 0.297626
O O10 0.000000 0.500000 0.500000
O O11 0.437354 0.056161 0.369903
O O12 0.159947 0.839798 0.586151
O O13 0.068805 0.253190 0.776067
O O14 0.791476 0.936260 0.970398
O O15 0.245507 0.321957 0.900489
O O16 0.000000 0.500000 0.000000
#
# Coordination Sequence:
#
# PCOD9044482 Si02
#       7
#     2   2   2   2   2   2   2
#     4  10  23  46  77 104 136 185 232 278 365 446
#     4  12  23  45  67  93 137 192 246 294 355 415
#     4   9  22  46  71  99 142 178 223 284 355 435
#     4  12  26  45  65  99 143 186 240 297 355 420
#     4  11  26  43  66 106 141 174 233 297 357 428
#     4  12  25  44  66 101 138 192 240 299 365 407
#     4  12  23  42  69  90 138 188 246 299 349 426
#
# _framework density 22.854582000000001
#
# number of rings (size 3 to 8) (size 9 to 14) (size 15 to 20)
#    0.000    0.857    4.286    2.571    2.000    6.857 
#    2.571    0.000    0.000    0.000    0.000    0.000 
#    0.000    0.000    0.000    0.000    0.000    0.000 
#
# Total GULP energy -78248.936879 kJ/mol
# GULP energy per Si atom -5589.209777 kJ/mol
# Density = 2.280256 g / cm^3
# Si number density = 22.854582 Si / 1000 Ang^3
#
#
#
# Elastic Constant Matrix: (Units=GPa)
#
#
# Indices 1 2 3 4 5 6 
#
# 1 77.3378 26.6973 24.1336 1.4240 7.1082 10.7913
# 2 26.6973 112.8604 41.5272 2.9931 -1.4054 31.0480
# 3 24.1336 41.5272 107.2126 2.0623 7.3366 19.1748
# 4 1.4240 2.9931 2.0623 49.4055 1.7789 -5.1492
# 5 7.1082 -1.4054 7.3366 1.7789 27.0187 -3.6059
# 6 10.7913 31.0480 19.1748 -5.1492 -3.6059 50.6274
#
#
#
# Elastic Compliance Matrix: (Units=1/GPa)
#
#
# Indices 1 2 3 4 5 6 
#
# 1 0.014909 -0.002543 -0.001905 -0.000186 -0.003682 -0.001178
# 2 -0.002543 0.012294 -0.003234 -0.001194 0.001493 -0.005788
# 3 -0.001905 -0.003234 0.011635 -0.000360 -0.003106 -0.002275
# 4 -0.000186 -0.001194 -0.000360 0.020672 -0.000883 0.002948
# 5 -0.003682 0.001493 -0.003106 -0.000883 0.039462 0.003767
# 6 -0.001178 -0.005788 -0.002275 0.002948 0.003767 0.024983
#
#
# Mechanical properties :
#
#
# Convention : Reuss Voigt Hill
#
# Bulk Modulus (GPa) = 42.59682 53.56968 48.08325
# Shear Modulus (GPa) = 33.98055 39.08047 36.53051
#
# Velocity S-wave (km/s) = 3.86011 4.13965 4.00232
# Velocity P-wave (km/s) = 6.20853 6.80729 6.51480
#
# Compressibility (1/GPa) = 0.02347593
#
# Stress axis : x y z
#
# Youngs Moduli (GPa) = 67.07494 81.33832 85.94734
#
# Poissons Ratio (x) = 0.20681 0.16372
# Poissons Ratio (y) = 0.17054 0.27793
# Poissons Ratio (z) = 0.12777 0.26302
#
# Static dielectric constant tensor:
#      x y z
#    x 1.845950 -0.052570 0.002680 
#    y -0.052570 1.981240 -0.020820 
#    z 0.002680 -0.020820 1.874540 
# 
# From -- ./inp_files/484604.got.cif
#   From: 2010.05.17/outbox.cif.g08.bks.cpg/sg2_243_cif.got.tgz:484604.got - 2010.06.03 11:33:40.
