data_PCOD9044148
_publ_section_title
;
Structure prediction by ZEFSAII (Michael W. Deem and Ramdas Pophale) SiO2 
 PCOD9044148
Probable space group: P -1
;
_chemical_formula_sum "Si O2"
_cell_formula_units_Z 14
_cell_length_a 10.073165
_cell_length_b 17.009436
_cell_length_c 5.080826
_cell_angle_alpha 64.986921
_cell_angle_beta 103.798486
_cell_angle_gamma 136.049432
_cell_volume 544.509432
_symmetry_space_group_name_H-M "P -1"
_symmetry_group_IT_number 2
_symmetry_cell_setting 'triclinic'
loop_
_space_group_symop_operation_xyz
x,y,z
-x,-y,-z
loop_
_atom_site_type_symbol
_atom_site_label
_atom_site_fract_x
_atom_site_fract_y
_atom_site_fract_z
Si Si1 0.046455 0.463570 0.323560
Si Si2 0.670044 0.934270 0.662292
Si Si3 0.626358 0.481014 0.852014
Si Si4 0.312264 0.800859 0.362492
Si Si5 0.242556 0.297369 0.638536
Si Si6 0.159736 0.907884 0.972032
Si Si7 0.523223 0.724018 0.554415
O O1 0.261618 0.526751 0.298202
O O2 0.000000 0.500000 0.500000
O O3 0.895400 0.317669 0.457797
O O4 0.000000 0.500000 0.000000
O O5 0.731098 0.983631 0.914299
O O6 0.467456 0.887222 0.542903
O O7 0.631973 0.817912 0.722648
O O8 0.826937 0.042537 0.377088
O O9 0.409831 0.401957 0.770769
O O10 0.748048 0.623982 0.696020
O O11 0.606307 0.411124 0.194843
O O12 0.273678 0.867387 0.075955
O O13 0.398822 0.750318 0.351402
O O14 0.320729 0.245999 0.608188
O O15 0.048457 0.199773 0.846528
#
# Coordination Sequence:
#
# PCOD9044148 Si02
#       7
#     2   2   2   2   2   2   2
#     4  12  24  43  74 108 141 182 237 291 354 420
#     4  10  27  44  77 100 148 177 245 291 350 413
#     4  11  24  47  68 106 142 189 232 294 354 428
#     4  10  23  46  70 108 136 189 232 298 348 418
#     4  11  26  44  72 101 146 186 236 289 357 424
#     4  12  25  49  71 109 136 194 234 291 352 421
#     4  10  24  44  73  98 141 186 228 297 349 411
#
# _framework density 25.711219
#
# number of rings (size 3 to 8) (size 9 to 14) (size 15 to 20)
#    0.857    0.286    2.857    2.143    4.000    3.429 
#    2.571    0.000    0.000    0.000    0.000    0.000 
#    0.000    0.000    0.000    0.000    0.000    0.000 
#
# Total GULP energy -78351.083426 kJ/mol
# GULP energy per Si atom -5596.505959 kJ/mol
# Density = 2.565270 g / cm^3
# Si number density = 25.711219 Si / 1000 Ang^3
#
#
#
# Elastic Constant Matrix: (Units=GPa)
#
#
# Indices 1 2 3 4 5 6 
#
# 1 148.1998 23.7389 43.4691 -6.7704 -15.4676 -2.9107
# 2 23.7389 62.5053 26.6198 -23.2843 -11.3063 16.1986
# 3 43.4691 26.6198 137.1712 -15.7527 -11.0490 -6.4720
# 4 -6.7704 -23.2843 -15.7527 38.6387 0.2445 -12.6115
# 5 -15.4676 -11.3063 -11.0490 0.2445 30.8855 -12.6316
# 6 -2.9107 16.1986 -6.4720 -12.6115 -12.6316 45.6482
#
#
#
# Elastic Compliance Matrix: (Units=1/GPa)
#
#
# Indices 1 2 3 4 5 6 
#
# 1 0.008004 -0.002201 -0.001744 -0.000011 0.003388 0.001979
# 2 -0.002201 0.024347 -0.002486 0.011772 0.004988 -0.004500
# 3 -0.001744 -0.002486 0.009099 0.003109 0.002978 0.003744
# 4 -0.000011 0.011772 0.003109 0.037104 0.008780 0.008943
# 5 0.003388 0.004988 0.002978 0.008780 0.042201 0.012972
# 6 0.001979 -0.004500 0.003744 0.008943 0.012972 0.030221
#
#
# Mechanical properties :
#
#
# Convention : Reuss Voigt Hill
#
# Bulk Modulus (GPa) = 34.98021 59.50356 47.24188
# Shear Modulus (GPa) = 28.84049 39.97104 34.40576
#
# Velocity S-wave (km/s) = 3.35282 3.94714 3.66206
# Velocity P-wave (km/s) = 5.35006 6.63072 6.02452
#
# Compressibility (1/GPa) = 0.02858759
#
# Stress axis : x y z
#
# Youngs Moduli (GPa) = 124.94115 41.07273 109.90317
#
# Poissons Ratio (x) = 0.09039 0.19170
# Poissons Ratio (y) = 0.27497 0.27323
# Poissons Ratio (z) = 0.21793 0.10211
#
# Static dielectric constant tensor:
#      x y z
#    x 2.009330 -0.016390 0.041000 
#    y -0.016390 2.071540 -0.008010 
#    z 0.041000 -0.008010 1.999600 
# 
# From -- ./inp_files/46710.got.cif
#   From: 2010.05.17/outbox.cif.g08.bks.cpg/sg2_24_cif.got.tgz:46710.got - 2010.06.03 11:33:40.
