data_PCOD9044727
_publ_section_title
;
Structure prediction by ZEFSAII (Michael W. Deem and Ramdas Pophale) SiO2 
 PCOD9044727
Probable space group: P -1
;
_chemical_formula_sum "Si O2"
_cell_formula_units_Z 14
_cell_length_a 5.278606
_cell_length_b 14.793118
_cell_length_c 24.257823
_cell_angle_alpha 160.600426
_cell_angle_beta 68.687526
_cell_angle_gamma 106.105967
_cell_volume 572.903101
_symmetry_space_group_name_H-M "P -1"
_symmetry_group_IT_number 2
_symmetry_cell_setting 'triclinic'
loop_
_space_group_symop_operation_xyz
x,y,z
-x,-y,-z
loop_
_atom_site_type_symbol
_atom_site_label
_atom_site_fract_x
_atom_site_fract_y
_atom_site_fract_z
Si Si1 0.430271 0.475894 0.078952
Si Si2 0.577203 0.296706 0.116631
Si Si3 0.665948 0.179284 0.386375
Si Si4 0.167578 0.841412 0.217995
Si Si5 0.639694 0.261071 0.213993
Si Si6 0.699994 0.177593 0.610850
Si Si7 0.888900 0.978749 0.135418
O O1 0.187397 0.641001 0.153337
O O2 0.446452 0.696483 0.249826
O O3 0.704602 0.372464 0.963105
O O4 0.347522 0.201623 0.951775
O O5 0.697451 0.352224 0.199641
O O6 0.323525 0.554158 0.272284
O O7 0.828854 0.250524 0.026243
O O8 0.472557 0.012251 0.951262
O O9 0.572572 0.493742 0.596670
O O10 0.394416 0.039540 0.322464
O O11 0.824544 0.142787 0.292959
O O12 0.878032 0.016571 0.321055
O O13 0.869312 0.165552 0.188836
O O14 0.500000 0.000000 0.500000
O O15 0.000000 0.000000 0.500000
#
# Coordination Sequence:
#
# PCOD9044727 Si02
#       7
#     2   2   2   2   2   2   2
#     4  10  23  47  72 102 144 181 237 288 370 416
#     4  11  26  47  72  99 149 190 236 292 363 422
#     4  11  26  44  76 107 143 181 244 294 350 419
#     4  10  25  45  73 108 140 185 227 303 358 423
#     4  11  26  46  69 105 143 194 239 291 353 423
#     4  12  27  44  72 103 138 181 234 292 347 422
#     4  11  23  47  74 102 142 191 240 290 357 427
#
# _framework density 24.436941999999998
#
# number of rings (size 3 to 8) (size 9 to 14) (size 15 to 20)
#    0.000    1.143    1.429    2.571    8.000    8.000 
#    0.000    0.000    0.000    0.000    0.000    0.000 
#    0.000    0.000    0.000    0.000    0.000    0.000 
#
# Total GULP energy -78260.282498 kJ/mol
# GULP energy per Si atom -5590.020178 kJ/mol
# Density = 2.438132 g / cm^3
# Si number density = 24.436942 Si / 1000 Ang^3
#
#
#
# Elastic Constant Matrix: (Units=GPa)
#
#
# Indices 1 2 3 4 5 6 
#
# 1 94.0800 22.1008 50.6408 9.4459 -15.9923 -20.2090
# 2 22.1008 89.3247 46.4357 -1.4631 -9.7904 -21.9835
# 3 50.6408 46.4357 174.4311 -3.2859 -9.4857 -31.2382
# 4 9.4459 -1.4631 -3.2859 30.4331 -14.6309 -0.8448
# 5 -15.9923 -9.7904 -9.4857 -14.6309 37.4064 8.9177
# 6 -20.2090 -21.9835 -31.2382 -0.8448 8.9177 22.2813
#
#
#
# Elastic Compliance Matrix: (Units=1/GPa)
#
#
# Indices 1 2 3 4 5 6 
#
# 1 0.014619 0.000061 -0.002675 -0.003549 0.002156 0.008572
# 2 0.000061 0.015270 -0.001815 0.001450 0.001236 0.012137
# 3 -0.002675 -0.001815 0.008398 0.001486 -0.000799 0.007933
# 4 -0.003549 0.001450 0.001486 0.042179 0.016897 -0.004868
# 5 0.002156 0.001236 -0.000799 0.016897 0.037302 -0.012234
# 6 0.008572 0.012137 0.007933 -0.004868 -0.012234 0.080465
#
#
# Mechanical properties :
#
#
# Convention : Reuss Voigt Hill
#
# Bulk Modulus (GPa) = 33.97897 66.24338 50.11117
# Shear Modulus (GPa) = 23.05235 33.93476 28.49355
#
# Velocity S-wave (km/s) = 3.07472 3.73052 3.41838
# Velocity P-wave (km/s) = 5.15171 6.76184 6.01093
#
# Compressibility (1/GPa) = 0.02942997
#
# Stress axis : x y z
#
# Youngs Moduli (GPa) = 68.40499 65.48968 119.07766
#
# Poissons Ratio (x) = -0.00402 0.31853
# Poissons Ratio (y) = -0.00420 0.21608
# Poissons Ratio (z) = 0.18298 0.11884
#
# Static dielectric constant tensor:
#      x y z
#    x 1.948820 0.014260 -0.010640 
#    y 0.014260 2.105400 0.062690 
#    z -0.010640 0.062690 1.912600 
# 
# From -- ./inp_files/124234.got.cif
#   From: 2010.05.17/outbox.cif.g08.bks.cpg/sg2_63_cif.got.tgz:124234.got - 2010.06.03 11:33:40.
