data_PCOD9044157
_publ_section_title
;
Structure prediction by ZEFSAII (Michael W. Deem and Ramdas Pophale) SiO2 
 PCOD9044157
Probable space group: P -1
;
_chemical_formula_sum "Si O2"
_cell_formula_units_Z 16
_cell_length_a 14.418599
_cell_length_b 8.191420
_cell_length_c 9.569255
_cell_angle_alpha 63.869512
_cell_angle_beta 117.623862
_cell_angle_gamma 137.666510
_cell_volume 665.280830
_symmetry_space_group_name_H-M "P -1"
_symmetry_group_IT_number 2
_symmetry_cell_setting 'triclinic'
loop_
_space_group_symop_operation_xyz
x,y,z
-x,-y,-z
loop_
_atom_site_type_symbol
_atom_site_label
_atom_site_fract_x
_atom_site_fract_y
_atom_site_fract_z
Si Si1 0.918450 0.055388 0.783222
Si Si2 0.798369 0.471501 0.683177
Si Si3 0.810019 0.664093 0.320348
Si Si4 0.115421 0.393718 0.018743
Si Si5 0.621502 0.265380 0.106907
Si Si6 0.513442 0.235214 0.669623
Si Si7 0.349249 0.051748 0.347182
Si Si8 0.452791 0.404883 0.806054
O O1 0.040474 0.147285 0.724360
O O2 0.866997 0.805512 0.906149
O O3 0.782901 0.000666 0.653950
O O4 0.985920 0.265305 0.869896
O O5 0.837708 0.616014 0.512068
O O6 0.907778 0.578283 0.847189
O O7 0.679060 0.454888 0.680651
O O8 0.716267 0.191143 0.692013
O O9 0.714911 0.417010 0.253255
O O10 0.707564 0.721086 0.226537
O O11 0.258029 0.640528 0.959213
O O12 0.524150 0.981663 0.180025
O O13 0.528922 0.332830 0.972543
O O14 0.450526 0.118209 0.519095
O O15 0.453270 0.336454 0.671916
O O16 0.441357 0.298837 0.226406
#
# Coordination Sequence:
#
# PCOD9044157 Si02
#       8
#     2   2   2   2   2   2   2   2
#     4  10  24  48  71  97 138 186 233 282 340 410
#     4  12  24  43  70 103 145 178 230 291 341 406
#     4  11  25  43  69 103 140 180 232 285 340 412
#     4  10  23  46  70  95 140 183 227 289 339 404
#     4  11  22  46  68 103 141 177 225 291 348 401
#     4  12  24  43  70 109 142 173 228 295 348 401
#     4  12  24  44  74  98 140 190 227 279 351 406
#     4  12  24  42  74 102 135 185 234 278 347 413
#
# _framework density 24.049993000000001
#
# number of rings (size 3 to 8) (size 9 to 14) (size 15 to 20)
#    0.000    0.750    5.000    2.250    1.750    1.500 
#    0.000    0.000    0.000    0.000    0.000    0.000 
#    0.000    0.000    0.000    0.000    0.000    0.000 
#
# Total GULP energy -89501.885432 kJ/mol
# GULP energy per Si atom -5593.867840 kJ/mol
# Density = 2.399525 g / cm^3
# Si number density = 24.049993 Si / 1000 Ang^3
#
#
#
# Elastic Constant Matrix: (Units=GPa)
#
#
# Indices 1 2 3 4 5 6 
#
# 1 85.7400 8.5045 3.6297 -1.4483 -4.0533 19.1619
# 2 8.5045 62.2449 21.5345 1.2942 0.3710 2.6151
# 3 3.6297 21.5345 117.2776 4.6785 -14.4378 2.4624
# 4 -1.4483 1.2942 4.6785 34.0011 -8.4644 -5.4376
# 5 -4.0533 0.3710 -14.4378 -8.4644 35.1246 4.4514
# 6 19.1619 2.6151 2.4624 -5.4376 4.4514 39.5335
#
#
#
# Elastic Compliance Matrix: (Units=1/GPa)
#
#
# Indices 1 2 3 4 5 6 
#
# 1 0.013438 -0.001695 0.000349 0.000166 0.002600 -0.006693
# 2 -0.001695 0.017490 -0.003368 -0.000761 -0.001947 -0.000011
# 3 0.000349 -0.003368 0.009676 -0.000335 0.004106 -0.001058
# 4 0.000166 -0.000761 -0.000335 0.031833 0.007108 0.003569
# 5 0.002600 -0.001947 0.004106 0.007108 0.032710 -0.004093
# 6 -0.006693 -0.000011 -0.001058 0.003569 -0.004093 0.029557
#
#
# Mechanical properties :
#
#
# Convention : Reuss Voigt Hill
#
# Bulk Modulus (GPa) = 32.07515 36.95555 34.51535
# Shear Modulus (GPa) = 32.35743 37.17143 34.76443
#
# Velocity S-wave (km/s) = 3.67198 3.93566 3.80611
# Velocity P-wave (km/s) = 5.59855 6.00434 5.80499
#
# Compressibility (1/GPa) = 0.03117679
#
# Stress axis : x y z
#
# Youngs Moduli (GPa) = 74.41575 57.17466 103.35364
#
# Poissons Ratio (x) = 0.09689 -0.03610
# Poissons Ratio (y) = 0.12611 0.34811
# Poissons Ratio (z) = -0.02599 0.19257
#
# Static dielectric constant tensor:
#      x y z
#    x 1.914870 -0.038490 -0.021470 
#    y -0.038490 1.874030 0.021040 
#    z -0.021470 0.021040 1.967390 
# 
# From -- ./inp_files/297966.got.cif
#   From: 2010.05.17/outbox.cif.g08.bks.cpg/sg2_149_cif.got.tgz:297966.got - 2010.06.03 11:33:40.
