data_PCOD9044665
_publ_section_title
;
Structure prediction by ZEFSAII (Michael W. Deem and Ramdas Pophale) SiO2 
 PCOD9044665
Probable space group: P -1
;
_chemical_formula_sum "Si O2"
_cell_formula_units_Z 14
_cell_length_a 8.976859
_cell_length_b 14.161590
_cell_length_c 7.736234
_cell_angle_alpha 46.776849
_cell_angle_beta 101.933530
_cell_angle_gamma 124.525651
_cell_volume 562.842204
_symmetry_space_group_name_H-M "P -1"
_symmetry_group_IT_number 2
_symmetry_cell_setting 'triclinic'
loop_
_space_group_symop_operation_xyz
x,y,z
-x,-y,-z
loop_
_atom_site_type_symbol
_atom_site_label
_atom_site_fract_x
_atom_site_fract_y
_atom_site_fract_z
Si Si1 0.096945 0.249190 0.630117
Si Si2 0.474190 0.147783 0.983966
Si Si3 0.842649 0.233934 0.070692
Si Si4 0.721911 0.481963 0.171340
Si Si5 0.452993 0.546996 0.204867
Si Si6 0.737840 0.205895 0.474344
Si Si7 0.138920 0.005115 0.813273
O O1 0.305569 0.412692 0.474682
O O2 0.944092 0.279947 0.509955
O O3 0.093194 0.133374 0.628619
O O4 0.023217 0.141630 0.920031
O O5 0.469039 0.277039 0.930081
O O6 0.334476 0.094727 0.855770
O O7 0.693725 0.220813 0.916392
O O8 0.389648 0.981672 0.274098
O O9 0.767664 0.231750 0.244218
O O10 0.844987 0.079829 0.239333
O O11 0.054485 0.392459 0.901532
O O12 0.607960 0.522534 0.212518
O O13 0.660984 0.302492 0.403488
O O14 0.672954 0.492874 0.947974
#
# Coordination Sequence:
#
# PCOD9044665 Si02
#       7
#     2   2   2   2   2   2   2
#     4  10  23  47  70  95 142 181 227 281 337 406
#     4  11  25  45  71 101 141 181 225 280 341 411
#     4  12  23  43  72 100 138 178 224 289 331 405
#     4  11  25  42  70 110 133 174 230 287 343 401
#     4  11  24  44  71 102 141 174 227 285 345 398
#     4  11  23  44  73 104 134 175 233 285 341 395
#     4  10  26  44  69 103 140 180 233 269 345 411
#
# _framework density 24.873757999999999
#
# number of rings (size 3 to 8) (size 9 to 14) (size 15 to 20)
#    0.000    1.143    2.857    2.143    8.000    2.286 
#    0.000    3.571    0.000    0.000    0.000    0.000 
#    0.000    0.000    0.000    0.000    0.000    0.000 
#
# Total GULP energy -78526.024037 kJ/mol
# GULP energy per Si atom -5609.001717 kJ/mol
# Density = 2.481714 g / cm^3
# Si number density = 24.873758 Si / 1000 Ang^3
#
#
#
# Elastic Constant Matrix: (Units=GPa)
#
#
# Indices 1 2 3 4 5 6 
#
# 1 153.4610 56.6017 59.7664 -30.0779 5.0250 -0.2683
# 2 56.6017 110.0056 49.3742 -33.5128 -9.4813 -8.5150
# 3 59.7664 49.3742 99.4362 -27.1010 1.7122 -0.3417
# 4 -30.0779 -33.5128 -27.1010 39.1041 -3.3671 11.0229
# 5 5.0250 -9.4813 1.7122 -3.3671 40.0292 -22.2034
# 6 -0.2683 -8.5150 -0.3417 11.0229 -22.2034 53.1788
#
#
#
# Elastic Compliance Matrix: (Units=1/GPa)
#
#
# Indices 1 2 3 4 5 6 
#
# 1 0.009593 -0.002891 -0.003518 0.002837 -0.002692 -0.002149
# 2 -0.002891 0.015700 -0.003979 0.008025 0.006997 0.003732
# 3 -0.003518 -0.003979 0.015599 0.005223 -0.002130 -0.002527
# 4 0.002837 0.008025 0.005223 0.040191 0.001068 -0.006552
# 5 -0.002692 0.006997 -0.002130 0.001068 0.035972 0.015891
# 6 -0.002149 0.003732 -0.002527 -0.006552 0.015891 0.027368
#
#
# Mechanical properties :
#
#
# Convention : Reuss Voigt Hill
#
# Bulk Modulus (GPa) = 49.71180 77.15416 63.43298
# Shear Modulus (GPa) = 29.08575 39.60646 34.34611
#
# Velocity S-wave (km/s) = 3.42326 3.99469 3.71997
# Velocity P-wave (km/s) = 5.97110 7.23619 6.63387
#
# Compressibility (1/GPa) = 0.02011595
#
# Stress axis : x y z
#
# Youngs Moduli (GPa) = 104.23941 63.69251 64.10810
#
# Poissons Ratio (x) = 0.18414 0.22556
# Poissons Ratio (y) = 0.30136 0.25507
# Poissons Ratio (z) = 0.36676 0.25342
#
# Static dielectric constant tensor:
#      x y z
#    x 1.963790 0.013370 0.009040 
#    y 0.013370 1.964010 0.014100 
#    z 0.009040 0.014100 1.935450 
# 
# From -- ./inp_files/160079.got.cif
#   From: 2010.05.17/outbox.cif.g08.bks.cpg/sg2_81_cif.got.tgz:160079.got - 2010.06.03 11:33:40.
