data_PCOD9044215
_publ_section_title
;
Structure prediction by ZEFSAII (Michael W. Deem and Ramdas Pophale) SiO2 
 PCOD9044215
Probable space group: P -1
;
_chemical_formula_sum "Si O2"
_cell_formula_units_Z 13
_cell_length_a 14.583933
_cell_length_b 7.504739
_cell_length_c 9.619422
_cell_angle_alpha 101.729643
_cell_angle_beta 126.983698
_cell_angle_gamma 40.730897
_cell_volume 480.028751
_symmetry_space_group_name_H-M "P -1"
_symmetry_group_IT_number 2
_symmetry_cell_setting 'triclinic'
loop_
_space_group_symop_operation_xyz
x,y,z
-x,-y,-z
loop_
_atom_site_type_symbol
_atom_site_label
_atom_site_fract_x
_atom_site_fract_y
_atom_site_fract_z
Si Si1 0.717119 0.757682 0.040713
Si Si2 0.658741 0.140774 0.556182
Si Si3 0.232135 0.889334 0.899593
Si Si4 0.006697 0.780783 0.010030
Si Si5 0.651440 0.786333 0.382065
Si Si6 0.643496 0.375974 0.316474
Si Si7 0.000000 0.500000 0.500000
O O1 0.870801 0.538063 0.271370
O O2 0.817078 0.547593 0.957980
O O3 0.704503 0.990697 0.062392
O O4 0.489216 0.997034 0.847025
O O5 0.500000 0.500000 0.500000
O O6 0.732836 0.119881 0.468734
O O7 0.817321 0.937425 0.789051
O O8 0.580962 0.037876 0.458675
O O9 0.231398 0.785372 0.737567
O O10 0.424399 0.578233 0.114055
O O11 0.037944 0.155031 0.857096
O O12 0.000000 0.000000 0.000000
O O13 0.631523 0.603430 0.382656
O O14 0.874119 0.560807 0.516898
#
# Coordination Sequence:
#
# PCOD9044215 Si02
#       7
#     2   2   2   2   2   2   1
#     4  11  25  46  73 107 149 199 248 306 376 440
#     4  12  24  48  77 109 153 192 254 310 363 449
#     4  10  23  46  71 105 151 195 247 308 369 447
#     4  12  26  45  71 108 152 197 248 308 379 438
#     4  11  26  47  76 109 152 198 246 309 378 437
#     4  10  24  45  76 111 144 198 252 304 375 443
#     4  12  24  44  76 110 148 194 248 308 366 448
#
# _framework density 27.081712
#
# number of rings (size 3 to 8) (size 9 to 14) (size 15 to 20)
#    0.000    0.923    3.077    2.769    2.154    3.077 
#    2.769    2.308    0.000    0.000    0.000    0.000 
#    0.000    0.000    0.000    0.000    0.000    0.000 
#
# Total GULP energy -72474.749950 kJ/mol
# GULP energy per Si atom -5574.980765 kJ/mol
# Density = 2.702007 g / cm^3
# Si number density = 27.081712 Si / 1000 Ang^3
#
#
#
# Elastic Constant Matrix: (Units=GPa)
#
#
# Indices 1 2 3 4 5 6 
#
# 1 85.1622 37.1866 37.0349 17.2027 -2.8145 9.6177
# 2 37.1866 94.8371 51.0703 12.0201 5.8786 8.4431
# 3 37.0349 51.0703 125.0866 9.3244 2.1944 -17.6168
# 4 17.2027 12.0201 9.3244 53.0706 0.1496 12.2465
# 5 -2.8145 5.8786 2.1944 0.1496 48.7749 6.1305
# 6 9.6177 8.4431 -17.6168 12.2465 6.1305 56.8595
#
#
#
# Elastic Compliance Matrix: (Units=1/GPa)
#
#
# Indices 1 2 3 4 5 6 
#
# 1 0.015870 -0.003960 -0.003259 -0.003069 0.001882 -0.002648
# 2 -0.003960 0.015504 -0.005524 -0.000545 -0.001461 -0.003069
# 3 -0.003259 -0.005524 0.012070 -0.001062 -0.000743 0.005420
# 4 -0.003069 -0.000545 -0.001062 0.021145 0.000416 -0.004328
# 5 0.001882 -0.001461 -0.000743 0.000416 0.021159 -0.002702
# 6 -0.002648 -0.003069 0.005420 -0.004328 -0.002702 0.021394
#
#
# Mechanical properties :
#
#
# Convention : Reuss Voigt Hill
#
# Bulk Modulus (GPa) = 55.68112 61.74104 58.71108
# Shear Modulus (GPa) = 36.07143 43.72728 39.89936
#
# Velocity S-wave (km/s) = 3.65355 4.02262 3.84252
# Velocity P-wave (km/s) = 6.19701 6.66505 6.43528
#
# Compressibility (1/GPa) = 0.01795941
#
# Stress axis : x y z
#
# Youngs Moduli (GPa) = 63.01280 64.49756 82.84848
#
# Poissons Ratio (x) = 0.25538 0.27002
# Poissons Ratio (y) = 0.24950 0.45764
# Poissons Ratio (z) = 0.20537 0.35627
#
# Static dielectric constant tensor:
#      x y z
#    x 2.069920 0.000330 0.000710 
#    y 0.000330 2.024230 -0.086520 
#    z 0.000710 -0.086520 1.850060 
# 
# From -- ./inp_files/296222.got.cif
#   From: 2010.05.17/outbox.cif.g08.bks.cpg/sg2_149_cif.got.tgz:296222.got - 2010.06.03 11:33:40.
