data_PCOD9044538
_publ_section_title
;
Structure prediction by ZEFSAII (Michael W. Deem and Ramdas Pophale) SiO2 
 PCOD9044538
Probable space group: P -1
;
_chemical_formula_sum "Si O2"
_cell_formula_units_Z 13
_cell_length_a 7.911512
_cell_length_b 7.745862
_cell_length_c 11.487103
_cell_angle_alpha 130.955191
_cell_angle_beta 103.338040
_cell_angle_gamma 93.351961
_cell_volume 495.789864
_symmetry_space_group_name_H-M "P -1"
_symmetry_group_IT_number 2
_symmetry_cell_setting 'triclinic'
loop_
_space_group_symop_operation_xyz
x,y,z
-x,-y,-z
loop_
_atom_site_type_symbol
_atom_site_label
_atom_site_fract_x
_atom_site_fract_y
_atom_site_fract_z
Si Si1 0.440859 0.665177 0.471690
Si Si2 0.018602 0.763131 0.077537
Si Si3 0.498817 0.166844 0.817255
Si Si4 0.112143 0.203607 0.687051
Si Si5 0.376931 0.385329 0.104339
Si Si6 0.020003 0.468008 0.350618
Si Si7 0.000000 0.000000 0.000000
O O1 0.500000 0.500000 0.500000
O O2 0.468952 0.544276 0.299004
O O3 0.225027 0.622187 0.421396
O O4 0.525600 0.937173 0.651246
O O5 0.000868 0.867339 0.243603
O O6 0.836530 0.756549 0.963034
O O7 0.000000 0.500000 0.000000
O O8 0.154081 0.900439 0.064104
O O9 0.309406 0.190570 0.744224
O O10 0.637554 0.411611 0.901533
O O11 0.464594 0.207456 0.968050
O O12 0.106618 0.436087 0.715983
O O13 0.000000 0.000000 0.500000
O O14 0.000000 0.500000 0.500000
O O15 0.999967 0.198444 0.193596
#
# Coordination Sequence:
#
# PCOD9044538 Si02
#       7
#     2   2   2   2   2   2   1
#     4  12  26  45  67 102 143 181 228 291 351 420
#     4  11  22  42  69  98 137 181 228 287 354 408
#     4  10  24  44  73  99 132 190 228 286 354 418
#     4  11  21  43  74  97 137 182 233 292 346 419
#     4  10  23  47  66 100 136 175 240 281 346 428
#     4  12  27  45  68 108 142 182 240 293 354 417
#     4  12  24  44  70 104 142 176 232 296 346 422
#
# _framework density 26.220787000000001
#
# number of rings (size 3 to 8) (size 9 to 14) (size 15 to 20)
#    0.000    0.923    4.615    1.385    4.308    1.846 
#    2.769    0.000    0.000    0.000    0.000    0.000 
#    0.000    0.000    0.000    0.000    0.000    0.000 
#
# Total GULP energy -72388.341560 kJ/mol
# GULP energy per Si atom -5568.333966 kJ/mol
# Density = 2.616111 g / cm^3
# Si number density = 26.220787 Si / 1000 Ang^3
#
#
#
# Elastic Constant Matrix: (Units=GPa)
#
#
# Indices 1 2 3 4 5 6 
#
# 1 79.3820 -6.2658 41.0513 -4.6331 -3.7097 5.5444
# 2 -6.2658 151.4144 69.2685 -13.9511 -30.2482 -2.1686
# 3 41.0513 69.2685 258.3383 -10.8093 -42.8536 10.2105
# 4 -4.6331 -13.9511 -10.8093 67.1107 18.4727 -7.4545
# 5 -3.7097 -30.2482 -42.8536 18.4727 39.0872 -3.6304
# 6 5.5444 -2.1686 10.2105 -7.4545 -3.6304 31.0432
#
#
#
# Elastic Compliance Matrix: (Units=1/GPa)
#
#
# Indices 1 2 3 4 5 6 
#
# 1 0.014297 0.001756 -0.002806 0.001013 -0.000968 -0.001378
# 2 0.001756 0.008512 -0.001828 0.000484 0.004664 0.001544
# 3 -0.002806 -0.001828 0.005621 -0.001153 0.004917 -0.001177
# 4 0.001013 0.000484 -0.001153 0.017702 -0.008838 0.003449
# 5 -0.000968 0.004664 0.004917 -0.008838 0.038789 0.001295
# 6 -0.001378 0.001544 -0.001177 0.003449 0.001295 0.033934
#
#
# Mechanical properties :
#
#
# Convention : Reuss Voigt Hill
#
# Bulk Modulus (GPa) = 44.10717 77.47141 60.78929
# Shear Modulus (GPa) = 37.82992 53.12025 45.47509
#
# Velocity S-wave (km/s) = 3.80247 4.50586 4.16903
# Velocity P-wave (km/s) = 6.01135 7.52864 6.81237
#
# Compressibility (1/GPa) = 0.02267205
#
# Stress axis : x y z
#
# Youngs Moduli (GPa) = 69.94301 117.48234 177.90408
#
# Poissons Ratio (x) = -0.20627 0.49928
# Poissons Ratio (y) = -0.12280 0.32529
# Poissons Ratio (z) = 0.19629 0.21481
#
# Static dielectric constant tensor:
#      x y z
#    x 2.323840 0.014850 -0.003240 
#    y 0.014850 2.305020 0.050090 
#    z -0.003240 0.050090 2.102240 
# 
# From -- ./inp_files/237376.got.cif
#   From: 2010.05.17/outbox.cif.g08.bks.cpg/sg2_119_cif.got.tgz:237376.got - 2010.06.03 11:33:40.
