data_PCOD9044311
_publ_section_title
;
Structure prediction by ZEFSAII (Michael W. Deem and Ramdas Pophale) SiO2 
 PCOD9044311
Probable space group: P -1
;
_chemical_formula_sum "Si O2"
_cell_formula_units_Z 16
_cell_length_a 16.642668
_cell_length_b 8.850877
_cell_length_c 8.590739
_cell_angle_alpha 68.696953
_cell_angle_beta 130.370509
_cell_angle_gamma 135.868846
_cell_volume 658.877477
_symmetry_space_group_name_H-M "P -1"
_symmetry_group_IT_number 2
_symmetry_cell_setting 'triclinic'
loop_
_space_group_symop_operation_xyz
x,y,z
-x,-y,-z
loop_
_atom_site_type_symbol
_atom_site_label
_atom_site_fract_x
_atom_site_fract_y
_atom_site_fract_z
Si Si1 0.522029 0.279252 0.782468
Si Si2 0.129350 0.507351 0.671829
Si Si3 0.846674 0.409074 0.997169
Si Si4 0.357271 0.306007 0.792573
Si Si5 0.367940 0.852537 0.602361
Si Si6 0.198585 0.241068 0.909767
Si Si7 0.157225 0.863146 0.149409
Si Si8 0.625936 0.397627 0.540376
O O1 0.395597 0.192027 0.777792
O O2 0.532184 0.352811 0.587396
O O3 0.489700 0.057969 0.784871
O O4 0.659982 0.512569 0.944960
O O5 0.242728 0.634676 0.625560
O O6 0.088594 0.274701 0.730413
O O7 0.000000 0.500000 0.500000
O O8 0.206883 0.644533 0.875525
O O9 0.841186 0.228871 0.979449
O O10 0.758433 0.440628 0.767450
O O11 0.007923 0.647002 0.115894
O O12 0.234479 0.190050 0.811096
O O13 0.331364 0.411531 0.586953
O O14 0.500000 0.500000 0.000000
O O15 0.283219 0.910564 0.388493
O O16 0.436857 0.799037 0.586935
O O17 0.164145 0.062350 0.055188
#
# Coordination Sequence:
#
# PCOD9044311 Si02
#       8
#     2   2   2   2   2   2   2   2
#     4  11  25  43  67 102 138 187 232 282 347 419
#     4  12  24  48  71 103 143 182 234 295 347 416
#     4  10  23  46  72  98 136 184 238 288 352 418
#     4  10  24  43  66  98 145 180 227 291 341 410
#     4  11  25  42  72 103 142 186 233 286 353 409
#     4  11  25  47  68 103 144 183 233 292 348 415
#     4  10  24  45  72 101 137 186 235 291 347 421
#     4  11  22  46  68  98 140 185 234 285 347 414
#
# _framework density 24.283726000000001
#
# number of rings (size 3 to 8) (size 9 to 14) (size 15 to 20)
#    0.000    1.250    3.750    0.750    7.000    1.000 
#    2.250    1.250    0.000    0.000    0.000    0.000 
#    0.000    0.000    0.000    0.000    0.000    0.000 
#
# Total GULP energy -89327.087038 kJ/mol
# GULP energy per Si atom -5582.942940 kJ/mol
# Density = 2.422846 g / cm^3
# Si number density = 24.283726 Si / 1000 Ang^3
#
#
#
# Elastic Constant Matrix: (Units=GPa)
#
#
# Indices 1 2 3 4 5 6 
#
# 1 118.9866 15.4380 39.7738 9.7579 -26.3035 -28.4991
# 2 15.4380 66.9312 41.7525 -8.9187 14.3509 -10.7727
# 3 39.7738 41.7525 88.7592 -16.1895 -6.6267 -4.0787
# 4 9.7579 -8.9187 -16.1895 38.5229 -2.9553 -1.4815
# 5 -26.3035 14.3509 -6.6267 -2.9553 42.9939 -3.6689
# 6 -28.4991 -10.7727 -4.0787 -1.4815 -3.6689 22.1891
#
#
#
# Elastic Compliance Matrix: (Units=1/GPa)
#
#
# Indices 1 2 3 4 5 6 
#
# 1 0.021751 0.001825 -0.009573 -0.006991 0.013198 0.028779
# 2 0.001825 0.026683 -0.013559 -0.000233 -0.008930 0.011314
# 3 -0.009573 -0.013559 0.022977 0.008535 0.001618 -0.013817
# 4 -0.006991 -0.000233 0.008535 0.030949 -0.001240 -0.005662
# 5 0.013198 -0.008930 0.001618 -0.001240 0.036083 0.018797
# 6 0.028779 0.011314 -0.013817 -0.005662 0.018797 0.087713
#
#
# Mechanical properties :
#
#
# Convention : Reuss Voigt Hill
#
# Bulk Modulus (GPa) = 34.72475 52.06730 43.39602
# Shear Modulus (GPa) = 17.96189 32.58869 25.27529
#
# Velocity S-wave (km/s) = 2.72263 3.66730 3.22969
# Velocity P-wave (km/s) = 4.92080 6.27853 5.64067
#
# Compressibility (1/GPa) = 0.02879790
#
# Stress axis : x y z
#
# Youngs Moduli (GPa) = 45.97437 37.47773 43.52233
#
# Poissons Ratio (x) = -0.06841 0.41663
# Poissons Ratio (y) = -0.08391 0.59011
# Poissons Ratio (z) = 0.44010 0.50815
#
# Static dielectric constant tensor:
#      x y z
#    x 2.055760 0.027200 0.107660 
#    y 0.027200 1.945170 0.001360 
#    z 0.107660 0.001360 2.032550 
# 
# From -- ./inp_files/327454.got.cif
#   From: 2010.05.17/outbox.cif.g08.bks.cpg/sg2_164_cif.got.tgz:327454.got - 2010.06.03 11:33:40.
