data_PCOD9044341
_publ_section_title
;
Structure prediction by ZEFSAII (Michael W. Deem and Ramdas Pophale) SiO2 
 PCOD9044341
Probable space group: P -1
;
_chemical_formula_sum "Si O2"
_cell_formula_units_Z 15
_cell_length_a 12.776979
_cell_length_b 12.036655
_cell_length_c 10.958742
_cell_angle_alpha 44.951314
_cell_angle_beta 101.178286
_cell_angle_gamma 63.705347
_cell_volume 639.053699
_symmetry_space_group_name_H-M "P -1"
_symmetry_group_IT_number 2
_symmetry_cell_setting 'triclinic'
loop_
_space_group_symop_operation_xyz
x,y,z
-x,-y,-z
loop_
_atom_site_type_symbol
_atom_site_label
_atom_site_fract_x
_atom_site_fract_y
_atom_site_fract_z
Si Si1 0.453330 0.570784 0.788636
Si Si2 0.279218 0.889512 0.005872
Si Si3 0.835360 0.486785 0.741011
Si Si4 0.858936 0.263200 0.354658
Si Si5 0.391721 0.296952 0.252694
Si Si6 0.016150 0.576572 0.623939
Si Si7 0.000000 0.000000 0.000000
Si Si8 0.551750 0.054220 0.859723
O O1 0.250995 0.730777 0.593309
O O2 0.466138 0.740957 0.637410
O O3 0.500000 0.500000 0.000000
O O4 0.609811 0.297997 0.946807
O O5 0.166441 0.883109 0.043412
O O6 0.432003 0.788016 0.208387
O O7 0.122508 0.220087 0.681362
O O8 0.795537 0.482774 0.872780
O O9 0.620232 0.751085 0.426893
O O10 0.918900 0.560127 0.694493
O O11 0.964589 0.210244 0.904582
O O12 0.973253 0.260611 0.446860
O O13 0.688015 0.557685 0.010494
O O14 0.000000 0.000000 0.500000
O O15 0.500000 0.000000 0.500000
O O16 0.238378 0.254583 0.902411
O O17 0.500000 0.000000 0.000000
#
# Coordination Sequence:
#
# PCOD9044341 Si02
#       8
#     2   2   2   2   2   2   1   2
#     4  10  23  46  73 103 144 198 242 301 375 446
#     4  12  24  47  74 105 151 191 249 306 365 456
#     4  12  27  48  74 104 155 188 249 313 373 446
#     4  11  26  47  73 108 145 198 254 301 383 452
#     4  11  25  47  73 109 146 192 247 315 377 440
#     4  12  25  46  75 104 143 193 248 305 365 454
#     4  12  26  48  68 110 148 196 238 310 374 428
#     4  12  24  45  72 106 136 199 245 291 373 440
#
# _framework density 23.472206
#
# number of rings (size 3 to 8) (size 9 to 14) (size 15 to 20)
#    0.000    0.533    4.000    4.400    5.600    1.067 
#    4.800    0.000    0.000    0.000    0.000    0.000 
#    0.000    0.000    0.000    0.000    0.000    0.000 
#
# Total GULP energy -83723.688326 kJ/mol
# GULP energy per Si atom -5581.579222 kJ/mol
# Density = 2.341878 g / cm^3
# Si number density = 23.472206 Si / 1000 Ang^3
#
#
#
# Elastic Constant Matrix: (Units=GPa)
#
#
# Indices 1 2 3 4 5 6 
#
# 1 215.7610 49.0750 9.7851 -8.7643 -3.3268 2.8116
# 2 49.0750 108.9820 17.5300 -35.9471 16.6926 1.4196
# 3 9.7851 17.5300 55.2967 -20.3778 4.6039 3.4392
# 4 -8.7643 -35.9471 -20.3778 36.2657 1.3211 -3.6194
# 5 -3.3268 16.6926 4.6039 1.3211 27.2901 -3.9992
# 6 2.8116 1.4196 3.4392 -3.6194 -3.9992 47.2765
#
#
#
# Elastic Compliance Matrix: (Units=1/GPa)
#
#
# Indices 1 2 3 4 5 6 
#
# 1 0.005499 -0.003919 -0.001264 -0.003400 0.003433 -0.000087
# 2 -0.003919 0.019309 0.003307 0.020537 -0.013868 -0.000188
# 3 -0.001264 0.003307 0.024062 0.016645 -0.007204 -0.001110
# 4 -0.003400 0.020537 0.016645 0.057252 -0.018380 0.001203
# 5 0.003433 -0.013868 -0.007204 -0.018380 0.048148 0.003402
# 6 -0.000087 -0.000188 -0.001110 0.001203 0.003402 0.021624
#
#
# Mechanical properties :
#
#
# Convention : Reuss Voigt Hill
#
# Bulk Modulus (GPa) = 22.16368 59.20220 40.68294
# Shear Modulus (GPa) = 25.68223 42.40977 34.04600
#
# Velocity S-wave (km/s) = 3.31139 4.25527 3.81265
# Velocity P-wave (km/s) = 4.90749 7.02994 6.06232
#
# Compressibility (1/GPa) = 0.04511886
#
# Stress axis : x y z
#
# Youngs Moduli (GPa) = 181.83656 51.78817 41.55869
#
# Poissons Ratio (x) = 0.20296 0.05253
# Poissons Ratio (y) = 0.71263 -0.13743
# Poissons Ratio (z) = 0.22982 -0.17125
#
# Static dielectric constant tensor:
#      x y z
#    x 1.936240 0.060630 0.087470 
#    y 0.060630 1.964860 0.141740 
#    z 0.087470 0.141740 2.080380 
# 
# From -- ./inp_files/425049.got.cif
#   From: 2010.05.17/outbox.cif.g08.bks.cpg/sg2_213_cif.got.tgz:425049.got - 2010.06.03 11:33:40.
