data_PCOD9044165
_publ_section_title
;
Structure prediction by ZEFSAII (Michael W. Deem and Ramdas Pophale) SiO2 
 PCOD9044165
Probable space group: P -1
;
_chemical_formula_sum "Si O2"
_cell_formula_units_Z 16
_cell_length_a 15.406930
_cell_length_b 9.295771
_cell_length_c 15.627907
_cell_angle_alpha 97.616122
_cell_angle_beta 152.643992
_cell_angle_gamma 102.179061
_cell_volume 705.717959
_symmetry_space_group_name_H-M "P -1"
_symmetry_group_IT_number 2
_symmetry_cell_setting 'triclinic'
loop_
_space_group_symop_operation_xyz
x,y,z
-x,-y,-z
loop_
_atom_site_type_symbol
_atom_site_label
_atom_site_fract_x
_atom_site_fract_y
_atom_site_fract_z
Si Si1 0.029246 0.344651 0.510829
Si Si2 0.608945 0.910000 0.480068
Si Si3 0.708163 0.902921 0.211636
Si Si4 0.082702 0.649491 0.884486
Si Si5 0.478338 0.370603 0.142673
Si Si6 0.836306 0.966208 0.018543
Si Si7 0.745681 0.472994 0.099732
Si Si8 0.585674 0.239083 0.512657
O O1 0.217800 0.413183 0.600758
O O2 0.156875 0.388061 0.719376
O O3 0.000000 0.500000 0.500000
O O4 0.764275 0.101311 0.257452
O O5 0.473773 0.783498 0.440826
O O6 0.661328 0.112402 0.549716
O O7 0.375704 0.767547 0.192021
O O8 0.890215 0.976825 0.722383
O O9 0.605524 0.766629 0.026007
O O10 0.507762 0.758910 0.103351
O O11 0.000000 0.000000 0.500000
O O12 0.051610 0.528268 0.765548
O O13 0.834106 0.476514 0.716968
O O14 0.097218 0.827865 0.890898
O O15 0.397918 0.226399 0.139491
O O16 0.322008 0.436345 0.017571
O O17 0.692961 0.880318 0.792881
#
# Coordination Sequence:
#
# PCOD9044165 Si02
#       8
#     2   2   2   2   2   2   2   2
#     4  11  25  39  63  90 125 169 214 272 327 381
#     4  10  23  46  71  97 132 176 213 270 334 395
#     4  11  21  41  66  85 121 171 220 268 321 388
#     4  11  26  41  67 102 133 171 221 271 328 397
#     4  11  24  41  61  93 124 170 222 267 327 387
#     4  11  26  41  67 102 134 171 220 273 329 394
#     4  11  24  41  61  92 125 170 222 269 323 388
#     4  10  23  46  70  98 134 170 219 268 331 402
#
# _framework density 22.671945000000001
#
# number of rings (size 3 to 8) (size 9 to 14) (size 15 to 20)
#    0.000    1.250    2.500    2.250    7.000    4.500 
#    0.000    0.000    0.000    0.000    0.000    0.000 
#    0.000    0.000    0.000    0.000    0.000    0.000 
#
# Total GULP energy -89442.453976 kJ/mol
# GULP energy per Si atom -5590.153373 kJ/mol
# Density = 2.262034 g / cm^3
# Si number density = 22.671945 Si / 1000 Ang^3
#
#
#
# Elastic Constant Matrix: (Units=GPa)
#
#
# Indices 1 2 3 4 5 6 
#
# 1 65.6632 28.8530 18.9370 3.1287 9.0537 10.1362
# 2 28.8530 152.7677 38.9220 20.6826 10.3115 2.8112
# 3 18.9370 38.9220 104.9093 -6.5058 20.6141 -2.8669
# 4 3.1287 20.6826 -6.5058 42.8006 1.6885 5.6810
# 5 9.0537 10.3115 20.6141 1.6885 25.8513 -0.6272
# 6 10.1362 2.8112 -2.8669 5.6810 -0.6272 33.4666
#
#
#
# Elastic Compliance Matrix: (Units=1/GPa)
#
#
# Indices 1 2 3 4 5 6 
#
# 1 0.018318 -0.002763 -0.001558 0.000676 -0.004252 -0.005644
# 2 -0.002763 0.008374 -0.002912 -0.004381 0.000251 0.000633
# 3 -0.001558 -0.002912 0.012875 0.003688 -0.008775 0.001029
# 4 0.000676 -0.004381 0.003688 0.026667 -0.003271 -0.004109
# 5 -0.004252 0.000251 -0.008775 -0.003271 0.047330 0.001957
# 6 -0.005644 0.000633 0.001029 -0.004109 0.001957 0.032359
#
#
# Mechanical properties :
#
#
# Convention : Reuss Voigt Hill
#
# Bulk Modulus (GPa) = 39.84031 55.19603 47.51817
# Shear Modulus (GPa) = 29.62847 36.19893 32.91370
#
# Velocity S-wave (km/s) = 3.61894 4.00013 3.81430
# Velocity P-wave (km/s) = 5.92224 6.76263 6.35634
#
# Compressibility (1/GPa) = 0.02510020
#
# Stress axis : x y z
#
# Youngs Moduli (GPa) = 54.59074 119.41377 77.67211
#
# Poissons Ratio (x) = 0.33000 0.12103
# Poissons Ratio (y) = 0.15086 0.22616
# Poissons Ratio (z) = 0.08506 0.34770
#
# Static dielectric constant tensor:
#      x y z
#    x 1.816590 0.017050 -0.021480 
#    y 0.017050 1.880980 -0.062480 
#    z -0.021480 -0.062480 1.915070 
# 
# From -- ./inp_files/529850.got.cif
#   From: 2010.05.17/outbox.cif.g08.bks.cpg/sg2_265_cif.got.tgz:529850.got - 2010.06.03 11:33:40.
