data_PCOD9044846
_publ_section_title
;
Structure prediction by ZEFSAII (Michael W. Deem and Ramdas Pophale) SiO2 
 PCOD9044846
Probable space group: P -1
;
_chemical_formula_sum "Si O2"
_cell_formula_units_Z 12
_cell_length_a 8.503127
_cell_length_b 7.002816
_cell_length_c 8.294232
_cell_angle_alpha 76.176988
_cell_angle_beta 109.751233
_cell_angle_gamma 75.573908
_cell_volume 420.940567
_symmetry_space_group_name_H-M "P -1"
_symmetry_group_IT_number 2
_symmetry_cell_setting 'triclinic'
loop_
_space_group_symop_operation_xyz
x,y,z
-x,-y,-z
loop_
_atom_site_type_symbol
_atom_site_label
_atom_site_fract_x
_atom_site_fract_y
_atom_site_fract_z
Si Si1 0.099832 0.775688 0.893698
Si Si2 0.787152 0.045102 0.544630
Si Si3 0.800657 0.682905 0.400187
Si Si4 0.498833 0.659910 0.820818
Si Si5 0.808032 0.722457 0.041995
Si Si6 0.601686 0.292517 0.746936
O O1 0.147313 0.534317 0.893156
O O2 0.990234 0.956825 0.694048
O O3 0.954111 0.774888 0.979771
O O4 0.263604 0.812243 0.036740
O O5 0.697598 0.208144 0.337159
O O6 0.678639 0.165599 0.638893
O O7 0.773916 0.829261 0.517427
O O8 0.802270 0.789098 0.208690
O O9 0.611384 0.648515 0.327034
O O10 0.000000 0.500000 0.500000
O O11 0.607413 0.526160 0.731264
O O12 0.500000 0.500000 0.000000
O O13 0.607712 0.806161 0.882126
#
# Coordination Sequence:
#
# PCOD9044846 Si02
#       6
#     2   2   2   2   2   2
#     4  10  24  48  78 113 153 204 258 316 391 457
#     4  12  27  47  81 117 153 210 260 315 392 468
#     4  12  26  48  79 115 160 202 262 318 387 463
#     4  11  25  48  77 112 157 201 260 322 383 452
#     4  10  23  47  75 109 162 199 247 330 386 445
#     4  11  26  50  77 113 160 202 259 321 388 460
#
# _framework density 28.507587000000001
#
# number of rings (size 3 to 8) (size 9 to 14) (size 15 to 20)
#    0.000    1.000    3.333    1.500    4.667    4.667 
#    0.000   10.000    0.000    0.000    0.000    0.000 
#    0.000    0.000    0.000    0.000    0.000    0.000 
#
# Total GULP energy -67100.471827 kJ/mol
# GULP energy per Si atom -5591.705986 kJ/mol
# Density = 2.844270 g / cm^3
# Si number density = 28.507587 Si / 1000 Ang^3
#
#
#
# Elastic Constant Matrix: (Units=GPa)
#
#
# Indices 1 2 3 4 5 6 
#
# 1 135.2077 50.7861 84.2939 0.0360 37.2443 -12.2122
# 2 50.7861 154.7273 85.2593 8.6286 12.1284 -23.1071
# 3 84.2939 85.2593 254.8089 -12.2025 37.5113 -4.5449
# 4 0.0360 8.6286 -12.2025 69.6939 0.3295 9.5147
# 5 37.2443 12.1284 37.5113 0.3295 48.4193 -0.4840
# 6 -12.2122 -23.1071 -4.5449 9.5147 -0.4840 46.3926
#
#
#
# Elastic Compliance Matrix: (Units=1/GPa)
#
#
# Indices 1 2 3 4 5 6 
#
# 1 0.011415 -0.001686 -0.002224 -0.000424 -0.006613 0.001965
# 2 -0.001686 0.009194 -0.002717 -0.002210 0.001158 0.004335
# 3 -0.002224 -0.002717 0.005947 0.001623 -0.002244 -0.001713
# 4 -0.000424 -0.002210 0.001623 0.015487 -0.000526 -0.004235
# 5 -0.006613 0.001158 -0.002244 -0.000526 0.027182 -0.000993
# 6 0.001965 0.004335 -0.001713 -0.004235 -0.000993 0.024922
#
#
# Mechanical properties :
#
#
# Convention : Reuss Voigt Hill
#
# Bulk Modulus (GPa) = 75.18136 109.49138 92.33637
# Shear Modulus (GPa) = 44.70910 54.52814 49.61862
#
# Velocity S-wave (km/s) = 3.96450 4.37825 4.17651
# Velocity P-wave (km/s) = 6.88375 8.00312 7.46445
#
# Compressibility (1/GPa) = 0.01330117
#
# Stress axis : x y z
#
# Youngs Moduli (GPa) = 87.60535 108.77182 168.15248
#
# Poissons Ratio (x) = 0.18337 0.37394
# Poissons Ratio (y) = 0.14769 0.45694
# Poissons Ratio (z) = 0.19482 0.29558
#
# Static dielectric constant tensor:
#      x y z
#    x 2.202050 -0.012590 0.025970 
#    y -0.012590 2.351780 -0.074390 
#    z 0.025970 -0.074390 2.313730 
# 
# From -- ./inp_files/158917.got.cif
#   From: 2010.05.17/outbox.cif.g08.bks.cpg/sg2_80_cif.got.tgz:158917.got - 2010.06.03 11:33:40.
