data_PCOD9044195
_publ_section_title
;
Structure prediction by ZEFSAII (Michael W. Deem and Ramdas Pophale) SiO2 
 PCOD9044195
Probable space group: P -1
;
_chemical_formula_sum "Si O2"
_cell_formula_units_Z 14
_cell_length_a 5.180999
_cell_length_b 9.166303
_cell_length_c 24.353779
_cell_angle_alpha 146.567237
_cell_angle_beta 71.050545
_cell_angle_gamma 95.357465
_cell_volume 566.593644
_symmetry_space_group_name_H-M "P -1"
_symmetry_group_IT_number 2
_symmetry_cell_setting 'triclinic'
loop_
_space_group_symop_operation_xyz
x,y,z
-x,-y,-z
loop_
_atom_site_type_symbol
_atom_site_label
_atom_site_fract_x
_atom_site_fract_y
_atom_site_fract_z
Si Si1 0.914513 0.278599 0.898262
Si Si2 0.860697 0.577936 0.287096
Si Si3 0.610960 0.325676 0.325903
Si Si4 0.836931 0.812730 0.629965
Si Si5 0.449219 0.672648 0.853471
Si Si6 0.437054 0.277865 0.015572
Si Si7 0.594155 0.115273 0.413516
O O1 0.807555 0.444282 0.901559
O O2 0.663990 0.217274 0.931104
O O3 0.155497 0.980637 0.779319
O O4 0.000000 0.500000 0.000000
O O5 0.714421 0.456709 0.307543
O O6 0.776568 0.446971 0.196797
O O7 0.211014 0.485613 0.237862
O O8 0.683771 0.908304 0.394584
O O9 0.320019 0.239168 0.320521
O O10 0.555641 0.565509 0.452557
O O11 0.608129 0.947215 0.638886
O O12 0.000000 0.500000 0.500000
O O13 0.093635 0.934757 0.650803
O O14 0.439380 0.661127 0.916142
O O15 0.361894 0.997830 0.943148
#
# Coordination Sequence:
#
# PCOD9044195 Si02
#       7
#     2   2   2   2   2   2   2
#     4  11  24  45  72 106 138 185 242 294 360 419
#     4  12  26  45  73 110 141 191 243 284 364 427
#     4  11  24  46  73 104 150 186 237 304 357 420
#     4  10  23  46  71 102 141 188 238 290 361 420
#     4  11  26  46  75 101 145 190 233 298 351 430
#     4  10  25  46  70 103 144 183 241 293 361 416
#     4  11  25  47  71 108 143 191 235 294 357 436
#
# _framework density 24.709067000000001
#
# number of rings (size 3 to 8) (size 9 to 14) (size 15 to 20)
#    0.000    1.143    1.429    3.857    4.000    5.714 
#   15.429    5.000    0.000    0.000    0.000    0.000 
#    0.000    0.000    0.000    0.000    0.000    0.000 
#
# Total GULP energy -78347.271159 kJ/mol
# GULP energy per Si atom -5596.233654 kJ/mol
# Density = 2.465283 g / cm^3
# Si number density = 24.709067 Si / 1000 Ang^3
#
#
#
# Elastic Constant Matrix: (Units=GPa)
#
#
# Indices 1 2 3 4 5 6 
#
# 1 86.8708 28.9930 29.7996 5.2520 -16.2933 6.8324
# 2 28.9930 164.1843 47.3969 12.6527 -21.8578 0.5957
# 3 29.7996 47.3969 134.5202 19.5110 -14.0618 -1.4177
# 4 5.2520 12.6527 19.5110 37.4594 -5.7737 -7.7797
# 5 -16.2933 -21.8578 -14.0618 -5.7737 39.5738 -3.2421
# 6 6.8324 0.5957 -1.4177 -7.7797 -3.2421 16.4229
#
#
#
# Elastic Compliance Matrix: (Units=1/GPa)
#
#
# Indices 1 2 3 4 5 6 
#
# 1 0.013857 -0.001239 -0.002166 -0.001013 0.003639 -0.005668
# 2 -0.001239 0.007281 -0.001881 -0.000835 0.002740 0.000234
# 3 -0.002166 -0.001881 0.009198 -0.003690 0.000814 0.000176
# 4 -0.001013 -0.000835 -0.003690 0.033107 0.004001 0.016606
# 5 0.003639 0.002740 0.000814 0.004001 0.029663 0.006208
# 6 -0.005668 0.000234 0.000176 0.016606 0.006208 0.072347
#
#
# Mechanical properties :
#
#
# Convention : Reuss Voigt Hill
#
# Bulk Modulus (GPa) = 50.59208 66.43937 58.51572
# Shear Modulus (GPa) = 27.38028 37.31695 32.34861
#
# Velocity S-wave (km/s) = 3.33243 3.89041 3.62218
# Velocity P-wave (km/s) = 5.94360 6.86494 6.42082
#
# Compressibility (1/GPa) = 0.01976594
#
# Stress axis : x y z
#
# Youngs Moduli (GPa) = 72.16401 137.34848 108.71383
#
# Poissons Ratio (x) = 0.17014 0.23544
# Poissons Ratio (y) = 0.08939 0.20448
# Poissons Ratio (z) = 0.15629 0.25834
#
# Static dielectric constant tensor:
#      x y z
#    x 2.045460 -0.007010 0.004300 
#    y -0.007010 2.012820 0.027030 
#    z 0.004300 0.027030 1.976610 
# 
# From -- ./inp_files/138728.got.cif
#   From: 2010.05.17/outbox.cif.g08.bks.cpg/sg2_70_cif.got.tgz:138728.got - 2010.06.03 11:33:40.
