data_PCOD9044770
_publ_section_title
;
Structure prediction by ZEFSAII (Michael W. Deem and Ramdas Pophale) SiO2 
 PCOD9044770
Probable space group: P -1
;
_chemical_formula_sum "Si O2"
_cell_formula_units_Z 16
_cell_length_a 14.431728
_cell_length_b 7.624836
_cell_length_c 11.919531
_cell_angle_alpha 108.334471
_cell_angle_beta 44.135688
_cell_angle_gamma 78.512489
_cell_volume 664.128398
_symmetry_space_group_name_H-M "P -1"
_symmetry_group_IT_number 2
_symmetry_cell_setting 'triclinic'
loop_
_space_group_symop_operation_xyz
x,y,z
-x,-y,-z
loop_
_atom_site_type_symbol
_atom_site_label
_atom_site_fract_x
_atom_site_fract_y
_atom_site_fract_z
Si Si1 0.263352 0.520020 0.894823
Si Si2 0.687370 0.923727 0.734203
Si Si3 0.091984 0.720285 0.861892
Si Si4 0.811017 0.191709 0.758375
Si Si5 0.995520 0.589360 0.706395
Si Si6 0.613144 0.887039 0.129513
Si Si7 0.287625 0.500108 0.302915
Si Si8 0.459905 0.431797 0.363401
O O1 0.121223 0.619511 0.941632
O O2 0.345398 0.261976 0.823237
O O3 0.416108 0.509090 0.707919
O O4 0.191054 0.706924 0.099496
O O5 0.717514 0.076400 0.812636
O O6 0.547345 0.065147 0.785484
O O7 0.875760 0.700348 0.471480
O O8 0.355009 0.230173 0.196745
O O9 0.997145 0.671220 0.846111
O O10 0.281430 0.578652 0.614597
O O11 0.000000 0.000000 0.000000
O O12 0.710089 0.407439 0.799074
O O13 0.000000 0.000000 0.500000
O O14 0.089907 0.650700 0.553232
O O15 0.800166 0.717893 0.870900
O O16 0.558559 0.149811 0.240516
O O17 0.397583 0.506212 0.303077
#
# Coordination Sequence:
#
# PCOD9044770 Si02
#       8
#     2   2   2   2   2   2   2   2
#     4  12  28  41  72 114 141 195 241 291 371 423
#     4   9  22  46  71 100 146 192 237 298 352 427
#     4  11  24  48  77 105 145 187 241 304 362 438
#     4  12  26  42  70 108 149 192 240 295 355 430
#     4   9  21  46  73 105 139 193 245 291 365 416
#     4  11  22  45  75 107 148 180 246 298 360 433
#     4   8  21  43  68  99 139 187 241 288 353 417
#     4  10  23  47  73 105 142 190 238 300 369 422
#
# _framework density 24.091729000000001
#
# number of rings (size 3 to 8) (size 9 to 14) (size 15 to 20)
#    0.750    1.000    1.250    2.625    5.250    4.500 
#    2.250    2.500    0.000    0.000    0.000    0.000 
#    0.000    0.000    0.000    0.000    0.000    0.000 
#
# Total GULP energy -89581.086797 kJ/mol
# GULP energy per Si atom -5598.817925 kJ/mol
# Density = 2.403690 g / cm^3
# Si number density = 24.091729 Si / 1000 Ang^3
#
#
#
# Elastic Constant Matrix: (Units=GPa)
#
#
# Indices 1 2 3 4 5 6 
#
# 1 108.8797 33.6969 20.9547 -4.9863 7.2919 -21.8957
# 2 33.6969 114.3452 9.0037 15.9522 6.2684 -17.7662
# 3 20.9547 9.0037 106.6267 29.0670 -13.4059 -8.8799
# 4 -4.9863 15.9522 29.0670 29.8817 -3.3493 -5.7973
# 5 7.2919 6.2684 -13.4059 -3.3493 39.5960 -9.9378
# 6 -21.8957 -17.7662 -8.8799 -5.7973 -9.9378 44.4232
#
#
#
# Elastic Compliance Matrix: (Units=1/GPa)
#
#
# Indices 1 2 3 4 5 6 
#
# 1 0.012718 -0.003890 -0.004479 0.009337 -0.001260 0.004754
# 2 -0.003890 0.011211 0.002210 -0.008507 -0.000586 0.001767
# 3 -0.004479 0.002210 0.015009 -0.015928 0.004353 0.000572
# 4 0.009337 -0.008507 -0.015928 0.056149 0.000344 0.005420
# 5 -0.001260 -0.000586 0.004353 0.000344 0.028710 0.006482
# 6 0.004754 0.001767 0.000572 0.005420 0.006482 0.027833
#
#
# Mechanical properties :
#
#
# Convention : Reuss Voigt Hill
#
# Bulk Modulus (GPa) = 37.56316 50.79580 44.17948
# Shear Modulus (GPa) = 28.93162 40.52660 34.72911
#
# Velocity S-wave (km/s) = 3.46915 4.10589 3.80088
# Velocity P-wave (km/s) = 5.62781 6.60362 6.13515
#
# Compressibility (1/GPa) = 0.02662183
#
# Stress axis : x y z
#
# Youngs Moduli (GPa) = 78.62591 89.19552 66.62626
#
# Poissons Ratio (x) = 0.34699 0.29840
# Poissons Ratio (y) = 0.30587 -0.14727
# Poissons Ratio (z) = 0.35214 -0.19716
#
# Static dielectric constant tensor:
#      x y z
#    x 2.059750 0.038860 0.004860 
#    y 0.038860 1.944530 -0.022700 
#    z 0.004860 -0.022700 1.980460 
# 
# From -- ./inp_files/399709.got.cif
#   From: 2010.05.17/outbox.cif.g08.bks.cpg/sg2_200_cif.got.tgz:399709.got - 2010.06.03 11:33:40.
