data_PCOD9044349
_publ_section_title
;
Structure prediction by ZEFSAII (Michael W. Deem and Ramdas Pophale) SiO2 
 PCOD9044349
Probable space group: P -1
;
_chemical_formula_sum "Si O2"
_cell_formula_units_Z 14
_cell_length_a 15.954675
_cell_length_b 8.648706
_cell_length_c 7.889968
_cell_angle_alpha 56.802284
_cell_angle_beta 128.397331
_cell_angle_gamma 86.700883
_cell_volume 567.781537
_symmetry_space_group_name_H-M "P -1"
_symmetry_group_IT_number 2
_symmetry_cell_setting 'triclinic'
loop_
_space_group_symop_operation_xyz
x,y,z
-x,-y,-z
loop_
_atom_site_type_symbol
_atom_site_label
_atom_site_fract_x
_atom_site_fract_y
_atom_site_fract_z
Si Si1 0.766307 0.729795 0.743120
Si Si2 0.621565 0.193285 0.427804
Si Si3 0.343060 0.484624 0.089316
Si Si4 0.742375 0.034535 0.210037
Si Si5 0.950049 0.562265 0.590604
Si Si6 0.229357 0.584340 0.525361
Si Si7 0.480706 0.235571 0.863401
O O1 0.761349 0.871001 0.489550
O O2 0.706553 0.918319 0.707911
O O3 0.676152 0.642742 0.709758
O O4 0.920833 0.517350 0.089436
O O5 0.734909 0.234563 0.536980
O O6 0.541475 0.251362 0.111806
O O7 0.500687 0.348858 0.316751
O O8 0.280802 0.470249 0.844555
O O9 0.247369 0.761934 0.846601
O O10 0.835858 0.838998 0.307529
O O11 0.582171 0.208102 0.868276
O O12 0.901665 0.404180 0.672652
O O13 0.000000 0.500000 0.500000
O O14 0.325867 0.425861 0.588900
O O15 0.500000 0.000000 0.000000
#
# Coordination Sequence:
#
# PCOD9044349 Si02
#       7
#     2   2   2   2   2   2   2
#     4  11  24  41  66 101 133 176 222 268 328 399
#     4  10  21  39  66 100 131 173 218 275 334 388
#     4  11  20  42  70  96 128 171 225 270 334 391
#     4  11  23  44  70  95 132 176 222 276 331 388
#     4  12  26  43  65  97 138 180 221 268 329 403
#     4  11  19  38  67  94 129 173 217 265 329 390
#     4  10  17  33  67  95 120 169 216 271 330 374
#
# _framework density 24.657371999999999
#
# number of rings (size 3 to 8) (size 9 to 14) (size 15 to 20)
#    0.000    1.143    7.143    1.714    0.000    1.143 
#    0.000    1.429    0.000    5.143    0.000    0.000 
#    0.000    0.000    0.000    0.000    0.000    0.000 
#
# Total GULP energy -77964.566600 kJ/mol
# GULP energy per Si atom -5568.897614 kJ/mol
# Density = 2.460125 g / cm^3
# Si number density = 24.657372 Si / 1000 Ang^3
#
#
#
# Elastic Constant Matrix: (Units=GPa)
#
#
# Indices 1 2 3 4 5 6 
#
# 1 138.1231 64.8855 46.4475 -18.0327 15.9542 -7.3108
# 2 64.8855 124.6374 26.9495 -36.5539 -7.2047 -19.3342
# 3 46.4475 26.9495 38.6608 -11.2185 -4.4780 -15.0469
# 4 -18.0327 -36.5539 -11.2185 38.5995 4.5507 2.0208
# 5 15.9542 -7.2047 -4.4780 4.5507 44.0872 0.7820
# 6 -7.3108 -19.3342 -15.0469 2.0208 0.7820 54.5443
#
#
#
# Elastic Compliance Matrix: (Units=1/GPa)
#
#
# Indices 1 2 3 4 5 6 
#
# 1 0.017974 -0.007171 -0.020741 -0.003024 -0.009372 -0.005608
# 2 -0.007171 0.015353 0.003689 0.011504 0.004202 0.005012
# 3 -0.020741 0.003689 0.057515 0.008277 0.012850 0.013903
# 4 -0.003024 0.011504 0.008277 0.037572 -0.000144 0.004566
# 5 -0.009372 0.004202 0.012850 -0.000144 0.028021 0.003382
# 6 -0.005608 0.005012 0.013903 0.004566 0.003382 0.022976
#
#
# Mechanical properties :
#
#
# Convention : Reuss Voigt Hill
#
# Bulk Modulus (GPa) = 23.58792 64.22073 43.90433
# Shear Modulus (GPa) = 20.66197 38.32209 29.49203
#
# Velocity S-wave (km/s) = 2.89790 3.94659 3.46218
# Velocity P-wave (km/s) = 4.55896 6.84611 5.81607
#
# Compressibility (1/GPa) = 0.04239457
#
# Stress axis : x y z
#
# Youngs Moduli (GPa) = 55.63469 65.13334 17.38683
#
# Poissons Ratio (x) = 0.46707 0.36063
# Poissons Ratio (y) = 0.39896 -0.06413
# Poissons Ratio (z) = 1.15395 -0.24025
#
# Static dielectric constant tensor:
#      x y z
#    x 1.992820 0.028070 -0.001030 
#    y 0.028070 2.087560 0.045140 
#    z -0.001030 0.045140 2.083570 
# 
# From -- ./inp_files/294249.got.cif
#   From: 2010.05.17/outbox.cif.g08.bks.cpg/sg2_148_cif.got.tgz:294249.got - 2010.06.03 11:33:40.
