data_PCOD9044360
_publ_section_title
;
Structure prediction by ZEFSAII (Michael W. Deem and Ramdas Pophale) SiO2 
 PCOD9044360
Probable space group: P -1
;
_chemical_formula_sum "Si O2"
_cell_formula_units_Z 16
_cell_length_a 5.314158
_cell_length_b 18.583466
_cell_length_c 15.202882
_cell_angle_alpha 154.676277
_cell_angle_beta 98.454784
_cell_angle_gamma 84.878922
_cell_volume 631.816129
_symmetry_space_group_name_H-M "P -1"
_symmetry_group_IT_number 2
_symmetry_cell_setting 'triclinic'
loop_
_space_group_symop_operation_xyz
x,y,z
-x,-y,-z
loop_
_atom_site_type_symbol
_atom_site_label
_atom_site_fract_x
_atom_site_fract_y
_atom_site_fract_z
Si Si1 0.210610 0.656404 0.655227
Si Si2 0.675640 0.958213 0.328670
Si Si3 0.101715 0.333976 0.055330
Si Si4 0.530191 0.767087 0.290007
Si Si5 0.984237 0.818438 0.665842
Si Si6 0.843185 0.530141 0.112550
Si Si7 0.551516 0.379141 0.552697
Si Si8 0.250400 0.847553 0.036028
O O1 0.409978 0.606845 0.535751
O O2 0.348967 0.763516 0.860061
O O3 0.000000 0.500000 0.500000
O O4 0.059086 0.792414 0.743033
O O5 0.625655 0.879316 0.336218
O O6 0.672049 0.152894 0.569252
O O7 0.901620 0.854455 0.192305
O O8 0.457207 0.913245 0.193576
O O9 0.375073 0.433968 0.199456
O O10 0.987429 0.460456 0.123366
O O11 0.939385 0.304627 0.101619
O O12 0.754223 0.715707 0.307777
O O13 0.409230 0.601277 0.051112
O O14 0.719824 0.697563 0.511418
O O15 0.229166 0.746957 0.552393
O O16 0.916004 0.000104 0.831737
O O17 0.000000 0.500000 0.000000
#
# Coordination Sequence:
#
# PCOD9044360 Si02
#       8
#     2   2   2   2   2   2   2   2
#     4  10  23  46  73 106 142 203 243 314 364 452
#     4  11  26  42  70 101 142 185 240 313 370 446
#     4  12  26  43  72 109 144 194 252 306 375 446
#     4  10  24  46  67 100 138 186 240 302 381 440
#     4  10  26  47  70 109 146 204 243 313 368 448
#     4  11  23  44  71  99 138 188 240 301 366 458
#     4  10  26  47  76 105 152 192 256 299 379 440
#     4  12  25  46  69 109 149 190 248 309 375 444
#
# _framework density 25.323823999999998
#
# number of rings (size 3 to 8) (size 9 to 14) (size 15 to 20)
#    0.750    0.500    3.750    0.375    7.000    4.500 
#    0.000    0.000    0.000    0.000    0.000    0.000 
#    0.000    0.000    0.000    0.000    0.000    0.000 
#
# Total GULP energy -89360.139541 kJ/mol
# GULP energy per Si atom -5585.008721 kJ/mol
# Density = 2.526619 g / cm^3
# Si number density = 25.323824 Si / 1000 Ang^3
#
#
#
# Elastic Constant Matrix: (Units=GPa)
#
#
# Indices 1 2 3 4 5 6 
#
# 1 66.7584 27.4836 5.2938 -7.5937 -2.0499 -4.1088
# 2 27.4836 150.8815 35.7493 11.2573 -12.5795 -26.6853
# 3 5.2938 35.7493 74.3507 -13.2541 -17.7869 -10.4560
# 4 -7.5937 11.2573 -13.2541 12.5103 9.2472 2.0173
# 5 -2.0499 -12.5795 -17.7869 9.2472 37.7172 1.5974
# 6 -4.1088 -26.6853 -10.4560 2.0173 1.5974 37.8316
#
#
#
# Elastic Compliance Matrix: (Units=1/GPa)
#
#
# Indices 1 2 3 4 5 6 
#
# 1 0.021965 -0.009660 0.007124 0.035560 -0.007215 -0.004051
# 2 -0.009660 0.016428 -0.010903 -0.040630 0.009380 0.009296
# 3 0.007124 -0.010903 0.024995 0.042245 -0.001726 -0.002188
# 4 0.035560 -0.040630 0.042245 0.219448 -0.044527 -0.022943
# 5 -0.007215 0.009380 -0.001726 -0.044527 0.039094 0.006079
# 6 -0.004051 0.009296 -0.002188 -0.022943 0.006079 0.032912
#
#
# Mechanical properties :
#
#
# Convention : Reuss Voigt Hill
#
# Bulk Modulus (GPa) = 27.38913 47.67154 37.53033
# Shear Modulus (GPa) = 12.69389 32.50942 22.60166
#
# Velocity S-wave (km/s) = 2.24132 3.58683 2.99072
# Velocity P-wave (km/s) = 4.18773 6.00162 5.17477
#
# Compressibility (1/GPa) = 0.03651084
#
# Stress axis : x y z
#
# Youngs Moduli (GPa) = 45.52605 60.87113 40.00835
#
# Poissons Ratio (x) = 0.58802 -0.28502
# Poissons Ratio (y) = 0.43979 0.43620
# Poissons Ratio (z) = -0.32433 0.66366
#
# Static dielectric constant tensor:
#      x y z
#    x 2.088070 -0.191950 -0.041470 
#    y -0.191950 2.458140 0.132910 
#    z -0.041470 0.132910 2.075890 
# 
# From -- ./inp_files/485347.got.cif
#   From: 2010.05.17/outbox.cif.g08.bks.cpg/sg2_243_cif.got.tgz:485347.got - 2010.06.03 11:33:40.
