data_PCOD9044338
_publ_section_title
;
Structure prediction by ZEFSAII (Michael W. Deem and Ramdas Pophale) SiO2 
 PCOD9044338
Probable space group: P -1
;
_chemical_formula_sum "Si O2"
_cell_formula_units_Z 16
_cell_length_a 10.922466
_cell_length_b 8.763039
_cell_length_c 17.975492
_cell_angle_alpha 37.584440
_cell_angle_beta 41.985195
_cell_angle_gamma 45.258667
_cell_volume 673.585376
_symmetry_space_group_name_H-M "P -1"
_symmetry_group_IT_number 2
_symmetry_cell_setting 'triclinic'
loop_
_space_group_symop_operation_xyz
x,y,z
-x,-y,-z
loop_
_atom_site_type_symbol
_atom_site_label
_atom_site_fract_x
_atom_site_fract_y
_atom_site_fract_z
Si Si1 0.734198 0.876767 0.634869
Si Si2 0.010993 0.682016 0.211493
Si Si3 0.201786 0.911063 0.763117
Si Si4 0.230928 0.330281 0.465772
Si Si5 0.251122 0.667794 0.986825
Si Si6 0.712792 0.429596 0.403376
Si Si7 0.514145 0.883495 0.882036
Si Si8 0.590865 0.552828 0.244227
O O1 0.695548 0.809690 0.592564
O O2 0.593314 0.957439 0.738587
O O3 0.852267 0.591711 0.718892
O O4 0.814437 0.126540 0.491926
O O5 0.809288 0.619157 0.329413
O O6 0.004827 0.914317 0.181625
O O7 0.041576 0.721727 0.094806
O O8 0.288766 0.827721 0.838294
O O9 0.257782 0.629118 0.809480
O O10 0.253135 0.102393 0.605336
O O11 0.384910 0.488519 0.355152
O O12 0.000000 0.500000 0.500000
O O13 0.350373 0.754862 0.980269
O O14 0.331992 0.360106 0.056475
O O15 0.500000 0.500000 0.500000
O O16 0.691037 0.473852 0.308825
O O17 0.450271 0.137528 0.862467
#
# Coordination Sequence:
#
# PCOD9044338 Si02
#       8
#     2   2   2   2   2   2   2   2
#     4  11  23  43  72 102 140 180 228 285 352 406
#     4  11  25  45  71 100 138 186 230 285 337 413
#     4  12  24  43  68 101 140 185 224 278 346 416
#     4  12  26  43  68 104 145 180 223 288 359 410
#     4  10  24  47  73  96 137 185 239 277 336 410
#     4  12  24  40  70 108 138 170 234 288 346 406
#     4  10  23  46  73 103 132 183 233 287 340 406
#     4  12  26  41  71 104 139 179 229 291 350 409
#
# _framework density 23.753485999999999
#
# number of rings (size 3 to 8) (size 9 to 14) (size 15 to 20)
#    0.000    0.750    3.750    3.375    3.500    2.500 
#    0.000    2.500    0.000    0.000    0.000    0.000 
#    0.000    0.000    0.000    0.000    0.000    0.000 
#
# Total GULP energy -89159.221589 kJ/mol
# GULP energy per Si atom -5572.451349 kJ/mol
# Density = 2.369942 g / cm^3
# Si number density = 23.753486 Si / 1000 Ang^3
#
#
#
# Elastic Constant Matrix: (Units=GPa)
#
#
# Indices 1 2 3 4 5 6 
#
# 1 45.2440 22.0170 23.9940 -5.6286 14.7362 7.8582
# 2 22.0170 199.1703 43.1037 -31.2605 5.4727 19.9499
# 3 23.9940 43.1037 85.5497 -25.6680 24.8809 0.5487
# 4 -5.6286 -31.2605 -25.6680 51.5897 -2.4427 4.0137
# 5 14.7362 5.4727 24.8809 -2.4427 31.1857 -3.7043
# 6 7.8582 19.9499 0.5487 4.0137 -3.7043 31.3894
#
#
#
# Elastic Compliance Matrix: (Units=1/GPa)
#
#
# Indices 1 2 3 4 5 6 
#
# 1 0.030212 -0.001192 -0.004301 0.000522 -0.011564 -0.008162
# 2 -0.001192 0.006506 -0.002303 0.003030 0.001014 -0.004064
# 3 -0.004301 -0.002303 0.020124 0.007554 -0.013065 -0.000319
# 4 0.000522 0.003030 0.007554 0.025245 -0.005549 -0.006072
# 5 -0.011564 0.001014 -0.013065 -0.005549 0.048399 0.008900
# 6 -0.008162 -0.004064 -0.000319 -0.006072 0.008900 0.038317
#
#
# Mechanical properties :
#
#
# Convention : Reuss Voigt Hill
#
# Bulk Modulus (GPa) = 24.24205 56.46593 40.35399
# Shear Modulus (GPa) = 25.23405 38.88960 32.06182
#
# Velocity S-wave (km/s) = 3.26288 4.05064 3.67791
# Velocity P-wave (km/s) = 4.94196 6.76019 5.92128
#
# Compressibility (1/GPa) = 0.04125063
#
# Stress axis : x y z
#
# Youngs Moduli (GPa) = 33.09908 153.70688 49.69137
#
# Poissons Ratio (x) = 0.18318 0.21372
# Poissons Ratio (y) = 0.03945 0.11445
# Poissons Ratio (z) = 0.14236 0.35402
#
# Static dielectric constant tensor:
#      x y z
#    x 1.931020 -0.037360 -0.013220 
#    y -0.037360 2.054940 0.086610 
#    z -0.013220 0.086610 1.979850 
# 
# From -- ./inp_files/566409.got.cif
#   From: 2010.05.17/outbox.cif.g08.bks.cpg/sg2_284_cif.got.tgz:566409.got - 2010.06.03 11:33:40.
