data_PCOD9044423
_publ_section_title
;
Structure prediction by ZEFSAII (Michael W. Deem and Ramdas Pophale) SiO2 
 PCOD9044423
Probable space group: P -1
;
_chemical_formula_sum "Si O2"
_cell_formula_units_Z 16
_cell_length_a 8.730522
_cell_length_b 11.871416
_cell_length_c 11.206246
_cell_angle_alpha 127.062914
_cell_angle_beta 124.103029
_cell_angle_gamma 92.854078
_cell_volume 621.424458
_symmetry_space_group_name_H-M "P -1"
_symmetry_group_IT_number 2
_symmetry_cell_setting 'triclinic'
loop_
_space_group_symop_operation_xyz
x,y,z
-x,-y,-z
loop_
_atom_site_type_symbol
_atom_site_label
_atom_site_fract_x
_atom_site_fract_y
_atom_site_fract_z
Si Si1 0.637130 0.812736 0.022294
Si Si2 0.591383 0.721986 0.212924
Si Si3 0.262962 0.936492 0.416405
Si Si4 0.920182 0.070118 0.110236
Si Si5 0.655145 0.585699 0.370302
Si Si6 0.378430 0.584695 0.447584
Si Si7 0.088131 0.621056 0.996999
Si Si8 0.458535 0.937625 0.750349
O O1 0.365315 0.400654 0.772610
O O2 0.176565 0.083092 0.931118
O O3 0.437149 0.760453 0.644539
O O4 0.597408 0.962302 0.120336
O O5 0.330472 0.666362 0.082148
O O6 0.685325 0.776321 0.154213
O O7 0.746913 0.902262 0.470759
O O8 0.298542 0.893854 0.538317
O O9 0.500000 0.000000 0.500000
O O10 0.094071 0.780007 0.157818
O O11 0.103794 0.258135 0.369960
O O12 0.731189 0.075748 0.958511
O O13 0.000000 0.000000 0.000000
O O14 0.500000 0.500000 0.500000
O O15 0.478649 0.616757 0.376467
O O16 0.567200 0.387359 0.229277
O O17 0.893194 0.536678 0.758582
O O18 0.000000 0.500000 0.000000
#
# Coordination Sequence:
#
# PCOD9044423 Si02
#       8
#     2   2   2   2   2   2   2   2
#     4  11  28  51  76 112 157 209 262 333 401 472
#     4  10  23  46  74 108 156 203 264 328 393 470
#     4   9  19  36  68 103 142 195 255 312 373 457
#     4  12  28  48  79 110 155 208 258 328 403 466
#     4  12  26  48  76 114 158 204 268 327 390 475
#     4  12  25  41  74 120 159 199 266 333 381 467
#     4  11  20  41  74 111 148 209 264 315 388 471
#     4  11  23  49  71 106 157 200 254 323 391 472
#
# _framework density 25.747299999999999
#
# number of rings (size 3 to 8) (size 9 to 14) (size 15 to 20)
#    0.000    1.000    3.750    2.250    0.000    7.000 
#    0.000    0.000    0.000    0.000    0.000    0.000 
#    0.000    0.000    0.000    0.000    0.000    0.000 
#
# Total GULP energy -89302.049860 kJ/mol
# GULP energy per Si atom -5581.378116 kJ/mol
# Density = 2.568870 g / cm^3
# Si number density = 25.747300 Si / 1000 Ang^3
#
#
#
# Elastic Constant Matrix: (Units=GPa)
#
#
# Indices 1 2 3 4 5 6 
#
# 1 106.3040 49.7104 34.4958 2.5397 -18.4510 13.3053
# 2 49.7104 128.0579 37.0511 9.7372 -16.2984 7.5627
# 3 34.4958 37.0511 192.6948 16.2684 -9.5742 -9.1074
# 4 2.5397 9.7372 16.2684 44.5111 -14.2012 -0.0439
# 5 -18.4510 -16.2984 -9.5742 -14.2012 35.2828 2.9652
# 6 13.3053 7.5627 -9.1074 -0.0439 2.9652 45.8407
#
#
#
# Elastic Compliance Matrix: (Units=1/GPa)
#
#
# Indices 1 2 3 4 5 6 
#
# 1 0.013254 -0.003834 -0.001744 0.002659 0.006089 -0.003952
# 2 -0.003834 0.009994 -0.001099 -0.000924 0.002016 -0.000886
# 3 -0.001744 -0.001099 0.005940 -0.002087 -0.000809 0.001918
# 4 0.002659 -0.000924 -0.002087 0.026907 0.011374 -0.001744
# 5 0.006089 0.002016 -0.000809 0.011374 0.037208 -0.004657
# 6 -0.003952 -0.000886 0.001918 -0.001744 -0.004657 0.023789
#
#
# Mechanical properties :
#
#
# Convention : Reuss Voigt Hill
#
# Bulk Modulus (GPa) = 63.15768 74.39681 68.77725
# Shear Modulus (GPa) = 36.83958 45.51355 41.17657
#
# Velocity S-wave (km/s) = 3.78671 4.20897 4.00341
# Velocity P-wave (km/s) = 6.61075 7.25109 6.93831
#
# Compressibility (1/GPa) = 0.01583339
#
# Stress axis : x y z
#
# Youngs Moduli (GPa) = 75.44935 100.05544 168.35634
#
# Poissons Ratio (x) = 0.38363 0.29365
# Poissons Ratio (y) = 0.28928 0.18503
# Poissons Ratio (z) = 0.13160 0.10997
#
# Static dielectric constant tensor:
#      x y z
#    x 1.461310 0.183140 -0.328460 
#    y 0.183140 2.118390 0.128110 
#    z -0.328460 0.128110 1.847070 
# 
# From -- ./inp_files/507066.got.cif
#   From: 2010.05.17/outbox.cif.g08.bks.cpg/sg2_254_cif.got.tgz:507066.got - 2010.06.03 11:33:40.
