data_PCOD9044647
_publ_section_title
;
Structure prediction by ZEFSAII (Michael W. Deem and Ramdas Pophale) SiO2 
 PCOD9044647
Probable space group: P -1
;
_chemical_formula_sum "Si O2"
_cell_formula_units_Z 14
_cell_length_a 11.011162
_cell_length_b 27.411789
_cell_length_c 13.913835
_cell_angle_alpha 159.513555
_cell_angle_beta 146.694768
_cell_angle_gamma 23.426180
_cell_volume 575.757022
_symmetry_space_group_name_H-M "P -1"
_symmetry_group_IT_number 2
_symmetry_cell_setting 'triclinic'
loop_
_space_group_symop_operation_xyz
x,y,z
-x,-y,-z
loop_
_atom_site_type_symbol
_atom_site_label
_atom_site_fract_x
_atom_site_fract_y
_atom_site_fract_z
Si Si1 0.304464 0.185341 0.080533
Si Si2 0.188369 0.303215 0.823183
Si Si3 0.300856 0.251598 0.405313
Si Si4 0.755867 0.276186 0.785412
Si Si5 0.110456 0.057642 0.419852
Si Si6 0.151849 0.024160 0.061424
Si Si7 0.189407 0.554920 0.418408
O O1 0.988415 0.244994 0.956511
O O2 0.546073 0.963879 0.870540
O O3 0.482040 0.157586 0.051241
O O4 0.287254 0.294652 0.362775
O O5 0.032402 0.229626 0.621466
O O6 0.517810 0.117307 0.652195
O O7 0.240988 0.376923 0.086791
O O8 0.000000 0.500000 0.000000
O O9 0.530257 0.248807 0.613365
O O10 0.952618 0.398468 0.484170
O O11 0.954615 0.140032 0.572818
O O12 0.500000 0.500000 0.000000
O O13 0.998687 0.972223 0.129227
O O14 0.062346 0.225920 0.390895
O O15 0.000000 0.000000 0.000000
O O16 0.500000 0.500000 0.500000
#
# Coordination Sequence:
#
# PCOD9044647 Si02
#       7
#     2   2   2   2   2   2   2
#     4  10  24  45  74  99 137 196 241 300 368 441
#     4  11  25  44  70 107 146 197 243 303 375 441
#     4  10  23  47  70 102 141 184 247 297 371 440
#     4  12  26  46  68 105 146 192 246 303 375 448
#     4  11  25  46  70 106 153 188 251 314 364 446
#     4  11  23  43  72 102 141 193 245 304 376 434
#     4  11  23  44  69 104 139 182 239 303 365 447
#
# _framework density 24.315814
#
# number of rings (size 3 to 8) (size 9 to 14) (size 15 to 20)
#    0.000    1.143    2.857    2.143    8.000    1.714 
#   10.286    0.000    0.000    0.000    0.000    0.000 
#    0.000    0.000    0.000    0.000    0.000    0.000 
#
# Total GULP energy -78194.749899 kJ/mol
# GULP energy per Si atom -5585.339278 kJ/mol
# Density = 2.426047 g / cm^3
# Si number density = 24.315814 Si / 1000 Ang^3
#
#
#
# Elastic Constant Matrix: (Units=GPa)
#
#
# Indices 1 2 3 4 5 6 
#
# 1 86.6220 36.1580 20.9441 5.8476 -0.6885 -20.7510
# 2 36.1580 99.8050 22.3882 -8.2648 -9.5470 -10.6733
# 3 20.9441 22.3882 85.1996 2.7077 2.4266 -8.3623
# 4 5.8476 -8.2648 2.7077 48.7195 -1.7540 9.4662
# 5 -0.6885 -9.5470 2.4266 -1.7540 42.5741 -0.4318
# 6 -20.7510 -10.6733 -8.3623 9.4662 -0.4318 34.7714
#
#
#
# Elastic Compliance Matrix: (Units=1/GPa)
#
#
# Indices 1 2 3 4 5 6 
#
# 1 0.016578 -0.005117 -0.001661 -0.004577 -0.000880 0.009158
# 2 -0.005117 0.012907 -0.002368 0.003139 0.003071 -0.000478
# 3 -0.001661 -0.002368 0.013020 -0.001315 -0.001336 0.001754
# 4 -0.004577 0.003139 -0.001315 0.023375 0.001582 -0.008428
# 5 -0.000880 0.003071 -0.001336 0.001582 0.024304 -0.000033
# 6 0.009158 -0.000478 0.001754 -0.008428 -0.000033 0.036794
#
#
# Mechanical properties :
#
#
# Convention : Reuss Voigt Hill
#
# Bulk Modulus (GPa) = 41.30103 47.84523 44.57313
# Shear Modulus (GPa) = 32.60704 38.02207 35.31455
#
# Velocity S-wave (km/s) = 3.66591 3.95863 3.81508
# Velocity P-wave (km/s) = 5.91106 6.37288 6.14631
#
# Compressibility (1/GPa) = 0.02421247
#
# Stress axis : x y z
#
# Youngs Moduli (GPa) = 60.32103 77.47634 76.80636
#
# Poissons Ratio (x) = 0.39646 0.12759
# Poissons Ratio (y) = 0.30867 0.18187
# Poissons Ratio (z) = 0.10021 0.18345
#
# Static dielectric constant tensor:
#      x y z
#    x 2.211770 0.013210 0.185800 
#    y 0.013210 1.976310 -0.077390 
#    z 0.185800 -0.077390 2.330060 
# 
# From -- ./inp_files/524644.got.cif
#   From: 2010.05.17/outbox.cif.g08.bks.cpg/sg2_263_cif.got.tgz:524644.got - 2010.06.03 11:33:40.
