data_PCOD9044280
_publ_section_title
;
Structure prediction by ZEFSAII (Michael W. Deem and Ramdas Pophale) SiO2 
 PCOD9044280
Probable space group: P -1
;
_chemical_formula_sum "Si O2"
_cell_formula_units_Z 16
_cell_length_a 19.999769
_cell_length_b 7.978612
_cell_length_c 13.689219
_cell_angle_alpha 62.010154
_cell_angle_beta 35.059316
_cell_angle_gamma 37.500110
_cell_volume 654.770311
_symmetry_space_group_name_H-M "P -1"
_symmetry_group_IT_number 2
_symmetry_cell_setting 'triclinic'
loop_
_space_group_symop_operation_xyz
x,y,z
-x,-y,-z
loop_
_atom_site_type_symbol
_atom_site_label
_atom_site_fract_x
_atom_site_fract_y
_atom_site_fract_z
Si Si1 0.790995 0.718437 0.502460
Si Si2 0.555522 0.208366 0.911723
Si Si3 0.512654 0.757683 0.525738
Si Si4 0.074103 0.356665 0.841912
Si Si5 0.605510 0.805119 0.075604
Si Si6 0.224458 0.857707 0.488776
Si Si7 0.810933 0.369522 0.102395
Si Si8 0.117540 0.739123 0.347653
O O1 0.880707 0.572155 0.327042
O O2 0.873693 0.486325 0.557302
O O3 0.563893 0.946646 0.708483
O O4 0.793265 0.937280 0.472557
O O5 0.339450 0.527667 0.127986
O O6 0.676349 0.915937 0.922513
O O7 0.503567 0.145704 0.898049
O O8 0.672889 0.219080 0.715866
O O9 0.636275 0.481589 0.534987
O O10 0.640473 0.554603 0.331660
O O11 0.500000 0.000000 0.500000
O O12 0.290097 0.982128 0.708235
O O13 0.000000 0.500000 0.000000
O O14 0.891725 0.474761 0.989874
O O15 0.743137 0.461742 0.047568
O O16 0.006071 0.088420 0.651647
O O17 0.000000 0.000000 0.000000
O O18 0.000000 0.000000 0.500000
#
# Coordination Sequence:
#
# PCOD9044280 Si02
#       8
#     2   2   2   2   2   2   2   2
#     4  10  23  46  72 104 147 183 243 302 350 436
#     4   9  22  43  69 102 139 181 234 287 359 430
#     4  12  28  50  68 103 154 188 244 309 362 428
#     4  12  27  46  73 103 140 200 244 295 372 431
#     4   9  20  43  70 101 143 182 228 307 350 416
#     4  11  26  45  77 102 138 193 240 296 359 437
#     4  12  27  42  74 107 141 194 246 301 363 433
#     4  11  26  43  71 108 147 181 228 299 368 430
#
# _framework density 24.436049000000001
#
# number of rings (size 3 to 8) (size 9 to 14) (size 15 to 20)
#    0.000    1.250    2.500    1.875   10.500    2.500 
#    0.000    0.000    0.000    0.000    0.000    0.000 
#    0.000    0.000    0.000    0.000    0.000    0.000 
#
# Total GULP energy -89323.783375 kJ/mol
# GULP energy per Si atom -5582.736461 kJ/mol
# Density = 2.438043 g / cm^3
# Si number density = 24.436049 Si / 1000 Ang^3
#
#
#
# Elastic Constant Matrix: (Units=GPa)
#
#
# Indices 1 2 3 4 5 6 
#
# 1 50.8727 27.3841 24.9932 -5.4013 16.2829 -17.2283
# 2 27.3841 136.7103 23.4974 7.5162 10.4302 -33.9393
# 3 24.9932 23.4974 150.1578 18.3343 40.6887 -9.7267
# 4 -5.4013 7.5162 18.3343 28.4662 -2.5509 4.6895
# 5 16.2829 10.4302 40.6887 -2.5509 38.3762 3.0113
# 6 -17.2283 -33.9393 -9.7267 4.6895 3.0113 45.9662
#
#
#
# Elastic Compliance Matrix: (Units=1/GPa)
#
#
# Indices 1 2 3 4 5 6 
#
# 1 0.028557 -0.002879 -0.001707 0.005020 -0.009846 0.008349
# 2 -0.002879 0.010117 0.000980 -0.005378 -0.003503 0.007377
# 3 -0.001707 0.000980 0.011896 -0.010167 -0.013184 0.004502
# 4 0.005020 -0.005378 -0.010167 0.046945 0.014013 -0.009948
# 5 -0.009846 -0.003503 -0.013184 0.014013 0.047163 -0.013586
# 6 0.008349 0.007377 0.004502 -0.009948 -0.013586 0.033188
#
#
# Mechanical properties :
#
#
# Convention : Reuss Voigt Hill
#
# Bulk Modulus (GPa) = 23.06364 54.38780 38.72572
# Shear Modulus (GPa) = 25.05865 40.01947 32.53906
#
# Velocity S-wave (km/s) = 3.20578 4.05127 3.65307
# Velocity P-wave (km/s) = 4.81265 6.64750 5.80305
#
# Compressibility (1/GPa) = 0.04335828
#
# Stress axis : x y z
#
# Youngs Moduli (GPa) = 35.01761 98.84137 84.06171
#
# Poissons Ratio (x) = 0.28455 0.14348
# Poissons Ratio (y) = 0.10081 -0.08236
# Poissons Ratio (z) = 0.05977 -0.09684
#
# Static dielectric constant tensor:
#      x y z
#    x 1.815820 0.244560 -0.066830 
#    y 0.244560 1.945980 -0.098940 
#    z -0.066830 -0.098940 2.075820 
# 
# From -- ./inp_files/542651.got.cif
#   From: 2010.05.17/outbox.cif.g08.bks.cpg/sg2_272_cif.got.tgz:542651.got - 2010.06.03 11:33:40.
