data_PCOD9044588
_publ_section_title
;
Structure prediction by ZEFSAII (Michael W. Deem and Ramdas Pophale) SiO2 
 PCOD9044588
Probable space group: P -1
;
_chemical_formula_sum "Si O2"
_cell_formula_units_Z 16
_cell_length_a 16.469473
_cell_length_b 15.880612
_cell_length_c 5.197532
_cell_angle_alpha 104.203056
_cell_angle_beta 121.242457
_cell_angle_gamma 33.621455
_cell_volume 591.477933
_symmetry_space_group_name_H-M "P -1"
_symmetry_group_IT_number 2
_symmetry_cell_setting 'triclinic'
loop_
_space_group_symop_operation_xyz
x,y,z
-x,-y,-z
loop_
_atom_site_type_symbol
_atom_site_label
_atom_site_fract_x
_atom_site_fract_y
_atom_site_fract_z
Si Si1 0.998776 0.711862 0.248619
Si Si2 0.635062 0.018662 0.185440
Si Si3 0.774880 0.259838 0.800509
Si Si4 0.716240 0.775619 0.309542
Si Si5 0.671871 0.232378 0.108730
Si Si6 0.706337 0.491902 0.047415
Si Si7 0.124508 0.477525 0.958625
Si Si8 0.850814 0.962790 0.845179
O O1 0.808084 0.857837 0.182556
O O2 0.135578 0.658741 0.607838
O O3 0.952628 0.795509 0.970499
O O4 0.098713 0.542840 0.239919
O O5 0.633644 0.936218 0.311123
O O6 0.686761 0.063844 0.465490
O O7 0.448985 0.158184 0.827246
O O8 0.746510 0.229317 0.468317
O O9 0.687946 0.278696 0.914336
O O10 0.687582 0.424210 0.775727
O O11 0.991561 0.103119 0.069330
O O12 0.763965 0.695819 0.047304
O O13 0.914717 0.625162 0.646395
O O14 0.472921 0.359904 0.966850
O O15 0.781084 0.062776 0.064594
O O16 0.773837 0.526287 0.041882
#
# Coordination Sequence:
#
# PCOD9044588 Si02
#       8
#     2   2   2   2   2   2   2   2
#     4  12  23  44  71  98 140 204 232 299 370 439
#     4  11  24  46  70 104 144 194 234 312 360 449
#     4  12  25  51  74 112 148 194 246 315 363 442
#     4  10  23  47  68 104 148 178 258 293 371 434
#     4  12  31  44  79 112 146 194 256 307 362 447
#     4  12  26  47  71 105 147 194 240 301 382 431
#     4  11  24  46  70 104 144 194 234 312 360 449
#     4  12  26  47  71 105 147 194 240 301 382 431
#
# _framework density 27.050882999999999
#
# number of rings (size 3 to 8) (size 9 to 14) (size 15 to 20)
#    0.000    0.500    5.000    2.250    7.000    1.000 
#    0.000    0.000    0.000    0.000    0.000    0.000 
#    0.000    0.000    0.000    0.000    0.000    0.000 
#
# Total GULP energy -89600.955287 kJ/mol
# GULP energy per Si atom -5600.059705 kJ/mol
# Density = 2.698931 g / cm^3
# Si number density = 27.050883 Si / 1000 Ang^3
#
#
#
# Elastic Constant Matrix: (Units=GPa)
#
#
# Indices 1 2 3 4 5 6 
#
# 1 133.9276 44.3493 62.7313 -4.2418 20.0460 -15.7112
# 2 44.3493 163.3250 55.3224 19.8386 23.1641 -23.8169
# 3 62.7313 55.3224 142.1491 17.8385 25.4512 -17.5799
# 4 -4.2418 19.8386 17.8385 54.9194 -10.7543 7.5781
# 5 20.0460 23.1641 25.4512 -10.7543 37.1023 -3.7925
# 6 -15.7112 -23.8169 -17.5799 7.5781 -3.7925 55.9214
#
#
#
# Elastic Compliance Matrix: (Units=1/GPa)
#
#
# Indices 1 2 3 4 5 6 
#
# 1 0.010081 -0.001439 -0.003886 0.002247 -0.001169 0.000614
# 2 -0.001439 0.008477 -0.000868 -0.004278 -0.004834 0.003185
# 3 -0.003886 -0.000868 0.011140 -0.005150 -0.006257 0.002314
# 4 0.002247 -0.004278 -0.005150 0.024606 0.011573 -0.005359
# 5 -0.001169 -0.004834 -0.006257 0.011573 0.037906 -0.003352
# 6 0.000614 0.003185 0.002314 -0.005359 -0.003352 0.020638
#
#
# Mechanical properties :
#
#
# Convention : Reuss Voigt Hill
#
# Bulk Modulus (GPa) = 57.75822 84.91195 71.33509
# Shear Modulus (GPa) = 38.16666 48.05519 43.11092
#
# Velocity S-wave (km/s) = 3.76030 4.21940 3.99645
# Velocity P-wave (km/s) = 6.34438 7.42937 6.90821
#
# Compressibility (1/GPa) = 0.01731355
#
# Stress axis : x y z
#
# Youngs Moduli (GPa) = 99.19214 117.96453 89.76578
#
# Poissons Ratio (x) = 0.16974 0.34880
# Poissons Ratio (y) = 0.14272 0.07792
# Poissons Ratio (z) = 0.38543 0.10239
#
# Static dielectric constant tensor:
#      x y z
#    x 2.250160 0.080980 0.035230 
#    y 0.080980 2.118780 0.023690 
#    z 0.035230 0.023690 2.087730 
# 
# From -- ./inp_files/111695.got.cif
#   From: 2010.05.17/outbox.cif.g08.bks.cpg/sg2_56_cif.got.tgz:111695.got - 2010.06.03 11:33:40.
