data_PCOD9044607
_publ_section_title
;
Structure prediction by ZEFSAII (Michael W. Deem and Ramdas Pophale) SiO2 
 PCOD9044607
Probable space group: P -1
;
_chemical_formula_sum "Si O2"
_cell_formula_units_Z 16
_cell_length_a 18.931687
_cell_length_b 7.842156
_cell_length_c 5.645900
_cell_angle_alpha 99.965684
_cell_angle_beta 128.032474
_cell_angle_gamma 86.175060
_cell_volume 649.410558
_symmetry_space_group_name_H-M "P -1"
_symmetry_group_IT_number 2
_symmetry_cell_setting 'triclinic'
loop_
_space_group_symop_operation_xyz
x,y,z
-x,-y,-z
loop_
_atom_site_type_symbol
_atom_site_label
_atom_site_fract_x
_atom_site_fract_y
_atom_site_fract_z
Si Si1 0.005564 0.713924 0.067896
Si Si2 0.431339 0.740158 0.821622
Si Si3 0.271177 0.278889 0.988362
Si Si4 0.574971 0.545640 0.857870
Si Si5 0.734682 0.218792 0.825099
Si Si6 0.401776 0.992570 0.182564
Si Si7 0.929264 0.330461 0.309673
Si Si8 0.808783 0.849341 0.716556
O O1 0.057136 0.760307 0.430222
O O2 0.912570 0.805624 0.914734
O O3 0.000000 0.500000 0.000000
O O4 0.046849 0.761938 0.908929
O O5 0.530177 0.713907 0.916857
O O6 0.341945 0.704249 0.476062
O O7 0.428674 0.602844 0.992369
O O8 0.415956 0.928800 0.933054
O O9 0.222617 0.198244 0.631289
O O10 0.324526 0.444805 0.029246
O O11 0.223949 0.265813 0.143971
O O12 0.358768 0.170507 0.189508
O O13 0.500000 0.500000 0.500000
O O14 0.674942 0.142550 0.901350
O O15 0.776848 0.042325 0.758156
O O16 0.822143 0.347995 0.078359
O O17 0.500000 0.000000 0.500000
O O18 0.000000 0.500000 0.500000
#
# Coordination Sequence:
#
# PCOD9044607 Si02
#       8
#     2   2   2   2   2   2   2   2
#     4  10  23  47  69 101 138 186 232 295 372 439
#     4  11  24  44  70  99 147 192 245 300 365 429
#     4  11  25  44  72 103 147 187 244 299 360 429
#     4  11  26  44  62 102 144 198 244 297 361 427
#     4  11  25  43  71 108 142 190 246 302 362 437
#     4  11  24  44  73 103 150 194 244 298 361 435
#     4  10  24  45  72 101 144 185 237 297 372 435
#     4  11  25  45  72 107 138 186 244 304 363 439
#
# _framework density 24.637727999999999
#
# number of rings (size 3 to 8) (size 9 to 14) (size 15 to 20)
#    0.000    1.250    1.250    3.000    8.750    4.000 
#   11.250    0.000    0.000    0.000    0.000    0.000 
#    0.000    0.000    0.000    0.000    0.000    0.000 
#
# Total GULP energy -89214.383244 kJ/mol
# GULP energy per Si atom -5575.898953 kJ/mol
# Density = 2.458165 g / cm^3
# Si number density = 24.637728 Si / 1000 Ang^3
#
#
#
# Elastic Constant Matrix: (Units=GPa)
#
#
# Indices 1 2 3 4 5 6 
#
# 1 201.1916 21.8381 50.4802 -4.4533 6.3947 -1.8504
# 2 21.8381 62.7864 1.9309 -1.5211 4.8747 0.8433
# 3 50.4802 1.9309 102.2507 -14.7424 -5.6536 1.4550
# 4 -4.4533 -1.5211 -14.7424 33.2066 2.0968 6.4429
# 5 6.3947 4.8747 -5.6536 2.0968 51.1287 -5.1194
# 6 -1.8504 0.8433 1.4550 6.4429 -5.1194 44.4448
#
#
#
# Elastic Compliance Matrix: (Units=1/GPa)
#
#
# Indices 1 2 3 4 5 6 
#
# 1 0.005962 -0.001937 -0.003055 -0.000668 -0.000833 0.000386
# 2 -0.001937 0.016722 0.000727 0.001059 -0.001389 -0.000735
# 3 -0.003055 0.000727 0.012104 0.005132 0.001328 -0.001128
# 4 -0.000668 0.001059 0.005132 0.033450 -0.001344 -0.005220
# 5 -0.000833 -0.001389 0.001328 -0.001344 0.020245 0.002475
# 6 0.000386 -0.000735 -0.001128 -0.005220 0.002475 0.023609
#
#
# Mechanical properties :
#
#
# Convention : Reuss Voigt Hill
#
# Bulk Modulus (GPa) = 38.08311 57.19189 47.63750
# Shear Modulus (GPa) = 38.64810 45.22133 41.93471
#
# Velocity S-wave (km/s) = 3.96492 4.28886 4.13007
# Velocity P-wave (km/s) = 6.03752 6.91298 6.49003
#
# Compressibility (1/GPa) = 0.02625836
#
# Stress axis : x y z
#
# Youngs Moduli (GPa) = 167.72103 59.80295 82.61947
#
# Poissons Ratio (x) = 0.11581 0.25238
# Poissons Ratio (y) = 0.32480 -0.06004
# Poissons Ratio (z) = 0.51234 -0.04346
#
# Static dielectric constant tensor:
#      x y z
#    x 2.067250 0.095580 -0.049310 
#    y 0.095580 2.275280 0.106440 
#    z -0.049310 0.106440 1.976120 
# 
# From -- ./inp_files/39987.got.cif
#   From: 2010.05.17/outbox.cif.g08.bks.cpg/sg2_20_cif.got.tgz:39987.got - 2010.06.03 11:33:40.
