data_PCOD9044133
_publ_section_title
;
Structure prediction by ZEFSAII (Michael W. Deem and Ramdas Pophale) SiO2 
 PCOD9044133
Probable space group: P -1
;
_chemical_formula_sum "Si O2"
_cell_formula_units_Z 12
_cell_length_a 9.069443
_cell_length_b 18.037855
_cell_length_c 14.933314
_cell_angle_alpha 20.888674
_cell_angle_beta 138.244020
_cell_angle_gamma 145.492029
_cell_volume 490.005473
_symmetry_space_group_name_H-M "P -1"
_symmetry_group_IT_number 2
_symmetry_cell_setting 'triclinic'
loop_
_space_group_symop_operation_xyz
x,y,z
-x,-y,-z
loop_
_atom_site_type_symbol
_atom_site_label
_atom_site_fract_x
_atom_site_fract_y
_atom_site_fract_z
Si Si1 0.121803 0.911084 0.880754
Si Si2 0.501879 0.266761 0.799113
Si Si3 0.904775 0.779514 0.636738
Si Si4 0.472602 0.990289 0.604767
Si Si5 0.747934 0.800993 0.057192
Si Si6 0.611586 0.494849 0.193633
O O1 0.259462 0.037590 0.894694
O O2 0.181538 0.127502 0.594198
O O3 0.254046 0.760710 0.079793
O O4 0.810577 0.714712 0.969820
O O5 0.500000 0.500000 0.500000
O O6 0.475070 0.281164 0.876684
O O7 0.667063 0.560055 0.833378
O O8 0.168652 0.793282 0.714146
O O9 0.000000 0.000000 0.500000
O O10 0.681669 0.934324 0.801294
O O11 0.500000 0.000000 0.500000
O O12 0.551923 0.246796 0.399821
O O13 0.761283 0.585937 0.255478
O O14 0.000000 0.000000 0.000000
#
# Coordination Sequence:
#
# PCOD9044133 Si02
#       6
#     2   2   2   2   2   2
#     4  11  24  45  70 106 145 192 247 299 370 438
#     4  11  25  44  69 105 152 191 240 304 368 441
#     4  10  23  46  70 105 145 191 251 303 368 436
#     4  11  27  47  77 110 148 196 251 308 372 443
#     4  12  26  46  73 111 147 191 252 298 375 449
#     4  11  25  46  76 104 148 194 242 310 367 434
#
# _framework density 24.489522999999998
#
# number of rings (size 3 to 8) (size 9 to 14) (size 15 to 20)
#    0.000    1.000    1.667    4.000    2.333   10.000 
#    0.000    0.000    0.000    0.000    0.000    0.000 
#    0.000    0.000    0.000    0.000    0.000    0.000 
#
# Total GULP energy -67015.651972 kJ/mol
# GULP energy per Si atom -5584.637664 kJ/mol
# Density = 2.443378 g / cm^3
# Si number density = 24.489523 Si / 1000 Ang^3
#
#
#
# Elastic Constant Matrix: (Units=GPa)
#
#
# Indices 1 2 3 4 5 6 
#
# 1 168.9371 61.3029 69.5629 -7.7425 8.0742 -9.0489
# 2 61.3029 121.2520 48.9206 3.0586 2.7263 -10.3598
# 3 69.5629 48.9206 87.2540 -6.9800 13.8832 10.3653
# 4 -7.7425 3.0586 -6.9800 52.6710 0.6671 -2.8268
# 5 8.0742 2.7263 13.8832 0.6671 43.5101 -7.5655
# 6 -9.0489 -10.3598 10.3653 -2.8268 -7.5655 67.5600
#
#
#
# Elastic Compliance Matrix: (Units=1/GPa)
#
#
# Indices 1 2 3 4 5 6 
#
# 1 0.009556 -0.001899 -0.006902 0.000706 0.000916 0.002180
# 2 -0.001899 0.011784 -0.005843 -0.001623 0.001955 0.002600
# 3 -0.006902 -0.005843 0.022125 0.002024 -0.006462 -0.005854
# 4 0.000706 -0.001623 0.002024 0.019477 -0.000931 0.000246
# 5 0.000916 0.001955 -0.006462 -0.000931 0.025502 0.004231
# 6 0.002180 0.002600 -0.005854 0.000246 0.004231 0.016874
#
#
# Mechanical properties :
#
#
# Convention : Reuss Voigt Hill
#
# Bulk Modulus (GPa) = 70.53638 81.89065 76.21352
# Shear Modulus (GPa) = 35.88584 45.92532 40.90558
#
# Velocity S-wave (km/s) = 3.83215 4.33518 4.09140
# Velocity P-wave (km/s) = 6.96029 7.65310 7.31491
#
# Compressibility (1/GPa) = 0.01417708
#
# Stress axis : x y z
#
# Youngs Moduli (GPa) = 104.65014 84.86272 45.19823
#
# Poissons Ratio (x) = 0.16112 0.31196
# Poissons Ratio (y) = 0.19869 0.26409
# Poissons Ratio (z) = 0.72229 0.49585
#
# Static dielectric constant tensor:
#      x y z
#    x 1.949240 0.109020 0.104070 
#    y 0.109020 1.813930 -0.319640 
#    z 0.104070 -0.319640 1.670810 
# 
# From -- ./inp_files/507226.got.cif
#   From: 2010.05.17/outbox.cif.g08.bks.cpg/sg2_254_cif.got.tgz:507226.got - 2010.06.03 11:33:40.
