data_PCOD9044865
_publ_section_title
;
Structure prediction by ZEFSAII (Michael W. Deem and Ramdas Pophale) SiO2 
 PCOD9044865
Probable space group: P -1
;
_chemical_formula_sum "Si O2"
_cell_formula_units_Z 14
_cell_length_a 11.483219
_cell_length_b 21.905031
_cell_length_c 15.439957
_cell_angle_alpha 19.789172
_cell_angle_beta 25.956823
_cell_angle_gamma 25.857041
_cell_volume 536.160190
_symmetry_space_group_name_H-M "P -1"
_symmetry_group_IT_number 2
_symmetry_cell_setting 'triclinic'
loop_
_space_group_symop_operation_xyz
x,y,z
-x,-y,-z
loop_
_atom_site_type_symbol
_atom_site_label
_atom_site_fract_x
_atom_site_fract_y
_atom_site_fract_z
Si Si1 0.917906 0.707811 0.732274
Si Si2 0.791222 0.087588 0.602944
Si Si3 0.591100 0.043271 0.046544
Si Si4 0.575267 0.915806 0.416759
Si Si5 0.828371 0.322184 0.583365
Si Si6 0.173780 0.731158 0.023977
Si Si7 0.747007 0.542946 0.507171
O O1 0.052327 0.838272 0.526326
O O2 0.036634 0.652690 0.630450
O O3 0.594648 0.864169 0.731461
O O4 0.000000 0.500000 0.000000
O O5 0.632245 0.932105 0.914893
O O6 0.511886 0.277726 0.521320
O O7 0.000000 0.000000 0.500000
O O8 0.555912 0.925539 0.312410
O O9 0.907950 0.930535 0.950154
O O10 0.586513 0.240505 0.827593
O O11 0.903818 0.832912 0.337132
O O12 0.417163 0.779902 0.745380
O O13 0.701836 0.496257 0.501606
O O14 0.244234 0.631326 0.203499
O O15 0.035408 0.591567 0.254460
#
# Coordination Sequence:
#
# PCOD9044865 Si02
#       7
#     2   2   2   2   2   2   2
#     4  12  30  49  75 117 155 206 261 315 388 471
#     4  11  26  51  77 102 158 213 250 310 393 474
#     4  11  24  47  78 112 153 203 261 317 390 459
#     4  12  25  48  84 112 155 205 258 318 398 455
#     4  12  27  48  80 118 155 203 259 337 384 450
#     4  10  23  47  76 120 153 200 258 322 394 450
#     4  10  25  47  78 120 157 194 265 332 374 465
#
# _framework density 26.111599999999999
#
# number of rings (size 3 to 8) (size 9 to 14) (size 15 to 20)
#    0.000    0.857    4.286    0.857    4.000    2.857 
#    0.000    0.000    0.000    0.000    0.000    0.000 
#    0.000    0.000    0.000    0.000    0.000    0.000 
#
# Total GULP energy -78356.295689 kJ/mol
# GULP energy per Si atom -5596.878264 kJ/mol
# Density = 2.605217 g / cm^3
# Si number density = 26.111600 Si / 1000 Ang^3
#
#
#
# Elastic Constant Matrix: (Units=GPa)
#
#
# Indices 1 2 3 4 5 6 
#
# 1 149.1737 44.5455 61.9964 -5.2145 -14.7029 37.3593
# 2 44.5455 137.5522 41.5533 -4.5562 6.0298 21.9453
# 3 61.9964 41.5533 133.6883 -6.0329 7.9265 19.9603
# 4 -5.2145 -4.5562 -6.0329 34.7986 7.4175 2.1662
# 5 -14.7029 6.0298 7.9265 7.4175 52.7022 1.3333
# 6 37.3593 21.9453 19.9603 2.1662 1.3333 62.3800
#
#
#
# Elastic Compliance Matrix: (Units=1/GPa)
#
#
# Indices 1 2 3 4 5 6 
#
# 1 0.010248 -0.001621 -0.003799 0.000151 0.003707 -0.004436
# 2 -0.001621 0.008608 -0.001569 0.000987 -0.001300 -0.001562
# 3 -0.003799 -0.001569 0.010008 0.001536 -0.002592 -0.000373
# 4 0.000151 0.000987 0.001536 0.030233 -0.004509 -0.001882
# 5 0.003707 -0.001300 -0.002592 -0.004509 0.021213 -0.001230
# 6 -0.004436 -0.001562 -0.000373 -0.001882 -0.001230 0.019448
#
#
# Mechanical properties :
#
#
# Convention : Reuss Voigt Hill
#
# Bulk Modulus (GPa) = 67.17732 79.62274 73.40003
# Shear Modulus (GPa) = 42.12324 48.13076 45.12700
#
# Velocity S-wave (km/s) = 4.02082 4.29799 4.16172
# Velocity P-wave (km/s) = 6.88033 7.42898 7.15991
#
# Compressibility (1/GPa) = 0.01488598
#
# Stress axis : x y z
#
# Youngs Moduli (GPa) = 97.57759 116.17486 99.91606
#
# Poissons Ratio (x) = 0.18830 0.37962
# Poissons Ratio (y) = 0.15816 0.15677
# Poissons Ratio (z) = 0.37073 0.18228
#
# Static dielectric constant tensor:
#      x y z
#    x 2.149590 -0.025290 -0.076830 
#    y -0.025290 2.029040 0.040500 
#    z -0.076830 0.040500 2.146520 
# 
# From -- ./inp_files/523991.got.cif
#   From: 2010.05.17/outbox.cif.g08.bks.cpg/sg2_262_cif.got.tgz:523991.got - 2010.06.03 11:33:40.
