data_PCOD9044585
_publ_section_title
;
Structure prediction by ZEFSAII (Michael W. Deem and Ramdas Pophale) SiO2 
 PCOD9044585
Probable space group: P -1
;
_chemical_formula_sum "Si O2"
_cell_formula_units_Z 16
_cell_length_a 9.448619
_cell_length_b 13.750684
_cell_length_c 5.538746
_cell_angle_alpha 95.795340
_cell_angle_beta 88.104139
_cell_angle_gamma 109.413529
_cell_volume 675.237769
_symmetry_space_group_name_H-M "P -1"
_symmetry_group_IT_number 2
_symmetry_cell_setting 'triclinic'
loop_
_space_group_symop_operation_xyz
x,y,z
-x,-y,-z
loop_
_atom_site_type_symbol
_atom_site_label
_atom_site_fract_x
_atom_site_fract_y
_atom_site_fract_z
Si Si1 0.038423 0.255302 0.929276
Si Si2 0.864893 0.202316 0.421498
Si Si3 0.261124 0.469651 0.060718
Si Si4 0.510160 0.413871 0.292468
Si Si5 0.167362 0.085377 0.037913
Si Si6 0.647740 0.321853 0.618291
Si Si7 0.507503 0.877356 0.201415
Si Si8 0.318357 0.003182 0.374014
O O1 0.109422 0.378622 0.992647
O O2 0.148912 0.190865 0.970178
O O3 0.922303 0.216202 0.148169
O O4 0.981120 0.232142 0.650945
O O5 0.762924 0.273591 0.483462
O O6 0.772180 0.083479 0.452522
O O7 0.375575 0.408251 0.117869
O O8 0.269073 0.559759 0.274315
O O9 0.333976 0.536307 0.841123
O O10 0.500000 0.500000 0.500000
O O11 0.518622 0.321200 0.434341
O O12 0.206483 0.060629 0.300513
O O13 0.328969 0.089327 0.917534
O O14 0.000000 0.000000 0.000000
O O15 0.573264 0.245975 0.826765
O O16 0.388236 0.936928 0.170416
O O17 0.544440 0.910329 0.487666
#
# Coordination Sequence:
#
# PCOD9044585 Si02
#       8
#     2   2   2   2   2   2   2   2
#     4  12  29  44  72 104 145 191 233 289 359 419
#     4  11  27  49  69 104 144 188 238 290 350 427
#     4  10  24  42  67 102 140 180 239 296 345 424
#     4   9  21  41  65  95 138 177 232 298 346 408
#     4  12  25  42  70 101 143 187 230 295 356 424
#     4  10  24  44  71  98 137 190 235 295 347 420
#     4  10  24  42  72 101 136 184 241 287 360 417
#     4  10  23  47  68 102 137 184 239 297 344 426
#
# _framework density 23.695357000000001
#
# number of rings (size 3 to 8) (size 9 to 14) (size 15 to 20)
#    0.000    1.500    1.250    1.125   14.000    2.000 
#    4.500    0.000    0.000    0.000    0.000    0.000 
#    0.000    0.000    0.000    0.000    0.000    0.000 
#
# Total GULP energy -89204.866353 kJ/mol
# GULP energy per Si atom -5575.304147 kJ/mol
# Density = 2.364143 g / cm^3
# Si number density = 23.695357 Si / 1000 Ang^3
#
#
#
# Elastic Constant Matrix: (Units=GPa)
#
#
# Indices 1 2 3 4 5 6 
#
# 1 68.5868 14.3593 2.4013 2.5490 8.7548 -16.0067
# 2 14.3593 102.4898 -3.1986 17.9187 17.4108 -7.0974
# 3 2.4013 -3.1986 31.7018 -3.7056 0.0341 -2.6374
# 4 2.5490 17.9187 -3.7056 15.9963 4.9711 3.7783
# 5 8.7548 17.4108 0.0341 4.9711 35.5739 -5.6063
# 6 -16.0067 -7.0974 -2.6374 3.7783 -5.6063 46.5544
#
#
#
# Elastic Compliance Matrix: (Units=1/GPa)
#
#
# Indices 1 2 3 4 5 6 
#
# 1 0.016489 -0.001224 -0.001169 -0.002054 -0.002335 0.005302
# 2 -0.001224 0.013166 -0.000011 -0.013892 -0.003847 0.002250
# 3 -0.001169 -0.000011 0.032604 0.007803 -0.000714 0.000724
# 4 -0.002054 -0.013892 0.007803 0.084454 -0.006075 -0.009968
# 5 -0.002335 -0.003847 -0.000714 -0.006075 0.031875 0.002902
# 6 0.005302 0.002250 0.000724 -0.009968 0.002902 0.024846
#
#
# Mechanical properties :
#
#
# Convention : Reuss Voigt Hill
#
# Bulk Modulus (GPa) = 17.40591 25.54472 21.47532
# Shear Modulus (GPa) = 21.98841 32.23935 27.11388
#
# Velocity S-wave (km/s) = 3.04955 3.69260 3.38638
# Velocity P-wave (km/s) = 4.44537 5.38371 4.93688
#
# Compressibility (1/GPa) = 0.05745176
#
# Stress axis : x y z
#
# Youngs Moduli (GPa) = 60.64650 75.95146 30.67069
#
# Poissons Ratio (x) = 0.09294 0.03585
# Poissons Ratio (y) = 0.07421 0.00035
# Poissons Ratio (z) = 0.07089 0.00087
#
# Static dielectric constant tensor:
#      x y z
#    x 1.972640 0.024980 0.064170 
#    y 0.024980 1.957460 0.060240 
#    z 0.064170 0.060240 2.115120 
# 
# From -- ./inp_files/39290.got.cif
#   From: 2010.05.17/outbox.cif.g08.bks.cpg/sg2_20_cif.got.tgz:39290.got - 2010.06.03 11:33:40.
