data_PCOD9044956
_publ_section_title
;
Structure prediction by ZEFSAII (Michael W. Deem and Ramdas Pophale) SiO2 
 PCOD9044956
Probable space group: P -1
;
_chemical_formula_sum "Si O2"
_cell_formula_units_Z 16
_cell_length_a 14.277958
_cell_length_b 26.836200
_cell_length_c 8.256525
_cell_angle_alpha 50.726178
_cell_angle_beta 137.873905
_cell_angle_gamma 160.132844
_cell_volume 691.684474
_symmetry_space_group_name_H-M "P -1"
_symmetry_group_IT_number 2
_symmetry_cell_setting 'triclinic'
loop_
_space_group_symop_operation_xyz
x,y,z
-x,-y,-z
loop_
_atom_site_type_symbol
_atom_site_label
_atom_site_fract_x
_atom_site_fract_y
_atom_site_fract_z
Si Si1 0.002977 0.122264 0.006856
Si Si2 0.176871 0.718934 0.334377
Si Si3 0.499835 0.428382 0.864523
Si Si4 0.492529 0.426225 0.478607
Si Si5 0.643263 0.864532 0.901856
Si Si6 0.163497 0.854526 0.963354
Si Si7 0.652491 0.848238 0.463371
Si Si8 0.646083 0.351448 0.777341
O O1 0.195344 0.254716 0.873667
O O2 0.907708 0.116281 0.066557
O O3 0.270668 0.177878 0.264231
O O4 0.698570 0.955155 0.882735
O O5 0.324308 0.741618 0.629916
O O6 0.151048 0.784046 0.197775
O O7 0.484644 0.837447 0.358979
O O8 0.824924 0.552616 0.140343
O O9 0.582997 0.456863 0.720621
O O10 0.383382 0.454254 0.678107
O O11 0.577804 0.396654 0.555788
O O12 0.102454 0.266298 0.272712
O O13 0.591564 0.781370 0.122190
O O14 0.000000 0.000000 0.000000
O O15 0.500000 0.000000 0.000000
O O16 0.379611 0.706572 0.285221
O O17 0.000000 0.000000 0.500000
O O18 0.000000 0.500000 0.000000
#
# Coordination Sequence:
#
# PCOD9044956 Si02
#       8
#     2   2   2   2   2   2   2   2
#     4  12  25  45  74 104 139 193 234 299 360 427
#     4  11  26  45  68 105 142 187 240 293 353 431
#     4  10  25  46  74 101 143 189 241 293 366 426
#     4  10  23  48  70 100 145 190 231 299 358 425
#     4  12  26  45  71 107 147 186 233 301 359 424
#     4  11  26  44  73 102 142 190 240 297 358 426
#     4  12  23  44  69 100 144 186 240 290 356 423
#     4  12  26  42  72 104 140 188 241 290 357 428
#
# _framework density 23.131934999999999
#
# number of rings (size 3 to 8) (size 9 to 14) (size 15 to 20)
#    0.000    0.750    3.750    2.250    5.250    4.000 
#    0.000    0.000    0.000    0.000    0.000    0.000 
#    0.000    0.000    0.000    0.000    0.000    0.000 
#
# Total GULP energy -89352.411382 kJ/mol
# GULP energy per Si atom -5584.525711 kJ/mol
# Density = 2.307929 g / cm^3
# Si number density = 23.131935 Si / 1000 Ang^3
#
#
#
# Elastic Constant Matrix: (Units=GPa)
#
#
# Indices 1 2 3 4 5 6 
#
# 1 80.6985 29.2231 16.8599 -0.7995 0.3796 -21.1890
# 2 29.2231 97.6811 12.5493 -2.4737 4.5596 -9.7931
# 3 16.8599 12.5493 97.5352 8.7164 -8.7908 -11.5328
# 4 -0.7995 -2.4737 8.7164 26.7808 -9.1117 -2.1536
# 5 0.3796 4.5596 -8.7908 -9.1117 33.4626 -0.2444
# 6 -21.1890 -9.7931 -11.5328 -2.1536 -0.2444 30.1460
#
#
#
# Elastic Compliance Matrix: (Units=1/GPa)
#
#
# Indices 1 2 3 4 5 6 
#
# 1 0.016712 -0.003801 -0.001297 0.001549 0.000483 0.010130
# 2 -0.003801 0.011672 -0.000965 0.000807 -0.001575 0.000796
# 3 -0.001297 -0.000965 0.011417 -0.002786 0.002409 0.002964
# 4 0.001549 0.000807 -0.002786 0.042273 0.010676 0.003392
# 5 0.000483 -0.001575 0.002409 0.010676 0.033646 0.001785
# 6 0.010130 0.000796 0.002964 0.003392 0.001785 0.041941
#
#
# Mechanical properties :
#
#
# Convention : Reuss Voigt Hill
#
# Bulk Modulus (GPa) = 36.13107 43.68657 39.90882
# Shear Modulus (GPa) = 27.93097 32.56337 30.24717
#
# Velocity S-wave (km/s) = 3.47863 3.75603 3.61999
# Velocity P-wave (km/s) = 5.63808 6.14306 5.89598
#
# Compressibility (1/GPa) = 0.02767701
#
# Stress axis : x y z
#
# Youngs Moduli (GPa) = 59.83674 85.67367 87.58490
#
# Poissons Ratio (x) = 0.32563 0.11358
# Poissons Ratio (y) = 0.22743 0.08450
# Poissons Ratio (z) = 0.07760 0.08265
#
# Static dielectric constant tensor:
#      x y z
#    x 1.787260 -0.016720 -0.079820 
#    y -0.016720 1.754230 0.390940 
#    z -0.079820 0.390940 0.321820 
# 
# From -- ./inp_files/320690.got.cif
#   From: 2010.05.17/outbox.cif.g08.bks.cpg/sg2_161_cif.got.tgz:320690.got - 2010.06.03 11:33:40.
