data_PCOD9044316
_publ_section_title
;
Structure prediction by ZEFSAII (Michael W. Deem and Ramdas Pophale) SiO2 
 PCOD9044316
Probable space group: P -1
;
_chemical_formula_sum "Si O2"
_cell_formula_units_Z 16
_cell_length_a 15.195509
_cell_length_b 13.681460
_cell_length_c 15.425747
_cell_angle_alpha 38.850017
_cell_angle_beta 141.739846
_cell_angle_gamma 161.181601
_cell_volume 630.346871
_symmetry_space_group_name_H-M "P -1"
_symmetry_group_IT_number 2
_symmetry_cell_setting 'triclinic'
loop_
_space_group_symop_operation_xyz
x,y,z
-x,-y,-z
loop_
_atom_site_type_symbol
_atom_site_label
_atom_site_fract_x
_atom_site_fract_y
_atom_site_fract_z
Si Si1 0.468357 0.346695 0.003806
Si Si2 0.729749 0.810299 0.371555
Si Si3 0.942773 0.227281 0.815396
Si Si4 0.315139 0.186509 0.265086
Si Si5 0.149589 0.225502 0.259225
Si Si6 0.218080 0.651164 0.990967
Si Si7 0.676698 0.308660 0.578688
Si Si8 0.757348 0.110453 0.311169
O O1 0.724711 0.468928 0.128656
O O2 0.189011 0.987097 0.055772
O O3 0.500000 0.500000 0.000000
O O4 0.515679 0.501006 0.851870
O O5 0.436738 0.444295 0.381376
O O6 0.645949 0.880573 0.314851
O O7 0.000000 0.000000 0.500000
O O8 0.875647 0.984214 0.272721
O O9 0.811911 0.274400 0.675234
O O10 0.850248 0.043714 0.784730
O O11 0.116573 0.067552 0.268059
O O12 0.512908 0.244185 0.421474
O O13 0.223413 0.470055 0.117155
O O14 0.165174 0.668383 0.841927
O O15 0.000000 0.500000 0.000000
O O16 0.500000 0.000000 0.000000
O O17 0.945281 0.660705 0.576297
O O18 0.466621 0.079378 0.654887
#
# Coordination Sequence:
#
# PCOD9044316 Si02
#       8
#     2   2   2   2   2   2   2   2
#     4  10  23  46  72  99 135 181 228 285 342 398
#     4  12  24  44  65  95 136 176 221 282 341 409
#     4  11  25  47  72 103 139 184 231 286 340 405
#     4  11  26  47  69 104 142 180 232 285 342 415
#     4  12  25  41  70 100 131 181 225 277 348 404
#     4  12  23  46  68  98 132 180 228 285 343 402
#     4  12  27  44  72 103 138 187 229 282 348 406
#     4  12  25  45  68 100 139 174 232 284 340 415
#
# _framework density 25.382849
#
# number of rings (size 3 to 8) (size 9 to 14) (size 15 to 20)
#    0.000    0.500    2.500    6.000    3.500    6.000 
#    0.000    4.375    0.000    0.000    0.000    0.000 
#    0.000    0.000    0.000    0.000    0.000    0.000 
#
# Total GULP energy -89721.022512 kJ/mol
# GULP energy per Si atom -5607.563907 kJ/mol
# Density = 2.532508 g / cm^3
# Si number density = 25.382849 Si / 1000 Ang^3
#
#
#
# Elastic Constant Matrix: (Units=GPa)
#
#
# Indices 1 2 3 4 5 6 
#
# 1 142.2595 46.9437 46.9968 -3.5078 7.3656 10.2439
# 2 46.9437 134.0750 8.3771 10.8506 -16.1061 21.8226
# 3 46.9968 8.3771 128.0772 5.3874 2.9448 9.8721
# 4 -3.5078 10.8506 5.3874 36.6127 2.7342 0.6215
# 5 7.3656 -16.1061 2.9448 2.7342 39.7659 1.3528
# 6 10.2439 21.8226 9.8721 0.6215 1.3528 43.1377
#
#
#
# Elastic Compliance Matrix: (Units=1/GPa)
#
#
# Indices 1 2 3 4 5 6 
#
# 1 0.009617 -0.003863 -0.003357 0.002799 -0.003307 0.000502
# 2 -0.003863 0.010470 0.001143 -0.003957 0.005305 -0.004750
# 3 -0.003357 0.001143 0.009180 -0.002025 0.000608 -0.001872
# 4 0.002799 -0.003957 -0.002025 0.029328 -0.004039 0.001505
# 5 -0.003307 0.005305 0.000608 -0.004039 0.028239 -0.002865
# 6 0.000502 -0.004750 -0.001872 0.001505 -0.002865 0.025962
#
#
# Mechanical properties :
#
#
# Convention : Reuss Voigt Hill
#
# Bulk Modulus (GPa) = 58.42819 67.67187 63.05003
# Shear Modulus (GPa) = 38.26912 44.04286 41.15599
#
# Velocity S-wave (km/s) = 3.88709 4.17002 4.03104
# Velocity P-wave (km/s) = 6.57379 7.06426 6.82344
#
# Compressibility (1/GPa) = 0.01711503
#
# Stress axis : x y z
#
# Youngs Moduli (GPa) = 103.98159 95.50789 108.93020
#
# Poissons Ratio (x) = 0.36894 0.36564
# Poissons Ratio (y) = 0.40167 -0.12454
# Poissons Ratio (z) = 0.34903 -0.10919
#
# Static dielectric constant tensor:
#      x y z
#    x 1.973770 -0.018750 0.003370 
#    y -0.018750 1.949600 0.005710 
#    z 0.003370 0.005710 2.088440 
# 
# From -- ./inp_files/533697.got.cif
#   From: 2010.05.17/outbox.cif.g08.bks.cpg/sg2_267_cif.got.tgz:533697.got - 2010.06.03 11:33:40.
