data_PCOD9044785
_publ_section_title
;
Structure prediction by ZEFSAII (Michael W. Deem and Ramdas Pophale) SiO2 
 PCOD9044785
Probable space group: P -1
;
_chemical_formula_sum "Si O2"
_cell_formula_units_Z 16
_cell_length_a 13.740318
_cell_length_b 8.861794
_cell_length_c 11.303586
_cell_angle_alpha 91.029487
_cell_angle_beta 32.384409
_cell_angle_gamma 76.891401
_cell_volume 657.526800
_symmetry_space_group_name_H-M "P -1"
_symmetry_group_IT_number 2
_symmetry_cell_setting 'triclinic'
loop_
_space_group_symop_operation_xyz
x,y,z
-x,-y,-z
loop_
_atom_site_type_symbol
_atom_site_label
_atom_site_fract_x
_atom_site_fract_y
_atom_site_fract_z
Si Si1 0.700679 0.723631 0.280455
Si Si2 0.152622 0.303110 0.372762
Si Si3 0.806713 0.162229 0.403425
Si Si4 0.806987 0.984408 0.845561
Si Si5 0.460033 0.006856 0.351304
Si Si6 0.161509 0.658571 0.854334
Si Si7 0.126837 0.706158 0.162409
Si Si8 0.462906 0.388582 0.938976
O O1 0.606223 0.825658 0.259100
O O2 0.703292 0.543185 0.285759
O O3 0.576309 0.847370 0.515906
O O4 0.933231 0.691428 0.054654
O O5 0.124679 0.157937 0.327166
O O6 0.000000 0.500000 0.500000
O O7 0.086499 0.286928 0.573763
O O8 0.369861 0.282976 0.105604
O O9 0.744327 0.010804 0.460004
O O10 0.772179 0.249665 0.312821
O O11 0.661342 0.281151 0.656886
O O12 0.036738 0.101352 0.207450
O O13 0.827336 0.156388 0.811312
O O14 0.579395 0.027042 0.118106
O O15 0.153413 0.723513 0.996438
O O16 0.294049 0.519308 0.025659
O O17 0.500000 0.500000 0.000000
#
# Coordination Sequence:
#
# PCOD9044785 Si02
#       8
#     2   2   2   2   2   2   2   2
#     4  10  24  42  65 100 146 192 229 286 346 423
#     4  10  23  47  73  96 137 185 236 292 348 415
#     4  12  25  44  71 104 145 187 233 290 356 417
#     4  12  25  47  72 106 143 188 234 299 350 419
#     4  11  24  43  67 102 145 186 236 285 354 411
#     4  11  25  43  71 106 145 186 238 286 352 428
#     4  11  26  45  72 104 141 188 238 291 357 420
#     4  11  25  47  73 105 137 186 238 296 355 421
#
# _framework density 24.33361
#
# number of rings (size 3 to 8) (size 9 to 14) (size 15 to 20)
#    0.000    1.000    2.500    3.375    7.000    4.000 
#    2.250    1.250    0.000    0.000    0.000    0.000 
#    0.000    0.000    0.000    0.000    0.000    0.000 
#
# Total GULP energy -89588.548440 kJ/mol
# GULP energy per Si atom -5599.284278 kJ/mol
# Density = 2.427823 g / cm^3
# Si number density = 24.333610 Si / 1000 Ang^3
#
#
#
# Elastic Constant Matrix: (Units=GPa)
#
#
# Indices 1 2 3 4 5 6 
#
# 1 57.9098 18.0583 21.3709 -5.9508 12.4456 7.3066
# 2 18.0583 129.7043 60.1417 -0.6390 19.0094 7.2712
# 3 21.3709 60.1417 119.6879 -25.7423 19.5307 -0.8859
# 4 -5.9508 -0.6390 -25.7423 45.7832 -1.6645 -0.5204
# 5 12.4456 19.0094 19.5307 -1.6645 38.6528 1.9561
# 6 7.3066 7.2712 -0.8859 -0.5204 1.9561 43.2959
#
#
#
# Elastic Compliance Matrix: (Units=1/GPa)
#
#
# Indices 1 2 3 4 5 6 
#
# 1 0.019832 -0.000942 -0.002070 0.001197 -0.004673 -0.003006
# 2 -0.000942 0.010862 -0.005633 -0.003239 -0.002245 -0.001718
# 3 -0.002070 -0.005633 0.013653 0.007232 -0.003242 0.001808
# 4 0.001197 -0.003239 0.007232 0.025978 -0.001371 0.000864
# 5 -0.004673 -0.002245 -0.003242 -0.001371 0.030073 -0.000276
# 6 -0.003006 -0.001718 0.001808 0.000864 -0.000276 0.023952
#
#
# Mechanical properties :
#
#
# Convention : Reuss Voigt Hill
#
# Bulk Modulus (GPa) = 36.95885 56.27154 46.61519
# Shear Modulus (GPa) = 33.18702 39.39510 36.29106
#
# Velocity S-wave (km/s) = 3.69702 4.02799 3.86605
# Velocity P-wave (km/s) = 5.78319 6.69389 6.25514
#
# Compressibility (1/GPa) = 0.02705712
#
# Stress axis : x y z
#
# Youngs Moduli (GPa) = 50.42251 92.06126 73.24395
#
# Poissons Ratio (x) = 0.08673 0.15163
# Poissons Ratio (y) = 0.04750 0.41259
# Poissons Ratio (z) = 0.10438 0.51859
#
# Static dielectric constant tensor:
#      x y z
#    x 1.925260 -0.025950 -0.040630 
#    y -0.025950 1.916820 0.013510 
#    z -0.040630 0.013510 1.922830 
# 
# From -- ./inp_files/447442.got.cif
#   From: 2010.05.17/outbox.cif.g08.bks.cpg/sg2_224_cif.got.tgz:447442.got - 2010.06.03 11:33:40.
