data_PCOD9044637
_publ_section_title
;
Structure prediction by ZEFSAII (Michael W. Deem and Ramdas Pophale) SiO2 
 PCOD9044637
Probable space group: P -1
;
_chemical_formula_sum "Si O2"
_cell_formula_units_Z 15
_cell_length_a 9.462393
_cell_length_b 16.849577
_cell_length_c 5.644380
_cell_angle_alpha 61.210945
_cell_angle_beta 109.770955
_cell_angle_gamma 70.126339
_cell_volume 588.287970
_symmetry_space_group_name_H-M "P -1"
_symmetry_group_IT_number 2
_symmetry_cell_setting 'triclinic'
loop_
_space_group_symop_operation_xyz
x,y,z
-x,-y,-z
loop_
_atom_site_type_symbol
_atom_site_label
_atom_site_fract_x
_atom_site_fract_y
_atom_site_fract_z
Si Si1 0.739758 0.367269 0.363613
Si Si2 0.720648 0.531861 0.780550
Si Si3 0.901975 0.600277 0.102481
Si Si4 0.500000 0.500000 0.500000
Si Si5 0.867553 0.970607 0.691268
Si Si6 0.179845 0.209313 0.896212
Si Si7 0.733335 0.166226 0.689697
Si Si8 0.461026 0.910920 0.034088
O O1 0.659227 0.455643 0.966887
O O2 0.685056 0.418879 0.522886
O O3 0.676661 0.287770 0.413727
O O4 0.965026 0.295346 0.557214
O O5 0.741606 0.598961 0.891887
O O6 0.553202 0.592292 0.412220
O O7 0.928549 0.446767 0.916834
O O8 0.000000 0.500000 0.500000
O O9 0.827349 0.722728 0.978728
O O10 0.795571 0.906490 0.878257
O O11 0.824018 0.079549 0.645116
O O12 0.739836 0.013886 0.325108
O O13 0.095377 0.880450 0.954313
O O14 0.352346 0.181911 0.877411
O O15 0.576911 0.153471 0.706874
O O16 0.500000 0.000000 0.000000
#
# Coordination Sequence:
#
# PCOD9044637 Si02
#       8
#     2   2   2   1   2   2   2   2
#     4  11  25  46  71 104 143 195 232 298 358 432
#     4  11  24  44  74  97 144 185 235 300 349 427
#     4  11  23  46  70 106 138 184 240 293 361 415
#     4  12  24  46  68 104 146 182 248 286 360 422
#     4  10  23  47  69  99 145 184 235 295 347 435
#     4  11  23  45  73 101 145 183 241 292 366 423
#     4  10  24  46  70 103 139 187 238 285 360 425
#     4  12  25  43  72 107 142 184 235 299 358 422
#
# _framework density 25.497714999999999
#
# number of rings (size 3 to 8) (size 9 to 14) (size 15 to 20)
#    0.000    1.067    4.000    1.200    0.000    5.333 
#    0.000    0.000    0.000    0.000    0.000    0.000 
#    0.000    0.000    0.000    0.000    0.000    0.000 
#
# Total GULP energy -83661.071410 kJ/mol
# GULP energy per Si atom -5577.404761 kJ/mol
# Density = 2.543968 g / cm^3
# Si number density = 25.497715 Si / 1000 Ang^3
#
#
#
# Elastic Constant Matrix: (Units=GPa)
#
#
# Indices 1 2 3 4 5 6 
#
# 1 162.9090 34.7158 31.8709 0.6039 -2.3730 21.3794
# 2 34.7158 104.9775 20.8617 3.6567 -2.6702 24.2768
# 3 31.8709 20.8617 77.2199 -5.5400 10.9636 15.2187
# 4 0.6039 3.6567 -5.5400 24.0808 11.8351 12.0305
# 5 -2.3730 -2.6702 10.9636 11.8351 45.2803 17.7017
# 6 21.3794 24.2768 15.2187 12.0305 17.7017 52.2912
#
#
#
# Elastic Compliance Matrix: (Units=1/GPa)
#
#
# Indices 1 2 3 4 5 6 
#
# 1 0.007219 -0.001338 -0.002484 -0.000383 0.001838 -0.002141
# 2 -0.001338 0.011733 -0.002213 -0.001436 0.003535 -0.005122
# 3 -0.002484 -0.002213 0.016474 0.008208 -0.005280 -0.002853
# 4 -0.000383 -0.001436 0.008208 0.054756 -0.012525 -0.009924
# 5 0.001838 0.003535 -0.005280 -0.012525 0.030138 -0.008177
# 6 -0.002141 -0.005122 -0.002853 -0.009924 -0.008177 0.028259
#
#
# Mechanical properties :
#
#
# Convention : Reuss Voigt Hill
#
# Bulk Modulus (GPa) = 42.81799 57.77813 50.29806
# Shear Modulus (GPa) = 29.68524 41.50766 35.59645
#
# Velocity S-wave (km/s) = 3.41579 4.03910 3.74045
# Velocity P-wave (km/s) = 5.69088 6.66796 6.19870
#
# Compressibility (1/GPa) = 0.02335467
#
# Stress axis : x y z
#
# Youngs Moduli (GPa) = 138.52712 85.23225 60.70209
#
# Poissons Ratio (x) = 0.11406 0.15080
# Poissons Ratio (y) = 0.18539 0.13432
# Poissons Ratio (z) = 0.34415 0.18860
#
# Static dielectric constant tensor:
#      x y z
#    x 2.003360 -0.076770 -0.081480 
#    y -0.076770 1.817350 -0.271920 
#    z -0.081480 -0.271920 1.717770 
# 
# From -- ./inp_files/43841.got.cif
#   From: 2010.05.17/outbox.cif.g08.bks.cpg/sg2_22_cif.got.tgz:43841.got - 2010.06.03 11:33:40.
