data_PCOD9044012
_publ_section_title
;
Structure prediction by ZEFSAII (Michael W. Deem and Ramdas Pophale) SiO2 
 PCOD9044012
Probable space group: P -1
;
_chemical_formula_sum "Si O2"
_cell_formula_units_Z 16
_cell_length_a 24.521991
_cell_length_b 6.662258
_cell_length_c 11.359657
_cell_angle_alpha 44.572785
_cell_angle_beta 146.069710
_cell_angle_gamma 119.925153
_cell_volume 706.595093
_symmetry_space_group_name_H-M "P -1"
_symmetry_group_IT_number 2
_symmetry_cell_setting 'triclinic'
loop_
_space_group_symop_operation_xyz
x,y,z
-x,-y,-z
loop_
_atom_site_type_symbol
_atom_site_label
_atom_site_fract_x
_atom_site_fract_y
_atom_site_fract_z
Si Si1 0.109176 0.320827 0.733798
Si Si2 0.433300 0.513388 0.757419
Si Si3 0.079209 0.705366 0.929275
Si Si4 0.946512 0.293281 0.848473
Si Si5 0.286136 0.211758 0.508410
Si Si6 0.689399 0.820703 0.706933
Si Si7 0.234692 0.589181 0.665572
Si Si8 0.425329 0.317118 0.229669
O O1 0.156099 0.515316 0.647432
O O2 0.000000 0.500000 0.500000
O O3 0.100465 0.007610 0.795406
O O4 0.192613 0.252396 0.016528
O O5 0.365249 0.283319 0.712648
O O6 0.507284 0.481345 0.790264
O O7 0.358813 0.838426 0.490079
O O8 0.500000 0.500000 0.000000
O O9 0.997581 0.552737 0.788920
O O10 0.036396 0.771124 0.956845
O O11 0.182139 0.457419 0.224640
O O12 0.827089 0.375053 0.579893
O O13 0.000000 0.000000 0.000000
O O14 0.324045 0.222619 0.437016
O O15 0.263845 0.893429 0.619063
O O16 0.631296 0.635834 0.765682
O O17 0.335234 0.337056 0.965888
O O18 0.500000 0.000000 0.500000
#
# Coordination Sequence:
#
# PCOD9044012 Si02
#       8
#     2   2   2   2   2   2   2   2
#     4  11  24  44  67 100 145 189 233 287 344 420
#     4  11  24  44  75 103 136 180 237 297 357 419
#     4  11  25  42  70 102 138 190 236 278 365 424
#     4  11  23  43  71 101 141 184 234 296 347 420
#     4  12  25  43  74 105 136 184 238 290 362 424
#     4  10  23  46  68  97 144 182 230 292 349 420
#     4  11  24  42  69 103 141 181 234 294 347 412
#     4   9  22  45  68  97 136 187 229 285 356 407
#
# _framework density 22.643802000000001
#
# number of rings (size 3 to 8) (size 9 to 14) (size 15 to 20)
#    0.000    1.250    2.500    2.250    5.250    3.000 
#    0.000    6.250    0.000    0.000    0.000    0.000 
#    0.000    0.000    0.000    0.000    0.000    0.000 
#
# Total GULP energy -89444.930899 kJ/mol
# GULP energy per Si atom -5590.308181 kJ/mol
# Density = 2.259226 g / cm^3
# Si number density = 22.643802 Si / 1000 Ang^3
#
#
#
# Elastic Constant Matrix: (Units=GPa)
#
#
# Indices 1 2 3 4 5 6 
#
# 1 109.3411 50.0167 24.2988 0.8281 6.8751 13.5301
# 2 50.0167 128.4887 55.1058 22.9907 -4.6956 18.3848
# 3 24.2988 55.1058 145.2911 8.2570 17.8960 8.0675
# 4 0.8281 22.9907 8.2570 35.4521 0.4355 5.2486
# 5 6.8751 -4.6956 17.8960 0.4355 39.8417 -1.3969
# 6 13.5301 18.3848 8.0675 5.2486 -1.3969 36.5747
#
#
#
# Elastic Compliance Matrix: (Units=1/GPa)
#
#
# Indices 1 2 3 4 5 6 
#
# 1 0.011879 -0.005079 0.000241 0.003364 -0.002881 -0.002487
# 2 -0.005079 0.013409 -0.004206 -0.007247 0.004330 -0.002728
# 3 0.000241 -0.004206 0.008974 0.000723 -0.004585 -0.000233
# 4 0.003364 -0.007247 0.000723 0.033070 -0.002212 -0.002591
# 5 -0.002881 0.004330 -0.004585 -0.002212 0.028236 0.001296
# 6 -0.002487 -0.002728 -0.000233 -0.002591 0.001296 0.030106
#
#
# Mechanical properties :
#
#
# Convention : Reuss Voigt Hill
#
# Bulk Modulus (GPa) = 61.82493 71.32929 66.57711
# Shear Modulus (GPa) = 33.52263 39.28699 36.40481
#
# Velocity S-wave (km/s) = 3.85181 4.16985 4.01398
# Velocity P-wave (km/s) = 6.86618 7.39949 7.13782
#
# Compressibility (1/GPa) = 0.01617471
#
# Stress axis : x y z
#
# Youngs Moduli (GPa) = 84.18416 74.57623 111.42927
#
# Poissons Ratio (x) = 0.37876 -0.02690
# Poissons Ratio (y) = 0.42755 0.46871
# Poissons Ratio (z) = -0.02033 0.31369
#
# Static dielectric constant tensor:
#      x y z
#    x 1.884790 0.018870 -0.028060 
#    y 0.018870 1.838020 0.025230 
#    z -0.028060 0.025230 1.871000 
# 
# From -- ./inp_files/475974.got.cif
#   From: 2010.05.17/outbox.cif.g08.bks.cpg/sg2_238_cif.got.tgz:475974.got - 2010.06.03 11:33:40.
