data_PCOD9044756
_publ_section_title
;
Structure prediction by ZEFSAII (Michael W. Deem and Ramdas Pophale) SiO2 
 PCOD9044756
Probable space group: P -1
;
_chemical_formula_sum "Si O2"
_cell_formula_units_Z 14
_cell_length_a 5.110206
_cell_length_b 9.204819
_cell_length_c 16.098380
_cell_angle_alpha 72.995121
_cell_angle_beta 89.601697
_cell_angle_gamma 124.779650
_cell_volume 580.032262
_symmetry_space_group_name_H-M "P -1"
_symmetry_group_IT_number 2
_symmetry_cell_setting 'triclinic'
loop_
_space_group_symop_operation_xyz
x,y,z
-x,-y,-z
loop_
_atom_site_type_symbol
_atom_site_label
_atom_site_fract_x
_atom_site_fract_y
_atom_site_fract_z
Si Si1 0.415387 0.620823 0.074606
Si Si2 0.570604 0.330453 0.462459
Si Si3 0.092019 0.053000 0.280376
Si Si4 0.938749 0.694264 0.641406
Si Si5 0.653266 0.364344 0.112429
Si Si6 0.851116 0.242352 0.618521
Si Si7 0.525825 0.263228 0.766856
O O1 0.619521 0.535551 0.094528
O O2 0.475553 0.747421 0.132422
O O3 0.028607 0.446476 0.106231
O O4 0.467921 0.709876 0.968706
O O5 0.231214 0.264731 0.436670
O O6 0.593391 0.243568 0.561863
O O7 0.765753 0.296960 0.399855
O O8 0.803327 0.558792 0.435190
O O9 0.975087 0.163420 0.308581
O O10 0.424045 0.207800 0.206266
O O11 0.149674 0.935978 0.363500
O O12 0.822542 0.899806 0.242412
O O13 0.661879 0.479217 0.709158
O O14 0.769383 0.244330 0.715060
#
# Coordination Sequence:
#
# PCOD9044756 Si02
#       7
#     2   2   2   2   2   2   2
#     4  10  23  47  72  98 138 183 218 273 347 407
#     4  10  24  47  65  94 136 192 218 287 335 403
#     4  12  26  41  70 109 132 178 234 287 327 418
#     4  11  25  43  70  92 140 181 231 274 349 386
#     4  10  24  44  73 102 134 178 228 273 335 417
#     4  10  25  41  69  96 140 173 241 272 343 396
#     4  11  25  43  69 103 138 181 221 290 339 409
#
# _framework density 24.136586999999999
#
# number of rings (size 3 to 8) (size 9 to 14) (size 15 to 20)
#    0.000    1.429    2.857    0.000   12.000    3.429 
#    0.000    0.714    0.000    0.000    0.000    0.000 
#    0.000    0.000    0.000    0.000    0.000    0.000 
#
# Total GULP energy -78468.738949 kJ/mol
# GULP energy per Si atom -5604.909925 kJ/mol
# Density = 2.408165 g / cm^3
# Si number density = 24.136587 Si / 1000 Ang^3
#
#
#
# Elastic Constant Matrix: (Units=GPa)
#
#
# Indices 1 2 3 4 5 6 
#
# 1 69.9678 13.4978 16.9904 -2.6283 -2.3788 -9.3519
# 2 13.4978 97.0821 28.6298 9.0053 3.8790 -13.7473
# 3 16.9904 28.6298 87.7635 15.1256 -11.2206 -11.4276
# 4 -2.6283 9.0053 15.1256 37.7393 -0.5134 0.0202
# 5 -2.3788 3.8790 -11.2206 -0.5134 34.9677 5.7562
# 6 -9.3519 -13.7473 -11.4276 0.0202 5.7562 29.4296
#
#
#
# Elastic Compliance Matrix: (Units=1/GPa)
#
#
# Indices 1 2 3 4 5 6 
#
# 1 0.015704 -0.001123 -0.002666 0.002426 -0.000198 0.003468
# 2 -0.001123 0.012416 -0.003332 -0.001753 -0.003339 0.004803
# 3 -0.002666 -0.003332 0.014795 -0.005261 0.004451 0.002475
# 4 0.002426 -0.001753 -0.005261 0.029187 -0.000571 -0.002000
# 5 -0.000198 -0.003339 0.004451 -0.000571 0.031367 -0.006029
# 6 0.003468 0.004803 0.002475 -0.002000 -0.006029 0.039466
#
#
# Mechanical properties :
#
#
# Convention : Reuss Voigt Hill
#
# Bulk Modulus (GPa) = 34.87589 41.44993 38.16291
# Shear Modulus (GPa) = 29.98770 33.47368 31.73069
#
# Velocity S-wave (km/s) = 3.52862 3.72808 3.62972
# Velocity P-wave (km/s) = 5.57515 5.97844 5.78031
#
# Compressibility (1/GPa) = 0.02867311
#
# Stress axis : x y z
#
# Youngs Moduli (GPa) = 63.67736 80.54395 67.58928
#
# Poissons Ratio (x) = 0.09049 0.18016
# Poissons Ratio (y) = 0.07154 0.22521
# Poissons Ratio (z) = 0.16973 0.26837
#
# Static dielectric constant tensor:
#      x y z
#    x 1.920600 0.002450 0.001820 
#    y 0.002450 1.897580 0.020880 
#    z 0.001820 0.020880 1.928260 
# 
# From -- ./inp_files/112357.got.cif
#   From: 2010.05.17/outbox.cif.g08.bks.cpg/sg2_57_cif.got.tgz:112357.got - 2010.06.03 11:33:40.
