data_PCOD9044301
_publ_section_title
;
Structure prediction by ZEFSAII (Michael W. Deem and Ramdas Pophale) SiO2 
 PCOD9044301
Probable space group: P -1
;
_chemical_formula_sum "Si O2"
_cell_formula_units_Z 13
_cell_length_a 6.134413
_cell_length_b 9.352767
_cell_length_c 14.511682
_cell_angle_alpha 133.879331
_cell_angle_beta 121.869028
_cell_angle_gamma 59.336664
_cell_volume 495.357949
_symmetry_space_group_name_H-M "P -1"
_symmetry_group_IT_number 2
_symmetry_cell_setting 'triclinic'
loop_
_space_group_symop_operation_xyz
x,y,z
-x,-y,-z
loop_
_atom_site_type_symbol
_atom_site_label
_atom_site_fract_x
_atom_site_fract_y
_atom_site_fract_z
Si Si1 0.000000 0.500000 0.500000
Si Si2 0.250785 0.029046 0.128597
Si Si3 0.389987 0.309907 0.056708
Si Si4 0.990548 0.206517 0.680829
Si Si5 0.458680 0.414963 0.316948
Si Si6 0.159737 0.718215 0.108949
Si Si7 0.761093 0.838607 0.454976
O O1 0.723747 0.425516 0.433126
O O2 0.828674 0.649628 0.452105
O O3 0.299485 0.254303 0.252015
O O4 0.234688 0.914377 0.170216
O O5 0.490444 0.893566 0.062936
O O6 0.000000 0.000000 0.000000
O O7 0.541317 0.326200 0.192092
O O8 0.373920 0.505486 0.074793
O O9 0.088465 0.316004 0.021059
O O10 0.745561 0.368875 0.651936
O O11 0.963282 0.248570 0.801453
O O12 0.234838 0.224973 0.679568
O O13 0.977501 0.971660 0.570142
O O14 0.500000 0.000000 0.500000
#
# Coordination Sequence:
#
# PCOD9044301 Si02
#       7
#     1   2   2   2   2   2   2
#     4  12  28  50  82 112 152 216 260 328 392 452
#     4  12  25  43  76 114 155 202 254 320 384 464
#     4  10  23  46  72 111 155 200 256 315 381 468
#     4  10  25  49  75 108 159 202 257 330 388 475
#     4  11  25  49  74 113 161 199 268 321 389 465
#     4  10  23  46  74 111 152 206 250 313 405 449
#     4  11  25  52  78 111 153 205 269 322 388 466
#
# _framework density 26.243651
#
# number of rings (size 3 to 8) (size 9 to 14) (size 15 to 20)
#    0.000    1.231    3.077    0.923    2.154    4.308 
#    2.769    0.000    0.000    0.000    0.000    0.000 
#    0.000    0.000    0.000    0.000    0.000    0.000 
#
# Total GULP energy -72512.814436 kJ/mol
# GULP energy per Si atom -5577.908803 kJ/mol
# Density = 2.618392 g / cm^3
# Si number density = 26.243651 Si / 1000 Ang^3
#
#
#
# Elastic Constant Matrix: (Units=GPa)
#
#
# Indices 1 2 3 4 5 6 
#
# 1 84.2097 71.0152 23.4969 -2.0631 5.0657 18.6192
# 2 71.0152 173.1798 41.1147 4.7821 15.8494 36.4905
# 3 23.4969 41.1147 72.7091 10.8374 14.5415 2.0953
# 4 -2.0631 4.7821 10.8374 36.8403 3.6015 15.0082
# 5 5.0657 15.8494 14.5415 3.6015 60.7239 1.3151
# 6 18.6192 36.4905 2.0953 15.0082 1.3151 50.6777
#
#
#
# Elastic Compliance Matrix: (Units=1/GPa)
#
#
# Indices 1 2 3 4 5 6 
#
# 1 0.019079 -0.006537 -0.003129 0.004165 0.000691 -0.003424
# 2 -0.006537 0.010573 -0.003703 0.001735 -0.001311 -0.005538
# 3 -0.003129 -0.003703 0.018312 -0.006912 -0.002860 0.005180
# 4 0.004165 0.001735 -0.006912 0.034436 -0.000913 -0.012668
# 5 0.000691 -0.001311 -0.002860 -0.000913 0.017478 0.000625
# 6 -0.003424 -0.005538 0.005180 -0.012668 0.000625 0.028500
#
#
# Mechanical properties :
#
#
# Convention : Reuss Voigt Hill
#
# Bulk Modulus (GPa) = 47.11599 66.81693 56.96646
# Shear Modulus (GPa) = 30.82780 42.61316 36.72048
#
# Velocity S-wave (km/s) = 3.43107 4.03395 3.74466
# Velocity P-wave (km/s) = 5.80419 6.87114 6.36008
#
# Compressibility (1/GPa) = 0.02122422
#
# Stress axis : x y z
#
# Youngs Moduli (GPa) = 52.41358 94.57842 54.61023
#
# Poissons Ratio (x) = 0.61830 0.17089
# Poissons Ratio (y) = 0.34265 0.20223
# Poissons Ratio (z) = 0.16402 0.35023
#
# Static dielectric constant tensor:
#      x y z
#    x 2.086250 -0.005890 -0.123000 
#    y -0.005890 2.032660 -0.018600 
#    z -0.123000 -0.018600 2.153560 
# 
# From -- ./inp_files/480898.got.cif
#   From: 2010.05.17/outbox.cif.g08.bks.cpg/sg2_241_cif.got.tgz:480898.got - 2010.06.03 11:33:40.
