data_PCOD9044023
_publ_section_title
;
Structure prediction by ZEFSAII (Michael W. Deem and Ramdas Pophale) SiO2 
 PCOD9044023
Probable space group: P -1
;
_chemical_formula_sum "Si O2"
_cell_formula_units_Z 14
_cell_length_a 14.572249
_cell_length_b 8.096029
_cell_length_c 14.759736
_cell_angle_alpha 109.697322
_cell_angle_beta 28.254571
_cell_angle_gamma 128.060265
_cell_volume 540.921975
_symmetry_space_group_name_H-M "P -1"
_symmetry_group_IT_number 2
_symmetry_cell_setting 'triclinic'
loop_
_space_group_symop_operation_xyz
x,y,z
-x,-y,-z
loop_
_atom_site_type_symbol
_atom_site_label
_atom_site_fract_x
_atom_site_fract_y
_atom_site_fract_z
Si Si1 0.773779 0.009054 0.687677
Si Si2 0.226888 0.002696 0.514430
Si Si3 0.699614 0.429484 0.320266
Si Si4 0.197682 0.582718 0.447089
Si Si5 0.552664 0.659562 0.304336
Si Si6 0.366523 0.222319 0.045687
Si Si7 0.955445 0.243261 0.087777
O O1 0.639899 0.893971 0.683695
O O2 0.939163 0.299320 0.586983
O O3 0.617895 0.883373 0.895420
O O4 0.000000 0.000000 0.500000
O O5 0.133060 0.739386 0.558814
O O6 0.950763 0.944228 0.740614
O O7 0.455998 0.187666 0.425692
O O8 0.580980 0.479012 0.509439
O O9 0.847434 0.362347 0.231067
O O10 0.929569 0.659417 0.096728
O O11 0.313486 0.543972 0.421971
O O12 0.453640 0.745267 0.184242
O O13 0.786189 0.676520 0.070350
O O14 0.715464 0.944372 0.237877
O O15 0.500000 0.500000 0.000000
#
# Coordination Sequence:
#
# PCOD9044023 Si02
#       7
#     2   2   2   2   2   2   2
#     4  10  23  46  68  99 130 174 225 277 336 396
#     4  11  25  44  70 100 138 174 224 280 326 403
#     4  11  24  45  66 100 140 174 221 274 331 391
#     4  12  25  45  69 102 135 174 229 274 332 404
#     4  11  25  42  69  99 136 177 220 275 330 392
#     4  11  25  45  69  94 134 177 221 275 339 390
#     4  10  24  43  65  95 135 180 225 265 325 399
#
# _framework density 25.881734999999999
#
# number of rings (size 3 to 8) (size 9 to 14) (size 15 to 20)
#    0.000    1.143    4.286    1.286    8.000    1.714 
#    0.000    0.000    0.000    0.000    0.000    0.000 
#    0.000    0.000    0.000    0.000    0.000    0.000 
#
# Total GULP energy -78467.291030 kJ/mol
# GULP energy per Si atom -5604.806502 kJ/mol
# Density = 2.582283 g / cm^3
# Si number density = 25.881735 Si / 1000 Ang^3
#
#
#
# Elastic Constant Matrix: (Units=GPa)
#
#
# Indices 1 2 3 4 5 6 
#
# 1 129.2118 4.0376 29.2839 7.3230 -5.8545 11.9323
# 2 4.0376 72.1119 19.7054 -4.7876 -2.3523 -24.3523
# 3 29.2839 19.7054 113.6289 5.8797 12.5693 3.5972
# 4 7.3230 -4.7876 5.8797 36.5153 -11.9419 -1.7086
# 5 -5.8545 -2.3523 12.5693 -11.9419 40.0569 3.8643
# 6 11.9323 -24.3523 3.5972 -1.7086 3.8643 47.4931
#
#
#
# Elastic Compliance Matrix: (Units=1/GPa)
#
#
# Indices 1 2 3 4 5 6 
#
# 1 0.008633 -0.000773 -0.002161 -0.001002 0.001845 -0.002588
# 2 -0.000773 0.018761 -0.003897 0.004564 0.002601 0.010062
# 3 -0.002161 -0.003897 0.010805 -0.003474 -0.004777 -0.002010
# 4 -0.001002 0.004564 -0.003474 0.032342 0.010549 0.003160
# 5 0.001845 0.002601 -0.004777 0.010549 0.030111 -0.000838
# 6 -0.002588 0.010062 -0.002010 0.003160 -0.000838 0.027199
#
#
# Mechanical properties :
#
#
# Convention : Reuss Voigt Hill
#
# Bulk Modulus (GPa) = 40.75460 46.77848 43.76654
# Shear Modulus (GPa) = 33.40185 42.27477 37.83831
#
# Velocity S-wave (km/s) = 3.59633 4.04590 3.82772
# Velocity P-wave (km/s) = 5.74678 6.31972 6.04005
#
# Compressibility (1/GPa) = 0.02453711
#
# Stress axis : x y z
#
# Youngs Moduli (GPa) = 115.84097 53.30147 92.54940
#
# Poissons Ratio (x) = 0.04121 0.20000
# Poissons Ratio (y) = 0.08955 0.36064
# Poissons Ratio (z) = 0.25033 0.20770
#
# Static dielectric constant tensor:
#      x y z
#    x 2.093850 -0.043250 0.012950 
#    y -0.043250 1.974280 0.038170 
#    z 0.012950 0.038170 2.033980 
# 
# From -- ./inp_files/504897.got.cif
#   From: 2010.05.17/outbox.cif.g08.bks.cpg/sg2_253_cif.got.tgz:504897.got - 2010.06.03 11:33:40.
