data_PCOD9044415
_publ_section_title
;
Structure prediction by ZEFSAII (Michael W. Deem and Ramdas Pophale) SiO2 
 PCOD9044415
Probable space group: P -1
;
_chemical_formula_sum "Si O2"
_cell_formula_units_Z 16
_cell_length_a 19.259357
_cell_length_b 7.927202
_cell_length_c 5.075903
_cell_angle_alpha 88.741841
_cell_angle_beta 123.594944
_cell_angle_gamma 102.248365
_cell_volume 626.468583
_symmetry_space_group_name_H-M "P -1"
_symmetry_group_IT_number 2
_symmetry_cell_setting 'triclinic'
loop_
_space_group_symop_operation_xyz
x,y,z
-x,-y,-z
loop_
_atom_site_type_symbol
_atom_site_label
_atom_site_fract_x
_atom_site_fract_y
_atom_site_fract_z
Si Si1 0.158115 0.408530 0.021552
Si Si2 0.564001 0.374103 0.618457
Si Si3 0.010528 0.802645 0.041587
Si Si4 0.232438 0.136232 0.928987
Si Si5 0.318966 0.592686 0.642801
Si Si6 0.117261 0.765640 0.772921
Si Si7 0.402406 0.097743 0.445633
Si Si8 0.320211 0.955116 0.778928
O O1 0.240435 0.446477 0.382579
O O2 0.151383 0.591895 0.876450
O O3 0.924547 0.676527 0.976888
O O4 0.174694 0.270142 0.846413
O O5 0.500000 0.500000 0.500000
O O6 0.636951 0.432234 0.989898
O O7 0.495915 0.195057 0.553838
O O8 0.671903 0.794825 0.750024
O O9 0.040821 0.751130 0.823783
O O10 0.081800 0.786566 0.407473
O O11 0.000000 0.000000 0.000000
O O12 0.392766 0.627192 0.574149
O O13 0.185421 0.949396 0.963506
O O14 0.282831 0.764302 0.603028
O O15 0.255097 0.077449 0.686916
O O16 0.394745 0.040846 0.731497
O O17 0.360502 0.947792 0.153622
#
# Coordination Sequence:
#
# PCOD9044415 Si02
#       8
#     2   2   2   2   2   2   2   2
#     4  12  28  53  84 119 161 212 267 329 408 475
#     4  12  27  49  70 113 159 201 270 328 389 465
#     4  12  28  55  82 120 159 210 260 332 404 474
#     4  10  26  49  79 113 160 207 268 315 403 465
#     4  12  28  47  80 111 153 211 262 327 393 470
#     4  12  28  52  81 119 163 204 267 331 394 485
#     4  10  23  46  74 106 151 207 250 328 380 457
#     4  10  24  46  72 111 147 201 265 315 390 459
#
# _framework density 25.539985999999999
#
# number of rings (size 3 to 8) (size 9 to 14) (size 15 to 20)
#    0.750    0.000    1.250    4.500    5.250    5.000 
#    4.500    0.000    0.000    0.000    0.000    0.000 
#    0.000    0.000    0.000    0.000    0.000    0.000 
#
# Total GULP energy -89647.008115 kJ/mol
# GULP energy per Si atom -5602.938007 kJ/mol
# Density = 2.548186 g / cm^3
# Si number density = 25.539986 Si / 1000 Ang^3
#
#
#
# Elastic Constant Matrix: (Units=GPa)
#
#
# Indices 1 2 3 4 5 6 
#
# 1 132.4602 58.2304 21.7573 11.1914 -10.5337 -6.6322
# 2 58.2304 147.2658 26.2895 3.7864 0.5655 -25.9729
# 3 21.7573 26.2895 68.2783 -7.3105 -8.8706 -12.1910
# 4 11.1914 3.7864 -7.3105 32.0512 3.3103 -0.6939
# 5 -10.5337 0.5655 -8.8706 3.3103 48.9498 9.2054
# 6 -6.6322 -25.9729 -12.1910 -0.6939 9.2054 47.0360
#
#
#
# Elastic Compliance Matrix: (Units=1/GPa)
#
#
# Indices 1 2 3 4 5 6 
#
# 1 0.009992 -0.003792 -0.002136 -0.003814 0.002396 -0.001764
# 2 -0.003792 0.009443 -0.001871 0.000103 -0.002139 0.004615
# 3 -0.002136 -0.001871 0.017309 0.004787 0.001837 0.002863
# 4 -0.003814 0.000103 0.004787 0.033916 -0.002580 0.001765
# 5 0.002396 -0.002139 0.001837 -0.002580 0.022377 -0.004785
# 6 -0.001764 0.004615 0.002863 0.001765 -0.004785 0.025265
#
#
# Mechanical properties :
#
#
# Convention : Reuss Voigt Hill
#
# Bulk Modulus (GPa) = 47.28648 62.28429 54.78539
# Shear Modulus (GPa) = 35.47440 41.72257 38.59848
#
# Velocity S-wave (km/s) = 3.73094 4.04619 3.89176
# Velocity P-wave (km/s) = 6.09219 6.80211 6.45692
#
# Compressibility (1/GPa) = 0.02114769
#
# Stress axis : x y z
#
# Youngs Moduli (GPa) = 100.08401 105.89639 57.77281
#
# Poissons Ratio (x) = 0.40153 0.12339
# Poissons Ratio (y) = 0.37949 0.10807
# Poissons Ratio (z) = 0.21376 0.19809
#
# Static dielectric constant tensor:
#      x y z
#    x 1.988820 -0.052190 0.011630 
#    y -0.052190 2.073430 -0.008230 
#    z 0.011630 -0.008230 1.966510 
# 
# From -- ./inp_files/107231.got.cif
#   From: 2010.05.17/outbox.cif.g08.bks.cpg/sg2_54_cif.got.tgz:107231.got - 2010.06.03 11:33:40.
