data_PCOD9044345
_publ_section_title
;
Structure prediction by ZEFSAII (Michael W. Deem and Ramdas Pophale) SiO2 
 PCOD9044345
Probable space group: P -1
;
_chemical_formula_sum "Si O2"
_cell_formula_units_Z 16
_cell_length_a 24.092273
_cell_length_b 14.527186
_cell_length_c 8.876136
_cell_angle_alpha 144.125375
_cell_angle_beta 144.541215
_cell_angle_gamma 22.907165
_cell_volume 676.258600
_symmetry_space_group_name_H-M "P -1"
_symmetry_group_IT_number 2
_symmetry_cell_setting 'triclinic'
loop_
_space_group_symop_operation_xyz
x,y,z
-x,-y,-z
loop_
_atom_site_type_symbol
_atom_site_label
_atom_site_fract_x
_atom_site_fract_y
_atom_site_fract_z
Si Si1 0.410977 0.463908 0.327830
Si Si2 0.078831 0.270197 0.473719
Si Si3 0.537285 0.618637 0.309411
Si Si4 0.179139 0.565487 0.297468
Si Si5 0.933991 0.136951 0.853501
Si Si6 0.929395 0.369324 0.556418
Si Si7 0.359665 0.070294 0.324075
Si Si8 0.654745 0.961401 0.087750
O O1 0.500000 0.500000 0.500000
O O2 0.440508 0.421417 0.515956
O O3 0.483662 0.217141 0.085978
O O4 0.230810 0.692574 0.216147
O O5 0.982232 0.819328 0.834281
O O6 0.255395 0.060879 0.610820
O O7 0.000000 0.500000 0.500000
O O8 0.032524 0.343807 0.644451
O O9 0.695108 0.483732 0.413400
O O10 0.407412 0.897710 0.335426
O O11 0.500000 0.500000 0.000000
O O12 0.062867 0.641620 0.260283
O O13 0.098867 0.767086 0.261787
O O14 0.280771 0.296378 0.097882
O O15 0.965275 0.144686 0.296165
O O16 0.769399 0.647338 0.542483
O O17 0.500000 0.000000 0.500000
O O18 0.323012 0.027924 0.027767
#
# Coordination Sequence:
#
# PCOD9044345 Si02
#       8
#     2   2   2   2   2   2   2   2
#     4  11  26  46  79 109 150 194 245 310 365 437
#     4  12  27  46  68 111 152 193 243 301 367 448
#     4  11  24  43  71 112 147 185 247 303 369 433
#     4  10  23  46  73 104 138 196 243 304 363 438
#     4  11  25  48  75 105 150 194 242 304 372 437
#     4  11  25  45  74  99 148 193 244 291 371 431
#     4  11  24  47  75 106 142 193 246 304 365 444
#     4  11  24  47  71 105 149 184 255 293 370 433
#
# _framework density 23.659587999999999
#
# number of rings (size 3 to 8) (size 9 to 14) (size 15 to 20)
#    0.000    1.000    3.750    2.250    3.500    7.000 
#    0.000    0.000    0.000    0.000    0.000    0.000 
#    0.000    0.000    0.000    0.000    0.000    0.000 
#
# Total GULP energy -89404.504778 kJ/mol
# GULP energy per Si atom -5587.781549 kJ/mol
# Density = 2.360574 g / cm^3
# Si number density = 23.659588 Si / 1000 Ang^3
#
#
#
# Elastic Constant Matrix: (Units=GPa)
#
#
# Indices 1 2 3 4 5 6 
#
# 1 98.5569 32.4817 18.7458 7.0597 -10.2259 25.2563
# 2 32.4817 139.2462 55.7872 13.4628 -13.1053 18.7129
# 3 18.7458 55.7872 130.9026 0.2671 5.9025 3.7869
# 4 7.0597 13.4628 0.2671 45.0337 6.1976 -4.1676
# 5 -10.2259 -13.1053 5.9025 6.1976 21.6408 -0.0121
# 6 25.2563 18.7129 3.7869 -4.1676 -0.0121 50.3716
#
#
#
# Elastic Compliance Matrix: (Units=1/GPa)
#
#
# Indices 1 2 3 4 5 6 
#
# 1 0.013421 -0.000388 -0.001900 -0.003656 0.007668 -0.006743
# 2 -0.000388 0.011162 -0.004997 -0.004900 0.009340 -0.003979
# 3 -0.001900 -0.004997 0.010311 0.002986 -0.007590 0.002279
# 4 -0.003656 -0.004900 0.002986 0.026550 -0.013110 0.005622
# 5 0.007668 0.009340 -0.007590 -0.013110 0.061309 -0.007814
# 6 -0.006743 -0.003979 0.002279 0.005622 -0.007814 0.025004
#
#
# Mechanical properties :
#
#
# Convention : Reuss Voigt Hill
#
# Bulk Modulus (GPa) = 49.20397 64.74836 56.97616
# Shear Modulus (GPa) = 29.56802 40.85531 35.21166
#
# Velocity S-wave (km/s) = 3.53898 4.15998 3.86198
# Velocity P-wave (km/s) = 6.12707 7.10634 6.63479
#
# Compressibility (1/GPa) = 0.02032356
#
# Stress axis : x y z
#
# Youngs Moduli (GPa) = 74.50926 89.59188 96.98170
#
# Poissons Ratio (x) = 0.03479 0.18424
# Poissons Ratio (y) = 0.02893 0.48464
# Poissons Ratio (z) = 0.14155 0.44771
#
# Static dielectric constant tensor:
#      x y z
#    x 1.993430 -0.050660 0.022990 
#    y -0.050660 1.920780 -0.049050 
#    z 0.022990 -0.049050 1.965540 
# 
# From -- ./inp_files/354474.got.cif
#   From: 2010.05.17/outbox.cif.g08.bks.cpg/sg2_178_cif.got.tgz:354474.got - 2010.06.03 11:33:40.
