data_PCOD9044645
_publ_section_title
;
Structure prediction by ZEFSAII (Michael W. Deem and Ramdas Pophale) SiO2 
 PCOD9044645
Probable space group: P -1
;
_chemical_formula_sum "Si O2"
_cell_formula_units_Z 12
_cell_length_a 8.788603
_cell_length_b 10.299284
_cell_length_c 9.425718
_cell_angle_alpha 89.128900
_cell_angle_beta 31.146695
_cell_angle_gamma 96.863559
_cell_volume 426.509899
_symmetry_space_group_name_H-M "P -1"
_symmetry_group_IT_number 2
_symmetry_cell_setting 'triclinic'
loop_
_space_group_symop_operation_xyz
x,y,z
-x,-y,-z
loop_
_atom_site_type_symbol
_atom_site_label
_atom_site_fract_x
_atom_site_fract_y
_atom_site_fract_z
Si Si1 0.298249 0.105544 0.136843
Si Si2 0.557087 0.648284 0.385539
Si Si3 0.655455 0.003430 0.526184
Si Si4 0.713636 0.535951 0.965928
Si Si5 0.230543 0.727171 0.902177
Si Si6 0.184081 0.756835 0.423442
O O1 0.575672 0.238902 0.890039
O O2 0.071408 0.165051 0.417556
O O3 0.500000 0.000000 0.000000
O O4 0.525051 0.135505 0.255118
O O5 0.500000 0.500000 0.500000
O O6 0.311812 0.698835 0.674841
O O7 0.606750 0.619286 0.178975
O O8 0.884909 0.737662 0.176285
O O9 0.601448 0.134571 0.645153
O O10 0.023081 0.037648 0.245708
O O11 0.500000 0.000000 0.500000
O O12 0.015223 0.627243 0.647455
O O13 0.500000 0.500000 0.000000
O O14 0.759118 0.402705 0.010032
#
# Coordination Sequence:
#
# PCOD9044645 Si02
#       6
#     2   2   2   2   2   2
#     4  10  24  45  73  97 151 194 239 297 383 433
#     4  10  23  47  70 101 147 194 240 301 371 440
#     4  10  25  45  75 110 139 190 255 302 364 448
#     4  11  25  46  73 110 147 194 251 305 374 446
#     4  11  25  46  77 105 148 194 246 305 380 444
#     4  10  25  44  71 103 151 184 244 308 372 430
#
# _framework density 28.135335000000001
#
# number of rings (size 3 to 8) (size 9 to 14) (size 15 to 20)
#    1.000    0.667    0.000    3.500    4.667    6.000 
#    0.000   10.000    0.000    0.000    0.000    0.000 
#    0.000    0.000    0.000    0.000    0.000    0.000 
#
# Total GULP energy -66997.916649 kJ/mol
# GULP energy per Si atom -5583.159721 kJ/mol
# Density = 2.807130 g / cm^3
# Si number density = 28.135335 Si / 1000 Ang^3
#
#
#
# Elastic Constant Matrix: (Units=GPa)
#
#
# Indices 1 2 3 4 5 6 
#
# 1 159.3673 30.1186 79.5292 -4.8371 -6.5239 -7.7250
# 2 30.1186 105.8101 46.6535 -26.6520 -3.9388 8.1742
# 3 79.5292 46.6535 243.0457 -19.1096 -41.5726 -4.0060
# 4 -4.8371 -26.6520 -19.1096 66.4074 -8.4021 -0.1295
# 5 -6.5239 -3.9388 -41.5726 -8.4021 59.1412 -4.3111
# 6 -7.7250 8.1742 -4.0060 -0.1295 -4.3111 48.9653
#
#
#
# Elastic Compliance Matrix: (Units=1/GPa)
#
#
# Indices 1 2 3 4 5 6 
#
# 1 0.007783 -0.001464 -0.002490 -0.000865 -0.001026 0.001176
# 2 -0.001464 0.011754 -0.001486 0.004179 0.000002 -0.002303
# 3 -0.002490 -0.001486 0.006052 0.001490 0.004145 0.000719
# 4 -0.000865 0.004179 0.001490 0.017569 0.003701 -0.000340
# 5 -0.001026 0.000002 0.004145 0.003701 0.020379 0.001981
# 6 0.001176 -0.002303 0.000719 -0.000340 0.001981 0.021225
#
#
# Mechanical properties :
#
#
# Convention : Reuss Voigt Hill
#
# Bulk Modulus (GPa) = 67.98836 91.20284 79.59560
# Shear Modulus (GPa) = 49.72888 58.36423 54.04656
#
# Velocity S-wave (km/s) = 4.20871 4.55951 4.38762
# Velocity P-wave (km/s) = 6.91628 7.75919 7.34983
#
# Compressibility (1/GPa) = 0.01470840
#
# Stress axis : x y z
#
# Youngs Moduli (GPa) = 128.48897 85.08084 165.22562
#
# Poissons Ratio (x) = 0.12460 0.41137
# Poissons Ratio (y) = 0.18817 0.24551
# Poissons Ratio (z) = 0.31990 0.12642
#
# Static dielectric constant tensor:
#      x y z
#    x 2.593750 -0.164540 0.305390 
#    y -0.164540 2.294620 -0.042800 
#    z 0.305390 -0.042800 2.619110 
# 
# From -- ./inp_files/185597.got.cif
#   From: 2010.05.17/outbox.cif.g08.bks.cpg/sg2_93_cif.got.tgz:185597.got - 2010.06.03 11:33:40.
