data_PCOD9044812
_publ_section_title
;
Structure prediction by ZEFSAII (Michael W. Deem and Ramdas Pophale) SiO2 
 PCOD9044812
Probable space group: P -1
;
_chemical_formula_sum "Si O2"
_cell_formula_units_Z 14
_cell_length_a 13.282983
_cell_length_b 4.951973
_cell_length_c 10.269105
_cell_angle_alpha 65.545288
_cell_angle_beta 66.408877
_cell_angle_gamma 61.799903
_cell_volume 523.973145
_symmetry_space_group_name_H-M "P -1"
_symmetry_group_IT_number 2
_symmetry_cell_setting 'triclinic'
loop_
_space_group_symop_operation_xyz
x,y,z
-x,-y,-z
loop_
_atom_site_type_symbol
_atom_site_label
_atom_site_fract_x
_atom_site_fract_y
_atom_site_fract_z
Si Si1 0.043095 0.788312 0.893112
Si Si2 0.003954 0.575578 0.334452
Si Si3 0.488460 0.852169 0.897763
Si Si4 0.240816 0.483176 0.520410
Si Si5 0.305741 0.468011 0.892732
Si Si6 0.616415 0.248234 0.423336
Si Si7 0.258776 0.394257 0.231087
O O1 0.182456 0.641711 0.853542
O O2 0.999837 0.064798 0.752926
O O3 0.000000 0.500000 0.000000
O O4 0.000000 0.000000 0.000000
O O5 0.881887 0.542884 0.356097
O O6 0.000000 0.500000 0.500000
O O7 0.136290 0.343708 0.271159
O O8 0.605729 0.848958 0.763976
O O9 0.359076 0.104710 0.883040
O O10 0.500000 0.500000 0.000000
O O11 0.500000 0.000000 0.000000
O O12 0.281383 0.716347 0.541482
O O13 0.231600 0.567957 0.352436
O O14 0.343553 0.130200 0.542474
O O15 0.390557 0.619902 0.748354
O O16 0.280604 0.513006 0.051342
O O17 0.500000 0.500000 0.500000
#
# Coordination Sequence:
#
# PCOD9044812 Si02
#       7
#     2   2   2   2   2   2   2
#     4  12  27  46  76 116 156 201 267 333 396 463
#     4  10  23  49  77 112 161 210 258 324 401 481
#     4  10  24  42  66 103 141 189 248 313 379 445
#     4  11  26  48  70 108 151 200 253 314 394 478
#     4  11  25  45  79 106 154 196 267 324 389 453
#     4  12  27  48  75 107 152 198 254 320 399 462
#     4  10  23  47  74 108 149 203 259 314 385 464
#
# _framework density 26.718923
#
# number of rings (size 3 to 8) (size 9 to 14) (size 15 to 20)
#    0.000    1.143    2.857    1.286    4.000    6.857 
#    2.571    4.286    0.000    0.000    0.000    0.000 
#    0.000    0.000    0.000    0.000    0.000    0.000 
#
# Total GULP energy -78051.950224 kJ/mol
# GULP energy per Si atom -5575.139302 kJ/mol
# Density = 2.665811 g / cm^3
# Si number density = 26.718923 Si / 1000 Ang^3
#
#
#
# Elastic Constant Matrix: (Units=GPa)
#
#
# Indices 1 2 3 4 5 6 
#
# 1 78.4960 30.7763 22.7202 9.8638 -13.0158 -14.3915
# 2 30.7763 163.2009 34.6387 -13.3682 -7.3017 -6.8618
# 3 22.7202 34.6387 179.9865 7.0851 15.3590 -6.2353
# 4 9.8638 -13.3682 7.0851 47.5263 -17.7489 -6.8840
# 5 -13.0158 -7.3017 15.3590 -17.7489 57.0413 13.5762
# 6 -14.3915 -6.8618 -6.2353 -6.8840 13.5762 62.9197
#
#
#
# Elastic Compliance Matrix: (Units=1/GPa)
#
#
# Indices 1 2 3 4 5 6 
#
# 1 0.015278 -0.002586 -0.001439 -0.002524 0.002206 0.002318
# 2 -0.002586 0.007267 -0.001356 0.003451 0.001764 0.000064
# 3 -0.001439 -0.001356 0.006355 -0.002065 -0.002992 0.000572
# 4 -0.002524 0.003451 -0.002065 0.026065 0.008380 0.000638
# 5 0.002206 0.001764 -0.002992 0.008380 0.022516 -0.003541
# 6 0.002318 0.000064 0.000572 0.000638 -0.003541 0.017321
#
#
# Mechanical properties :
#
#
# Convention : Reuss Voigt Hill
#
# Bulk Modulus (GPa) = 55.13760 66.43932 60.78846
# Shear Modulus (GPa) = 44.79785 55.73402 50.26594
#
# Velocity S-wave (km/s) = 4.09911 4.57216 4.34208
# Velocity P-wave (km/s) = 6.56389 7.26587 6.92378
#
# Compressibility (1/GPa) = 0.01813644
#
# Stress axis : x y z
#
# Youngs Moduli (GPa) = 65.45356 137.60292 157.35374
#
# Poissons Ratio (x) = 0.35588 0.22650
# Poissons Ratio (y) = 0.16928 0.21342
# Poissons Ratio (z) = 0.09421 0.18663
#
# Static dielectric constant tensor:
#      x y z
#    x 2.273380 -0.087680 -0.005920 
#    y -0.087680 2.308510 -0.293430 
#    z -0.005920 -0.293430 2.394180 
# 
# From -- ./inp_files/440886.got.cif
#   From: 2010.05.17/outbox.cif.g08.bks.cpg/sg2_221_cif.got.tgz:440886.got - 2010.06.03 11:33:40.
