data_PCOD9044391
_publ_section_title
;
Structure prediction by ZEFSAII (Michael W. Deem and Ramdas Pophale) SiO2 
 PCOD9044391
Probable space group: P -1
;
_chemical_formula_sum "Si O2"
_cell_formula_units_Z 14
_cell_length_a 9.526896
_cell_length_b 21.991984
_cell_length_c 11.274614
_cell_angle_alpha 35.155316
_cell_angle_beta 55.125066
_cell_angle_gamma 29.518026
_cell_volume 583.277365
_symmetry_space_group_name_H-M "P -1"
_symmetry_group_IT_number 2
_symmetry_cell_setting 'triclinic'
loop_
_space_group_symop_operation_xyz
x,y,z
-x,-y,-z
loop_
_atom_site_type_symbol
_atom_site_label
_atom_site_fract_x
_atom_site_fract_y
_atom_site_fract_z
Si Si1 0.460421 0.896053 0.700295
Si Si2 0.248219 0.794490 0.360760
Si Si3 0.807284 0.868002 0.980262
Si Si4 0.356597 0.339906 0.829125
Si Si5 0.458007 0.568342 0.278228
Si Si6 0.364817 0.855193 0.557186
Si Si7 0.197141 0.463912 0.322103
O O1 0.501576 0.821267 0.671555
O O2 0.500000 0.000000 0.500000
O O3 0.670563 0.756598 0.937657
O O4 0.116909 0.023813 0.706899
O O5 0.335607 0.796480 0.186416
O O6 0.361117 0.612761 0.598439
O O7 0.502308 0.718751 0.444155
O O8 0.674430 0.019998 0.704761
O O9 0.091060 0.769000 0.086023
O O10 0.987985 0.672685 0.140183
O O11 0.500000 0.000000 0.000000
O O12 0.362724 0.416163 0.814771
O O13 0.047676 0.506078 0.626245
O O14 0.500000 0.500000 0.500000
O O15 0.604188 0.639386 0.732633
O O16 0.000000 0.000000 0.500000
#
# Coordination Sequence:
#
# PCOD9044391 Si02
#       7
#     2   2   2   2   2   2   2
#     4  12  27  47  67 108 149 191 238 302 359 436
#     4  10  23  46  74 100 144 184 244 300 358 428
#     4  11  27  47  77 106 142 191 246 299 362 431
#     4  11  24  44  75 105 136 191 242 304 362 417
#     4   9  22  42  69 107 140 176 231 306 359 411
#     4  12  27  48  72 103 150 196 241 292 361 442
#     4  11  26  46  76 109 144 188 248 298 362 437
#
# _framework density 24.002300999999999
#
# number of rings (size 3 to 8) (size 9 to 14) (size 15 to 20)
#    0.000    1.143    1.429    2.571   10.000    4.571 
#    7.714    0.000    0.000    0.000    0.000    0.000 
#    0.000    0.000    0.000    0.000    0.000    0.000 
#
# Total GULP energy -78129.279158 kJ/mol
# GULP energy per Si atom -5580.662797 kJ/mol
# Density = 2.394767 g / cm^3
# Si number density = 24.002301 Si / 1000 Ang^3
#
#
#
# Elastic Constant Matrix: (Units=GPa)
#
#
# Indices 1 2 3 4 5 6 
#
# 1 147.4673 39.4940 27.7860 -4.8191 16.7907 8.4379
# 2 39.4940 126.2884 45.2287 -6.6968 -5.9654 5.6276
# 3 27.7860 45.2287 102.5203 12.8590 1.6801 3.7403
# 4 -4.8191 -6.6968 12.8590 50.9869 -5.3736 2.5648
# 5 16.7907 -5.9654 1.6801 -5.3736 38.0174 -1.5086
# 6 8.4379 5.6276 3.7403 2.5648 -1.5086 37.8657
#
#
#
# Elastic Compliance Matrix: (Units=1/GPa)
#
#
# Indices 1 2 3 4 5 6 
#
# 1 0.008141 -0.002222 -0.001161 0.000438 -0.003893 -0.001554
# 2 -0.002222 0.010507 -0.004392 0.002646 0.003171 -0.000686
# 3 -0.001161 -0.004392 0.012531 -0.003978 -0.001297 -0.000109
# 4 0.000438 0.002646 -0.003978 0.021432 0.003371 -0.001415
# 5 -0.003893 0.003171 -0.001297 0.003371 0.029112 0.001456
# 6 -0.001554 -0.000686 -0.000109 -0.001415 0.001456 0.027022
#
#
# Mechanical properties :
#
#
# Convention : Reuss Voigt Hill
#
# Bulk Modulus (GPa) = 63.98122 66.81038 65.39580
# Shear Modulus (GPa) = 38.60909 42.95850 40.78379
#
# Velocity S-wave (km/s) = 4.01503 4.23515 4.12656
# Velocity P-wave (km/s) = 6.94321 7.19797 7.07174
#
# Compressibility (1/GPa) = 0.01562959
#
# Stress axis : x y z
#
# Youngs Moduli (GPa) = 122.82936 95.17698 79.80474
#
# Poissons Ratio (x) = 0.21145 0.09265
# Poissons Ratio (y) = 0.27288 0.35050
# Poissons Ratio (z) = 0.14260 0.41802
#
# Static dielectric constant tensor:
#      x y z
#    x 2.003910 0.003870 -0.039730 
#    y 0.003870 1.957860 -0.019160 
#    z -0.039730 -0.019160 2.049950 
# 
# From -- ./inp_files/405388.got.cif
#   From: 2010.05.17/outbox.cif.g08.bks.cpg/sg2_203_cif.got.tgz:405388.got - 2010.06.03 11:33:40.
