data_PCOD9044421
_publ_section_title
;
Structure prediction by ZEFSAII (Michael W. Deem and Ramdas Pophale) SiO2 
 PCOD9044421
Probable space group: P -1
;
_chemical_formula_sum "Si O2"
_cell_formula_units_Z 14
_cell_length_a 9.303981
_cell_length_b 27.021004
_cell_length_c 24.440611
_cell_angle_alpha 169.853195
_cell_angle_beta 146.297304
_cell_angle_gamma 33.500225
_cell_volume 593.563486
_symmetry_space_group_name_H-M "P -1"
_symmetry_group_IT_number 2
_symmetry_cell_setting 'triclinic'
loop_
_space_group_symop_operation_xyz
x,y,z
-x,-y,-z
loop_
_atom_site_type_symbol
_atom_site_label
_atom_site_fract_x
_atom_site_fract_y
_atom_site_fract_z
Si Si1 0.827852 0.715361 0.457288
Si Si2 0.484740 0.971507 0.381251
Si Si3 0.185791 0.719727 0.778159
Si Si4 0.840741 0.236329 0.856658
Si Si5 0.441795 0.680930 0.624283
Si Si6 0.346115 0.188334 0.898531
Si Si7 0.398591 0.555966 0.212186
O O1 0.707566 0.586293 0.331806
O O2 0.131128 0.718811 0.557870
O O3 0.652397 0.001919 0.693009
O O4 0.766064 0.530792 0.184577
O O5 0.256479 0.971341 0.354365
O O6 0.680782 0.175613 0.686495
O O7 0.658089 0.658142 0.086811
O O8 0.387832 0.517191 0.582094
O O9 0.000000 0.500000 0.500000
O O10 0.366523 0.823383 0.996032
O O11 0.000000 0.000000 0.000000
O O12 0.139399 0.231126 0.929383
O O13 0.500000 0.500000 0.500000
O O14 0.500000 0.000000 0.000000
O O15 0.283322 0.885892 0.526993
O O16 0.317969 0.439334 0.117930
#
# Coordination Sequence:
#
# PCOD9044421 Si02
#       7
#     2   2   2   2   2   2   2
#     4  11  24  48  73 101 150 184 248 286 374 416
#     4  10  23  46  74 108 140 196 233 302 350 437
#     4  12  28  48  72 104 146 190 241 298 372 430
#     4  10  24  44  74 106 144 186 247 289 363 427
#     4  12  30  46  77 110 140 190 248 306 356 436
#     4  12  26  47  70 104 145 191 233 297 361 429
#     4  11  26  43  72 101 144 191 230 291 358 424
#
# _framework density 23.586355999999999
#
# number of rings (size 3 to 8) (size 9 to 14) (size 15 to 20)
#    0.000    0.857    2.857    2.143   12.000    2.286 
#    0.000    0.000    0.000    0.000    0.000    0.000 
#    0.000    0.000    0.000    0.000    0.000    0.000 
#
# Total GULP energy -78071.199639 kJ/mol
# GULP energy per Si atom -5576.514260 kJ/mol
# Density = 2.353267 g / cm^3
# Si number density = 23.586356 Si / 1000 Ang^3
#
#
#
# Elastic Constant Matrix: (Units=GPa)
#
#
# Indices 1 2 3 4 5 6 
#
# 1 83.4594 8.6447 32.2556 -0.2126 20.1868 -1.6166
# 2 8.6447 75.8077 33.1408 -16.5116 29.7183 11.9143
# 3 32.2556 33.1408 136.5187 -4.1198 16.3688 10.1972
# 4 -0.2126 -16.5116 -4.1198 38.4365 -0.4181 2.8894
# 5 20.1868 29.7183 16.3688 -0.4181 45.5913 2.3993
# 6 -1.6166 11.9143 10.1972 2.8894 2.3993 33.1025
#
#
#
# Elastic Compliance Matrix: (Units=1/GPa)
#
#
# Indices 1 2 3 4 5 6 
#
# 1 0.014725 0.002425 -0.003312 0.000593 -0.006976 0.001320
# 2 0.002425 0.023597 -0.003711 0.010123 -0.014659 -0.007053
# 3 -0.003312 -0.003711 0.009027 -0.000516 0.000725 -0.001614
# 4 0.000593 0.010123 -0.000516 0.030675 -0.006095 -0.005691
# 5 -0.006976 -0.014659 0.000725 -0.006095 0.034116 0.002771
# 6 0.001320 -0.007053 -0.001614 -0.005691 0.002771 0.033605
#
#
# Mechanical properties :
#
#
# Convention : Reuss Voigt Hill
#
# Bulk Modulus (GPa) = 26.21111 49.31866 37.76488
# Shear Modulus (GPa) = 29.82234 38.20904 34.01569
#
# Velocity S-wave (km/s) = 3.55968 4.02924 3.80172
# Velocity P-wave (km/s) = 5.29453 6.52699 5.94280
#
# Compressibility (1/GPa) = 0.03815176
#
# Stress axis : x y z
#
# Youngs Moduli (GPa) = 67.91123 42.37787 110.78372
#
# Poissons Ratio (x) = -0.10277 0.36694
# Poissons Ratio (y) = -0.16469 0.41117
# Poissons Ratio (z) = 0.22493 0.15728
#
# Static dielectric constant tensor:
#      x y z
#    x 1.127100 1.726560 1.723430 
#    y 1.726560 -1.514970 -3.400230 
#    z 1.723430 -3.400230 -1.569450 
# 
# From -- ./inp_files/141592.got.cif
#   From: 2010.05.17/outbox.cif.g08.bks.cpg/sg2_71_cif.got.tgz:141592.got - 2010.06.03 11:33:40.
