data_PCOD9044837
_publ_section_title
;
Structure prediction by ZEFSAII (Michael W. Deem and Ramdas Pophale) SiO2 
 PCOD9044837
Probable space group: P -1
;
_chemical_formula_sum "Si O2"
_cell_formula_units_Z 16
_cell_length_a 5.972048
_cell_length_b 21.732622
_cell_length_c 10.272516
_cell_angle_alpha 34.845456
_cell_angle_beta 120.857104
_cell_angle_gamma 114.834627
_cell_volume 653.942477
_symmetry_space_group_name_H-M "P -1"
_symmetry_group_IT_number 2
_symmetry_cell_setting 'triclinic'
loop_
_space_group_symop_operation_xyz
x,y,z
-x,-y,-z
loop_
_atom_site_type_symbol
_atom_site_label
_atom_site_fract_x
_atom_site_fract_y
_atom_site_fract_z
Si Si1 0.018714 0.756911 0.112544
Si Si2 0.473483 0.940101 0.275914
Si Si3 0.547932 0.594912 0.949952
Si Si4 0.582967 0.586871 0.269058
Si Si5 0.929659 0.271359 0.128702
Si Si6 0.900595 0.221185 0.485140
Si Si7 0.752417 0.944899 0.601229
Si Si8 0.556532 0.830400 0.222186
O O1 0.059380 0.760447 0.962444
O O2 0.292949 0.762193 0.256758
O O3 0.842533 0.653221 0.267334
O O4 0.864224 0.869304 0.880639
O O5 0.616686 0.889224 0.531768
O O6 0.589436 0.894203 0.256991
O O7 0.189846 0.888036 0.283873
O O8 0.479733 0.068777 0.061476
O O9 0.595646 0.548030 0.191011
O O10 0.693276 0.318644 0.274031
O O11 0.817783 0.655744 0.893160
O O12 0.500000 0.500000 0.000000
O O13 0.500000 0.500000 0.500000
O O14 0.344605 0.668788 0.050889
O O15 0.913796 0.194434 0.381460
O O16 0.188322 0.242598 0.589667
O O17 0.500000 0.000000 0.500000
O O18 0.000000 0.000000 0.500000
#
# Coordination Sequence:
#
# PCOD9044837 Si02
#       8
#     2   2   2   2   2   2   2   2
#     4  11  25  47  72 108 148 192 249 308 377 462
#     4  11  25  44  68 103 154 193 249 304 374 449
#     4  10  23  47  75 105 141 186 249 308 381 460
#     4  10  24  48  78 104 141 191 244 318 380 454
#     4  10  23  48  72 100 143 181 246 302 374 445
#     4  11  23  43  72 102 141 197 242 308 370 458
#     4  12  27  45  78 110 148 210 260 312 378 460
#     4  11  25  45  67 107 154 194 240 311 380 449
#
# _framework density 24.466982999999999
#
# number of rings (size 3 to 8) (size 9 to 14) (size 15 to 20)
#    0.000    1.250    1.250    4.125    5.250    6.000 
#   13.500    0.000    0.000    0.000    0.000    0.000 
#    0.000    0.000    0.000    0.000    0.000    0.000 
#
# Total GULP energy -89390.115129 kJ/mol
# GULP energy per Si atom -5586.882196 kJ/mol
# Density = 2.441130 g / cm^3
# Si number density = 24.466983 Si / 1000 Ang^3
#
#
#
# Elastic Constant Matrix: (Units=GPa)
#
#
# Indices 1 2 3 4 5 6 
#
# 1 99.0277 53.2273 17.1623 -6.9926 -2.7329 18.8172
# 2 53.2273 132.8997 31.5853 -1.7375 15.5716 31.7898
# 3 17.1623 31.5853 74.7029 -1.2011 -13.1963 22.7461
# 4 -6.9926 -1.7375 -1.2011 27.7314 15.8466 6.5504
# 5 -2.7329 15.5716 -13.1963 15.8466 38.8955 9.8020
# 6 18.8172 31.7898 22.7461 6.5504 9.8020 34.3039
#
#
#
# Elastic Compliance Matrix: (Units=1/GPa)
#
#
# Indices 1 2 3 4 5 6 
#
# 1 0.013840 -0.004978 0.001258 0.002328 0.003789 -0.005340
# 2 -0.004978 0.012595 -0.003797 0.004785 -0.007307 -0.005249
# 3 0.001258 -0.003797 0.021697 -0.003558 0.014182 -0.014931
# 4 0.002328 0.004785 -0.003558 0.050979 -0.022016 -0.006795
# 5 0.003789 -0.007307 0.014182 -0.022016 0.046133 -0.013689
# 6 -0.005340 -0.005249 -0.014931 -0.006795 -0.013689 0.052054
#
#
# Mechanical properties :
#
#
# Convention : Reuss Voigt Hill
#
# Bulk Modulus (GPa) = 30.21390 56.73113 43.47252
# Shear Modulus (GPa) = 22.38489 33.82984 28.10736
#
# Velocity S-wave (km/s) = 3.02802 3.72247 3.39305
# Velocity P-wave (km/s) = 4.95992 6.45855 5.75820
#
# Compressibility (1/GPa) = 0.03309735
#
# Stress axis : x y z
#
# Youngs Moduli (GPa) = 72.25686 79.39680 46.08865
#
# Poissons Ratio (x) = 0.39524 -0.05798
# Poissons Ratio (y) = 0.35970 0.17501
# Poissons Ratio (z) = -0.09090 0.30148
#
# Static dielectric constant tensor:
#      x y z
#    x 2.083720 -0.006500 0.061260 
#    y -0.006500 1.962010 0.047330 
#    z 0.061260 0.047330 2.171130 
# 
# From -- ./inp_files/371429.got.cif
#   From: 2010.05.17/outbox.cif.g08.bks.cpg/sg2_186_cif.got.tgz:371429.got - 2010.06.03 11:33:40.
