data_PCOD9044692
_publ_section_title
;
Structure prediction by ZEFSAII (Michael W. Deem and Ramdas Pophale) SiO2 
 PCOD9044692
Probable space group: P -1
;
_chemical_formula_sum "Si O2"
_cell_formula_units_Z 15
_cell_length_a 11.771157
_cell_length_b 7.949216
_cell_length_c 8.890554
_cell_angle_alpha 52.338008
_cell_angle_beta 87.549679
_cell_angle_gamma 67.501808
_cell_volume 587.311153
_symmetry_space_group_name_H-M "P -1"
_symmetry_group_IT_number 2
_symmetry_cell_setting 'triclinic'
loop_
_space_group_symop_operation_xyz
x,y,z
-x,-y,-z
loop_
_atom_site_type_symbol
_atom_site_label
_atom_site_fract_x
_atom_site_fract_y
_atom_site_fract_z
Si Si1 0.787702 0.386974 0.681611
Si Si2 0.627517 0.396779 0.148631
Si Si3 0.498764 0.311753 0.478304
Si Si4 0.892047 0.107149 0.125360
Si Si5 0.606434 0.899460 0.919891
Si Si6 0.155278 0.063439 0.219675
Si Si7 0.000000 0.500000 0.500000
Si Si8 0.958864 0.795606 0.556881
O O1 0.645311 0.558882 0.643420
O O2 0.864840 0.531943 0.568039
O O3 0.795213 0.222709 0.628129
O O4 0.858282 0.183187 0.914929
O O5 0.595229 0.283396 0.356023
O O6 0.758335 0.229513 0.151703
O O7 0.500000 0.500000 0.000000
O O8 0.643914 0.626054 0.063749
O O9 0.500000 0.500000 0.500000
O O10 0.534818 0.061229 0.691588
O O11 0.005556 0.175898 0.120571
O O12 0.941127 0.841035 0.343581
O O13 0.739306 0.915536 0.901857
O O14 0.500000 0.000000 0.000000
O O15 0.146143 0.165887 0.332598
O O16 0.947489 0.474460 0.333819
O O17 0.000000 0.000000 0.500000
#
# Coordination Sequence:
#
# PCOD9044692 Si02
#       8
#     2   2   2   2   2   2   1   2
#     4  12  25  47  72 111 150 200 251 321 390 459
#     4  12  27  49  75 112 153 198 259 320 390 462
#     4  12  25  50  79 105 157 203 258 327 376 468
#     4  11  25  46  74 106 153 199 243 326 390 453
#     4  12  27  48  78 114 144 209 262 306 391 462
#     4  11  24  47  79 107 155 197 257 317 388 462
#     4  12  26  42  74 114 152 194 260 306 400 458
#     4  10  23  47  71 108 151 202 248 315 387 460
#
# _framework density 25.540123999999999
#
# number of rings (size 3 to 8) (size 9 to 14) (size 15 to 20)
#    0.000    0.533    6.667    1.200    1.867    3.200 
#    2.400    0.000    0.000    0.000    0.000    0.000 
#    0.000    0.000    0.000    0.000    0.000    0.000 
#
# Total GULP energy -83577.117281 kJ/mol
# GULP energy per Si atom -5571.807819 kJ/mol
# Density = 2.548199 g / cm^3
# Si number density = 25.540124 Si / 1000 Ang^3
#
#
#
# Elastic Constant Matrix: (Units=GPa)
#
#
# Indices 1 2 3 4 5 6 
#
# 1 185.6530 41.3633 41.0908 12.4112 -19.1405 -34.1097
# 2 41.3633 105.9249 19.2274 23.0709 -6.6155 -20.2212
# 3 41.0908 19.2274 132.2474 15.0308 -12.8129 -15.2902
# 4 12.4112 23.0709 15.0308 37.4282 -11.5785 -2.8071
# 5 -19.1405 -6.6155 -12.8129 -11.5785 54.8931 -5.7186
# 6 -34.1097 -20.2212 -15.2902 -2.8071 -5.7186 47.3954
#
#
#
# Elastic Compliance Matrix: (Units=1/GPa)
#
#
# Indices 1 2 3 4 5 6 
#
# 1 0.007048 -0.001603 -0.001248 0.000239 0.002471 0.004298
# 2 -0.001603 0.012235 -0.000112 -0.006743 -0.000156 0.003612
# 3 -0.001248 -0.000112 0.008573 -0.002444 0.001227 0.001823
# 4 0.000239 -0.006743 -0.002444 0.033470 0.005674 -0.000826
# 5 0.002471 -0.000156 0.001227 0.005674 0.021063 0.004985
# 6 0.004298 0.003612 0.001823 -0.000826 0.004985 0.026875
#
#
# Mechanical properties :
#
#
# Convention : Reuss Voigt Hill
#
# Bulk Modulus (GPa) = 45.59666 69.68759 57.64213
# Shear Modulus (GPa) = 40.81671 49.41960 45.11815
#
# Velocity S-wave (km/s) = 4.00201 4.40361 4.20761
# Velocity P-wave (km/s) = 6.26470 7.29387 6.79879
#
# Compressibility (1/GPa) = 0.02193143
#
# Stress axis : x y z
#
# Youngs Moduli (GPa) = 141.87930 81.73038 116.64577
#
# Poissons Ratio (x) = 0.13101 0.14553
# Poissons Ratio (y) = 0.22742 0.01306
# Poissons Ratio (z) = 0.17701 0.00915
#
# Static dielectric constant tensor:
#      x y z
#    x 1.846600 0.346180 0.036150 
#    y 0.346180 2.211210 0.006770 
#    z 0.036150 0.006770 2.175260 
# 
# From -- ./inp_files/241974.got.cif
#   From: 2010.05.17/outbox.cif.g08.bks.cpg/sg2_121_cif.got.tgz:241974.got - 2010.06.03 11:33:40.
