data_PCOD9044254
_publ_section_title
;
Structure prediction by ZEFSAII (Michael W. Deem and Ramdas Pophale) SiO2 
 PCOD9044254
Probable space group: P -1
;
_chemical_formula_sum "Si O2"
_cell_formula_units_Z 15
_cell_length_a 11.907546
_cell_length_b 5.332203
_cell_length_c 11.946926
_cell_angle_alpha 66.872767
_cell_angle_beta 65.379546
_cell_angle_gamma 61.306485
_cell_volume 586.972060
_symmetry_space_group_name_H-M "P -1"
_symmetry_group_IT_number 2
_symmetry_cell_setting 'triclinic'
loop_
_space_group_symop_operation_xyz
x,y,z
-x,-y,-z
loop_
_atom_site_type_symbol
_atom_site_label
_atom_site_fract_x
_atom_site_fract_y
_atom_site_fract_z
Si Si1 0.954420 0.314323 0.316728
Si Si2 0.666770 0.524042 0.958645
Si Si3 0.958423 0.345855 0.942201
Si Si4 0.000000 0.500000 0.500000
Si Si5 0.468461 0.888350 0.819958
Si Si6 0.203711 0.726161 0.282250
Si Si7 0.579847 0.614192 0.598481
Si Si8 0.329568 0.460855 0.666528
O O1 0.819408 0.299787 0.323890
O O2 0.966668 0.600826 0.206988
O O3 0.950047 0.347027 0.445149
O O4 0.081996 0.036378 0.277214
O O5 0.800378 0.510064 0.963469
O O6 0.566162 0.832590 0.895298
O O7 0.720112 0.332498 0.856811
O O8 0.593023 0.361261 0.093241
O O9 0.000000 0.500000 0.000000
O O10 0.000000 0.000000 0.000000
O O11 0.131028 0.494641 0.371884
O O12 0.552404 0.826233 0.680196
O O13 0.353467 0.204343 0.792310
O O14 0.311409 0.684502 0.342884
O O15 0.441061 0.589988 0.626617
O O16 0.640366 0.677943 0.447368
#
# Coordination Sequence:
#
# PCOD9044254 Si02
#       8
#     2   2   2   1   2   2   2   2
#     4  12  27  45  75 107 148 190 244 313 374 451
#     4  10  23  48  72 105 136 194 248 302 372 445
#     4  12  27  47  74 110 151 197 248 314 381 454
#     4  12  24  44  72 106 146 188 250 294 390 440
#     4  10  23  46  71  98 143 187 245 299 364 448
#     4  11  24  48  71 108 143 192 246 307 374 451
#     4  10  24  43  68 101 141 185 244 292 368 436
#     4  11  24  43  66 104 138 188 235 300 371 434
#
# _framework density 25.554879
#
# number of rings (size 3 to 8) (size 9 to 14) (size 15 to 20)
#    0.000    1.067    2.667    2.400    3.733    1.067 
#    7.200    2.000    0.000    0.000    0.000    0.000 
#    0.000    0.000    0.000    0.000    0.000    0.000 
#
# Total GULP energy -83771.132031 kJ/mol
# GULP energy per Si atom -5584.742135 kJ/mol
# Density = 2.549671 g / cm^3
# Si number density = 25.554879 Si / 1000 Ang^3
#
#
#
# Elastic Constant Matrix: (Units=GPa)
#
#
# Indices 1 2 3 4 5 6 
#
# 1 167.8267 47.5068 13.8425 -10.4407 25.4231 -24.4599
# 2 47.5068 85.0637 41.2990 2.3092 24.0061 -16.8239
# 3 13.8425 41.2990 94.8275 6.2715 12.3121 -3.5693
# 4 -10.4407 2.3092 6.2715 35.7392 -2.3468 1.1454
# 5 25.4231 24.0061 12.3121 -2.3468 47.3132 -2.4312
# 6 -24.4599 -16.8239 -3.5693 1.1454 -2.4312 35.4720
#
#
#
# Elastic Compliance Matrix: (Units=1/GPa)
#
#
# Indices 1 2 3 4 5 6 
#
# 1 0.007892 -0.003362 0.000621 0.002138 -0.002401 0.003676
# 2 -0.003362 0.020130 -0.007116 -0.001646 -0.006322 0.006133
# 3 0.000621 -0.007116 0.013668 -0.001737 -0.000446 -0.001546
# 4 0.002138 -0.001646 -0.001737 0.029129 0.001567 -0.000314
# 5 -0.002401 -0.006322 -0.000446 0.001567 0.025674 -0.002990
# 6 0.003676 0.006133 -0.001546 -0.000314 -0.002990 0.033284
#
#
# Mechanical properties :
#
#
# Convention : Reuss Voigt Hill
#
# Bulk Modulus (GPa) = 45.50358 61.44606 53.47482
# Shear Modulus (GPa) = 31.88438 40.04287 35.96362
#
# Velocity S-wave (km/s) = 3.53609 3.96275 3.75548
# Velocity P-wave (km/s) = 5.87510 6.71080 6.30680
#
# Compressibility (1/GPa) = 0.02197629
#
# Stress axis : x y z
#
# Youngs Moduli (GPa) = 126.71795 49.67673 73.16149
#
# Poissons Ratio (x) = 0.16702 -0.04544
# Poissons Ratio (y) = 0.42605 0.52060
# Poissons Ratio (z) = -0.07870 0.35349
#
# Static dielectric constant tensor:
#      x y z
#    x 1.989240 -0.077410 -0.008970 
#    y -0.077410 1.916970 -0.055250 
#    z -0.008970 -0.055250 2.016070 
# 
# From -- ./inp_files/66941.got.cif
#   From: 2010.05.17/outbox.cif.g08.bks.cpg/sg2_34_cif.got.tgz:66941.got - 2010.06.03 11:33:40.
