data_PCOD9044597
_publ_section_title
;
Structure prediction by ZEFSAII (Michael W. Deem and Ramdas Pophale) SiO2 
 PCOD9044597
Probable space group: P -1
;
_chemical_formula_sum "Si O2"
_cell_formula_units_Z 16
_cell_length_a 13.542392
_cell_length_b 8.794753
_cell_length_c 9.125141
_cell_angle_alpha 85.430301
_cell_angle_beta 42.058060
_cell_angle_gamma 71.832910
_cell_volume 671.785071
_symmetry_space_group_name_H-M "P -1"
_symmetry_group_IT_number 2
_symmetry_cell_setting 'triclinic'
loop_
_space_group_symop_operation_xyz
x,y,z
-x,-y,-z
loop_
_atom_site_type_symbol
_atom_site_label
_atom_site_fract_x
_atom_site_fract_y
_atom_site_fract_z
Si Si1 0.444072 0.651244 0.161840
Si Si2 0.214147 0.806784 0.648639
Si Si3 0.020300 0.923133 0.323071
Si Si4 0.296725 0.965894 0.822476
Si Si5 0.927835 0.698666 0.073656
Si Si6 0.056255 0.377936 0.624274
Si Si7 0.229422 0.325894 0.154952
Si Si8 0.386217 0.959153 0.013632
O O1 0.325032 0.666540 0.426604
O O2 0.500000 0.500000 0.000000
O O3 0.602184 0.662473 0.061373
O O4 0.365290 0.807345 0.128496
O O5 0.306411 0.864467 0.670130
O O6 0.077447 0.754816 0.876933
O O7 0.123615 0.961950 0.630816
O O8 0.027566 0.738354 0.341977
O O9 0.000000 0.000000 0.500000
O O10 0.173238 0.920521 0.064709
O O11 0.439275 0.925455 0.787151
O O12 0.217527 0.161627 0.860737
O O13 0.869613 0.713024 0.303690
O O14 0.000000 0.500000 0.000000
O O15 0.918170 0.556302 0.785141
O O16 0.182544 0.387942 0.368345
O O17 0.245252 0.138354 0.148745
O O18 0.500000 0.000000 0.000000
#
# Coordination Sequence:
#
# PCOD9044597 Si02
#       8
#     2   2   2   2   2   2   2   2
#     4  11  26  44  68  96 135 183 238 280 336 419
#     4  11  23  43  65 103 141 178 233 279 352 414
#     4  11  21  36  70 103 135 178 226 286 340 408
#     4  11  21  42  69 101 136 182 226 287 354 404
#     4  11  23  38  66 103 146 175 221 283 351 407
#     4  11  21  40  66 102 135 170 233 285 333 407
#     4  10  24  41  66  96 133 180 227 280 337 402
#     4  10  23  47  68  93 135 180 237 278 343 415
#
# _framework density 23.817139999999998
#
# number of rings (size 3 to 8) (size 9 to 14) (size 15 to 20)
#    0.000    1.250    2.500    3.750    5.250    2.000 
#    0.000    5.000    0.000    0.000    0.000    0.000 
#    0.000    0.000    0.000    0.000    0.000    0.000 
#
# Total GULP energy -89307.898886 kJ/mol
# GULP energy per Si atom -5581.743680 kJ/mol
# Density = 2.376293 g / cm^3
# Si number density = 23.817140 Si / 1000 Ang^3
#
#
#
# Elastic Constant Matrix: (Units=GPa)
#
#
# Indices 1 2 3 4 5 6 
#
# 1 94.9510 15.9839 28.7192 -8.4438 37.0578 -17.9000
# 2 15.9839 104.2818 10.7558 4.8253 13.1655 -3.1621
# 3 28.7192 10.7558 72.8581 -4.1824 17.7513 -17.2130
# 4 -8.4438 4.8253 -4.1824 34.0534 0.1352 15.8283
# 5 37.0578 13.1655 17.7513 0.1352 45.6182 -5.7337
# 6 -17.9000 -3.1621 -17.2130 15.8283 -5.7337 35.0174
#
#
#
# Elastic Compliance Matrix: (Units=1/GPa)
#
#
# Indices 1 2 3 4 5 6 
#
# 1 0.017240 -0.000793 -0.002494 0.001984 -0.012231 0.004615
# 2 -0.000793 0.010141 -0.000641 -0.002088 -0.001924 0.000824
# 3 -0.002494 -0.000641 0.017328 -0.001837 -0.003593 0.007427
# 4 0.001984 -0.002088 -0.001837 0.038201 -0.002642 -0.017778
# 5 -0.012231 -0.001924 -0.003593 -0.002642 0.033630 -0.001491
# 6 0.004615 0.000824 0.007427 -0.017778 -0.001491 0.042433
#
#
# Mechanical properties :
#
#
# Convention : Reuss Voigt Hill
#
# Bulk Modulus (GPa) = 27.13532 42.55652 34.84592
# Shear Modulus (GPa) = 27.91513 37.37993 32.64753
#
# Velocity S-wave (km/s) = 3.42725 3.96593 3.70639
# Velocity P-wave (km/s) = 5.20378 6.23525 5.74272
#
# Compressibility (1/GPa) = 0.03685234
#
# Stress axis : x y z
#
# Youngs Moduli (GPa) = 58.00570 98.60479 57.71151
#
# Poissons Ratio (x) = 0.07818 0.14394
# Poissons Ratio (y) = 0.04599 0.03700
# Poissons Ratio (z) = 0.14468 0.06322
#
# Static dielectric constant tensor:
#      x y z
#    x 2.122440 0.039470 0.014120 
#    y 0.039470 1.863750 0.046210 
#    z 0.014120 0.046210 1.945170 
# 
# From -- ./inp_files/295403.got.cif
#   From: 2010.05.17/outbox.cif.g08.bks.cpg/sg2_148_cif.got.tgz:295403.got - 2010.06.03 11:33:40.
