data_PCOD9044851
_publ_section_title
;
Structure prediction by ZEFSAII (Michael W. Deem and Ramdas Pophale) SiO2 
 PCOD9044851
Probable space group: P -1
;
_chemical_formula_sum "Si O2"
_cell_formula_units_Z 15
_cell_length_a 11.566387
_cell_length_b 10.630287
_cell_length_c 11.035534
_cell_angle_alpha 92.341554
_cell_angle_beta 156.122367
_cell_angle_gamma 90.019207
_cell_volume 546.390132
_symmetry_space_group_name_H-M "P -1"
_symmetry_group_IT_number 2
_symmetry_cell_setting 'triclinic'
loop_
_space_group_symop_operation_xyz
x,y,z
-x,-y,-z
loop_
_atom_site_type_symbol
_atom_site_label
_atom_site_fract_x
_atom_site_fract_y
_atom_site_fract_z
Si Si1 0.978787 0.274489 0.354987
Si Si2 0.000000 0.000000 0.000000
Si Si3 0.436374 0.913585 0.611773
Si Si4 0.472453 0.626157 0.265631
Si Si5 0.590135 0.911678 0.189778
Si Si6 0.807093 0.518740 0.227954
Si Si7 0.337702 0.350456 0.139530
Si Si8 0.074928 0.765293 0.064164
O O1 0.232676 0.311003 0.500935
O O2 0.989852 0.398282 0.467123
O O3 0.159842 0.175695 0.604416
O O4 0.692540 0.181166 0.052133
O O5 0.728851 0.979740 0.843525
O O6 0.123299 0.142721 0.188902
O O7 0.322066 0.996308 0.610544
O O8 0.490672 0.772421 0.701387
O O9 0.212247 0.886386 0.284180
O O10 0.525560 0.482977 0.350050
O O11 0.304940 0.696956 0.208811
O O12 0.244958 0.596685 0.934768
O O13 0.500000 0.000000 0.000000
O O14 0.500000 0.500000 0.000000
O O15 0.804887 0.628310 0.126039
O O16 0.106676 0.328417 0.024471
#
# Coordination Sequence:
#
# PCOD9044851 Si02
#       8
#     2   1   2   2   2   2   2   2
#     4  12  27  54  76 121 158 214 268 338 407 496
#     4   8  24  46  70 114 166 210 266 336 398 482
#     4  10  26  46  76 118 162 211 278 331 412 484
#     4  10  25  48  78 116 160 211 271 332 417 480
#     4  12  29  52  87 115 164 213 276 339 409 482
#     4  10  26  47  80 113 165 209 272 336 412 483
#     4  10  24  44  77 120 160 213 271 335 407 485
#     4  10  23  47  75 116 163 211 269 333 398 486
#
# _framework density 27.452909999999999
#
# number of rings (size 3 to 8) (size 9 to 14) (size 15 to 20)
#    1.600    0.000    1.333    0.800    7.467    4.800 
#    0.000    0.667    0.000    0.000    0.000    2.800 
#    0.000    0.000    0.000    0.000    0.000    0.000 
#
# Total GULP energy -83891.696159 kJ/mol
# GULP energy per Si atom -5592.779744 kJ/mol
# Density = 2.739043 g / cm^3
# Si number density = 27.452910 Si / 1000 Ang^3
#
#
#
# Elastic Constant Matrix: (Units=GPa)
#
#
# Indices 1 2 3 4 5 6 
#
# 1 112.3206 82.1958 49.9475 -7.0310 -9.7856 -14.8524
# 2 82.1958 224.6026 38.8775 -10.5794 -26.0156 -11.6316
# 3 49.9475 38.8775 144.4927 -7.8304 -10.1111 -15.6805
# 4 -7.0310 -10.5794 -7.8304 38.6171 -9.5332 7.3719
# 5 -9.7856 -26.0156 -10.1111 -9.5332 42.9648 8.0760
# 6 -14.8524 -11.6316 -15.6805 7.3719 8.0760 71.6325
#
#
#
# Elastic Compliance Matrix: (Units=1/GPa)
#
#
# Indices 1 2 3 4 5 6 
#
# 1 0.013855 -0.004456 -0.003466 0.000179 -0.000589 0.001438
# 2 -0.004456 0.006540 0.000082 0.001938 0.003476 -0.000435
# 3 -0.003466 0.000082 0.008350 0.001256 0.001346 0.000842
# 4 0.000179 0.001938 0.001256 0.029507 0.008694 -0.003390
# 5 -0.000589 0.003476 0.001346 0.008694 0.028117 -0.003328
# 6 0.001438 -0.000435 0.000842 -0.003390 -0.003328 0.015096
#
#
# Mechanical properties :
#
#
# Convention : Reuss Voigt Hill
#
# Bulk Modulus (GPa) = 76.53613 91.49527 84.01570
# Shear Modulus (GPa) = 41.15172 51.33588 46.24380
#
# Velocity S-wave (km/s) = 3.87588 4.32900 4.10869
# Velocity P-wave (km/s) = 6.92601 7.64116 7.29236
#
# Compressibility (1/GPa) = 0.01306572
#
# Stress axis : x y z
#
# Youngs Moduli (GPa) = 72.17513 152.89913 119.75403
#
# Poissons Ratio (x) = 0.68128 0.41505
# Poissons Ratio (y) = 0.32160 -0.00977
# Poissons Ratio (z) = 0.25015 -0.01247
#
# Static dielectric constant tensor:
#      x y z
#    x 2.086360 0.018440 -0.130320 
#    y 0.018440 2.496560 -0.219260 
#    z -0.130320 -0.219260 2.244610 
# 
# From -- ./inp_files/423837.got.cif
#   From: 2010.05.17/outbox.cif.g08.bks.cpg/sg2_212_cif.got.tgz:423837.got - 2010.06.03 11:33:40.
