data_PCOD9044603
_publ_section_title
;
Structure prediction by ZEFSAII (Michael W. Deem and Ramdas Pophale) SiO2 
 PCOD9044603
Probable space group: P -1
;
_chemical_formula_sum "Si O2"
_cell_formula_units_Z 16
_cell_length_a 9.735118
_cell_length_b 16.598399
_cell_length_c 5.160510
_cell_angle_alpha 82.454583
_cell_angle_beta 103.171826
_cell_angle_gamma 129.494899
_cell_volume 626.452043
_symmetry_space_group_name_H-M "P -1"
_symmetry_group_IT_number 2
_symmetry_cell_setting 'triclinic'
loop_
_space_group_symop_operation_xyz
x,y,z
-x,-y,-z
loop_
_atom_site_type_symbol
_atom_site_label
_atom_site_fract_x
_atom_site_fract_y
_atom_site_fract_z
Si Si1 0.097862 0.241149 0.306916
Si Si2 0.309184 0.709848 0.916575
Si Si3 0.719895 0.574092 0.322736
Si Si4 0.480747 0.082903 0.744953
Si Si5 0.446543 0.348728 0.151759
Si Si6 0.929923 0.390623 0.637869
Si Si7 0.883614 0.022895 0.593526
Si Si8 0.210544 0.903469 0.083849
O O1 0.187603 0.352650 0.419656
O O2 0.268251 0.253375 0.262453
O O3 0.981308 0.143404 0.493080
O O4 0.954457 0.209414 0.035780
O O5 0.437928 0.681296 0.907851
O O6 0.198685 0.691412 0.613891
O O7 0.429270 0.824993 0.045027
O O8 0.178172 0.638009 0.129319
O O9 0.574301 0.449839 0.349487
O O10 0.887775 0.593729 0.240873
O O11 0.627868 0.614392 0.108990
O O12 0.648226 0.095379 0.679928
O O13 0.330594 0.071554 0.508490
O O14 0.342335 0.972759 0.876647
O O15 0.000000 0.500000 0.500000
O O16 0.874401 0.041791 0.884510
O O17 0.000000 0.000000 0.500000
#
# Coordination Sequence:
#
# PCOD9044603 Si02
#       8
#     2   2   2   2   2   2   2   2
#     4  11  25  43  73 102 144 198 247 306 383 446
#     4  12  29  48  80 113 154 203 251 320 376 454
#     4  11  26  47  76 104 151 197 254 315 376 466
#     4  10  25  43  72 102 140 192 247 303 368 445
#     4  11  27  45  73 110 150 198 256 310 385 453
#     4  12  28  51  76 110 155 197 256 311 384 442
#     4  11  26  42  70 105 148 188 244 311 374 450
#     4  10  23  47  68  99 142 187 251 301 373 445
#
# _framework density 25.540664
#
# number of rings (size 3 to 8) (size 9 to 14) (size 15 to 20)
#    0.000    1.000    1.250    2.625   14.000    2.000 
#    0.000    0.000    0.000    0.000    0.000    0.000 
#    0.000    0.000    0.000    0.000    0.000    0.000 
#
# Total GULP energy -89455.906108 kJ/mol
# GULP energy per Si atom -5590.994132 kJ/mol
# Density = 2.548253 g / cm^3
# Si number density = 25.540664 Si / 1000 Ang^3
#
#
#
# Elastic Constant Matrix: (Units=GPa)
#
#
# Indices 1 2 3 4 5 6 
#
# 1 166.9380 37.1355 25.8452 12.2144 -22.1166 24.0070
# 2 37.1355 117.0631 30.1065 26.6582 0.4043 15.6959
# 3 25.8452 30.1065 76.9395 25.4162 -7.9452 14.8106
# 4 12.2144 26.6582 25.4162 56.3013 5.7396 1.9039
# 5 -22.1166 0.4043 -7.9452 5.7396 35.8200 -0.1747
# 6 24.0070 15.6959 14.8106 1.9039 -0.1747 42.7149
#
#
#
# Elastic Compliance Matrix: (Units=1/GPa)
#
#
# Indices 1 2 3 4 5 6 
#
# 1 0.007628 -0.001620 -0.000408 -0.001075 0.004793 -0.003483
# 2 -0.001620 0.010714 -0.002171 -0.003564 -0.001042 -0.002119
# 3 -0.000408 -0.002171 0.017807 -0.007256 0.004861 -0.004804
# 4 -0.001075 -0.003564 -0.007256 0.023453 -0.005974 0.003359
# 5 0.004793 -0.001042 0.004861 -0.005974 0.032906 -0.003596
# 6 -0.003483 -0.002119 -0.004804 0.003359 -0.003596 0.027649
#
#
# Mechanical properties :
#
#
# Convention : Reuss Voigt Hill
#
# Bulk Modulus (GPa) = 36.03327 60.79055 48.41191
# Shear Modulus (GPa) = 36.28310 44.82414 40.55362
#
# Velocity S-wave (km/s) = 3.77318 4.19383 3.98905
# Velocity P-wave (km/s) = 5.75511 6.87780 6.34135
#
# Compressibility (1/GPa) = 0.02775213
#
# Stress axis : x y z
#
# Youngs Moduli (GPa) = 131.09147 93.33790 56.15679
#
# Poissons Ratio (x) = 0.15118 0.02293
# Poissons Ratio (y) = 0.21233 0.12189
# Poissons Ratio (z) = 0.05352 0.20260
#
# Static dielectric constant tensor:
#      x y z
#    x 2.179920 -0.076030 0.105930 
#    y -0.076030 1.987560 -0.044290 
#    z 0.105930 -0.044290 2.228890 
# 
# From -- ./inp_files/48295.got.cif
#   From: 2010.05.17/outbox.cif.g08.bks.cpg/sg2_25_cif.got.tgz:48295.got - 2010.06.03 11:33:40.
