data_PCOD9044107
_publ_section_title
;
Structure prediction by ZEFSAII (Michael W. Deem and Ramdas Pophale) SiO2 
 PCOD9044107
Probable space group: P -1
;
_chemical_formula_sum "Si O2"
_cell_formula_units_Z 16
_cell_length_a 17.695203
_cell_length_b 15.163391
_cell_length_c 23.082780
_cell_angle_alpha 150.720598
_cell_angle_beta 158.573371
_cell_angle_gamma 18.632117
_cell_volume 720.287481
_symmetry_space_group_name_H-M "P -1"
_symmetry_group_IT_number 2
_symmetry_cell_setting 'triclinic'
loop_
_space_group_symop_operation_xyz
x,y,z
-x,-y,-z
loop_
_atom_site_type_symbol
_atom_site_label
_atom_site_fract_x
_atom_site_fract_y
_atom_site_fract_z
Si Si1 0.771096 0.311278 0.632332
Si Si2 0.119217 0.308862 0.530438
Si Si3 0.783594 0.295380 0.366686
Si Si4 0.191493 0.550780 0.144093
Si Si5 0.266817 0.314255 0.371058
Si Si6 0.646558 0.592208 0.139511
Si Si7 0.016038 0.451469 0.818205
Si Si8 0.316080 0.003764 0.035882
O O1 0.500000 0.500000 0.500000
O O2 0.656922 0.480247 0.706039
O O3 0.037542 0.257689 0.761058
O O4 0.915091 0.025167 0.586869
O O5 0.259195 0.348542 0.703475
O O6 0.000000 0.500000 0.500000
O O7 0.835148 0.370433 0.387119
O O8 0.413887 0.979852 0.543486
O O9 0.477561 0.369442 0.197948
O O10 0.781910 0.460114 0.505400
O O11 0.000000 0.500000 0.000000
O O12 0.944726 0.865189 0.124451
O O13 0.980377 0.368718 0.215239
O O14 0.233761 0.369122 0.310479
O O15 0.394355 0.845510 0.059789
O O16 0.500000 0.500000 0.000000
O O17 0.861740 0.698522 0.894798
O O18 0.352985 0.226782 0.895680
#
# Coordination Sequence:
#
# PCOD9044107 Si02
#       8
#     2   2   2   2   2   2   2   2
#     4  12  27  42  71 104 143 188 247 293 361 436
#     4  11  24  46  72 101 141 186 243 306 369 443
#     4  11  26  44  70 101 144 192 243 300 368 440
#     4  12  26  44  69 103 144 189 245 300 364 433
#     4  10  23  46  70 100 145 189 242 301 368 445
#     4  10  24  44  71 104 137 184 244 305 377 435
#     4  11  23  45  72 101 145 192 241 293 369 432
#     4  11  25  45  72 101 146 190 237 305 364 439
#
# _framework density 22.213353000000001
#
# number of rings (size 3 to 8) (size 9 to 14) (size 15 to 20)
#    0.000    1.000    2.500    3.000    5.250    7.500 
#    2.250    0.000    0.000    0.000    0.000    0.000 
#    0.000    0.000    0.000    0.000    0.000    0.000 
#
# Total GULP energy -89186.273272 kJ/mol
# GULP energy per Si atom -5574.142080 kJ/mol
# Density = 2.216279 g / cm^3
# Si number density = 22.213353 Si / 1000 Ang^3
#
#
#
# Elastic Constant Matrix: (Units=GPa)
#
#
# Indices 1 2 3 4 5 6 
#
# 1 145.6111 51.8295 46.7060 0.8621 19.3119 31.8870
# 2 51.8295 95.3943 33.1607 -5.9807 11.2366 10.9500
# 3 46.7060 33.1607 74.2082 -7.1403 24.9871 8.3733
# 4 0.8621 -5.9807 -7.1403 39.0985 3.0338 -6.0513
# 5 19.3119 11.2366 24.9871 3.0338 48.8346 -3.5669
# 6 31.8870 10.9500 8.3733 -6.0513 -3.5669 45.6147
#
#
#
# Elastic Compliance Matrix: (Units=1/GPa)
#
#
# Indices 1 2 3 4 5 6 
#
# 1 0.011325 -0.003840 -0.004326 -0.002527 -0.001712 -0.006670
# 2 -0.003840 0.013918 -0.003729 0.001560 0.000145 0.000246
# 3 -0.004326 -0.003729 0.021123 0.004028 -0.008496 -0.000088
# 4 -0.002527 0.001560 0.004028 0.027456 -0.002829 0.004074
# 5 -0.001712 0.000145 -0.008496 -0.002829 0.025963 0.004376
# 6 -0.006670 0.000246 -0.000088 0.004074 0.004376 0.027425
#
#
# Mechanical properties :
#
#
# Convention : Reuss Voigt Hill
#
# Bulk Modulus (GPa) = 44.29647 64.28956 54.29301
# Shear Modulus (GPa) = 31.54083 38.94406 35.24244
#
# Velocity S-wave (km/s) = 3.77225 4.19164 3.98746
# Velocity P-wave (km/s) = 6.24162 7.24094 6.75977
#
# Compressibility (1/GPa) = 0.02257516
#
# Stress axis : x y z
#
# Youngs Moduli (GPa) = 88.30342 71.84935 47.34232
#
# Poissons Ratio (x) = 0.27593 0.20479
# Poissons Ratio (y) = 0.33912 0.17654
# Poissons Ratio (z) = 0.38198 0.26792
#
# Static dielectric constant tensor:
#      x y z
#    x 1.881470 -0.056680 -0.006450 
#    y -0.056680 1.796170 -0.007640 
#    z -0.006450 -0.007640 1.975890 
# 
# From -- ./inp_files/613244.got.cif
#   From: 2010.05.17/outbox.cif.g08.bks.cpg/sg2_307_cif.got.tgz:613244.got - 2010.06.03 11:33:40.
