data_PCOD9044518
_publ_section_title
;
Structure prediction by ZEFSAII (Michael W. Deem and Ramdas Pophale) SiO2 
 PCOD9044518
Probable space group: P -1
;
_chemical_formula_sum "Si O2"
_cell_formula_units_Z 14
_cell_length_a 6.688887
_cell_length_b 17.715177
_cell_length_c 5.518923
_cell_angle_alpha 97.506691
_cell_angle_beta 81.234125
_cell_angle_gamma 73.783797
_cell_volume 610.187162
_symmetry_space_group_name_H-M "P -1"
_symmetry_group_IT_number 2
_symmetry_cell_setting 'triclinic'
loop_
_space_group_symop_operation_xyz
x,y,z
-x,-y,-z
loop_
_atom_site_type_symbol
_atom_site_label
_atom_site_fract_x
_atom_site_fract_y
_atom_site_fract_z
Si Si1 0.938229 0.572533 0.347255
Si Si2 0.103418 0.937996 0.661392
Si Si3 0.276761 0.058682 0.984438
Si Si4 0.304723 0.516108 0.866075
Si Si5 0.549335 0.228931 0.446184
Si Si6 0.697929 0.772006 0.028212
Si Si7 0.126796 0.672646 0.680979
O O1 0.716470 0.564164 0.288284
O O2 0.000000 0.500000 0.500000
O O3 0.981590 0.647661 0.495206
O O4 0.100641 0.550262 0.087971
O O5 0.306320 0.861568 0.557086
O O6 0.182246 0.997319 0.839836
O O7 0.000000 0.000000 0.500000
O O8 0.908942 0.906803 0.770356
O O9 0.310143 0.136045 0.887805
O O10 0.500000 0.000000 0.000000
O O11 0.281768 0.588067 0.714865
O O12 0.500000 0.500000 0.000000
O O13 0.401854 0.254675 0.723733
O O14 0.719725 0.277414 0.407119
O O15 0.430851 0.230651 0.204578
O O16 0.944710 0.720632 0.922865
#
# Coordination Sequence:
#
# PCOD9044518 Si02
#       7
#     2   2   2   2   2   2   2
#     4   9  22  45  72 105 143 189 242 296 383 449
#     4  11  25  43  76 105 150 199 265 316 376 452
#     4  11  23  45  72 105 146 203 256 316 372 451
#     4  10  23  46  80 109 144 193 250 305 380 461
#     4  12  29  48  75 116 151 208 257 316 388 450
#     4  12  29  48  76 110 158 202 262 313 392 447
#     4  11  27  49  74 109 158 194 250 324 376 461
#
# _framework density 22.94378
#
# number of rings (size 3 to 8) (size 9 to 14) (size 15 to 20)
#    0.000    1.143    2.857    0.857    8.000    8.000 
#    0.000    0.000    0.000    0.000    0.000    0.000 
#    0.000    0.000    0.000    0.000    0.000    0.000 
#
# Total GULP energy -78121.113493 kJ/mol
# GULP energy per Si atom -5580.079535 kJ/mol
# Density = 2.289156 g / cm^3
# Si number density = 22.943780 Si / 1000 Ang^3
#
#
#
# Elastic Constant Matrix: (Units=GPa)
#
#
# Indices 1 2 3 4 5 6 
#
# 1 166.3408 67.1339 53.6017 -7.5949 6.6865 12.3754
# 2 67.1339 138.0448 36.1761 -3.2501 -2.6003 21.1819
# 3 53.6017 36.1761 86.8456 -14.6834 -19.0485 15.7100
# 4 -7.5949 -3.2501 -14.6834 32.5531 -0.4876 -0.3344
# 5 6.6865 -2.6003 -19.0485 -0.4876 44.7015 -5.5819
# 6 12.3754 21.1819 15.7100 -0.3344 -5.5819 47.3833
#
#
#
# Elastic Compliance Matrix: (Units=1/GPa)
#
#
# Indices 1 2 3 4 5 6 
#
# 1 0.009093 -0.003177 -0.005283 -0.000632 -0.003759 0.000350
# 2 -0.003177 0.009655 -0.001625 -0.000541 -0.000030 -0.002955
# 3 -0.005283 -0.001625 0.019140 0.007334 0.008534 -0.003183
# 4 -0.000632 -0.000541 0.007334 0.033862 0.003384 -0.001387
# 5 -0.003759 -0.000030 0.008534 0.003384 0.026773 0.001344
# 6 0.000350 -0.002955 -0.003183 -0.001387 0.001344 0.023538
#
#
# Mechanical properties :
#
#
# Convention : Reuss Voigt Hill
#
# Bulk Modulus (GPa) = 56.44019 78.33940 67.38979
# Shear Modulus (GPa) = 33.75295 40.54890 37.15092
#
# Velocity S-wave (km/s) = 3.83967 4.20851 4.02831
# Velocity P-wave (km/s) = 6.65659 7.60484 7.14646
#
# Compressibility (1/GPa) = 0.01771787
#
# Stress axis : x y z
#
# Youngs Moduli (GPa) = 109.97904 103.57549 52.24677
#
# Poissons Ratio (x) = 0.32903 0.27604
# Poissons Ratio (y) = 0.34937 0.08488
# Poissons Ratio (z) = 0.58106 0.16827
#
# Static dielectric constant tensor:
#      x y z
#    x 1.816900 -0.056130 -0.068190 
#    y -0.056130 0.840920 -0.484410 
#    z -0.068190 -0.484410 1.715780 
# 
# From -- ./inp_files/8056.got.cif
#   From: 2010.05.17/outbox.cif.g08.bks.cpg/sg2_5_cif.got.tgz:8056.got - 2010.06.03 11:33:40.
