data_PCOD9044220
_publ_section_title
;
Structure prediction by ZEFSAII (Michael W. Deem and Ramdas Pophale) SiO2 
 PCOD9044220
Probable space group: P -1
;
_chemical_formula_sum "Si O2"
_cell_formula_units_Z 14
_cell_length_a 12.812174
_cell_length_b 8.595807
_cell_length_c 12.496371
_cell_angle_alpha 140.886232
_cell_angle_beta 118.494800
_cell_angle_gamma 89.221698
_cell_volume 584.300848
_symmetry_space_group_name_H-M "P -1"
_symmetry_group_IT_number 2
_symmetry_cell_setting 'triclinic'
loop_
_space_group_symop_operation_xyz
x,y,z
-x,-y,-z
loop_
_atom_site_type_symbol
_atom_site_label
_atom_site_fract_x
_atom_site_fract_y
_atom_site_fract_z
Si Si1 0.455748 0.051188 0.347742
Si Si2 0.571237 0.143205 0.995788
Si Si3 0.101483 0.661429 0.742427
Si Si4 0.822080 0.277056 0.821258
Si Si5 0.264271 0.326741 0.089021
Si Si6 0.120974 0.966876 0.595837
Si Si7 0.618452 0.746673 0.298924
O O1 0.483712 0.097489 0.259262
O O2 0.512485 0.849979 0.302034
O O3 0.554471 0.396304 0.640786
O O4 0.272954 0.807237 0.159981
O O5 0.755273 0.337698 0.193089
O O6 0.535025 0.375406 0.070359
O O7 0.500000 0.000000 0.000000
O O8 0.000000 0.500000 0.500000
O O9 0.981969 0.416848 0.643818
O O10 0.179904 0.035094 0.976262
O O11 0.738180 0.922404 0.549191
O O12 0.778855 0.445618 0.812202
O O13 0.000000 0.500000 0.000000
O O14 0.196238 0.148641 0.844433
O O15 0.264817 0.111604 0.667242
O O16 0.000000 0.000000 0.500000
#
# Coordination Sequence:
#
# PCOD9044220 Si02
#       7
#     2   2   2   2   2   2   2
#     4  11  27  48  71 104 149 195 240 302 363 437
#     4  12  28  45  73 109 142 189 245 299 365 435
#     4  10  25  44  73 100 150 185 241 299 364 418
#     4  11  25  44  74 102 144 192 244 299 360 428
#     4  10  23  46  71 106 150 189 235 304 369 430
#     4  11  21  43  79 109 143 193 251 293 351 431
#     4  11  24  45  74 105 142 193 246 294 357 438
#
# _framework density 23.960260000000002
#
# number of rings (size 3 to 8) (size 9 to 14) (size 15 to 20)
#    0.000    1.143    1.429    3.857   12.000    0.571 
#    0.000    2.857    0.000    0.000    0.000    0.000 
#    0.000    0.000    0.000    0.000    0.000    0.000 
#
# Total GULP energy -78115.851371 kJ/mol
# GULP energy per Si atom -5579.703669 kJ/mol
# Density = 2.390573 g / cm^3
# Si number density = 23.960260 Si / 1000 Ang^3
#
#
#
# Elastic Constant Matrix: (Units=GPa)
#
#
# Indices 1 2 3 4 5 6 
#
# 1 100.3710 43.3242 52.2908 -3.0336 20.6285 23.6390
# 2 43.3242 102.2996 49.0543 22.4771 10.6168 33.1024
# 3 52.2908 49.0543 145.7371 1.2571 11.4473 17.2845
# 4 -3.0336 22.4771 1.2571 54.1171 2.0450 6.5585
# 5 20.6285 10.6168 11.4473 2.0450 39.2258 1.9989
# 6 23.6390 33.1024 17.2845 6.5585 1.9989 36.3594
#
#
#
# Elastic Compliance Matrix: (Units=1/GPa)
#
#
# Indices 1 2 3 4 5 6 
#
# 1 0.015997 -0.003205 -0.003466 0.003286 -0.006395 -0.006076
# 2 -0.003205 0.017938 -0.003374 -0.006113 -0.001282 -0.011471
# 3 -0.003466 -0.003374 0.009138 0.000896 -0.000019 0.000821
# 4 0.003286 -0.006113 0.000896 0.021327 -0.001408 -0.000767
# 5 -0.006395 -0.001282 -0.000019 -0.001408 0.029079 0.003989
# 6 -0.006076 -0.011471 0.000821 -0.000767 0.003989 0.041425
#
#
# Mechanical properties :
#
#
# Convention : Reuss Voigt Hill
#
# Bulk Modulus (GPa) = 43.51229 70.86070 57.18650
# Shear Modulus (GPa) = 30.73967 39.52300 35.13133
#
# Velocity S-wave (km/s) = 3.58571 4.06584 3.83330
# Velocity P-wave (km/s) = 5.94497 7.18887 6.59631
#
# Compressibility (1/GPa) = 0.02298201
#
# Stress axis : x y z
#
# Youngs Moduli (GPa) = 62.51168 55.74623 109.43875
#
# Poissons Ratio (x) = 0.17866 0.37936
# Poissons Ratio (y) = 0.20034 0.36927
# Poissons Ratio (z) = 0.21669 0.18810
#
# Static dielectric constant tensor:
#      x y z
#    x 1.916260 0.015840 -0.018170 
#    y 0.015840 1.986800 -0.068350 
#    z -0.018170 -0.068350 2.025220 
# 
# From -- ./inp_files/529143.got.cif
#   From: 2010.05.17/outbox.cif.g08.bks.cpg/sg2_265_cif.got.tgz:529143.got - 2010.06.03 11:33:40.
