data_PCOD9044051
_publ_section_title
;
Structure prediction by ZEFSAII (Michael W. Deem and Ramdas Pophale) SiO2 
 PCOD9044051
Probable space group: P -1
;
_chemical_formula_sum "Si O2"
_cell_formula_units_Z 14
_cell_length_a 9.370223
_cell_length_b 16.738601
_cell_length_c 15.929681
_cell_angle_alpha 17.507287
_cell_angle_beta 45.748875
_cell_angle_gamma 45.122855
_cell_volume 528.961884
_symmetry_space_group_name_H-M "P -1"
_symmetry_group_IT_number 2
_symmetry_cell_setting 'triclinic'
loop_
_space_group_symop_operation_xyz
x,y,z
-x,-y,-z
loop_
_atom_site_type_symbol
_atom_site_label
_atom_site_fract_x
_atom_site_fract_y
_atom_site_fract_z
Si Si1 0.995396 0.223129 0.117003
Si Si2 0.574000 0.467679 0.730368
Si Si3 0.241002 0.224389 0.305990
Si Si4 0.613264 0.795694 0.540364
Si Si5 0.986952 0.033441 0.789364
Si Si6 0.204724 0.096237 0.845526
Si Si7 0.324148 0.514464 0.629643
O O1 0.219659 0.264677 0.956103
O O2 0.876385 0.475440 0.964293
O O3 0.905105 0.201552 0.081467
O O4 0.933288 0.958681 0.446640
O O5 0.550737 0.563397 0.740341
O O6 0.762393 0.605298 0.486007
O O7 0.407935 0.602545 0.595578
O O8 0.620807 0.150279 0.009261
O O9 0.333768 0.248770 0.338084
O O10 0.429250 0.049388 0.356027
O O11 0.824810 0.860405 0.353078
O O12 0.861702 0.277246 0.542610
O O13 0.824010 0.924491 0.021640
O O14 0.000000 0.000000 0.000000
O O15 0.500000 0.500000 0.500000
#
# Coordination Sequence:
#
# PCOD9044051 Si02
#       7
#     2   2   2   2   2   2   2
#     4  11  23  44  69 101 128 180 226 282 328 405
#     4  12  28  42  69 101 143 179 224 282 339 403
#     4  10  24  43  74  96 132 171 238 283 341 392
#     4  10  23  46  69 104 127 180 226 295 334 395
#     4  11  24  43  72  99 142 180 228 274 341 413
#     4  12  26  42  66 103 142 177 221 284 339 401
#     4  12  25  46  68 102 142 186 226 265 340 418
#
# _framework density 26.466933999999998
#
# number of rings (size 3 to 8) (size 9 to 14) (size 15 to 20)
#    0.000    0.857    5.714    1.286    4.000    7.429 
#    0.000    1.429    0.000    0.000    0.000    0.000 
#    0.000    0.000    0.000    0.000    0.000    0.000 
#
# Total GULP energy -78123.878621 kJ/mol
# GULP energy per Si atom -5580.277044 kJ/mol
# Density = 2.640669 g / cm^3
# Si number density = 26.466934 Si / 1000 Ang^3
#
#
#
# Elastic Constant Matrix: (Units=GPa)
#
#
# Indices 1 2 3 4 5 6 
#
# 1 84.3284 13.4474 12.9469 3.3381 -19.7436 -20.4316
# 2 13.4474 112.7185 26.0925 -8.6777 -3.5225 -24.3219
# 3 12.9469 26.0925 104.4702 -14.3950 -15.2044 -13.5654
# 4 3.3381 -8.6777 -14.3950 43.6164 -3.9506 -1.8431
# 5 -19.7436 -3.5225 -15.2044 -3.9506 34.6680 -1.3047
# 6 -20.4316 -24.3219 -13.5654 -1.8431 -1.3047 32.6244
#
#
#
# Elastic Compliance Matrix: (Units=1/GPa)
#
#
# Indices 1 2 3 4 5 6 
#
# 1 0.016991 0.000740 0.000912 0.000623 0.010675 0.012034
# 2 0.000740 0.011108 -0.001233 0.002246 0.001582 0.008423
# 3 0.000912 -0.001233 0.011966 0.004425 0.006339 0.005131
# 4 0.000623 0.002246 0.004425 0.025533 0.005643 0.005573
# 5 0.010675 0.001582 0.006339 0.005643 0.038974 0.012378
# 6 0.012034 0.008423 0.005131 0.005573 0.012378 0.047411
#
#
# Mechanical properties :
#
#
# Convention : Reuss Voigt Hill
#
# Bulk Modulus (GPa) = 24.44830 45.16562 34.80696
# Shear Modulus (GPa) = 30.34364 38.78378 34.56371
#
# Velocity S-wave (km/s) = 3.38963 3.83216 3.61767
# Velocity P-wave (km/s) = 4.95750 6.05662 5.53441
#
# Compressibility (1/GPa) = 0.04090264
#
# Stress axis : x y z
#
# Youngs Moduli (GPa) = 58.85580 90.02156 83.57330
#
# Poissons Ratio (x) = -0.06663 -0.07618
# Poissons Ratio (y) = -0.04356 0.10302
# Poissons Ratio (z) = -0.05365 0.11097
#
# Static dielectric constant tensor:
#      x y z
#    x 2.183810 0.110620 0.004960 
#    y 0.110620 2.212950 0.084360 
#    z 0.004960 0.084360 2.131850 
# 
# From -- ./inp_files/562004.got.cif
#   From: 2010.05.17/outbox.cif.g08.bks.cpg/sg2_282_cif.got.tgz:562004.got - 2010.06.03 11:33:40.
