data_PCOD9044317
_publ_section_title
;
Structure prediction by ZEFSAII (Michael W. Deem and Ramdas Pophale) SiO2 
 PCOD9044317
Probable space group: P -1
;
_chemical_formula_sum "Si O2"
_cell_formula_units_Z 16
_cell_length_a 14.106281
_cell_length_b 13.713912
_cell_length_c 11.976419
_cell_angle_alpha 139.323569
_cell_angle_beta 30.010192
_cell_angle_gamma 136.931785
_cell_volume 735.667899
_symmetry_space_group_name_H-M "P -1"
_symmetry_group_IT_number 2
_symmetry_cell_setting 'triclinic'
loop_
_space_group_symop_operation_xyz
x,y,z
-x,-y,-z
loop_
_atom_site_type_symbol
_atom_site_label
_atom_site_fract_x
_atom_site_fract_y
_atom_site_fract_z
Si Si1 0.066803 0.957647 0.276485
Si Si2 0.027130 0.579596 0.663321
Si Si3 0.271139 0.924574 0.695204
Si Si4 0.389901 0.106856 0.949044
Si Si5 0.864798 0.618256 0.227214
Si Si6 0.329803 0.357395 0.774685
Si Si7 0.778008 0.005594 0.432403
Si Si8 0.723136 0.590634 0.598693
O O1 0.999846 0.775673 0.179670
O O2 0.948095 0.035586 0.375383
O O3 0.000000 0.000000 0.500000
O O4 0.294683 0.016601 0.077082
O O5 0.189183 0.741793 0.634307
O O6 0.097520 0.459932 0.569439
O O7 0.000000 0.500000 0.500000
O O8 0.831953 0.616557 0.948349
O O9 0.500000 0.000000 0.500000
O O10 0.265103 0.009497 0.891965
O O11 0.161614 0.964767 0.732017
O O12 0.614259 0.101747 0.705096
O O13 0.347718 0.273861 0.147420
O O14 0.712300 0.575688 0.245152
O O15 0.773372 0.634983 0.456495
O O16 0.000000 0.500000 0.000000
O O17 0.317427 0.176070 0.619175
O O18 0.544067 0.444916 0.663794
#
# Coordination Sequence:
#
# PCOD9044317 Si02
#       8
#     2   2   2   2   2   2   2   2
#     4  11  24  43  65  99 133 175 231 283 338 410
#     4  12  29  46  72 107 143 186 235 289 350 417
#     4  10  23  46  72  99 136 185 229 281 349 410
#     4  11  25  43  71  99 137 180 229 288 343 407
#     4  11  23  45  71  98 137 184 229 287 354 417
#     4  11  26  46  71 102 140 186 232 286 356 419
#     4  10  25  44  70  96 134 180 229 280 348 412
#     4  12  26  45  70 105 141 181 235 292 349 420
#
# _framework density 21.748944999999999
#
# number of rings (size 3 to 8) (size 9 to 14) (size 15 to 20)
#    0.000    1.000    2.500    3.375    8.750    3.000 
#    0.000    0.000    0.000    0.000    0.000    0.000 
#    0.000    0.000    0.000    0.000    0.000    0.000 
#
# Total GULP energy -89400.649534 kJ/mol
# GULP energy per Si atom -5587.540596 kJ/mol
# Density = 2.169944 g / cm^3
# Si number density = 21.748945 Si / 1000 Ang^3
#
#
#
# Elastic Constant Matrix: (Units=GPa)
#
#
# Indices 1 2 3 4 5 6 
#
# 1 95.8153 -2.4401 18.0898 6.8391 13.4196 -17.6900
# 2 -2.4401 49.9936 0.3177 3.1169 -1.5765 -6.5493
# 3 18.0898 0.3177 85.3547 1.5377 11.5113 -5.0907
# 4 6.8391 3.1169 1.5377 39.0009 -2.7482 2.6479
# 5 13.4196 -1.5765 11.5113 -2.7482 35.9273 3.2111
# 6 -17.6900 -6.5493 -5.0907 2.6479 3.2111 29.6600
#
#
#
# Elastic Compliance Matrix: (Units=1/GPa)
#
#
# Indices 1 2 3 4 5 6 
#
# 1 0.013476 0.001902 -0.001510 -0.003465 -0.005545 0.009108
# 2 0.001902 0.021025 -0.000007 -0.002461 -0.000515 0.006051
# 3 -0.001510 -0.000007 0.012647 -0.000610 -0.003689 0.001723
# 4 -0.003465 -0.002461 -0.000610 0.027125 0.003954 -0.005564
# 5 -0.005545 -0.000515 -0.003689 0.003954 0.032072 -0.007879
# 6 0.009108 0.006051 0.001723 -0.005564 -0.007879 0.042129
#
#
# Mechanical properties :
#
#
# Convention : Reuss Voigt Hill
#
# Bulk Modulus (GPa) = 20.86863 29.23315 25.05089
# Shear Modulus (GPa) = 30.54817 35.26406 32.90611
#
# Velocity S-wave (km/s) = 3.75184 4.03105 3.89395
# Velocity P-wave (km/s) = 5.32771 5.92758 5.63563
#
# Compressibility (1/GPa) = 0.04791881
#
# Stress axis : x y z
#
# Youngs Moduli (GPa) = 74.20786 47.56170 79.06962
#
# Poissons Ratio (x) = -0.09044 0.11936
# Poissons Ratio (y) = -0.14111 0.00053
# Poissons Ratio (z) = 0.11202 0.00032
#
# Static dielectric constant tensor:
#      x y z
#    x 1.801890 0.049880 -0.031300 
#    y 0.049880 1.821230 0.035540 
#    z -0.031300 0.035540 1.684540 
# 
# From -- ./inp_files/455047.got.cif
#   From: 2010.05.17/outbox.cif.g08.bks.cpg/sg2_228_cif.got.tgz:455047.got - 2010.06.03 11:33:40.
