data_PCOD9044587
_publ_section_title
;
Structure prediction by ZEFSAII (Michael W. Deem and Ramdas Pophale) SiO2 
 PCOD9044587
Probable space group: P -1
;
_chemical_formula_sum "Si O2"
_cell_formula_units_Z 14
_cell_length_a 9.609118
_cell_length_b 4.997407
_cell_length_c 14.130521
_cell_angle_alpha 101.780758
_cell_angle_beta 57.034609
_cell_angle_gamma 99.910284
_cell_volume 555.777291
_symmetry_space_group_name_H-M "P -1"
_symmetry_group_IT_number 2
_symmetry_cell_setting 'triclinic'
loop_
_space_group_symop_operation_xyz
x,y,z
-x,-y,-z
loop_
_atom_site_type_symbol
_atom_site_label
_atom_site_fract_x
_atom_site_fract_y
_atom_site_fract_z
Si Si1 0.001940 0.250490 0.877871
Si Si2 0.071817 0.822464 0.669594
Si Si3 0.500000 0.500000 0.000000
Si Si4 0.191541 0.233395 0.981441
Si Si5 0.760367 0.397806 0.750863
Si Si6 0.000000 0.000000 0.500000
Si Si7 0.437986 0.776563 0.583298
Si Si8 0.305950 0.195918 0.349242
O O1 0.942660 0.554204 0.920503
O O2 0.866563 0.062340 0.975930
O O3 0.015343 0.092910 0.763835
O O4 0.170921 0.240270 0.876208
O O5 0.086162 0.892370 0.559285
O O6 0.240343 0.755820 0.653669
O O7 0.927965 0.582609 0.717340
O O8 0.368829 0.330154 0.964547
O O9 0.343750 0.645037 0.118634
O O10 0.659017 0.598904 0.735703
O O11 0.781067 0.107323 0.671400
O O12 0.857848 0.722525 0.531008
O O13 0.500000 0.500000 0.500000
O O14 0.532376 0.834822 0.651471
O O15 0.500000 0.000000 0.500000
#
# Coordination Sequence:
#
# PCOD9044587 Si02
#       8
#     2   2   1   2   2   1   2   2
#     4  10  23  47  68 104 136 196 237 299 364 439
#     4  11  25  48  77 109 150 199 251 306 376 452
#     4  12  26  48  72 110 148 192 246 316 366 450
#     4  10  24  44  72  99 145 184 247 297 365 431
#     4  11  28  45  74 104 146 196 243 304 372 445
#     4  10  24  42  80  98 150 184 248 296 368 442
#     4  12  27  48  75 108 147 196 247 313 367 440
#     4  11  26  49  69 110 142 195 245 305 373 440
#
# _framework density 25.189945999999999
#
# number of rings (size 3 to 8) (size 9 to 14) (size 15 to 20)
#    0.000    1.143    2.857    0.857    8.000    4.571 
#    5.143    0.000    0.000    0.000    0.000    0.000 
#    0.000    0.000    0.000    0.000    0.000    0.000 
#
# Total GULP energy -77969.612047 kJ/mol
# GULP energy per Si atom -5569.258003 kJ/mol
# Density = 2.513261 g / cm^3
# Si number density = 25.189946 Si / 1000 Ang^3
#
#
#
# Elastic Constant Matrix: (Units=GPa)
#
#
# Indices 1 2 3 4 5 6 
#
# 1 189.8399 32.1602 11.5150 1.8331 10.7775 42.6887
# 2 32.1602 123.5587 16.9166 27.4264 6.3608 -3.0261
# 3 11.5150 16.9166 46.8368 17.8251 -0.3106 -3.9502
# 4 1.8331 27.4264 17.8251 23.9936 1.7357 -0.9395
# 5 10.7775 6.3608 -0.3106 1.7357 43.8709 -2.4082
# 6 42.6887 -3.0261 -3.9502 -0.9395 -2.4082 43.8410
#
#
#
# Elastic Compliance Matrix: (Units=1/GPa)
#
#
# Indices 1 2 3 4 5 6 
#
# 1 0.007870 -0.002768 -0.003562 0.005048 -0.002207 -0.008189
# 2 -0.002768 0.011921 0.002381 -0.015033 -0.000250 0.003397
# 3 -0.003562 0.002381 0.031775 -0.025972 0.002115 0.006055
# 4 0.005048 -0.015033 -0.025972 0.077699 -0.002691 -0.006776
# 5 -0.002207 -0.000250 0.002115 -0.002691 0.023690 0.003565
# 6 -0.008189 0.003397 0.006055 -0.006776 0.003565 0.031614
#
#
# Mechanical properties :
#
#
# Convention : Reuss Voigt Hill
#
# Bulk Modulus (GPa) = 22.89976 53.49100 38.19538
# Shear Modulus (GPa) = 24.15185 42.31732 33.23458
#
# Velocity S-wave (km/s) = 3.09979 4.10314 3.63624
# Velocity P-wave (km/s) = 4.68211 6.61278 5.72935
#
# Compressibility (1/GPa) = 0.04366858
#
# Stress axis : x y z
#
# Youngs Moduli (GPa) = 127.05687 83.88724 31.47099
#
# Poissons Ratio (x) = 0.23224 0.11208
# Poissons Ratio (y) = 0.35175 -0.07493
# Poissons Ratio (z) = 0.45252 -0.19973
#
# Static dielectric constant tensor:
#      x y z
#    x 1.947970 0.024160 0.308700 
#    y 0.024160 1.963230 -0.063200 
#    z 0.308700 -0.063200 1.621510 
# 
# From -- ./inp_files/488619.got.cif
#   From: 2010.05.17/outbox.cif.g08.bks.cpg/sg2_245_cif.got.tgz:488619.got - 2010.06.03 11:33:40.
