data_PCOD9044253
_publ_section_title
;
Structure prediction by ZEFSAII (Michael W. Deem and Ramdas Pophale) SiO2 
 PCOD9044253
Probable space group: P -1
;
_chemical_formula_sum "Si O2"
_cell_formula_units_Z 16
_cell_length_a 12.012963
_cell_length_b 12.045534
_cell_length_c 6.860280
_cell_angle_alpha 50.770879
_cell_angle_beta 73.734710
_cell_angle_gamma 81.276108
_cell_volume 737.757814
_symmetry_space_group_name_H-M "P -1"
_symmetry_group_IT_number 2
_symmetry_cell_setting 'triclinic'
loop_
_space_group_symop_operation_xyz
x,y,z
-x,-y,-z
loop_
_atom_site_type_symbol
_atom_site_label
_atom_site_fract_x
_atom_site_fract_y
_atom_site_fract_z
Si Si1 0.694887 0.838761 0.805155
Si Si2 0.008515 0.700698 0.270548
Si Si3 0.755217 0.650555 0.634015
Si Si4 0.432225 0.362077 0.589405
Si Si5 0.896629 0.428654 0.005548
Si Si6 0.582193 0.111645 0.718613
Si Si7 0.817914 0.216311 0.601092
Si Si8 0.072287 0.069193 0.214052
O O1 0.704915 0.777337 0.650528
O O2 0.822947 0.837832 0.842139
O O3 0.648115 0.002293 0.661588
O O4 0.617573 0.733351 0.098613
O O5 0.881997 0.694806 0.436567
O O6 0.113428 0.689844 0.380501
O O7 0.006762 0.847962 0.986036
O O8 0.039033 0.592931 0.205556
O O9 0.671264 0.603177 0.549642
O O10 0.786785 0.525099 0.909435
O O11 0.500000 0.500000 0.500000
O O12 0.508638 0.250195 0.549759
O O13 0.850453 0.286628 0.298390
O O14 0.000000 0.500000 0.000000
O O15 0.682100 0.188071 0.716267
O O16 0.500000 0.000000 0.000000
O O17 0.869199 0.061178 0.774598
O O18 0.000000 0.000000 0.500000
#
# Coordination Sequence:
#
# PCOD9044253 Si02
#       8
#     2   2   2   2   2   2   2   2
#     4  10  23  46  71  98 141 179 233 295 344 417
#     4  12  24  42  70 102 139 185 226 285 364 424
#     4  12  26  42  74 103 139 191 230 282 365 415
#     4  11  26  46  74 100 139 185 241 296 341 414
#     4  12  26  42  65 105 149 180 224 290 353 428
#     4   9  23  49  70  96 137 187 232 296 345 395
#     4  11  24  41  70 100 138 180 233 287 348 418
#     4  11  20  42  67 101 140 176 224 285 350 418
#
# _framework density 21.687334
#
# number of rings (size 3 to 8) (size 9 to 14) (size 15 to 20)
#    0.000    1.000    3.750    2.250    3.500    1.000 
#    0.000    0.000    0.000    0.000    0.000    0.000 
#    0.000    0.000    0.000    0.000    0.000    0.000 
#
# Total GULP energy -89256.535944 kJ/mol
# GULP energy per Si atom -5578.533496 kJ/mol
# Density = 2.163797 g / cm^3
# Si number density = 21.687334 Si / 1000 Ang^3
#
#
#
# Elastic Constant Matrix: (Units=GPa)
#
#
# Indices 1 2 3 4 5 6 
#
# 1 122.6287 53.2488 36.8812 1.3082 -2.8084 17.0896
# 2 53.2488 108.0712 32.8079 10.0585 7.6358 13.6310
# 3 36.8812 32.8079 72.7065 -1.1878 -1.1434 12.9638
# 4 1.3082 10.0585 -1.1878 39.5765 -0.6929 3.9605
# 5 -2.8084 7.6358 -1.1434 -0.6929 30.1624 -8.5691
# 6 17.0896 13.6310 12.9638 3.9605 -8.5691 44.8653
#
#
#
# Elastic Compliance Matrix: (Units=1/GPa)
#
#
# Indices 1 2 3 4 5 6 
#
# 1 0.011433 -0.004584 -0.003378 0.000890 0.001618 -0.001756
# 2 -0.004584 0.013451 -0.003530 -0.003262 -0.004583 -0.001908
# 3 -0.003378 -0.003530 0.017596 0.001825 0.000495 -0.002792
# 4 0.000890 -0.003262 0.001825 0.026341 0.001013 -0.002007
# 5 0.001618 -0.004583 0.000495 0.001013 0.036650 0.007543
# 6 -0.001756 -0.001908 -0.002792 -0.002007 0.007543 0.025962
#
#
# Mechanical properties :
#
#
# Convention : Reuss Voigt Hill
#
# Bulk Modulus (GPa) = 51.29009 61.03134 56.16072
# Shear Modulus (GPa) = 31.07226 34.95206 33.01216
#
# Velocity S-wave (km/s) = 3.78926 4.01887 3.90575
# Velocity P-wave (km/s) = 6.54567 7.05249 6.80380
#
# Compressibility (1/GPa) = 0.01949694
#
# Stress axis : x y z
#
# Youngs Moduli (GPa) = 87.46377 74.34252 56.83186
#
# Poissons Ratio (x) = 0.34075 0.19200
# Poissons Ratio (y) = 0.40089 0.20060
# Poissons Ratio (z) = 0.29549 0.26241
#
# Static dielectric constant tensor:
#      x y z
#    x 1.974000 -0.111450 0.145370 
#    y -0.111450 1.960830 -0.129420 
#    z 0.145370 -0.129420 1.927700 
# 
# From -- ./inp_files/68456.got.cif
#   From: 2010.05.17/outbox.cif.g08.bks.cpg/sg2_35_cif.got.tgz:68456.got - 2010.06.03 11:33:40.
