data_PCOD9044067
_publ_section_title
;
Structure prediction by ZEFSAII (Michael W. Deem and Ramdas Pophale) SiO2 
 PCOD9044067
Probable space group: P -1
;
_chemical_formula_sum "Si O2"
_cell_formula_units_Z 12
_cell_length_a 9.515767
_cell_length_b 12.008618
_cell_length_c 4.984725
_cell_angle_alpha 101.566079
_cell_angle_beta 118.578533
_cell_angle_gamma 64.385693
_cell_volume 451.037825
_symmetry_space_group_name_H-M "P -1"
_symmetry_group_IT_number 2
_symmetry_cell_setting 'triclinic'
loop_
_space_group_symop_operation_xyz
x,y,z
-x,-y,-z
loop_
_atom_site_type_symbol
_atom_site_label
_atom_site_fract_x
_atom_site_fract_y
_atom_site_fract_z
Si Si1 0.731841 0.433805 0.390408
Si Si2 0.036925 0.220606 0.324121
Si Si3 0.721244 0.151851 0.825951
Si Si4 0.686395 0.007526 0.219169
Si Si5 0.171016 0.375616 0.136306
Si Si6 0.450022 0.359323 0.036721
O O1 0.720080 0.556627 0.582332
O O2 0.660015 0.495840 0.066729
O O3 0.922738 0.332060 0.472465
O O4 0.607999 0.370584 0.357631
O O5 0.170910 0.112097 0.569683
O O6 0.128605 0.278221 0.224322
O O7 0.893497 0.181443 0.025005
O O8 0.560765 0.264619 0.864160
O O9 0.676500 0.113778 0.476588
O O10 0.747217 0.039955 0.004730
O O11 0.500000 0.000000 0.000000
O O12 0.301218 0.316147 0.983070
O O13 0.000000 0.500000 0.000000
#
# Coordination Sequence:
#
# PCOD9044067 Si02
#       6
#     2   2   2   2   2   2
#     4  10  23  46  69 109 153 202 258 316 394 459
#     4  11  26  50  78 117 161 208 267 326 402 472
#     4  11  28  53  82 115 159 212 265 329 399 475
#     4  12  29  53  82 120 153 209 272 334 395 469
#     4  12  25  42  74 114 158 208 257 324 393 475
#     4  10  24  45  74 108 153 202 259 317 392 466
#
# _framework density 26.605311
#
# number of rings (size 3 to 8) (size 9 to 14) (size 15 to 20)
#    0.000    1.000    1.667    2.500    4.667    5.333 
#    0.000    0.000    0.000    0.000    0.000    0.000 
#    0.000    0.000    0.000    0.000    0.000    0.000 
#
# Total GULP energy -67234.183540 kJ/mol
# GULP energy per Si atom -5602.848628 kJ/mol
# Density = 2.654476 g / cm^3
# Si number density = 26.605311 Si / 1000 Ang^3
#
#
#
# Elastic Constant Matrix: (Units=GPa)
#
#
# Indices 1 2 3 4 5 6 
#
# 1 201.4043 61.9969 38.5629 -12.8985 22.0193 16.2645
# 2 61.9969 145.9563 36.9860 -22.5056 20.7699 2.1007
# 3 38.5629 36.9860 114.5298 6.2402 16.7437 2.5001
# 4 -12.8985 -22.5056 6.2402 59.3914 -2.4365 5.6700
# 5 22.0193 20.7699 16.7437 -2.4365 37.1806 -7.5137
# 6 16.2645 2.1007 2.5001 5.6700 -7.5137 53.4407
#
#
#
# Elastic Compliance Matrix: (Units=1/GPa)
#
#
# Indices 1 2 3 4 5 6 
#
# 1 0.006268 -0.001838 -0.001142 0.000893 -0.002565 -0.002237
# 2 -0.001838 0.009063 -0.002041 0.003172 -0.002938 -0.000451
# 3 -0.001142 -0.002041 0.010345 -0.002209 -0.003037 -0.000249
# 4 0.000893 0.003172 -0.002209 0.018667 -0.000558 -0.002352
# 5 -0.002565 -0.002938 -0.003037 -0.000558 0.032533 0.005671
# 6 -0.002237 -0.000451 -0.000249 -0.002352 0.005671 0.020470
#
#
# Mechanical properties :
#
#
# Convention : Reuss Voigt Hill
#
# Bulk Modulus (GPa) = 63.96575 81.88690 72.92632
# Shear Modulus (GPa) = 44.40521 51.62551 48.01536
#
# Velocity S-wave (km/s) = 4.08982 4.40980 4.25282
# Velocity P-wave (km/s) = 6.81152 7.53483 7.18229
#
# Compressibility (1/GPa) = 0.01563337
#
# Stress axis : x y z
#
# Youngs Moduli (GPa) = 159.54526 110.33642 96.66676
#
# Poissons Ratio (x) = 0.20282 0.11036
# Poissons Ratio (y) = 0.29327 0.19733
# Poissons Ratio (z) = 0.18215 0.22524
#
# Static dielectric constant tensor:
#      x y z
#    x 2.131330 0.058070 -0.137400 
#    y 0.058070 2.090700 -0.042100 
#    z -0.137400 -0.042100 2.416670 
# 
# From -- ./inp_files/28584.got.cif
#   From: 2010.05.17/outbox.cif.g08.bks.cpg/sg2_15_cif.got.tgz:28584.got - 2010.06.03 11:33:40.
