data_PCOD9044174
_publ_section_title
;
Structure prediction by ZEFSAII (Michael W. Deem and Ramdas Pophale) SiO2 
 PCOD9044174
Probable space group: P -1
;
_chemical_formula_sum "Si O2"
_cell_formula_units_Z 14
_cell_length_a 8.865140
_cell_length_b 5.343840
_cell_length_c 17.245989
_cell_angle_alpha 63.496725
_cell_angle_beta 126.547569
_cell_angle_gamma 114.005948
_cell_volume 575.955179
_symmetry_space_group_name_H-M "P -1"
_symmetry_group_IT_number 2
_symmetry_cell_setting 'triclinic'
loop_
_space_group_symop_operation_xyz
x,y,z
-x,-y,-z
loop_
_atom_site_type_symbol
_atom_site_label
_atom_site_fract_x
_atom_site_fract_y
_atom_site_fract_z
Si Si1 0.835759 0.232436 0.970722
Si Si2 0.051969 0.817834 0.157714
Si Si3 0.431382 0.215444 0.888635
Si Si4 0.217886 0.706480 0.792287
Si Si5 0.814884 0.142571 0.415980
Si Si6 0.605722 0.269198 0.638880
Si Si7 0.610118 0.311476 0.463966
O O1 0.855126 0.120354 0.906109
O O2 0.635726 0.330347 0.896199
O O3 0.000000 0.500000 0.000000
O O4 0.882630 0.997483 0.079010
O O5 0.225490 0.882252 0.261684
O O6 0.958476 0.485874 0.189146
O O7 0.367534 0.491701 0.866498
O O8 0.294150 0.012044 0.813510
O O9 0.500000 0.000000 0.000000
O O10 0.173621 0.734353 0.684090
O O11 0.783253 0.338062 0.453273
O O12 0.603052 0.937117 0.387935
O O13 0.000000 0.000000 0.500000
O O14 0.673242 0.415377 0.556071
O O15 0.556336 0.529937 0.638166
O O16 0.500000 0.000000 0.500000
#
# Coordination Sequence:
#
# PCOD9044174 Si02
#       7
#     2   2   2   2   2   2   2
#     4  11  26  44  73 104 145 195 243 304 363 446
#     4  11  26  44  69 106 142 192 249 297 371 448
#     4  12  26  51  75 107 155 192 251 308 373 436
#     4  12  29  47  76 112 148 204 244 309 379 440
#     4  11  27  46  69 107 147 193 252 308 374 442
#     4  10  23  46  70  99 142 190 244 301 376 440
#     4   9  22  43  70  97 133 190 234 308 364 436
#
# _framework density 24.307448999999998
#
# number of rings (size 3 to 8) (size 9 to 14) (size 15 to 20)
#    0.000    1.143    1.429    2.143   16.000    2.857 
#    0.000    0.000    0.000    0.000    0.000    0.000 
#    0.000    0.000    0.000    0.000    0.000    0.000 
#
# Total GULP energy -78053.586650 kJ/mol
# GULP energy per Si atom -5575.256189 kJ/mol
# Density = 2.425212 g / cm^3
# Si number density = 24.307449 Si / 1000 Ang^3
#
#
#
# Elastic Constant Matrix: (Units=GPa)
#
#
# Indices 1 2 3 4 5 6 
#
# 1 92.6401 -12.4336 28.2576 14.1435 2.9234 -12.3336
# 2 -12.4336 59.7612 -11.1040 7.5063 3.2615 14.3196
# 3 28.2576 -11.1040 109.4402 -7.7124 -7.3869 2.5087
# 4 14.1435 7.5063 -7.7124 25.3926 7.3732 1.8961
# 5 2.9234 3.2615 -7.3869 7.3732 37.7354 5.1194
# 6 -12.3336 14.3196 2.5087 1.8961 5.1194 37.4882
#
#
#
# Elastic Compliance Matrix: (Units=1/GPa)
#
#
# Indices 1 2 3 4 5 6 
#
# 1 0.014744 0.002425 -0.004463 -0.010400 -0.000853 0.004865
# 2 0.002425 0.019813 0.001108 -0.006520 0.000483 -0.006581
# 3 -0.004463 0.001108 0.010962 0.005197 0.001806 -0.003135
# 4 -0.010400 -0.006520 0.005197 0.050981 -0.007184 -0.002876
# 5 -0.000853 0.000483 0.001806 -0.007184 0.028847 -0.004162
# 6 0.004865 -0.006581 -0.003135 -0.002876 -0.004162 0.031713
#
#
# Mechanical properties :
#
#
# Convention : Reuss Voigt Hill
#
# Bulk Modulus (GPa) = 22.90423 30.14239 26.52331
# Shear Modulus (GPa) = 28.82310 37.26470 33.04390
#
# Velocity S-wave (km/s) = 3.44724 3.91967 3.69102
# Velocity P-wave (km/s) = 5.02870 5.73694 5.39446
#
# Compressibility (1/GPa) = 0.04366005
#
# Stress axis : x y z
#
# Youngs Moduli (GPa) = 67.82547 50.47160 91.22320
#
# Poissons Ratio (x) = -0.12241 0.40711
# Poissons Ratio (y) = -0.16450 -0.10108
# Poissons Ratio (z) = 0.30269 -0.05592
#
# Static dielectric constant tensor:
#      x y z
#    x 2.185110 -0.081630 -0.017110 
#    y -0.081630 2.187940 0.091590 
#    z -0.017110 0.091590 2.068200 
# 
# From -- ./inp_files/107423.got.cif
#   From: 2010.05.17/outbox.cif.g08.bks.cpg/sg2_54_cif.got.tgz:107423.got - 2010.06.03 11:33:40.
