data_PCOD9044234
_publ_section_title
;
Structure prediction by ZEFSAII (Michael W. Deem and Ramdas Pophale) SiO2 
 PCOD9044234
Probable space group: P -1
;
_chemical_formula_sum "Si O2"
_cell_formula_units_Z 14
_cell_length_a 20.749251
_cell_length_b 8.390085
_cell_length_c 18.533409
_cell_angle_alpha 42.929569
_cell_angle_beta 160.353616
_cell_angle_gamma 147.512059
_cell_volume 546.994871
_symmetry_space_group_name_H-M "P -1"
_symmetry_group_IT_number 2
_symmetry_cell_setting 'triclinic'
loop_
_space_group_symop_operation_xyz
x,y,z
-x,-y,-z
loop_
_atom_site_type_symbol
_atom_site_label
_atom_site_fract_x
_atom_site_fract_y
_atom_site_fract_z
Si Si1 0.064053 0.949316 0.331312
Si Si2 0.255083 0.642214 0.673639
Si Si3 0.366093 0.324216 0.668435
Si Si4 0.769590 0.490115 0.778072
Si Si5 0.629719 0.140157 0.511976
Si Si6 0.149429 0.364698 0.021586
Si Si7 0.452838 0.338925 0.907535
O O1 0.155329 0.117756 0.451198
O O2 0.147237 0.204228 0.274986
O O3 0.218727 0.832940 0.519929
O O4 0.752383 0.663034 0.099507
O O5 0.293858 0.427300 0.744526
O O6 0.000000 0.500000 0.500000
O O7 0.494549 0.818531 0.924584
O O8 0.408920 0.630368 0.632295
O O9 0.329211 0.163792 0.758925
O O10 0.629092 0.472238 0.857073
O O11 0.510476 0.174935 0.575765
O O12 0.745859 0.484862 0.839894
O O13 0.000000 0.500000 0.000000
O O14 0.932648 0.360518 0.767142
O O15 0.500000 0.000000 0.500000
O O16 0.000000 0.000000 0.000000
#
# Coordination Sequence:
#
# PCOD9044234 Si02
#       7
#     2   2   2   2   2   2   2
#     4  11  23  41  66  99 128 168 226 260 323 390
#     4   9  22  47  71  97 125 162 214 270 336 402
#     4  12  26  41  63  99 130 172 219 267 320 386
#     4  12  23  40  65  91 136 187 217 268 319 370
#     4  12  23  44  58  89 137 175 225 268 312 378
#     4  12  24  40  61  91 134 176 225 265 311 379
#     4  10  23  46  71  92 132 166 204 278 340 387
#
# _framework density 25.594389
#
# number of rings (size 3 to 8) (size 9 to 14) (size 15 to 20)
#    0.000    0.857    4.286    1.714    0.000   10.857 
#    0.000    6.429    0.000    0.000    0.000    0.000 
#    0.000    0.000    0.000    0.000    0.000    0.000 
#
# Total GULP energy -78435.652668 kJ/mol
# GULP energy per Si atom -5602.546619 kJ/mol
# Density = 2.553614 g / cm^3
# Si number density = 25.594389 Si / 1000 Ang^3
#
#
#
# Elastic Constant Matrix: (Units=GPa)
#
#
# Indices 1 2 3 4 5 6 
#
# 1 132.4548 5.0304 65.6470 -6.7678 6.4782 -3.2907
# 2 5.0304 66.1461 43.0804 -15.7872 27.2083 2.1077
# 3 65.6470 43.0804 164.3162 -21.2758 9.8827 -1.0268
# 4 -6.7678 -15.7872 -21.2758 61.1206 -9.9644 -2.2951
# 5 6.4782 27.2083 9.8827 -9.9644 43.7497 -0.5836
# 6 -3.2907 2.1077 -1.0268 -2.2951 -0.5836 28.4738
#
#
#
# Elastic Compliance Matrix: (Units=1/GPa)
#
#
# Indices 1 2 3 4 5 6 
#
# 1 0.009863 0.003241 -0.004647 -0.000059 -0.002430 0.000678
# 2 0.003241 0.025996 -0.006959 0.002198 -0.014600 -0.001923
# 3 -0.004647 -0.006959 0.009791 0.001635 0.003184 0.000528
# 4 -0.000059 0.002198 0.001635 0.017931 0.002375 0.001383
# 5 -0.002430 -0.014600 0.003184 0.002375 0.032142 0.001765
# 6 0.000678 -0.001923 0.000528 0.001383 0.001765 0.035507
#
#
# Mechanical properties :
#
#
# Convention : Reuss Voigt Hill
#
# Bulk Modulus (GPa) = 34.58216 65.60363 50.09289
# Shear Modulus (GPa) = 31.72601 43.27943 37.50272
#
# Velocity S-wave (km/s) = 3.52457 4.11661 3.83204
# Velocity P-wave (km/s) = 5.48675 6.94859 6.26049
#
# Compressibility (1/GPa) = 0.02891664
#
# Stress axis : x y z
#
# Youngs Moduli (GPa) = 101.39352 38.46809 102.13937
#
# Poissons Ratio (x) = -0.12466 0.47466
# Poissons Ratio (y) = -0.32857 0.71083
# Poissons Ratio (z) = 0.47119 0.26772
#
# Static dielectric constant tensor:
#      x y z
#    x 2.220780 -0.137280 0.002180 
#    y -0.137280 2.211980 -0.053140 
#    z 0.002180 -0.053140 2.033200 
# 
# From -- ./inp_files/577277.got.cif
#   From: 2010.05.17/outbox.cif.g08.bks.cpg/sg2_289_cif.got.tgz:577277.got - 2010.06.03 11:33:40.
