data_PCOD9044479
_publ_section_title
;
Structure prediction by ZEFSAII (Michael W. Deem and Ramdas Pophale) SiO2 
 PCOD9044479
Probable space group: P -1
;
_chemical_formula_sum "Si O2"
_cell_formula_units_Z 16
_cell_length_a 13.881422
_cell_length_b 7.993054
_cell_length_c 11.023755
_cell_angle_alpha 138.449011
_cell_angle_beta 62.492435
_cell_angle_gamma 97.148862
_cell_volume 666.775090
_symmetry_space_group_name_H-M "P -1"
_symmetry_group_IT_number 2
_symmetry_cell_setting 'triclinic'
loop_
_space_group_symop_operation_xyz
x,y,z
-x,-y,-z
loop_
_atom_site_type_symbol
_atom_site_label
_atom_site_fract_x
_atom_site_fract_y
_atom_site_fract_z
Si Si1 0.203813 0.464891 0.042201
Si Si2 0.014156 0.275264 0.100874
Si Si3 0.981992 0.121949 0.785102
Si Si4 0.769536 0.332027 0.615987
Si Si5 0.617086 0.978205 0.764312
Si Si6 0.144598 0.272789 0.378910
Si Si7 0.399186 0.212534 0.592954
Si Si8 0.542872 0.553236 0.728494
O O1 0.148195 0.251507 0.005751
O O2 0.088483 0.717677 0.202471
O O3 0.264202 0.557548 0.168372
O O4 0.287507 0.354083 0.819683
O O5 0.939874 0.517288 0.362459
O O6 0.966547 0.320126 0.015280
O O7 0.000000 0.000000 0.000000
O O8 0.923331 0.903712 0.733002
O O9 0.119678 0.950439 0.595172
O O10 0.814578 0.551029 0.644083
O O11 0.662563 0.335329 0.596374
O O12 0.741931 0.925829 0.723800
O O13 0.625058 0.924334 0.587882
O O14 0.575852 0.751380 0.727127
O O15 0.525760 0.265852 0.019160
O O16 0.457215 0.432316 0.647934
O O17 0.500000 0.000000 0.500000
#
# Coordination Sequence:
#
# PCOD9044479 Si02
#       8
#     2   2   2   2   2   2   2   2
#     4  12  27  44  66 103 140 180 225 280 348 405
#     4  12  25  44  68  98 135 179 231 274 335 414
#     4  12  24  43  68  99 141 176 219 286 337 404
#     4  11  23  43  70  98 138 182 223 277 338 406
#     4  10  23  46  76  98 135 177 231 284 329 402
#     4  11  23  44  72 101 131 181 231 278 342 397
#     4  12  27  45  69 101 139 179 222 284 344 403
#     4  10  24  47  71 102 130 181 234 278 333 398
#
# _framework density 23.996099000000001
#
# number of rings (size 3 to 8) (size 9 to 14) (size 15 to 20)
#    0.000    0.750    2.500    4.500    1.750    3.000 
#    0.000    6.250    0.000    0.000    0.000    0.000 
#    0.000    0.000    0.000    0.000    0.000    0.000 
#
# Total GULP energy -89710.117299 kJ/mol
# GULP energy per Si atom -5606.882331 kJ/mol
# Density = 2.394148 g / cm^3
# Si number density = 23.996099 Si / 1000 Ang^3
#
#
#
# Elastic Constant Matrix: (Units=GPa)
#
#
# Indices 1 2 3 4 5 6 
#
# 1 93.3974 3.8654 35.6545 -2.9803 -8.0523 -3.6993
# 2 3.8654 61.2358 9.5238 -5.9653 -6.5228 1.8795
# 3 35.6545 9.5238 99.6741 -18.0496 -2.3509 -14.1476
# 4 -2.9803 -5.9653 -18.0496 35.2319 -8.1698 4.3627
# 5 -8.0523 -6.5228 -2.3509 -8.1698 48.6263 -0.5767
# 6 -3.6993 1.8795 -14.1476 4.3627 -0.5767 49.0099
#
#
#
# Elastic Compliance Matrix: (Units=1/GPa)
#
#
# Indices 1 2 3 4 5 6 
#
# 1 0.012597 0.000037 -0.004672 -0.000888 0.001712 -0.000300
# 2 0.000037 0.017147 -0.001205 0.003081 0.002751 -0.001245
# 3 -0.004672 -0.001205 0.013361 0.006049 0.000763 0.003021
# 4 -0.000888 0.003081 0.006049 0.033528 0.006176 -0.001351
# 5 0.001712 0.002751 0.000763 0.006176 0.022291 -0.000044
# 6 -0.000300 -0.001245 0.003021 -0.001351 -0.000044 0.021421
#
#
# Mechanical properties :
#
#
# Convention : Reuss Voigt Hill
#
# Bulk Modulus (GPa) = 31.82444 39.15500 35.48972
# Shear Modulus (GPa) = 35.08737 40.25787 37.67262
#
# Velocity S-wave (km/s) = 3.82804 4.10040 3.96656
# Velocity P-wave (km/s) = 5.72971 6.22658 5.98331
#
# Compressibility (1/GPa) = 0.03142239
#
# Stress axis : x y z
#
# Youngs Moduli (GPa) = 79.38707 58.32000 74.84273
#
# Poissons Ratio (x) = -0.00214 0.34970
# Poissons Ratio (y) = -0.00291 0.09021
# Poissons Ratio (z) = 0.37093 0.07030
#
# Static dielectric constant tensor:
#      x y z
#    x 1.896030 0.028260 -0.000440 
#    y 0.028260 1.991760 0.024400 
#    z -0.000440 0.024400 1.863680 
# 
# From -- ./inp_files/448313.got.cif
#   From: 2010.05.17/outbox.cif.g08.bks.cpg/sg2_225_cif.got.tgz:448313.got - 2010.06.03 11:33:40.
