data_PCOD9044788
_publ_section_title
;
Structure prediction by ZEFSAII (Michael W. Deem and Ramdas Pophale) SiO2 
 PCOD9044788
Probable space group: P -1
;
_chemical_formula_sum "Si O2"
_cell_formula_units_Z 12
_cell_length_a 7.784459
_cell_length_b 9.220940
_cell_length_c 9.168459
_cell_angle_alpha 80.358233
_cell_angle_beta 46.922242
_cell_angle_gamma 66.905227
_cell_volume 437.212041
_symmetry_space_group_name_H-M "P -1"
_symmetry_group_IT_number 2
_symmetry_cell_setting 'triclinic'
loop_
_space_group_symop_operation_xyz
x,y,z
-x,-y,-z
loop_
_atom_site_type_symbol
_atom_site_label
_atom_site_fract_x
_atom_site_fract_y
_atom_site_fract_z
Si Si1 0.309928 0.951343 0.409009
Si Si2 0.770656 0.593600 0.400114
Si Si3 0.626759 0.320559 0.156622
Si Si4 0.139556 0.109845 0.761522
Si Si5 0.176173 0.262418 0.260538
Si Si6 0.641700 0.647115 0.136723
O O1 0.159289 0.985950 0.643239
O O2 0.187996 0.096987 0.344930
O O3 0.592707 0.943912 0.297668
O O4 0.376628 0.784981 0.316058
O O5 0.486166 0.655890 0.618109
O O6 0.873043 0.732114 0.348604
O O7 0.776890 0.585764 0.223196
O O8 0.930989 0.423385 0.403031
O O9 0.414570 0.290076 0.190035
O O10 0.636191 0.491729 0.087070
O O11 0.892850 0.176592 0.994855
O O12 0.225248 0.265850 0.058679
#
# Coordination Sequence:
#
# PCOD9044788 Si02
#       6
#     2   2   2   2   2   2
#     4  10  24  46  70 103 146 181 224 294 355 401
#     4  11  24  46  75 100 140 185 236 281 345 415
#     4  12  25  44  79 103 131 189 245 276 338 425
#     4  10  23  47  73  98 142 186 230 281 353 414
#     4  12  24  44  75 105 139 184 234 286 348 412
#     4  11  25  46  69 107 141 181 232 291 347 406
#
# _framework density 27.446636000000002
#
# number of rings (size 3 to 8) (size 9 to 14) (size 15 to 20)
#    0.000    1.000    3.333    2.500    2.333    0.667 
#    0.000    3.333    0.000    0.000    0.000    0.000 
#    0.000    0.000    0.000    0.000    0.000    0.000 
#
# Total GULP energy -67310.020327 kJ/mol
# GULP energy per Si atom -5609.168361 kJ/mol
# Density = 2.738417 g / cm^3
# Si number density = 27.446636 Si / 1000 Ang^3
#
#
#
# Elastic Constant Matrix: (Units=GPa)
#
#
# Indices 1 2 3 4 5 6 
#
# 1 83.4328 33.2391 32.5304 15.1511 -2.5918 -10.5479
# 2 33.2391 186.4925 46.3732 34.5920 0.3712 -29.3840
# 3 32.5304 46.3732 206.8106 29.8115 1.7293 -22.6708
# 4 15.1511 34.5920 29.8115 56.5753 -4.4346 3.7449
# 5 -2.5918 0.3712 1.7293 -4.4346 34.0847 2.8065
# 6 -10.5479 -29.3840 -22.6708 3.7449 2.8065 34.9729
#
#
#
# Elastic Compliance Matrix: (Units=1/GPa)
#
#
# Indices 1 2 3 4 5 6 
#
# 1 0.013755 -0.001329 -0.001275 -0.002309 0.000627 0.002403
# 2 -0.001329 0.007520 -0.000072 -0.004738 -0.001330 0.006485
# 3 -0.001275 -0.000072 0.005922 -0.003075 -0.001111 0.003812
# 4 -0.002309 -0.004738 -0.003075 0.023748 0.003906 -0.009526
# 5 0.000627 -0.001330 -0.001111 0.003906 0.030336 -0.004501
# 6 0.002403 0.006485 0.003812 -0.009526 -0.004501 0.038619
#
#
# Mechanical properties :
#
#
# Convention : Reuss Voigt Hill
#
# Bulk Modulus (GPa) = 45.77579 77.89124 61.83351
# Shear Modulus (GPa) = 37.72637 49.43280 43.57959
#
# Velocity S-wave (km/s) = 3.71149 4.24848 3.98904
# Velocity P-wave (km/s) = 5.92294 7.24617 6.61771
#
# Compressibility (1/GPa) = 0.02184561
#
# Stress axis : x y z
#
# Youngs Moduli (GPa) = 72.70267 132.97669 168.84948
#
# Poissons Ratio (x) = 0.17672 0.21520
# Poissons Ratio (y) = 0.09662 0.01221
# Poissons Ratio (z) = 0.09266 0.00962
#
# Static dielectric constant tensor:
#      x y z
#    x 2.168840 0.023280 -0.015560 
#    y 0.023280 2.125770 -0.008080 
#    z -0.015560 -0.008080 2.170410 
# 
# From -- ./inp_files/156435.got.cif
#   From: 2010.05.17/outbox.cif.g08.bks.cpg/sg2_79_cif.got.tgz:156435.got - 2010.06.03 11:33:40.
