data_PCOD9044862
_publ_section_title
;
Structure prediction by ZEFSAII (Michael W. Deem and Ramdas Pophale) SiO2 
 PCOD9044862
Probable space group: P -1
;
_chemical_formula_sum "Si O2"
_cell_formula_units_Z 10
_cell_length_a 24.981791
_cell_length_b 12.461364
_cell_length_c 5.793924
_cell_angle_alpha 46.931830
_cell_angle_beta 42.026890
_cell_angle_gamma 21.058189
_cell_volume 433.483841
_symmetry_space_group_name_H-M "P -1"
_symmetry_group_IT_number 2
_symmetry_cell_setting 'triclinic'
loop_
_space_group_symop_operation_xyz
x,y,z
-x,-y,-z
loop_
_atom_site_type_symbol
_atom_site_label
_atom_site_fract_x
_atom_site_fract_y
_atom_site_fract_z
Si Si1 0.170633 0.311560 0.169574
Si Si2 0.831139 0.187680 0.301212
Si Si3 0.055763 0.254618 0.086041
Si Si4 0.677908 0.198038 0.466664
Si Si5 0.595629 0.831907 0.189543
O O1 0.000000 0.500000 0.500000
O O2 0.292355 0.985600 0.182585
O O3 0.268711 0.255155 0.115339
O O4 0.101882 0.534967 0.871285
O O5 0.753871 0.226711 0.273222
O O6 0.694001 0.520532 0.336793
O O7 0.888573 0.962156 0.608447
O O8 0.000000 0.000000 0.000000
O O9 0.000000 0.500000 0.000000
O O10 0.214907 0.025660 0.761209
O O11 0.500000 0.500000 0.500000
O O12 0.500000 0.000000 0.500000
O O13 0.500000 0.000000 0.000000
#
# Coordination Sequence:
#
# PCOD9044862 Si02
#       5
#     2   2   2   2   2
#     4  10  23  47  76 107 152 208 260 318 390 480
#     4  12  28  48  78 110 152 205 264 321 393 474
#     4  11  25  46  77 110 148 204 262 320 388 475
#     4  11  25  45  73 108 150 194 264 322 390 462
#     4  12  31  53  78 118 168 207 259 337 410 463
#
# _framework density 23.068911
#
# number of rings (size 3 to 8) (size 9 to 14) (size 15 to 20)
#    0.000    0.800    2.000    3.600   11.200    4.000 
#    0.000    0.000    0.000    0.000    0.000    0.000 
#    0.000    0.000    0.000    0.000    0.000    0.000 
#
# Total GULP energy -55751.171854 kJ/mol
# GULP energy per Si atom -5575.117185 kJ/mol
# Density = 2.301640 g / cm^3
# Si number density = 23.068911 Si / 1000 Ang^3
#
#
#
# Elastic Constant Matrix: (Units=GPa)
#
#
# Indices 1 2 3 4 5 6 
#
# 1 181.5091 105.5263 56.0611 -2.3739 -13.2523 -18.8999
# 2 105.5263 244.2379 71.7347 -23.5321 6.6913 1.3351
# 3 56.0611 71.7347 92.3193 -17.1450 -0.4920 -2.8261
# 4 -2.3739 -23.5321 -17.1450 35.6709 4.4872 2.1604
# 5 -13.2523 6.6913 -0.4920 4.4872 36.1295 -3.3484
# 6 -18.8999 1.3351 -2.8261 2.1604 -3.3484 65.0470
#
#
#
# Elastic Compliance Matrix: (Units=1/GPa)
#
#
# Indices 1 2 3 4 5 6 
#
# 1 0.009251 -0.003504 -0.003556 -0.004189 0.004791 0.002991
# 2 -0.003504 0.006794 -0.002565 0.003507 -0.003158 -0.001548
# 3 -0.003556 -0.002565 0.016076 0.006009 -0.001408 -0.000554
# 4 -0.004189 0.003507 0.006009 0.033932 -0.006550 -0.002492
# 5 0.004791 -0.003158 -0.001408 -0.006550 0.031113 0.003215
# 6 0.002991 -0.001548 -0.000554 -0.002492 0.003215 0.016499
#
#
# Mechanical properties :
#
#
# Convention : Reuss Voigt Hill
#
# Bulk Modulus (GPa) = 77.68652 109.41229 93.54940
# Shear Modulus (GPa) = 36.44192 46.35242 41.39717
#
# Velocity S-wave (km/s) = 3.97885 4.48739 4.24075
# Velocity P-wave (km/s) = 7.40657 8.62440 8.03858
#
# Compressibility (1/GPa) = 0.01287225
#
# Stress axis : x y z
#
# Youngs Moduli (GPa) = 108.09242 147.17956 62.20619
#
# Poissons Ratio (x) = 0.51571 0.22121
# Poissons Ratio (y) = 0.37875 0.15953
# Poissons Ratio (z) = 0.38439 0.37744
#
# Static dielectric constant tensor:
#      x y z
#    x 1.897690 0.035150 0.220920 
#    y 0.035150 1.980060 -0.345880 
#    z 0.220920 -0.345880 2.492200 
# 
# From -- ./inp_files/123073.got.cif
#   From: 2010.05.17/outbox.cif.g08.bks.cpg/sg2_62_cif.got.tgz:123073.got - 2010.06.03 11:33:40.
