data_PCOD9044525
_publ_section_title
;
Structure prediction by ZEFSAII (Michael W. Deem and Ramdas Pophale) SiO2 
 PCOD9044525
Probable space group: P -1
;
_chemical_formula_sum "Si O2"
_cell_formula_units_Z 14
_cell_length_a 9.216655
_cell_length_b 12.394959
_cell_length_c 7.643700
_cell_angle_alpha 143.718152
_cell_angle_beta 90.402023
_cell_angle_gamma 98.309715
_cell_volume 499.801994
_symmetry_space_group_name_H-M "P -1"
_symmetry_group_IT_number 2
_symmetry_cell_setting 'triclinic'
loop_
_space_group_symop_operation_xyz
x,y,z
-x,-y,-z
loop_
_atom_site_type_symbol
_atom_site_label
_atom_site_fract_x
_atom_site_fract_y
_atom_site_fract_z
Si Si1 0.560664 0.292280 0.506563
Si Si2 0.788704 0.580116 0.097021
Si Si3 0.495063 0.922853 0.205094
Si Si4 0.679846 0.508811 0.380780
Si Si5 0.787268 0.059914 0.192561
Si Si6 0.931069 0.615175 0.792231
Si Si7 0.091013 0.046224 0.302490
O O1 0.454997 0.392513 0.529161
O O2 0.705535 0.221814 0.347899
O O3 0.459809 0.090194 0.306198
O O4 0.634424 0.436060 0.847655
O O5 0.790401 0.547522 0.262590
O O6 0.095537 0.445769 0.085804
O O7 0.799590 0.803826 0.377430
O O8 0.500000 0.000000 0.500000
O O9 0.389064 0.716357 0.915561
O O10 0.337979 0.065911 0.847742
O O11 0.941980 0.124000 0.383690
O O12 0.837491 0.960050 0.895852
O O13 0.769222 0.590747 0.663952
O O14 0.000000 0.500000 0.500000
O O15 0.031943 0.829966 0.075516
#
# Coordination Sequence:
#
# PCOD9044525 Si02
#       7
#     2   2   2   2   2   2   2
#     4  10  25  48  79 128 165 218 282 339 431 509
#     4  12  27  50  84 119 166 220 283 349 421 511
#     4  10  23  46  84 127 172 218 284 351 423 506
#     4  12  26  53  86 121 175 221 275 363 428 503
#     4   9  22  47  82 120 165 218 286 342 419 509
#     4  12  31  53  83 128 163 226 296 344 428 514
#     4  11  24  52  79 117 169 222 281 356 419 487
#
# _framework density 28.011092000000001
#
# number of rings (size 3 to 8) (size 9 to 14) (size 15 to 20)
#    0.857    0.286    1.429    3.429    2.000    5.143 
#    5.143    5.000    0.000    4.286    0.000    0.000 
#    0.000    0.000    0.000    0.000    0.000    0.000 
#
# Total GULP energy -78412.449611 kJ/mol
# GULP energy per Si atom -5600.889258 kJ/mol
# Density = 2.794734 g / cm^3
# Si number density = 28.011092 Si / 1000 Ang^3
#
#
#
# Elastic Constant Matrix: (Units=GPa)
#
#
# Indices 1 2 3 4 5 6 
#
# 1 148.3702 45.1196 55.6231 13.0215 -23.8055 19.9943
# 2 45.1196 139.5581 60.4849 3.7161 -8.7893 21.5380
# 3 55.6231 60.4849 231.3460 18.0449 24.6737 11.8723
# 4 13.0215 3.7161 18.0449 57.0870 8.6751 -6.0337
# 5 -23.8055 -8.7893 24.6737 8.6751 60.0330 5.2728
# 6 19.9943 21.5380 11.8723 -6.0337 5.2728 64.1961
#
#
#
# Elastic Compliance Matrix: (Units=1/GPa)
#
#
# Indices 1 2 3 4 5 6 
#
# 1 0.009288 -0.001304 -0.002092 -0.002408 0.004937 -0.002700
# 2 -0.001304 0.008992 -0.002104 -0.000164 0.001898 -0.002393
# 3 -0.002092 -0.002104 0.005768 -0.000628 -0.003463 0.000516
# 4 -0.002408 -0.000164 -0.000628 0.019167 -0.003757 0.003031
# 5 0.004937 0.001898 -0.003463 -0.003757 0.021178 -0.003627
# 6 -0.002700 -0.002393 0.000516 0.003031 -0.003627 0.017708
#
#
# Mechanical properties :
#
#
# Convention : Reuss Voigt Hill
#
# Bulk Modulus (GPa) = 76.64984 93.52551 85.08767
# Shear Modulus (GPa) = 51.30717 60.13301 55.72009
#
# Velocity S-wave (km/s) = 4.28445 4.63834 4.46490
# Velocity P-wave (km/s) = 7.20408 7.88332 7.55135
#
# Compressibility (1/GPa) = 0.01304634
#
# Stress axis : x y z
#
# Youngs Moduli (GPa) = 107.66140 111.20551 173.38288
#
# Poissons Ratio (x) = 0.14505 0.36279
# Poissons Ratio (y) = 0.14042 0.36485
# Poissons Ratio (z) = 0.22527 0.23401
#
# Static dielectric constant tensor:
#      x y z
#    x 2.225130 0.028020 0.003140 
#    y 0.028020 2.220370 0.058150 
#    z 0.003140 0.058150 2.141860 
# 
# From -- ./inp_files/437170.got.cif
#   From: 2010.05.17/outbox.cif.g08.bks.cpg/sg2_219_cif.got.tgz:437170.got - 2010.06.03 11:33:40.
