data_PCOD9044171
_publ_section_title
;
Structure prediction by ZEFSAII (Michael W. Deem and Ramdas Pophale) SiO2 
 PCOD9044171
Probable space group: P -1
;
_chemical_formula_sum "Si O2"
_cell_formula_units_Z 14
_cell_length_a 5.348056
_cell_length_b 14.447092
_cell_length_c 11.293879
_cell_angle_alpha 37.698583
_cell_angle_beta 96.203193
_cell_angle_gamma 87.206145
_cell_volume 517.387767
_symmetry_space_group_name_H-M "P -1"
_symmetry_group_IT_number 2
_symmetry_cell_setting 'triclinic'
loop_
_space_group_symop_operation_xyz
x,y,z
-x,-y,-z
loop_
_atom_site_type_symbol
_atom_site_label
_atom_site_fract_x
_atom_site_fract_y
_atom_site_fract_z
Si Si1 0.029104 0.087777 0.212342
Si Si2 0.684684 0.995944 0.903476
Si Si3 0.213145 0.618104 0.206453
Si Si4 0.351225 0.180406 0.314758
Si Si5 0.684984 0.552718 0.133266
Si Si6 0.939321 0.743452 0.560269
Si Si7 0.907974 0.268720 0.674953
O O1 0.293258 0.062521 0.171908
O O2 0.076644 0.162964 0.262225
O O3 0.974685 0.918784 0.390600
O O4 0.801673 0.201533 0.014647
O O5 0.703999 0.174648 0.711572
O O6 0.916930 0.865093 0.101686
O O7 0.500000 0.000000 0.000000
O O8 0.470624 0.532738 0.238695
O O9 0.206723 0.602988 0.363525
O O10 0.937850 0.597342 0.162586
O O11 0.300474 0.250269 0.372217
O O12 0.500000 0.000000 0.500000
O O13 0.427438 0.310405 0.103099
O O14 0.820682 0.388409 0.248852
O O15 0.930652 0.704178 0.459306
#
# Coordination Sequence:
#
# PCOD9044171 Si02
#       7
#     2   2   2   2   2   2   2
#     4   9  21  41  66  98 129 177 226 281 332 396
#     4   9  18  33  62  96 132 166 220 281 331 392
#     4  10  23  46  70  99 134 181 228 274 339 407
#     4  11  24  41  69  99 132 183 231 283 330 410
#     4  11  26  46  70  98 139 181 224 283 343 400
#     4  11  23  43  63  99 139 174 230 279 346 400
#     4   9  21  36  61  96 134 175 221 277 339 400
#
# _framework density 27.059007999999999
#
# number of rings (size 3 to 8) (size 9 to 14) (size 15 to 20)
#    0.000    2.000    0.000    2.571    8.000    3.429 
#    2.571    4.286    0.000    0.000    0.000    0.000 
#    0.000    0.000    0.000    0.000    0.000    0.000 
#
# Total GULP energy -78117.873371 kJ/mol
# GULP energy per Si atom -5579.848098 kJ/mol
# Density = 2.699742 g / cm^3
# Si number density = 27.059008 Si / 1000 Ang^3
#
#
#
# Elastic Constant Matrix: (Units=GPa)
#
#
# Indices 1 2 3 4 5 6 
#
# 1 78.8753 50.2803 7.5831 11.3475 -3.9801 -30.0173
# 2 50.2803 161.4198 57.2454 17.2547 -10.9895 -37.0473
# 3 7.5831 57.2454 124.7855 7.7818 11.7864 -6.0788
# 4 11.3475 17.2547 7.7818 51.5497 -13.8215 -5.6676
# 5 -3.9801 -10.9895 11.7864 -13.8215 27.2250 1.6247
# 6 -30.0173 -37.0473 -6.0788 -5.6676 1.6247 43.6774
#
#
#
# Elastic Compliance Matrix: (Units=1/GPa)
#
#
# Indices 1 2 3 4 5 6 
#
# 1 0.019063 -0.004088 0.001446 -0.002326 -0.001242 0.009579
# 2 -0.004088 0.010898 -0.005032 0.000157 0.005729 0.005541
# 3 0.001446 -0.005032 0.011047 -0.002592 -0.007812 -0.001783
# 4 -0.002326 0.000157 -0.002592 0.023788 0.012875 0.000782
# 5 -0.001242 0.005729 -0.007812 0.012875 0.048614 0.002781
# 6 0.009579 0.005541 -0.001783 0.000782 0.002781 0.033928
#
#
# Mechanical properties :
#
#
# Convention : Reuss Voigt Hill
#
# Bulk Modulus (GPa) = 38.97212 66.14423 52.55817
# Shear Modulus (GPa) = 29.19903 41.15521 35.17712
#
# Velocity S-wave (km/s) = 3.28851 3.90416 3.60948
# Velocity P-wave (km/s) = 5.37150 6.69483 6.06934
#
# Compressibility (1/GPa) = 0.02565937
#
# Stress axis : x y z
#
# Youngs Moduli (GPa) = 52.45881 91.76101 90.52266
#
# Poissons Ratio (x) = 0.37512 -0.13089
# Poissons Ratio (y) = 0.21445 0.45551
# Poissons Ratio (z) = -0.07585 0.46174
#
# Static dielectric constant tensor:
#      x y z
#    x 2.258470 0.204360 0.040100 
#    y 0.204360 2.705140 0.137130 
#    z 0.040100 0.137130 2.207100 
# 
# From -- ./inp_files/367389.got.cif
#   From: 2010.05.17/outbox.cif.g08.bks.cpg/sg2_184_cif.got.tgz:367389.got - 2010.06.03 11:33:40.
