data_PCOD9044941
_publ_section_title
;
Structure prediction by ZEFSAII (Michael W. Deem and Ramdas Pophale) SiO2 
 PCOD9044941
Probable space group: P -1
;
_chemical_formula_sum "Si O2"
_cell_formula_units_Z 16
_cell_length_a 5.573534
_cell_length_b 14.782736
_cell_length_c 11.438224
_cell_angle_alpha 72.883440
_cell_angle_beta 58.585768
_cell_angle_gamma 93.039866
_cell_volume 743.629705
_symmetry_space_group_name_H-M "P -1"
_symmetry_group_IT_number 2
_symmetry_cell_setting 'triclinic'
loop_
_space_group_symop_operation_xyz
x,y,z
-x,-y,-z
loop_
_atom_site_type_symbol
_atom_site_label
_atom_site_fract_x
_atom_site_fract_y
_atom_site_fract_z
Si Si1 0.654760 0.083759 0.092413
Si Si2 0.805671 0.304626 0.673437
Si Si3 0.716192 0.430676 0.453418
Si Si4 0.391024 0.270617 0.436239
Si Si5 0.673360 0.872107 0.067863
Si Si6 0.665605 0.440518 0.119995
Si Si7 0.261327 0.570182 0.158249
Si Si8 0.332477 0.056160 0.431592
O O1 0.500544 0.075431 0.259087
O O2 0.657475 0.975156 0.088763
O O3 0.473479 0.126560 0.023965
O O4 0.995384 0.136027 0.006544
O O5 0.804577 0.403767 0.568645
O O6 0.523772 0.215749 0.774458
O O7 0.815122 0.339353 0.792324
O O8 0.075005 0.274574 0.560114
O O9 0.500000 0.500000 0.500000
O O10 0.588291 0.322537 0.473912
O O11 0.967307 0.484529 0.280851
O O12 0.533340 0.345605 0.267883
O O13 0.360396 0.160554 0.446798
O O14 0.501361 0.521590 0.172433
O O15 0.610654 0.406472 0.012197
O O16 0.000000 0.500000 0.000000
O O17 0.500000 0.000000 0.500000
O O18 0.000000 0.000000 0.500000
#
# Coordination Sequence:
#
# PCOD9044941 Si02
#       8
#     2   2   2   2   2   2   2   2
#     4  10  23  48  69 105 145 182 238 309 368 432
#     4  12  26  42  72 103 140 190 252 298 362 447
#     4  12  24  44  71 105 144 187 246 309 367 445
#     4  12  27  44  76 102 145 196 247 302 380 447
#     4  10  24  43  75 101 141 187 239 304 367 437
#     4  11  24  44  65 101 144 192 235 300 369 450
#     4  11  24  42  67  98 146 185 238 300 367 433
#     4  12  29  50  79 110 153 197 250 314 378 448
#
# _framework density 21.516083999999999
#
# number of rings (size 3 to 8) (size 9 to 14) (size 15 to 20)
#    0.000    0.750    3.750    2.625    7.000    2.000 
#    0.000    0.000    0.000    0.000    0.000    0.000 
#    0.000    0.000    0.000    0.000    0.000    0.000 
#
# Total GULP energy -89258.445053 kJ/mol
# GULP energy per Si atom -5578.652816 kJ/mol
# Density = 2.146711 g / cm^3
# Si number density = 21.516084 Si / 1000 Ang^3
#
#
#
# Elastic Constant Matrix: (Units=GPa)
#
#
# Indices 1 2 3 4 5 6 
#
# 1 92.7198 56.6346 54.3474 0.1280 -18.2193 2.5332
# 2 56.6346 113.5508 67.9180 -3.3715 -6.6147 0.6644
# 3 54.3474 67.9180 165.1705 2.3810 -20.0875 0.3960
# 4 0.1280 -3.3715 2.3810 44.7036 6.9588 -10.3252
# 5 -18.2193 -6.6147 -20.0875 6.9588 48.0679 -3.4027
# 6 2.5332 0.6644 0.3960 -10.3252 -3.4027 24.7873
#
#
#
# Elastic Compliance Matrix: (Units=1/GPa)
#
#
# Indices 1 2 3 4 5 6 
#
# 1 0.017418 -0.007139 -0.002182 -0.001581 0.004827 -0.001550
# 2 -0.007139 0.014681 -0.004033 0.001943 -0.002592 0.000854
# 3 -0.002182 -0.004033 0.008744 -0.001131 0.002439 0.000055
# 4 -0.001581 0.001943 -0.001131 0.025535 -0.003776 0.010246
# 5 0.004827 -0.002592 0.002439 -0.003776 0.023931 0.001250
# 6 -0.001550 0.000854 0.000055 0.010246 0.001250 0.044917
#
#
# Mechanical properties :
#
#
# Convention : Reuss Voigt Hill
#
# Bulk Modulus (GPa) = 70.74969 81.02679 75.88824
# Shear Modulus (GPa) = 30.00367 36.34783 33.17575
#
# Velocity S-wave (km/s) = 3.73832 4.11461 3.93097
# Velocity P-wave (km/s) = 7.18241 7.76620 7.48000
#
# Compressibility (1/GPa) = 0.01413434
#
# Stress axis : x y z
#
# Youngs Moduli (GPa) = 57.41304 68.11375 114.36840
#
# Poissons Ratio (x) = 0.48625 0.24956
# Poissons Ratio (y) = 0.40986 0.46128
# Poissons Ratio (z) = 0.12528 0.27472
#
# Static dielectric constant tensor:
#      x y z
#    x 1.899360 0.042660 0.063700 
#    y 0.042660 1.778370 0.027300 
#    z 0.063700 0.027300 1.892120 
# 
# From -- ./inp_files/367717.got.cif
#   From: 2010.05.17/outbox.cif.g08.bks.cpg/sg2_184_cif.got.tgz:367717.got - 2010.06.03 11:33:40.
