data_PCOD9044719
_publ_section_title
;
Structure prediction by ZEFSAII (Michael W. Deem and Ramdas Pophale) SiO2 
 PCOD9044719
Probable space group: P -1
;
_chemical_formula_sum "Si O2"
_cell_formula_units_Z 16
_cell_length_a 8.629722
_cell_length_b 12.542310
_cell_length_c 13.962963
_cell_angle_alpha 94.204135
_cell_angle_beta 149.230085
_cell_angle_gamma 74.923206
_cell_volume 711.215938
_symmetry_space_group_name_H-M "P -1"
_symmetry_group_IT_number 2
_symmetry_cell_setting 'triclinic'
loop_
_space_group_symop_operation_xyz
x,y,z
-x,-y,-z
loop_
_atom_site_type_symbol
_atom_site_label
_atom_site_fract_x
_atom_site_fract_y
_atom_site_fract_z
Si Si1 0.850521 0.967607 0.321800
Si Si2 0.923223 0.431182 0.870432
Si Si3 0.698913 0.107706 0.626799
Si Si4 0.628924 0.755569 0.204551
Si Si5 0.184433 0.175894 0.007365
Si Si6 0.863295 0.870762 0.795065
Si Si7 0.847797 0.510712 0.197117
Si Si8 0.263282 0.396446 0.571371
O O1 0.805670 0.845537 0.297515
O O2 0.073586 0.956236 0.346932
O O3 0.495729 0.069523 0.126658
O O4 0.000000 0.000000 0.500000
O O5 0.576445 0.424514 0.711118
O O6 0.953540 0.491995 0.793322
O O7 0.000000 0.500000 0.000000
O O8 0.195158 0.300561 0.005562
O O9 0.349070 0.171548 0.393985
O O10 0.712856 0.008475 0.703298
O O11 0.870421 0.179903 0.779537
O O12 0.787717 0.636076 0.221572
O O13 0.635682 0.715417 0.315762
O O14 0.250195 0.818684 0.976491
O O15 0.169799 0.155264 0.112349
O O16 0.062557 0.404054 0.370000
O O17 0.500000 0.500000 0.000000
O O18 0.000000 0.500000 0.500000
#
# Coordination Sequence:
#
# PCOD9044719 Si02
#       8
#     2   2   2   2   2   2   2   2
#     4  12  26  45  70 107 149 190 240 294 365 440
#     4  12  26  47  73 102 142 191 240 305 365 429
#     4  11  25  45  71 104 146 195 236 289 364 439
#     4  11  24  47  72 103 148 187 237 306 357 437
#     4  12  25  45  72 105 144 187 240 299 359 440
#     4  11  24  44  72 104 146 186 241 292 363 432
#     4  11  26  47  74 107 141 190 248 301 364 434
#     4  10  23  47  72 102 136 187 239 301 362 423
#
# _framework density 22.496683000000001
#
# number of rings (size 3 to 8) (size 9 to 14) (size 15 to 20)
#    0.000    0.750    3.750    3.375    1.750    4.000 
#    2.250    0.000    0.000    0.000    0.000    0.000 
#    0.000    0.000    0.000    0.000    0.000    0.000 
#
# Total GULP energy -89510.199178 kJ/mol
# GULP energy per Si atom -5594.387449 kJ/mol
# Density = 2.244548 g / cm^3
# Si number density = 22.496683 Si / 1000 Ang^3
#
#
#
# Elastic Constant Matrix: (Units=GPa)
#
#
# Indices 1 2 3 4 5 6 
#
# 1 93.0812 13.5634 28.1563 -6.4328 -16.0155 13.0051
# 2 13.5634 99.7404 43.2649 15.0930 -7.7985 -10.6314
# 3 28.1563 43.2649 137.6158 13.1785 -17.4940 11.1394
# 4 -6.4328 15.0930 13.1785 24.5777 -0.4472 -1.9053
# 5 -16.0155 -7.7985 -17.4940 -0.4472 43.7206 0.0953
# 6 13.0051 -10.6314 11.1394 -1.9053 0.0953 35.2802
#
#
#
# Elastic Compliance Matrix: (Units=1/GPa)
#
#
# Indices 1 2 3 4 5 6 
#
# 1 0.013252 -0.002073 -0.001701 0.005360 0.003869 -0.004694
# 2 -0.002073 0.013465 -0.003635 -0.006424 0.000110 0.005622
# 3 -0.001701 -0.003635 0.009744 -0.003681 0.002598 -0.003751
# 4 0.005360 -0.006424 -0.003681 0.047994 -0.000164 -0.000157
# 5 0.003869 0.000110 0.002598 -0.000164 0.025352 -0.002291
# 6 -0.004694 0.005622 -0.003751 -0.000157 -0.002291 0.032951
#
#
# Mechanical properties :
#
#
# Convention : Reuss Voigt Hill
#
# Bulk Modulus (GPa) = 46.20622 55.60072 50.90347
# Shear Modulus (GPa) = 30.34172 37.07920 33.71046
#
# Velocity S-wave (km/s) = 3.67648 4.06422 3.87520
# Velocity P-wave (km/s) = 6.21335 6.84051 6.53446
#
# Compressibility (1/GPa) = 0.02164211
#
# Stress axis : x y z
#
# Youngs Moduli (GPa) = 75.46095 74.26850 102.62957
#
# Poissons Ratio (x) = 0.15396 0.17459
# Poissons Ratio (y) = 0.15644 0.37305
# Poissons Ratio (z) = 0.12837 0.26996
#
# Static dielectric constant tensor:
#      x y z
#    x 1.807920 -0.023620 0.044730 
#    y -0.023620 1.824970 0.004020 
#    z 0.044730 0.004020 2.021590 
# 
# From -- ./inp_files/500433.got.cif
#   From: 2010.05.17/outbox.cif.g08.bks.cpg/sg2_251_cif.got.tgz:500433.got - 2010.06.03 11:33:40.
