data_PCOD9044730
_publ_section_title
;
Structure prediction by ZEFSAII (Michael W. Deem and Ramdas Pophale) SiO2 
 PCOD9044730
Probable space group: P -1
;
_chemical_formula_sum "Si O2"
_cell_formula_units_Z 14
_cell_length_a 5.305584
_cell_length_b 21.852769
_cell_length_c 8.254692
_cell_angle_alpha 42.979626
_cell_angle_beta 85.416132
_cell_angle_gamma 102.007857
_cell_volume 598.274676
_symmetry_space_group_name_H-M "P -1"
_symmetry_group_IT_number 2
_symmetry_cell_setting 'triclinic'
loop_
_space_group_symop_operation_xyz
x,y,z
-x,-y,-z
loop_
_atom_site_type_symbol
_atom_site_label
_atom_site_fract_x
_atom_site_fract_y
_atom_site_fract_z
Si Si1 0.518785 0.730960 0.213115
Si Si2 0.040544 0.588273 0.705116
Si Si3 0.746407 0.624102 0.923073
Si Si4 0.667300 0.279640 0.119945
Si Si5 0.721205 0.946375 0.906680
Si Si6 0.347518 0.062805 0.682917
Si Si7 0.357036 0.445766 0.451797
O O1 0.700581 0.667019 0.308600
O O2 0.322104 0.676359 0.478618
O O3 0.356817 0.716677 0.079574
O O4 0.669753 0.843897 0.024624
O O5 0.851367 0.637301 0.708177
O O6 0.913383 0.545149 0.620799
O O7 0.000000 0.500000 0.000000
O O8 0.527633 0.670099 0.890136
O O9 0.022295 0.669939 0.927727
O O10 0.587194 0.508783 0.188851
O O11 0.531980 0.167709 0.399697
O O12 0.500648 0.990306 0.779379
O O13 0.677388 0.930356 0.134022
O O14 0.034639 0.020771 0.717290
O O15 0.500000 0.500000 0.500000
#
# Coordination Sequence:
#
# PCOD9044730 Si02
#       7
#     2   2   2   2   2   2   2
#     4  12  28  43  74 108 149 194 243 298 373 437
#     4  12  27  45  72 105 145 201 251 302 351 436
#     4  12  26  45  73 104 147 193 252 292 363 431
#     4  12  27  46  75 109 147 196 238 309 368 443
#     4  10  24  44  74 104 139 187 240 304 361 439
#     4  10  23  47  72 103 142 183 241 306 369 424
#     4  12  26  46  70 104 155 194 243 304 368 431
#
# _framework density 23.400625000000002
#
# number of rings (size 3 to 8) (size 9 to 14) (size 15 to 20)
#    0.000    0.571    2.857    3.857    6.000    3.429 
#    0.000    0.000    0.000    0.000    0.000    0.000 
#    0.000    0.000    0.000    0.000    0.000    0.000 
#
# Total GULP energy -78333.332918 kJ/mol
# GULP energy per Si atom -5595.238066 kJ/mol
# Density = 2.334736 g / cm^3
# Si number density = 23.400625 Si / 1000 Ang^3
#
#
#
# Elastic Constant Matrix: (Units=GPa)
#
#
# Indices 1 2 3 4 5 6 
#
# 1 108.1625 22.7310 24.3429 -11.2893 -0.2783 5.1240
# 2 22.7310 83.4579 12.0201 -20.4115 11.4971 1.8867
# 3 24.3429 12.0201 108.0801 -19.0860 0.2068 -2.3710
# 4 -11.2893 -20.4115 -19.0860 38.2034 -2.0413 1.2794
# 5 -0.2783 11.4971 0.2068 -2.0413 36.6038 0.5293
# 6 5.1240 1.8867 -2.3710 1.2794 0.5293 42.4378
#
#
#
# Elastic Compliance Matrix: (Units=1/GPa)
#
#
# Indices 1 2 3 4 5 6 
#
# 1 0.010345 -0.002419 -0.001934 0.000891 0.000918 -0.001288
# 2 -0.002419 0.014974 0.000137 0.007141 -0.004317 -0.000527
# 3 -0.001934 0.000137 0.010525 0.004745 0.000138 0.000671
# 4 0.000891 0.007141 0.004745 0.032640 -0.000426 -0.001139
# 5 0.000918 -0.004317 0.000138 -0.000426 0.028661 -0.000256
# 6 -0.001288 -0.000527 0.000671 -0.001139 -0.000256 0.023818
#
#
# Mechanical properties :
#
#
# Convention : Reuss Voigt Hill
#
# Bulk Modulus (GPa) = 36.47742 46.43204 41.45473
# Shear Modulus (GPa) = 36.09262 39.48945 37.79103
#
# Velocity S-wave (km/s) = 3.93157 4.11242 4.02301
# Velocity P-wave (km/s) = 6.01928 6.51419 6.27162
#
# Compressibility (1/GPa) = 0.02741422
#
# Stress axis : x y z
#
# Youngs Moduli (GPa) = 96.66326 66.78143 95.01148
#
# Poissons Ratio (x) = 0.16151 0.18373
# Poissons Ratio (y) = 0.23378 -0.01303
# Poissons Ratio (z) = 0.18692 -0.00916
#
# Static dielectric constant tensor:
#      x y z
#    x 2.010400 -0.023550 0.039070 
#    y -0.023550 1.935880 0.032720 
#    z 0.039070 0.032720 1.841730 
# 
# From -- ./inp_files/35366.got.cif
#   From: 2010.05.17/outbox.cif.g08.bks.cpg/sg2_18_cif.got.tgz:35366.got - 2010.06.03 11:33:40.
