data_PCOD9044813
_publ_section_title
;
Structure prediction by ZEFSAII (Michael W. Deem and Ramdas Pophale) SiO2 
 PCOD9044813
Probable space group: P -1
;
_chemical_formula_sum "Si O2"
_cell_formula_units_Z 15
_cell_length_a 5.492312
_cell_length_b 6.440745
_cell_length_c 21.926246
_cell_angle_alpha 107.850572
_cell_angle_beta 53.711373
_cell_angle_gamma 103.917164
_cell_volume 593.329523
_symmetry_space_group_name_H-M "P -1"
_symmetry_group_IT_number 2
_symmetry_cell_setting 'triclinic'
loop_
_space_group_symop_operation_xyz
x,y,z
-x,-y,-z
loop_
_atom_site_type_symbol
_atom_site_label
_atom_site_fract_x
_atom_site_fract_y
_atom_site_fract_z
Si Si1 0.809658 0.943573 0.311512
Si Si2 0.000000 0.000000 0.500000
Si Si3 0.033259 0.108542 0.100570
Si Si4 0.344958 0.275476 0.392951
Si Si5 0.225318 0.397355 0.295885
Si Si6 0.689826 0.689817 0.429804
Si Si7 0.528664 0.855200 0.076647
Si Si8 0.173339 0.545490 0.183028
O O1 0.707297 0.836828 0.380587
O O2 0.962952 0.747637 0.237781
O O3 0.508652 0.046921 0.342889
O O4 0.045837 0.157435 0.296412
O O5 0.015804 0.176065 0.454385
O O6 0.274746 0.152113 0.503864
O O7 0.001753 0.329384 0.161820
O O8 0.235987 0.958812 0.099540
O O9 0.236892 0.161788 0.014987
O O10 0.712592 0.001759 0.114125
O O11 0.430099 0.373353 0.322112
O O12 0.450183 0.484625 0.437630
O O13 0.305017 0.484353 0.224307
O O14 0.002853 0.570601 0.370550
O O15 0.430898 0.629277 0.104444
#
# Coordination Sequence:
#
# PCOD9044813 Si02
#       8
#     2   1   2   2   2   2   2   2
#     4  10  23  48  65  98 142 178 231 293 355 420
#     4  12  24  46  74  96 134 176 234 288 362 422
#     4  10  23  47  74 111 150 193 247 304 356 432
#     4  11  25  46  70  97 136 181 226 295 357 430
#     4  10  23  48  65  98 143 175 230 289 355 423
#     4  10  24  45  67  98 128 175 223 288 352 426
#     4  10  23  47  74 108 154 191 245 305 361 426
#     4  11  23  46  72 108 140 195 241 291 364 434
#
# _framework density 25.281061999999999
#
# number of rings (size 3 to 8) (size 9 to 14) (size 15 to 20)
#    0.000    1.600    1.333    1.600    1.867    2.133 
#   31.200    4.000    0.000    0.000    0.000    0.000 
#    0.000    0.000    0.000    0.000    0.000    0.000 
#
# Total GULP energy -83600.207789 kJ/mol
# GULP energy per Si atom -5573.347186 kJ/mol
# Density = 2.522352 g / cm^3
# Si number density = 25.281062 Si / 1000 Ang^3
#
#
#
# Elastic Constant Matrix: (Units=GPa)
#
#
# Indices 1 2 3 4 5 6 
#
# 1 50.4181 33.6876 17.3918 7.5420 7.0262 -0.4612
# 2 33.6876 108.3641 40.9154 -23.2164 -2.7658 -5.3803
# 3 17.3918 40.9154 68.2671 -20.2805 12.7068 -2.7569
# 4 7.5420 -23.2164 -20.2805 55.1635 4.4581 -6.7157
# 5 7.0262 -2.7658 12.7068 4.4581 17.4098 6.1036
# 6 -0.4612 -5.3803 -2.7569 -6.7157 6.1036 50.1859
#
#
#
# Elastic Compliance Matrix: (Units=1/GPa)
#
#
# Indices 1 2 3 4 5 6 
#
# 1 0.030533 -0.010914 -0.002047 -0.008834 -0.009959 -0.000973
# 2 -0.010914 0.017055 -0.008175 0.004781 0.011682 0.000498
# 3 -0.002047 -0.008175 0.027796 0.009681 -0.024980 0.004965
# 4 -0.008834 0.004781 0.009681 0.026569 -0.011625 0.005932
# 5 -0.009959 0.011682 -0.024980 -0.011625 0.088934 -0.012583
# 6 -0.000973 0.000498 0.004965 0.005932 -0.012583 0.022567
#
#
# Mechanical properties :
#
#
# Convention : Reuss Voigt Hill
#
# Bulk Modulus (GPa) = 30.20191 45.67098 37.93644
# Shear Modulus (GPa) = 18.74310 33.55548 26.14929
#
# Velocity S-wave (km/s) = 2.72580 3.64716 3.21961
# Velocity P-wave (km/s) = 4.67750 5.98667 5.37212
#
# Compressibility (1/GPa) = 0.03311049
#
# Stress axis : x y z
#
# Youngs Moduli (GPa) = 32.75124 58.63379 35.97639
#
# Poissons Ratio (x) = 0.63993 0.07366
# Poissons Ratio (y) = 0.35745 0.29412
# Poissons Ratio (z) = 0.06706 0.47935
#
# Static dielectric constant tensor:
#      x y z
#    x 3.376230 0.697960 -0.615210 
#    y 0.697960 2.411360 -0.373340 
#    z -0.615210 -0.373340 2.346870 
# 
# From -- ./inp_files/10358.got.cif
#   From: 2010.05.17/outbox.cif.g08.bks.cpg/sg2_6_cif.got.tgz:10358.got - 2010.06.03 11:33:40.
