data_PCOD9044563
_publ_section_title
;
Structure prediction by ZEFSAII (Michael W. Deem and Ramdas Pophale) SiO2 
 PCOD9044563
Probable space group: P -1
;
_chemical_formula_sum "Si O2"
_cell_formula_units_Z 16
_cell_length_a 12.329308
_cell_length_b 28.686615
_cell_length_c 27.813437
_cell_angle_alpha 169.407467
_cell_angle_beta 24.459310
_cell_angle_gamma 156.933447
_cell_volume 706.128451
_symmetry_space_group_name_H-M "P -1"
_symmetry_group_IT_number 2
_symmetry_cell_setting 'triclinic'
loop_
_space_group_symop_operation_xyz
x,y,z
-x,-y,-z
loop_
_atom_site_type_symbol
_atom_site_label
_atom_site_fract_x
_atom_site_fract_y
_atom_site_fract_z
Si Si1 0.287597 0.814983 0.063700
Si Si2 0.964371 0.449230 0.351841
Si Si3 0.925119 0.961639 0.936064
Si Si4 0.606731 0.451437 0.806132
Si Si5 0.977910 0.223633 0.585925
Si Si6 0.235468 0.977610 0.629383
Si Si7 0.047569 0.460778 0.997000
Si Si8 0.424013 0.236899 0.297461
O O1 0.592029 0.859221 0.967462
O O2 0.195623 0.066235 0.342644
O O3 0.093248 0.531857 0.833053
O O4 0.222538 0.748349 0.079345
O O5 0.033859 0.242388 0.149438
O O6 0.638735 0.329319 0.348537
O O7 0.141960 0.470414 0.253796
O O8 0.025917 0.738809 0.644286
O O9 0.000000 0.000000 0.000000
O O10 0.640436 0.211445 0.580878
O O11 0.317480 0.381847 0.822742
O O12 0.641055 0.712512 0.089957
O O13 0.765303 0.066839 0.472583
O O14 0.902800 0.268686 0.716919
O O15 0.901166 0.871750 0.668955
O O16 0.000000 0.500000 0.000000
O O17 0.500000 0.500000 0.500000
O O18 0.500000 0.000000 0.000000
#
# Coordination Sequence:
#
# PCOD9044563 Si02
#       8
#     2   2   2   2   2   2   2   2
#     4  10  23  47  67 106 127 184 236 282 355 404
#     4  12  25  44  68 105 145 181 230 281 350 422
#     4  12  26  43  71 100 141 182 235 291 344 410
#     4  12  27  44  70 108 143 185 233 292 348 411
#     4  10  24  45  75  98 135 185 224 289 351 413
#     4  12  23  44  68 105 147 177 234 287 348 428
#     4  10  28  50  74  98 138 187 242 291 348 417
#     4  12  21  39  64  99 138 186 216 271 350 410
#
# _framework density 22.658767999999998
#
# number of rings (size 3 to 8) (size 9 to 14) (size 15 to 20)
#    0.750    0.000    2.500    4.875    3.500    2.500 
#    0.000    0.000    0.000    0.000    0.000    0.000 
#    0.000    0.000    0.000    0.000    0.000    0.000 
#
# Total GULP energy -89491.111991 kJ/mol
# GULP energy per Si atom -5593.194499 kJ/mol
# Density = 2.260720 g / cm^3
# Si number density = 22.658768 Si / 1000 Ang^3
#
#
#
# Elastic Constant Matrix: (Units=GPa)
#
#
# Indices 1 2 3 4 5 6 
#
# 1 -634.2873 -851.1766-1794.8769-2497.7780-3252.5753 886.5667
# 2 -851.1766 -908.6027-2096.9612-2847.2110-3732.4683 1028.0633
# 3 -1794.8769-2096.9612-4352.4998-6074.2719-7946.1103 2218.6708
# 4 -2497.7780-2847.2110-6074.2719-8093.6554********** 2989.0208
# 5 -3252.5753-3732.4683-7946.1103******************** 3928.3241
# 6 886.5667 1028.0633 2218.6708 2989.0208 3928.3241-1070.9380
#
#
#
# Elastic Compliance Matrix: (Units=1/GPa)
#
#
# Indices 1 2 3 4 5 6 
#
# 1 0.012677 0.000931 -0.003108 0.005761 -0.002513 0.011810
# 2 0.000931 0.013706 -0.001658 0.000968 -0.001039 0.009387
# 3 -0.003108 -0.001658 0.006829 -0.000979 -0.001903 0.000272
# 4 0.005761 0.000968 -0.000979 0.023174 -0.014415 0.015474
# 5 -0.002513 -0.001039 -0.001903 -0.014415 0.011996 -0.003250
# 6 0.011810 0.009387 0.000272 0.015474 -0.003250 0.049682
#
#
# Mechanical properties :
#
#
# Convention : Reuss Voigt Hill
#
# Bulk Modulus (GPa) = 39.14944 -1709.04658 -834.94857
# Shear Modulus (GPa) = 37.24440 -4692.59796 -2327.67678
#
# Velocity S-wave (km/s) = 4.05867 -45.55745 -32.08589
# Velocity P-wave (km/s) = 6.26730 59.35655 41.73680
#
# Compressibility (1/GPa) = 0.02554315
#
# Stress axis : x y z
#
# Youngs Moduli (GPa) = 78.88405 72.95812 146.42627
#
# Poissons Ratio (x) = -0.06794 0.45513
# Poissons Ratio (y) = -0.07346 0.24274
# Poissons Ratio (z) = 0.24519 0.12095
#
# Static dielectric constant tensor:
#      x y z
#    x 1.796940 -0.010060 0.002530 
#    y -0.010060 1.846580 -0.042200 
#    z 0.002530 -0.042200 1.768030 
# 
# From -- ./inp_files/618870.got.cif
#   From: 2010.05.17/outbox.cif.g08.bks.cpg/sg2_310_cif.got.tgz:618870.got - 2010.06.03 11:33:40.
