data_PCOD9044856
_publ_section_title
;
Structure prediction by ZEFSAII (Michael W. Deem and Ramdas Pophale) SiO2 
 PCOD9044856
Probable space group: P -1
;
_chemical_formula_sum "Si O2"
_cell_formula_units_Z 13
_cell_length_a 7.267526
_cell_length_b 6.865701
_cell_length_c 12.469718
_cell_angle_alpha 68.039493
_cell_angle_beta 75.059507
_cell_angle_gamma 87.897780
_cell_volume 556.303975
_symmetry_space_group_name_H-M "P -1"
_symmetry_group_IT_number 2
_symmetry_cell_setting 'triclinic'
loop_
_space_group_symop_operation_xyz
x,y,z
-x,-y,-z
loop_
_atom_site_type_symbol
_atom_site_label
_atom_site_fract_x
_atom_site_fract_y
_atom_site_fract_z
Si Si1 0.747919 0.136599 0.217725
Si Si2 0.443239 0.880639 0.198505
Si Si3 0.805760 0.493486 0.598180
Si Si4 0.389850 0.302560 0.001870
Si Si5 0.000000 0.500000 0.000000
Si Si6 0.046902 0.811219 0.610251
Si Si7 0.544200 0.246410 0.419735
O O1 0.591867 0.262476 0.282492
O O2 0.901388 0.103014 0.296415
O O3 0.632984 0.931151 0.231449
O O4 0.851662 0.285931 0.085011
O O5 0.282161 0.736567 0.312032
O O6 0.380950 0.106555 0.125178
O O7 0.498874 0.763194 0.106807
O O8 0.878635 0.629970 0.664512
O O9 0.753159 0.290139 0.430685
O O10 0.631345 0.620592 0.552127
O O11 0.500000 0.500000 0.000000
O O12 0.179050 0.354783 0.991664
O O13 0.000000 0.500000 0.500000
O O14 0.000000 0.000000 0.500000
O O15 0.500000 0.000000 0.500000
#
# Coordination Sequence:
#
# PCOD9044856 Si02
#       7
#     2   2   2   2   1   2   2
#     4  10  25  44  79 110 151 204 255 326 385 466
#     4  11  27  51  76 118 159 201 262 327 398 459
#     4  12  27  45  75 114 157 202 267 322 392 471
#     4  11  26  50  81 110 158 205 253 331 388 477
#     4  12  24  48  80 112 152 196 266 308 410 460
#     4  10  24  48  73 106 147 216 256 312 385 460
#     4  10  23  47  76 102 156 203 261 321 385 445
#
# _framework density 23.368521999999999
#
# number of rings (size 3 to 8) (size 9 to 14) (size 15 to 20)
#    0.923    0.308    3.077    0.923    4.308    3.692 
#    5.538    0.000    0.000    0.000    0.000    0.000 
#    0.000    0.000    0.000    0.000    0.000    0.000 
#
# Total GULP energy -72389.496999 kJ/mol
# GULP energy per Si atom -5568.422846 kJ/mol
# Density = 2.331533 g / cm^3
# Si number density = 23.368522 Si / 1000 Ang^3
#
#
#
# Elastic Constant Matrix: (Units=GPa)
#
#
# Indices 1 2 3 4 5 6 
#
# 1 143.4907 57.2257 42.3306 -12.7026 -23.0632 1.5175
# 2 57.2257 128.3229 57.3148 -17.3882 -10.6834 24.0968
# 3 42.3306 57.3148 81.5264 -16.5043 -17.4969 16.7358
# 4 -12.7026 -17.3882 -16.5043 38.3313 13.9699 -0.8539
# 5 -23.0632 -10.6834 -17.4969 13.9699 41.9757 -6.6921
# 6 1.5175 24.0968 16.7358 -0.8539 -6.6921 65.9513
#
#
#
# Elastic Compliance Matrix: (Units=1/GPa)
#
#
# Indices 1 2 3 4 5 6 
#
# 1 0.009546 -0.003382 -0.002284 -0.000770 0.004006 0.001992
# 2 -0.003382 0.013106 -0.006827 0.002845 -0.002829 -0.003229
# 3 -0.002284 -0.006827 0.020224 0.003356 0.003980 -0.002138
# 4 -0.000770 0.002845 0.003356 0.031905 -0.009302 -0.002404
# 5 0.004006 -0.002829 0.003980 -0.009302 0.030522 0.002908
# 6 0.001992 -0.003229 -0.002138 -0.002404 0.002908 0.017103
#
#
# Mechanical properties :
#
#
# Convention : Reuss Voigt Hill
#
# Bulk Modulus (GPa) = 55.89438 74.12025 65.00732
# Shear Modulus (GPa) = 32.60395 42.34959 37.47677
#
# Velocity S-wave (km/s) = 3.73930 4.26167 4.00900
# Velocity P-wave (km/s) = 6.52792 7.48349 7.02198
#
# Compressibility (1/GPa) = 0.01789089
#
# Stress axis : x y z
#
# Youngs Moduli (GPa) = 104.75216 76.29954 49.44720
#
# Poissons Ratio (x) = 0.25803 0.11295
# Poissons Ratio (y) = 0.35425 0.33756
# Poissons Ratio (z) = 0.23928 0.52087
#
# Static dielectric constant tensor:
#      x y z
#    x 1.894740 0.000580 0.030740 
#    y 0.000580 1.924710 0.056850 
#    z 0.030740 0.056850 1.951860 
# 
# From -- ./inp_files/372389.got.cif
#   From: 2010.05.17/outbox.cif.g08.bks.cpg/sg2_187_cif.got.tgz:372389.got - 2010.06.03 11:33:40.
