data_PCOD9044342
_publ_section_title
;
Structure prediction by ZEFSAII (Michael W. Deem and Ramdas Pophale) SiO2 
 PCOD9044342
Probable space group: P -1
;
_chemical_formula_sum "Si O2"
_cell_formula_units_Z 14
_cell_length_a 15.815297
_cell_length_b 5.658625
_cell_length_c 18.235437
_cell_angle_alpha 52.067125
_cell_angle_beta 152.669099
_cell_angle_gamma 120.396030
_cell_volume 587.331824
_symmetry_space_group_name_H-M "P -1"
_symmetry_group_IT_number 2
_symmetry_cell_setting 'triclinic'
loop_
_space_group_symop_operation_xyz
x,y,z
-x,-y,-z
loop_
_atom_site_type_symbol
_atom_site_label
_atom_site_fract_x
_atom_site_fract_y
_atom_site_fract_z
Si Si1 0.720751 0.413067 0.673447
Si Si2 0.120343 0.108572 0.637933
Si Si3 0.539914 0.167382 0.124140
Si Si4 0.701455 0.315362 0.370584
Si Si5 0.687531 0.794962 0.709177
Si Si6 0.331752 0.646434 0.093614
Si Si7 0.056216 0.199526 0.301340
O O1 0.500000 0.500000 0.500000
O O2 0.794381 0.622671 0.755474
O O3 0.801055 0.548396 0.635315
O O4 0.771291 0.051544 0.774908
O O5 0.152579 0.456501 0.584302
O O6 0.333590 0.980178 0.814899
O O7 0.000000 0.000000 0.500000
O O8 0.041778 0.944281 0.677816
O O9 0.656759 0.146610 0.293517
O O10 0.366065 0.994813 0.043470
O O11 0.500000 0.500000 0.000000
O O12 0.502004 0.472463 0.212332
O O13 0.799584 0.096725 0.549955
O O14 0.645663 0.513314 0.780266
O O15 0.500000 0.000000 0.500000
O O16 0.121378 0.640500 0.908251
#
# Coordination Sequence:
#
# PCOD9044342 Si02
#       7
#     2   2   2   2   2   2   2
#     4  10  24  45  74 104 146 190 252 314 379 445
#     4  11  24  41  67 106 144 190 247 291 365 450
#     4  11  24  43  70 101 148 190 236 303 363 443
#     4  11  24  45  68 100 149 191 234 302 366 441
#     4  10  23  46  73 103 146 191 249 313 380 442
#     4  11  27  44  72 109 141 191 250 301 376 448
#     4  12  25  45  73 106 140 195 247 303 375 448
#
# _framework density 23.836611000000001
#
# number of rings (size 3 to 8) (size 9 to 14) (size 15 to 20)
#    0.000    1.143    1.429    3.857    8.000    4.571 
#    2.571    0.000    0.000    0.000    0.000    0.000 
#    0.000    0.000    0.000    0.000    0.000    0.000 
#
# Total GULP energy -77944.121795 kJ/mol
# GULP energy per Si atom -5567.437271 kJ/mol
# Density = 2.378236 g / cm^3
# Si number density = 23.836611 Si / 1000 Ang^3
#
#
#
# Elastic Constant Matrix: (Units=GPa)
#
#
# Indices 1 2 3 4 5 6 
#
# 1 89.5033 35.8426 25.1762 -3.2553 4.4186 23.1272
# 2 35.8426 97.0316 6.7729 -4.8270 5.9260 21.8554
# 3 25.1762 6.7729 114.3067 -3.1766 1.4782 17.3315
# 4 -3.2553 -4.8270 -3.1766 39.1461 9.7531 -3.8684
# 5 4.4186 5.9260 1.4782 9.7531 26.3086 -1.2678
# 6 23.1272 21.8554 17.3315 -3.8684 -1.2678 51.5346
#
#
#
# Elastic Compliance Matrix: (Units=1/GPa)
#
#
# Indices 1 2 3 4 5 6 
#
# 1 0.014660 -0.004213 -0.002333 0.000558 -0.001782 -0.004010
# 2 -0.004213 0.012937 0.000828 0.001698 -0.003067 -0.003822
# 3 -0.002333 0.000828 0.009620 0.000611 -0.000682 -0.002510
# 4 0.000558 0.001698 0.000611 0.028689 -0.011112 0.000704
# 5 -0.001782 -0.003067 -0.000682 -0.011112 0.043282 0.002561
# 6 -0.004010 -0.003822 -0.002510 0.000704 0.002561 0.023785
#
#
# Mechanical properties :
#
#
# Convention : Reuss Voigt Hill
#
# Bulk Modulus (GPa) = 38.78776 48.49167 43.63971
# Shear Modulus (GPa) = 32.67928 38.93454 35.80691
#
# Velocity S-wave (km/s) = 3.70668 4.04591 3.88000
# Velocity P-wave (km/s) = 5.88447 6.49718 6.19840
#
# Compressibility (1/GPa) = 0.02578133
#
# Stress axis : x y z
#
# Youngs Moduli (GPa) = 68.21062 77.29758 103.95493
#
# Poissons Ratio (x) = 0.32564 0.24251
# Poissons Ratio (y) = 0.28736 -0.08605
# Poissons Ratio (z) = 0.15912 -0.06398
#
# Static dielectric constant tensor:
#      x y z
#    x 2.058430 -0.081510 0.025350 
#    y -0.081510 2.077850 -0.010380 
#    z 0.025350 -0.010380 1.977820 
# 
# From -- ./inp_files/40183.got.cif
#   From: 2010.05.17/outbox.cif.g08.bks.cpg/sg2_21_cif.got.tgz:40183.got - 2010.06.03 11:33:40.
