data_PCOD9044476
_publ_section_title
;
Structure prediction by ZEFSAII (Michael W. Deem and Ramdas Pophale) SiO2 
 PCOD9044476
Probable space group: P -1
;
_chemical_formula_sum "Si O2"
_cell_formula_units_Z 16
_cell_length_a 12.335623
_cell_length_b 14.331113
_cell_length_c 7.048006
_cell_angle_alpha 78.037802
_cell_angle_beta 68.457083
_cell_angle_gamma 32.422355
_cell_volume 608.050469
_symmetry_space_group_name_H-M "P -1"
_symmetry_group_IT_number 2
_symmetry_cell_setting 'triclinic'
loop_
_space_group_symop_operation_xyz
x,y,z
-x,-y,-z
loop_
_atom_site_type_symbol
_atom_site_label
_atom_site_fract_x
_atom_site_fract_y
_atom_site_fract_z
Si Si1 0.296717 0.916889 0.975990
Si Si2 0.664542 0.448554 0.790057
Si Si3 0.228916 0.812529 0.347308
Si Si4 0.900152 0.783990 0.769273
Si Si5 0.612673 0.628109 0.432041
Si Si6 0.761172 0.682646 0.821655
Si Si7 0.145417 0.137779 0.672972
Si Si8 0.217621 0.287673 0.653377
O O1 0.149068 0.095653 0.110396
O O2 0.240051 0.977090 0.769293
O O3 0.241830 0.851139 0.115225
O O4 0.540785 0.776855 0.935796
O O5 0.737185 0.323101 0.634286
O O6 0.585003 0.598273 0.670578
O O7 0.887850 0.320748 0.806059
O O8 0.500000 0.500000 0.000000
O O9 0.423276 0.721557 0.382432
O O10 0.000000 0.000000 0.500000
O O11 0.762861 0.781302 0.891561
O O12 0.148916 0.575545 0.696720
O O13 0.841938 0.859468 0.561740
O O14 0.633144 0.728673 0.368030
O O15 0.791527 0.689802 0.577941
O O16 0.977637 0.473007 0.812636
O O17 0.268962 0.140643 0.693352
#
# Coordination Sequence:
#
# PCOD9044476 Si02
#       8
#     2   2   2   2   2   2   2   2
#     4  12  26  39  70 101 145 183 237 286 351 426
#     4  11  26  45  73  99 132 191 244 290 337 423
#     4  12  29  47  68 103 144 188 240 300 355 410
#     4   9  21  44  65 100 141 186 226 290 351 424
#     4  10  23  46  76  96 137 186 233 291 362 412
#     4   9  19  37  64 103 140 180 227 284 352 422
#     4  10  24  45  69 103 144 180 233 285 361 421
#     4   9  20  41  74 103 140 179 230 292 356 421
#
# _framework density 26.313604000000002
#
# number of rings (size 3 to 8) (size 9 to 14) (size 15 to 20)
#    0.000    1.750    0.000    4.500    7.000    6.500 
#    0.000    2.500    0.000    0.000    0.000    0.000 
#    0.000    0.000    0.000    0.000    0.000    0.000 
#
# Total GULP energy -89728.139406 kJ/mol
# GULP energy per Si atom -5608.008713 kJ/mol
# Density = 2.625371 g / cm^3
# Si number density = 26.313604 Si / 1000 Ang^3
#
#
#
# Elastic Constant Matrix: (Units=GPa)
#
#
# Indices 1 2 3 4 5 6 
#
# 1 130.1365 47.3546 9.6103 -7.5781 -4.8014 6.7465
# 2 47.3546 122.8370 34.6937 -10.2979 -11.2211 -5.8967
# 3 9.6103 34.6937 93.5080 -9.0484 -19.6880 -11.9324
# 4 -7.5781 -10.2979 -9.0484 43.7915 7.3498 -4.1338
# 5 -4.8014 -11.2211 -19.6880 7.3498 44.7200 0.2676
# 6 6.7465 -5.8967 -11.9324 -4.1338 0.2676 41.4885
#
#
#
# Elastic Compliance Matrix: (Units=1/GPa)
#
#
# Indices 1 2 3 4 5 6 
#
# 1 0.009116 -0.003615 0.000242 0.000585 0.000093 -0.001869
# 2 -0.003615 0.010653 -0.003149 0.001238 0.000687 0.001315
# 3 0.000242 -0.003149 0.013469 0.001597 0.004882 0.003514
# 4 0.000585 0.001238 0.001597 0.024333 -0.002941 0.002983
# 5 0.000093 0.000687 0.004882 -0.002941 0.025170 0.001031
# 6 -0.001869 0.001315 0.003514 0.002983 0.001031 0.025895
#
#
# Mechanical properties :
#
#
# Convention : Reuss Voigt Hill
#
# Bulk Modulus (GPa) = 49.51705 58.86650 54.19178
# Shear Modulus (GPa) = 38.93733 42.98819 40.96276
#
# Velocity S-wave (km/s) = 3.85091 4.04627 3.94980
# Velocity P-wave (km/s) = 6.21543 6.65203 6.43743
#
# Compressibility (1/GPa) = 0.02019507
#
# Stress axis : x y z
#
# Youngs Moduli (GPa) = 109.69540 93.86616 74.24713
#
# Poissons Ratio (x) = 0.33931 -0.01797
# Poissons Ratio (y) = 0.39653 0.23379
# Poissons Ratio (z) = -0.02656 0.29557
#
# Static dielectric constant tensor:
#      x y z
#    x 2.003540 0.017770 0.021960 
#    y 0.017770 2.012510 0.013970 
#    z 0.021960 0.013970 2.125720 
# 
# From -- ./inp_files/270299.got.cif
#   From: 2010.05.17/outbox.cif.g08.bks.cpg/sg2_136_cif.got.tgz:270299.got - 2010.06.03 11:33:40.
