data_PCOD9044340
_publ_section_title
;
Structure prediction by ZEFSAII (Michael W. Deem and Ramdas Pophale) SiO2 
 PCOD9044340
Probable space group: P -1
;
_chemical_formula_sum "Si O2"
_cell_formula_units_Z 15
_cell_length_a 7.909455
_cell_length_b 20.138288
_cell_length_c 16.132405
_cell_angle_alpha 159.642932
_cell_angle_beta 61.616743
_cell_angle_gamma 127.183288
_cell_volume 672.459367
_symmetry_space_group_name_H-M "P -1"
_symmetry_group_IT_number 2
_symmetry_cell_setting 'triclinic'
loop_
_space_group_symop_operation_xyz
x,y,z
-x,-y,-z
loop_
_atom_site_type_symbol
_atom_site_label
_atom_site_fract_x
_atom_site_fract_y
_atom_site_fract_z
Si Si1 0.925272 0.759005 0.602370
Si Si2 0.485828 0.462075 0.085039
Si Si3 0.857996 0.791336 0.009760
Si Si4 0.156865 0.697383 0.959238
Si Si5 0.592974 0.165714 0.376248
Si Si6 0.500000 0.500000 0.500000
Si Si7 0.871372 0.735433 0.206811
Si Si8 0.745353 0.426982 0.484482
O O1 0.750517 0.717583 0.666564
O O2 0.169719 0.811606 0.634509
O O3 0.814307 0.513383 0.301248
O O4 0.975600 0.953621 0.754233
O O5 0.445177 0.659807 0.357174
O O6 0.745249 0.587094 0.143429
O O7 0.367551 0.273398 0.962393
O O8 0.331870 0.334521 0.892382
O O9 0.996470 0.709158 0.938051
O O10 0.764222 0.646315 0.778452
O O11 0.038075 0.683503 0.057730
O O12 0.392011 0.922732 0.159401
O O13 0.608267 0.234682 0.357633
O O14 0.625287 0.381804 0.372999
O O15 0.000000 0.000000 0.500000
O O16 0.000000 0.500000 0.500000
#
# Coordination Sequence:
#
# PCOD9044340 Si02
#       8
#     2   2   2   2   2   1   2   2
#     4  12  25  44  63 101 132 174 233 278 338 411
#     4   9  19  37  63  96 132 176 224 275 338 405
#     4  10  23  43  66  93 137 178 219 279 337 410
#     4  11  22  42  67  95 134 182 219 280 346 400
#     4  11  21  41  67  94 136 179 220 281 342 404
#     4  12  26  42  70 102 128 178 234 276 342 412
#     4  10  17  33  66  99 128 174 229 273 337 408
#     4  11  22  45  69  98 137 175 226 288 342 401
#
# _framework density 22.306180000000001
#
# number of rings (size 3 to 8) (size 9 to 14) (size 15 to 20)
#    0.000    1.333    6.667    0.800    1.867    1.600 
#    0.000    3.333    0.000    4.000    0.000    0.000 
#    0.000    0.000    0.000    0.000    0.000    0.000 
#
# Total GULP energy -83512.700445 kJ/mol
# GULP energy per Si atom -5567.513363 kJ/mol
# Density = 2.225541 g / cm^3
# Si number density = 22.306180 Si / 1000 Ang^3
#
#
#
# Elastic Constant Matrix: (Units=GPa)
#
#
# Indices 1 2 3 4 5 6 
#
# 1 40.1558 30.5583 -3.3015 19.9308 -9.8973 34.4251
# 2 30.5583 148.1361 38.4098 40.2737 10.6458 17.4529
# 3 -3.3015 38.4098 90.3706 42.1073 12.1418 1.8954
# 4 19.9308 40.2737 42.1073 36.8211 11.7412 6.4390
# 5 -9.8973 10.6458 12.1418 11.7412 17.3227 24.3655
# 6 34.4251 17.4529 1.8954 6.4390 24.3655 20.5406
#
#
#
# Elastic Compliance Matrix: (Units=1/GPa)
#
#
# Indices 1 2 3 4 5 6 
#
# 1 0.006642 -0.002560 0.005402 -0.002883 -0.023283 0.019067
# 2 -0.002560 0.009875 0.000118 -0.009279 -0.000547 -0.000553
# 3 0.005402 0.000118 0.028331 -0.033962 -0.011600 0.012638
# 4 -0.002883 -0.009279 -0.033962 0.077043 0.018973 -0.030807
# 5 -0.023283 -0.000547 -0.011600 0.018973 0.012934 0.019265
# 6 0.019067 -0.000553 0.012638 -0.030807 0.019265 0.002838
#
#
# Mechanical properties :
#
#
# Convention : Reuss Voigt Hill
#
# Bulk Modulus (GPa) = 19.69753 45.55507 32.62630
# Shear Modulus (GPa) = 33.63244 29.13663 31.38453
#
# Velocity S-wave (km/s) = 3.88721 3.61808 3.75505
# Velocity P-wave (km/s) = 5.38487 6.15800 5.78437
#
# Compressibility (1/GPa) = 0.05076779
#
# Stress axis : x y z
#
# Youngs Moduli (GPa) = 150.55295 101.26250 35.29742
#
# Poissons Ratio (x) = 0.25926 -0.19069
# Poissons Ratio (y) = 0.38546 -0.00415
# Poissons Ratio (z) = -0.81336 -0.01192
#
# Static dielectric constant tensor:
#      x y z
#    x 1.864310 -0.015930 0.011770 
#    y -0.015930 1.921180 -0.030210 
#    z 0.011770 -0.030210 1.824470 
# 
# From -- ./inp_files/562760.got.cif
#   From: 2010.05.17/outbox.cif.g08.bks.cpg/sg2_282_cif.got.tgz:562760.got - 2010.06.03 11:33:40.
