data_PCOD9044773
_publ_section_title
;
Structure prediction by ZEFSAII (Michael W. Deem and Ramdas Pophale) SiO2 
 PCOD9044773
Probable space group: P -1
;
_chemical_formula_sum "Si O2"
_cell_formula_units_Z 16
_cell_length_a 13.087544
_cell_length_b 13.206835
_cell_length_c 12.980943
_cell_angle_alpha 35.040122
_cell_angle_beta 123.099298
_cell_angle_gamma 136.780381
_cell_volume 874.841376
_symmetry_space_group_name_H-M "P -1"
_symmetry_group_IT_number 2
_symmetry_cell_setting 'triclinic'
loop_
_space_group_symop_operation_xyz
x,y,z
-x,-y,-z
loop_
_atom_site_type_symbol
_atom_site_label
_atom_site_fract_x
_atom_site_fract_y
_atom_site_fract_z
Si Si1 0.944611 0.471728 0.874893
Si Si2 0.124413 0.539252 0.714227
Si Si3 0.588207 0.393502 0.113481
Si Si4 0.291492 0.003508 0.317448
Si Si5 0.158542 0.217677 0.443295
Si Si6 0.232021 0.271808 0.217645
Si Si7 0.112240 0.945604 0.068833
Si Si8 0.874248 0.032878 0.174242
O O1 0.866806 0.594991 0.714896
O O2 0.072521 0.564422 0.778351
O O3 0.841069 0.211702 0.020430
O O4 0.000000 0.500000 0.000000
O O5 0.259107 0.511241 0.819505
O O6 0.193033 0.753974 0.505642
O O7 0.980556 0.315644 0.777019
O O8 0.470803 0.139989 0.285335
O O9 0.500000 0.500000 0.000000
O O10 0.656052 0.479938 0.965510
O O11 0.234688 0.024696 0.158247
O O12 0.263744 0.125688 0.289164
O O13 0.257668 0.265575 0.357514
O O14 0.197853 0.152998 0.624514
O O15 0.000000 0.000000 0.500000
O O16 0.057093 0.171947 0.178200
O O17 0.162217 0.042347 0.900911
O O18 0.000000 0.000000 0.000000
#
# Coordination Sequence:
#
# PCOD9044773 Si02
#       8
#     2   2   2   2   2   2   2   2
#     4  11  18  28  50  78 109 132 166 224 276 303
#     4  11  21  35  51  81 110 132 186 221 264 318
#     4  10  19  35  53  73 107 143 178 218 263 319
#     4  11  22  32  54  79 109 146 175 218 266 318
#     4  10  18  29  51  80 109 133 176 221 271 314
#     4  10  17  34  51  79 107 138 177 218 267 313
#     4  11  20  35  52  74 111 146 170 216 271 321
#     4  10  19  32  50  76 111 134 175 213 274 309
#
# _framework density 18.289028999999999
#
# number of rings (size 3 to 8) (size 9 to 14) (size 15 to 20)
#    0.000    1.500    6.250    3.000    0.000    0.000 
#    0.000    0.000    0.000    0.750    0.000   14.000 
#    0.000    0.000    0.000    0.125    0.000    0.000 
#
# Total GULP energy -89082.442211 kJ/mol
# GULP energy per Si atom -5567.652638 kJ/mol
# Density = 1.824740 g / cm^3
# Si number density = 18.289029 Si / 1000 Ang^3
#
#
#
# Elastic Constant Matrix: (Units=GPa)
#
#
# Indices 1 2 3 4 5 6 
#
# 1 56.8517 31.7006 33.8241 8.2017 -13.5768 -16.2314
# 2 31.7006 39.8899 26.0694 7.5871 -8.4616 -16.1546
# 3 33.8241 26.0694 137.7760 6.9324 -23.1572 -20.8445
# 4 8.2017 7.5871 6.9324 27.5711 -5.2823 -5.7348
# 5 -13.5768 -8.4616 -23.1572 -5.2823 34.3040 -0.0968
# 6 -16.2314 -16.1546 -20.8445 -5.7348 -0.0968 30.6371
#
#
#
# Elastic Compliance Matrix: (Units=1/GPa)
#
#
# Indices 1 2 3 4 5 6 
#
# 1 0.034539 -0.022410 -0.002412 -0.001331 0.006322 0.004612
# 2 -0.022410 0.050214 -0.001540 -0.003716 0.001941 0.012868
# 3 -0.002412 -0.001540 0.009710 0.000693 0.005340 0.004663
# 4 -0.001331 -0.003716 0.000693 0.039586 0.005135 0.005233
# 5 0.006322 0.001941 0.005340 0.005135 0.036553 0.009083
# 6 0.004612 0.012868 0.004663 0.005233 0.009083 0.046049
#
#
# Mechanical properties :
#
#
# Convention : Reuss Voigt Hill
#
# Bulk Modulus (GPa) = 23.95765 46.41177 35.18471
# Shear Modulus (GPa) = 17.64986 28.03067 22.84026
#
# Velocity S-wave (km/s) = 3.10990 3.91915 3.53774
# Velocity P-wave (km/s) = 5.10129 6.77581 5.99728
#
# Compressibility (1/GPa) = 0.04174032
#
# Stress axis : x y z
#
# Youngs Moduli (GPa) = 28.95288 19.91462 102.98910
#
# Poissons Ratio (x) = 0.44629 0.24837
# Poissons Ratio (y) = 0.64884 0.15856
# Poissons Ratio (z) = 0.06982 0.03066
#
# Static dielectric constant tensor:
#      x y z
#    x 1.649880 -0.009210 -0.009160 
#    y -0.009210 1.624470 -0.026900 
#    z -0.009160 -0.026900 1.683250 
# 
# From -- ./inp_files/185929.got.cif
#   From: 2010.05.17/outbox.cif.g08.bks.cpg/sg2_93_cif.got.tgz:185929.got - 2010.06.03 11:33:40.
