data_PCOD9044552
_publ_section_title
;
Structure prediction by ZEFSAII (Michael W. Deem and Ramdas Pophale) SiO2 
 PCOD9044552
Probable space group: P -1
;
_chemical_formula_sum "Si O2"
_cell_formula_units_Z 14
_cell_length_a 15.921762
_cell_length_b 30.970720
_cell_length_c 12.276269
_cell_angle_alpha 19.160618
_cell_angle_beta 152.891893
_cell_angle_gamma 162.061833
_cell_volume 609.752767
_symmetry_space_group_name_H-M "P -1"
_symmetry_group_IT_number 2
_symmetry_cell_setting 'triclinic'
loop_
_space_group_symop_operation_xyz
x,y,z
-x,-y,-z
loop_
_atom_site_type_symbol
_atom_site_label
_atom_site_fract_x
_atom_site_fract_y
_atom_site_fract_z
Si Si1 0.548622 0.180984 0.716086
Si Si2 0.852988 0.587180 0.819266
Si Si3 0.763809 0.832570 0.047926
Si Si4 0.323640 0.800469 0.699082
Si Si5 0.729384 0.824191 0.790362
Si Si6 0.901284 0.469409 0.606416
Si Si7 0.112196 0.787612 0.255937
O O1 0.353616 0.132518 0.511488
O O2 0.614369 0.306721 0.599013
O O3 0.855715 0.342796 0.636521
O O4 0.390782 0.969252 0.079050
O O5 0.774582 0.682433 0.442190
O O6 0.053226 0.626989 0.868431
O O7 0.560987 0.376820 0.016636
O O8 0.021355 0.637478 0.005351
O O9 0.498959 0.766843 0.946110
O O10 0.848691 0.929065 0.795392
O O11 0.000000 0.000000 0.000000
O O12 0.220526 0.808228 0.450052
O O13 0.500000 0.000000 0.500000
O O14 0.923657 0.815120 0.988253
O O15 0.930913 0.583892 0.469404
#
# Coordination Sequence:
#
# PCOD9044552 Si02
#       7
#     2   2   2   2   2   2   2
#     4  10  23  47  66  97 143 179 238 287 340 415
#     4  11  24  46  66 101 143 172 231 287 336 424
#     4  12  25  44  69 103 141 179 224 287 350 411
#     4  12  24  42  70 105 138 186 228 281 357 409
#     4  11  25  45  65 102 138 182 232 284 349 408
#     4  10  24  43  72 100 133 190 231 285 350 404
#     4  12  24  43  71 101 139 186 236 284 345 414
#
# _framework density 22.960125000000001
#
# number of rings (size 3 to 8) (size 9 to 14) (size 15 to 20)
#    0.000    0.857    2.857    3.857    2.000    1.714 
#    5.143    0.000    0.000    0.000    0.000    0.000 
#    0.000    0.000    0.000    0.000    0.000    0.000 
#
# Total GULP energy -78021.364315 kJ/mol
# GULP energy per Si atom -5572.954594 kJ/mol
# Density = 2.290787 g / cm^3
# Si number density = 22.960125 Si / 1000 Ang^3
#
#
#
# Elastic Constant Matrix: (Units=GPa)
#
#
# Indices 1 2 3 4 5 6 
#
# 1 99.2196 38.9185 42.0021 12.0112 2.6559 -17.4422
# 2 38.9185 81.8006 19.7157 9.3602 -0.3967 -28.8762
# 3 42.0021 19.7157 66.3620 4.6770 -18.0310 -11.1628
# 4 12.0112 9.3602 4.6770 19.7277 -5.3252 4.2969
# 5 2.6559 -0.3967 -18.0310 -5.3252 41.2120 8.8010
# 6 -17.4422 -28.8762 -11.1628 4.2969 8.8010 65.4459
#
#
#
# Elastic Compliance Matrix: (Units=1/GPa)
#
#
# Indices 1 2 3 4 5 6 
#
# 1 0.018339 -0.003886 -0.011496 -0.009415 -0.008089 0.002918
# 2 -0.003886 0.018156 -0.001914 -0.008291 -0.003109 0.007611
# 3 -0.011496 -0.001914 0.025794 0.005685 0.013093 -0.001643
# 4 -0.009415 -0.008291 0.005685 0.065222 0.013864 -0.011345
# 5 -0.008089 -0.003109 0.013093 0.013864 0.033715 -0.006738
# 6 0.002918 0.007611 -0.001643 -0.011345 -0.006738 0.020786
#
#
# Mechanical properties :
#
#
# Convention : Reuss Voigt Hill
#
# Bulk Modulus (GPa) = 36.10680 49.85053 42.97866
# Shear Modulus (GPa) = 22.13988 35.06020 28.60004
#
# Velocity S-wave (km/s) = 3.10865 3.91193 3.53319
# Velocity P-wave (km/s) = 5.35210 6.49332 5.95013
#
# Compressibility (1/GPa) = 0.02769561
#
# Stress axis : x y z
#
# Youngs Moduli (GPa) = 54.52958 55.07961 38.76845
#
# Poissons Ratio (x) = 0.21405 0.44567
# Poissons Ratio (y) = 0.21191 0.07422
# Poissons Ratio (z) = 0.62686 0.10545
#
# Static dielectric constant tensor:
#      x y z
#    x 1.860490 -0.095390 0.211430 
#    y -0.095390 1.894450 -0.025190 
#    z 0.211430 -0.025190 1.438340 
# 
# From -- ./inp_files/458359.got.cif
#   From: 2010.05.17/outbox.cif.g08.bks.cpg/sg2_230_cif.got.tgz:458359.got - 2010.06.03 11:33:40.
