data_PCOD9044257
_publ_section_title
;
Structure prediction by ZEFSAII (Michael W. Deem and Ramdas Pophale) SiO2 
 PCOD9044257
Probable space group: P -1
;
_chemical_formula_sum "Si O2"
_cell_formula_units_Z 14
_cell_length_a 8.966284
_cell_length_b 9.366661
_cell_length_c 22.229912
_cell_angle_alpha 28.238168
_cell_angle_beta 43.484880
_cell_angle_gamma 55.405093
_cell_volume 593.063725
_symmetry_space_group_name_H-M "P -1"
_symmetry_group_IT_number 2
_symmetry_cell_setting 'triclinic'
loop_
_space_group_symop_operation_xyz
x,y,z
-x,-y,-z
loop_
_atom_site_type_symbol
_atom_site_label
_atom_site_fract_x
_atom_site_fract_y
_atom_site_fract_z
Si Si1 0.632653 0.435689 0.091673
Si Si2 0.983856 0.603306 0.827005
Si Si3 0.133344 0.550532 0.314328
Si Si4 0.382122 0.735610 0.411282
Si Si5 0.595159 0.500351 0.216420
Si Si6 0.809385 0.193119 0.675753
Si Si7 0.266777 0.793649 0.051761
O O1 0.667347 0.546646 0.108574
O O2 0.472332 0.635745 0.033441
O O3 0.498874 0.081599 0.266597
O O4 0.851123 0.459149 0.979212
O O5 0.920928 0.350738 0.887144
O O6 0.245640 0.694978 0.727871
O O7 0.886548 0.903565 0.731930
O O8 0.329678 0.376605 0.339818
O O9 0.181838 0.827895 0.246370
O O10 0.189229 0.676400 0.184573
O O11 0.880982 0.361805 0.460355
O O12 0.500000 0.500000 0.500000
O O13 0.385766 0.739493 0.335216
O O14 0.657133 0.839104 0.102813
O O15 0.000000 0.500000 0.500000
#
# Coordination Sequence:
#
# PCOD9044257 Si02
#       7
#     2   2   2   2   2   2   2
#     4  11  24  44  71  99 140 183 234 280 336 413
#     4  12  24  42  74 107 135 177 237 276 344 414
#     4  10  24  46  69  95 146 173 228 281 351 399
#     4  11  26  44  73 101 131 186 236 285 337 404
#     4  11  25  40  68 104 141 180 219 285 352 397
#     4  10  23  46  71  99 137 181 226 282 341 413
#     4  11  23  43  68 104 140 183 218 296 344 395
#
# _framework density 23.606233
#
# number of rings (size 3 to 8) (size 9 to 14) (size 15 to 20)
#    0.000    1.143    1.429    4.714    8.000    3.429 
#    0.000    2.857    0.000    0.000    0.000    0.000 
#    0.000    0.000    0.000    0.000    0.000    0.000 
#
# Total GULP energy -78234.050127 kJ/mol
# GULP energy per Si atom -5588.146438 kJ/mol
# Density = 2.355250 g / cm^3
# Si number density = 23.606233 Si / 1000 Ang^3
#
#
#
# Elastic Constant Matrix: (Units=GPa)
#
#
# Indices 1 2 3 4 5 6 
#
# 1 134.4418 65.2974 28.4170 7.5470 -11.6776 -17.2492
# 2 65.2974 84.7645 43.1437 3.1690 -1.8097 12.8461
# 3 28.4170 43.1437 95.6552 2.6345 -14.4145 -12.8414
# 4 7.5470 3.1690 2.6345 40.6059 -2.9598 -3.8003
# 5 -11.6776 -1.8097 -14.4145 -2.9598 27.1960 2.3217
# 6 -17.2492 12.8461 -12.8414 -3.8003 2.3217 45.2920
#
#
#
# Elastic Compliance Matrix: (Units=1/GPa)
#
#
# Indices 1 2 3 4 5 6 
#
# 1 0.017548 -0.018463 0.006164 -0.000372 0.008406 0.013205
# 2 -0.018463 0.037242 -0.016023 -0.001351 -0.012243 -0.021623
# 3 0.006164 -0.016023 0.019032 0.000758 0.010743 0.011801
# 4 -0.000372 -0.001351 0.000758 0.025176 0.002684 0.002431
# 5 0.008406 -0.012243 0.010743 0.002684 0.044898 0.007643
# 6 0.013205 -0.021623 0.011801 0.002431 0.007643 0.036399
#
#
# Mechanical properties :
#
#
# Convention : Reuss Voigt Hill
#
# Bulk Modulus (GPa) = 58.21429 65.39752 61.80591
# Shear Modulus (GPa) = 20.60456 34.48568 27.54512
#
# Velocity S-wave (km/s) = 2.95760 3.82628 3.41964
# Velocity P-wave (km/s) = 6.03136 6.87635 6.46767
#
# Compressibility (1/GPa) = 0.01717791
#
# Stress axis : x y z
#
# Youngs Moduli (GPa) = 56.98679 26.85156 52.54266
#
# Poissons Ratio (x) = 0.49576 -0.32388
# Poissons Ratio (y) = 1.05216 0.84189
# Poissons Ratio (z) = -0.35127 0.43024
#
# Static dielectric constant tensor:
#      x y z
#    x 1.905730 0.001210 0.023270 
#    y 0.001210 1.973560 0.078320 
#    z 0.023270 0.078320 1.903770 
# 
# From -- ./inp_files/206004.got.cif
#   From: 2010.05.17/outbox.cif.g08.bks.cpg/sg2_104_cif.got.tgz:206004.got - 2010.06.03 11:33:40.
