data_PCOD9044147
_publ_section_title
;
Structure prediction by ZEFSAII (Michael W. Deem and Ramdas Pophale) SiO2 
 PCOD9044147
Probable space group: P -1
;
_chemical_formula_sum "Si O2"
_cell_formula_units_Z 16
_cell_length_a 11.650202
_cell_length_b 9.108536
_cell_length_c 9.560440
_cell_angle_alpha 121.262924
_cell_angle_beta 55.664450
_cell_angle_gamma 113.893204
_cell_volume 706.969349
_symmetry_space_group_name_H-M "P -1"
_symmetry_group_IT_number 2
_symmetry_cell_setting 'triclinic'
loop_
_space_group_symop_operation_xyz
x,y,z
-x,-y,-z
loop_
_atom_site_type_symbol
_atom_site_label
_atom_site_fract_x
_atom_site_fract_y
_atom_site_fract_z
Si Si1 0.437109 0.987420 0.191191
Si Si2 0.113657 0.886987 0.409791
Si Si3 0.335185 0.530084 0.315256
Si Si4 0.136630 0.002025 0.999607
Si Si5 0.118326 0.658398 0.043596
Si Si6 0.622462 0.401654 0.991046
Si Si7 0.069779 0.321632 0.374866
Si Si8 0.609212 0.115288 0.381891
O O1 0.270149 0.981413 0.319263
O O2 0.522818 0.126870 0.303084
O O3 0.448128 0.786477 0.115546
O O4 0.500000 0.000000 0.000000
O O5 0.077744 0.719802 0.253842
O O6 0.070120 0.814461 0.554816
O O7 0.000000 0.000000 0.500000
O O8 0.493846 0.489632 0.177847
O O9 0.210866 0.394041 0.403276
O O10 0.338614 0.707720 0.485275
O O11 0.297218 0.526481 0.171603
O O12 0.127874 0.830376 0.022710
O O13 0.143825 0.186915 0.162035
O O14 0.266634 0.985735 0.801393
O O15 0.000000 0.000000 0.000000
O O16 0.271250 0.610913 0.958623
O O17 0.000000 0.500000 0.000000
O O18 0.000000 0.500000 0.500000
O O19 0.500000 0.000000 0.500000
#
# Coordination Sequence:
#
# PCOD9044147 Si02
#       8
#     2   2   2   2   2   2   2   2
#     4  11  24  46  75 100 151 198 247 316 386 462
#     4  11  25  46  73 107 144 200 252 308 388 459
#     4  11  25  43  76 112 148 206 254 322 390 457
#     4  12  29  47  75 112 151 202 263 321 391 457
#     4  11  26  47  74 108 155 202 252 319 387 465
#     4  10  23  46  70 107 151 201 259 306 398 461
#     4  12  26  47  75 107 151 199 261 320 385 467
#     4  12  26  46  73 113 150 193 264 321 383 464
#
# _framework density 22.631817000000002
#
# number of rings (size 3 to 8) (size 9 to 14) (size 15 to 20)
#    0.000    0.750    2.500    4.500   10.500    1.000 
#    0.000    2.500    0.000    0.000    0.000    0.000 
#    0.000    0.000    0.000    0.000    0.000    0.000 
#
# Total GULP energy -89090.458403 kJ/mol
# GULP energy per Si atom -5568.153650 kJ/mol
# Density = 2.258031 g / cm^3
# Si number density = 22.631817 Si / 1000 Ang^3
#
#
#
# Elastic Constant Matrix: (Units=GPa)
#
#
# Indices 1 2 3 4 5 6 
#
# 1 165.3818 53.8473 82.0203 17.3545 -10.8596 10.0970
# 2 53.8473 103.1421 44.9840 7.2236 -6.7482 7.9494
# 3 82.0203 44.9840 148.2270 9.6309 -39.8745 12.8174
# 4 17.3545 7.2236 9.6309 44.4374 -2.0048 1.4553
# 5 -10.8596 -6.7482 -39.8745 -2.0048 47.2561 5.1990
# 6 10.0970 7.9494 12.8174 1.4553 5.1990 42.8160
#
#
#
# Elastic Compliance Matrix: (Units=1/GPa)
#
#
# Indices 1 2 3 4 5 6 
#
# 1 0.009471 -0.002812 -0.004920 -0.002292 -0.002490 0.000142
# 2 -0.002812 0.012184 -0.002238 -0.000403 -0.000721 -0.000828
# 3 -0.004920 -0.002238 0.013161 0.000004 0.010050 -0.003585
# 4 -0.002292 -0.000403 0.000004 0.023491 0.000442 -0.000238
# 5 -0.002490 -0.000721 0.010050 0.000442 0.029634 -0.005901
# 6 0.000142 -0.000828 -0.003585 -0.000238 -0.005901 0.025274
#
#
# Mechanical properties :
#
#
# Convention : Reuss Voigt Hill
#
# Bulk Modulus (GPa) = 67.22033 86.49490 76.85761
# Shear Modulus (GPa) = 36.20199 42.62852 39.41525
#
# Velocity S-wave (km/s) = 4.00385 4.34472 4.17776
# Velocity P-wave (km/s) = 7.15126 7.96680 7.57002
#
# Compressibility (1/GPa) = 0.01487645
#
# Stress axis : x y z
#
# Youngs Moduli (GPa) = 105.58889 82.07363 75.97977
#
# Poissons Ratio (x) = 0.23077 0.37385
# Poissons Ratio (y) = 0.29689 0.17003
# Poissons Ratio (z) = 0.51953 0.18367
#
# Static dielectric constant tensor:
#      x y z
#    x 1.950120 -0.055180 0.232530 
#    y -0.055180 1.920980 0.076360 
#    z 0.232530 0.076360 2.030020 
# 
# From -- ./inp_files/245366.got.cif
#   From: 2010.05.17/outbox.cif.g08.bks.cpg/sg2_123_cif.got.tgz:245366.got - 2010.06.03 11:33:40.
