data_PCOD9044263
_publ_section_title
;
Structure prediction by ZEFSAII (Michael W. Deem and Ramdas Pophale) SiO2 
 PCOD9044263
Probable space group: P -1
;
_chemical_formula_sum "Si O2"
_cell_formula_units_Z 12
_cell_length_a 9.273414
_cell_length_b 6.976408
_cell_length_c 11.713862
_cell_angle_alpha 39.420960
_cell_angle_beta 101.589317
_cell_angle_gamma 105.007537
_cell_volume 464.817408
_symmetry_space_group_name_H-M "P -1"
_symmetry_group_IT_number 2
_symmetry_cell_setting 'triclinic'
loop_
_space_group_symop_operation_xyz
x,y,z
-x,-y,-z
loop_
_atom_site_type_symbol
_atom_site_label
_atom_site_fract_x
_atom_site_fract_y
_atom_site_fract_z
Si Si1 0.670146 0.937277 0.044104
Si Si2 0.699743 0.405006 0.123541
Si Si3 0.214017 0.096464 0.272459
Si Si4 0.755017 0.551092 0.650698
Si Si5 0.513038 0.149496 0.559603
Si Si6 0.881670 0.960578 0.285032
O O1 0.757076 0.216570 0.853585
O O2 0.759637 0.924995 0.181569
O O3 0.500000 0.000000 0.000000
O O4 0.676941 0.623698 0.123411
O O5 0.574643 0.105857 0.252610
O O6 0.852530 0.266640 0.206844
O O7 0.700520 0.608886 0.917225
O O8 0.205444 0.208086 0.349486
O O9 0.313012 0.830452 0.397987
O O10 0.047620 0.006351 0.242510
O O11 0.855583 0.691824 0.497228
O O12 0.581209 0.577090 0.582859
O O13 0.500000 0.000000 0.500000
#
# Coordination Sequence:
#
# PCOD9044263 Si02
#       6
#     2   2   2   2   2   2
#     4  12  27  46  72 108 140 182 245 290 348 426
#     4  11  24  43  75 101 140 187 232 289 352 415
#     4  11  21  44  75 103 139 188 235 287 356 421
#     4  10  23  46  72 101 143 184 237 288 350 421
#     4   9  20  40  72 100 133 188 232 280 346 414
#     4  11  26  48  72 102 145 189 228 295 357 413
#
# _framework density 25.816587999999999
#
# number of rings (size 3 to 8) (size 9 to 14) (size 15 to 20)
#    0.000    1.333    1.667    3.500    4.667    1.333 
#    9.000    0.833    0.000    0.000    0.000    0.000 
#    0.000    0.000    0.000    0.000    0.000    0.000 
#
# Total GULP energy -67277.366852 kJ/mol
# GULP energy per Si atom -5606.447238 kJ/mol
# Density = 2.575783 g / cm^3
# Si number density = 25.816588 Si / 1000 Ang^3
#
#
#
# Elastic Constant Matrix: (Units=GPa)
#
#
# Indices 1 2 3 4 5 6 
#
# 1 138.5245 30.4001 33.8255 8.8699 22.1881 2.8786
# 2 30.4001 97.4436 34.6564 4.9321 5.1250 -7.1784
# 3 33.8255 34.6564 147.0749 3.2491 -28.8093 4.0022
# 4 8.8699 4.9321 3.2491 48.6297 -11.3799 12.4754
# 5 22.1881 5.1250 -28.8093 -11.3799 37.8403 2.6063
# 6 2.8786 -7.1784 4.0022 12.4754 2.6063 29.4697
#
#
#
# Elastic Compliance Matrix: (Units=1/GPa)
#
#
# Indices 1 2 3 4 5 6 
#
# 1 0.010425 -0.000740 -0.004311 -0.004677 -0.010861 0.002328
# 2 -0.000740 0.012908 -0.004126 -0.003827 -0.006015 0.005929
# 3 -0.004311 -0.004126 0.011492 0.005064 0.013738 -0.005503
# 4 -0.004677 -0.003827 0.005064 0.029302 0.016966 -0.015068
# 5 -0.010861 -0.006015 0.013738 0.016966 0.050128 -0.013885
# 6 0.002328 0.005929 -0.005503 -0.015068 -0.013885 0.043504
#
#
# Mechanical properties :
#
#
# Convention : Reuss Voigt Hill
#
# Bulk Modulus (GPa) = 60.71563 64.53411 62.62487
# Shear Modulus (GPa) = 27.53269 42.13201 34.83235
#
# Velocity S-wave (km/s) = 3.26923 4.04415 3.67716
# Velocity P-wave (km/s) = 6.14977 6.84531 6.50684
#
# Compressibility (1/GPa) = 0.01647022
#
# Stress axis : x y z
#
# Youngs Moduli (GPa) = 95.92574 77.47397 87.01787
#
# Poissons Ratio (x) = 0.05730 0.37512
# Poissons Ratio (y) = 0.07095 0.35908
# Poissons Ratio (z) = 0.41352 0.31970
#
# Static dielectric constant tensor:
#      x y z
#    x 2.011330 -0.009480 0.015440 
#    y -0.009480 2.089250 0.026260 
#    z 0.015440 0.026260 1.999340 
# 
# From -- ./inp_files/491862.got.cif
#   From: 2010.05.17/outbox.cif.g08.bks.cpg/sg2_246_cif.got.tgz:491862.got - 2010.06.03 11:33:40.
