data_PCOD9044478
_publ_section_title
;
Structure prediction by ZEFSAII (Michael W. Deem and Ramdas Pophale) SiO2 
 PCOD9044478
Probable space group: P -1
;
_chemical_formula_sum "Si O2"
_cell_formula_units_Z 15
_cell_length_a 14.195197
_cell_length_b 9.179938
_cell_length_c 12.387821
_cell_angle_alpha 99.714815
_cell_angle_beta 148.953200
_cell_angle_gamma 101.840811
_cell_volume 595.481452
_symmetry_space_group_name_H-M "P -1"
_symmetry_group_IT_number 2
_symmetry_cell_setting 'triclinic'
loop_
_space_group_symop_operation_xyz
x,y,z
-x,-y,-z
loop_
_atom_site_type_symbol
_atom_site_label
_atom_site_fract_x
_atom_site_fract_y
_atom_site_fract_z
Si Si1 0.624969 0.810707 0.395476
Si Si2 0.602938 0.223359 0.635627
Si Si3 0.726865 0.344086 0.264483
Si Si4 0.499177 0.547156 0.803626
Si Si5 0.868985 0.587806 0.774565
Si Si6 0.459438 0.978815 0.794954
Si Si7 0.146185 0.026147 0.900419
Si Si8 0.000000 0.000000 0.000000
O O1 0.620955 0.813761 0.523083
O O2 0.416629 0.577082 0.128036
O O3 0.635535 0.985332 0.396094
O O4 0.854883 0.863937 0.567012
O O5 0.698741 0.375853 0.649252
O O6 0.500000 0.000000 0.500000
O O7 0.862848 0.344966 0.974067
O O8 0.609737 0.435057 0.195138
O O9 0.000000 0.500000 0.500000
O O10 0.720754 0.239574 0.353803
O O11 0.537172 0.149910 0.975998
O O12 0.287105 0.455529 0.490454
O O13 0.730901 0.769341 0.014398
O O14 0.929680 0.774540 0.919324
O O15 0.706732 0.032165 0.005259
O O16 0.136260 0.035067 0.020458
#
# Coordination Sequence:
#
# PCOD9044478 Si02
#       8
#     2   2   2   2   2   2   2   1
#     4  12  25  42  71 104 141 183 232 288 349 424
#     4  11  27  44  67 105 141 194 243 281 349 422
#     4  10  23  46  76  98 133 184 229 291 360 414
#     4  11  26  45  70 104 141 183 235 295 355 408
#     4  11  26  45  68 102 146 190 241 289 345 419
#     4  10  25  47  70 103 138 179 232 290 352 417
#     4  11  25  44  67 104 144 184 233 285 344 417
#     4  12  22  42  70  94 146 194 222 286 340 412
#
# _framework density 25.189700999999999
#
# number of rings (size 3 to 8) (size 9 to 14) (size 15 to 20)
#    0.000    1.067    1.333    3.200    9.333    3.733 
#    0.000    9.333    0.000    0.000    0.000    0.000 
#    0.000    0.000    0.000    0.000    0.000    0.000 
#
# Total GULP energy -83677.971269 kJ/mol
# GULP energy per Si atom -5578.531418 kJ/mol
# Density = 2.513237 g / cm^3
# Si number density = 25.189701 Si / 1000 Ang^3
#
#
#
# Elastic Constant Matrix: (Units=GPa)
#
#
# Indices 1 2 3 4 5 6 
#
# 1 111.0478 34.4422 27.7157 13.3485 19.1312 -26.8504
# 2 34.4422 139.2652 22.6357 13.4872 21.7583 -15.1098
# 3 27.7157 22.6357 48.7955 19.0871 29.1635 6.8275
# 4 13.3485 13.4872 19.0871 34.1951 -1.1901 -6.8224
# 5 19.1312 21.7583 29.1635 -1.1901 40.5300 6.7999
# 6 -26.8504 -15.1098 6.8275 -6.8224 6.7999 41.8659
#
#
#
# Elastic Compliance Matrix: (Units=1/GPa)
#
#
# Indices 1 2 3 4 5 6 
#
# 1 0.014154 -0.000812 -0.009049 0.001953 -0.001492 0.010821
# 2 -0.000812 0.008730 -0.000098 -0.002641 -0.004813 0.002998
# 3 -0.009049 -0.000098 0.071129 -0.041054 -0.045247 -0.016780
# 4 0.001953 -0.002641 -0.041054 0.055717 0.029787 0.011236
# 5 -0.001492 -0.004813 -0.045247 0.029787 0.061468 -0.000445
# 6 0.010821 0.002998 -0.016780 0.011236 -0.000445 0.036548
#
#
# Mechanical properties :
#
#
# Convention : Reuss Voigt Hill
#
# Bulk Modulus (GPa) = 13.49632 52.07730 32.78681
# Shear Modulus (GPa) = 17.10201 37.60585 27.35393
#
# Velocity S-wave (km/s) = 2.60845 3.86801 3.29890
# Velocity P-wave (km/s) = 3.80020 6.37711 5.24924
#
# Compressibility (1/GPa) = 0.07409425
#
# Stress axis : x y z
#
# Youngs Moduli (GPa) = 70.65058 114.54328 14.05903
#
# Poissons Ratio (x) = 0.09297 0.12722
# Poissons Ratio (y) = 0.05734 0.00138
# Poissons Ratio (z) = 0.63934 0.01128
#
# Static dielectric constant tensor:
#      x y z
#    x 1.926600 0.008850 0.007980 
#    y 0.008850 2.044850 -0.060740 
#    z 0.007980 -0.060740 2.035580 
# 
# From -- ./inp_files/529933.got.cif
#   From: 2010.05.17/outbox.cif.g08.bks.cpg/sg2_265_cif.got.tgz:529933.got - 2010.06.03 11:33:40.
