data_PCOD9044381
_publ_section_title
;
Structure prediction by ZEFSAII (Michael W. Deem and Ramdas Pophale) SiO2 
 PCOD9044381
Probable space group: P -1
;
_chemical_formula_sum "Si O2"
_cell_formula_units_Z 12
_cell_length_a 5.290701
_cell_length_b 13.020557
_cell_length_c 7.771959
_cell_angle_alpha 82.876482
_cell_angle_beta 64.243820
_cell_angle_gamma 106.306736
_cell_volume 443.665634
_symmetry_space_group_name_H-M "P -1"
_symmetry_group_IT_number 2
_symmetry_cell_setting 'triclinic'
loop_
_space_group_symop_operation_xyz
x,y,z
-x,-y,-z
loop_
_atom_site_type_symbol
_atom_site_label
_atom_site_fract_x
_atom_site_fract_y
_atom_site_fract_z
Si Si1 0.230347 0.480375 0.720909
Si Si2 0.747355 0.723612 0.057117
Si Si3 0.158564 0.696315 0.369824
Si Si4 0.263153 0.059791 0.546042
Si Si5 0.827094 0.096022 0.908827
Si Si6 0.593894 0.706994 0.718030
O O1 0.500000 0.500000 0.500000
O O2 0.217943 0.392238 0.890928
O O3 0.314215 0.599516 0.758603
O O4 0.946807 0.414312 0.696759
O O5 0.512505 0.722982 0.279974
O O6 0.053049 0.831090 0.970216
O O7 0.606771 0.727515 0.913277
O O8 0.159244 0.804966 0.246334
O O9 0.902718 0.683451 0.589762
O O10 0.405344 0.185554 0.406759
O O11 0.085718 0.052935 0.778233
O O12 0.500000 0.000000 0.500000
O O13 0.000000 0.000000 0.500000
O O14 0.500000 0.000000 0.000000
#
# Coordination Sequence:
#
# PCOD9044381 Si02
#       6
#     2   2   2   2   2   2
#     4   9  20  44  70 107 154 194 246 313 383 466
#     4  11  23  44  75 112 147 196 258 314 385 466
#     4   9  22  44  67 108 145 193 249 310 386 457
#     4  11  28  53  77 113 154 206 267 323 392 466
#     4  10  25  48  72 103 154 198 258 324 389 457
#     4  10  23  46  73 109 150 198 253 314 387 456
#
# _framework density 27.047395999999999
#
# number of rings (size 3 to 8) (size 9 to 14) (size 15 to 20)
#    0.000    2.000    0.000    1.500    7.000    5.333 
#    6.000    1.667    0.000    0.000    0.000    3.500 
#    0.000    0.000    0.000    0.000    0.000    0.000 
#
# Total GULP energy -67243.791323 kJ/mol
# GULP energy per Si atom -5603.649277 kJ/mol
# Density = 2.698583 g / cm^3
# Si number density = 27.047396 Si / 1000 Ang^3
#
#
#
# Elastic Constant Matrix: (Units=GPa)
#
#
# Indices 1 2 3 4 5 6 
#
# 1 125.1957 89.9835 56.8151 -8.8262 -24.0552 3.9059
# 2 89.9835 225.6959 63.7025 -35.5723 -0.9511 20.2472
# 3 56.8151 63.7025 138.8307 5.3779 -15.7011 -0.0157
# 4 -8.8262 -35.5723 5.3779 41.7295 -10.0113 -0.8203
# 5 -24.0552 -0.9511 -15.7011 -10.0113 53.0451 -4.0374
# 6 3.9059 20.2472 -0.0157 -0.8203 -4.0374 61.1758
#
#
#
# Elastic Compliance Matrix: (Units=1/GPa)
#
#
# Indices 1 2 3 4 5 6 
#
# 1 0.013669 -0.004594 -0.002894 0.000679 0.005465 0.001017
# 2 -0.004594 0.007980 -0.002194 0.005658 -0.001703 -0.002385
# 3 -0.002894 -0.002194 0.009632 -0.003486 0.000912 0.000927
# 4 0.000679 0.005658 -0.003486 0.030570 0.005058 -0.001173
# 5 0.005465 -0.001703 0.000912 0.005058 0.022660 0.001778
# 6 0.001017 -0.002385 0.000927 -0.001173 0.001778 0.017173
#
#
# Mechanical properties :
#
#
# Convention : Reuss Voigt Hill
#
# Bulk Modulus (GPa) = 83.90791 101.19163 92.54977
# Shear Modulus (GPa) = 39.99358 49.80484 44.89921
#
# Velocity S-wave (km/s) = 3.84949 4.29580 4.07875
# Velocity P-wave (km/s) = 7.13078 7.88030 7.51489
#
# Compressibility (1/GPa) = 0.01191783
#
# Stress axis : x y z
#
# Youngs Moduli (GPa) = 73.15799 125.31178 103.81824
#
# Poissons Ratio (x) = 0.57569 0.30045
# Poissons Ratio (y) = 0.33609 0.22774
# Poissons Ratio (z) = 0.21172 0.27489
#
# Static dielectric constant tensor:
#      x y z
#    x 2.101130 -0.024850 -0.025920 
#    y -0.024850 2.108260 0.036430 
#    z -0.025920 0.036430 2.121460 
# 
# From -- ./inp_files/131585.got.cif
#   From: 2010.05.17/outbox.cif.g08.bks.cpg/sg2_66_cif.got.tgz:131585.got - 2010.06.03 11:33:40.
