data_PCOD9044681
_publ_section_title
;
Structure prediction by ZEFSAII (Michael W. Deem and Ramdas Pophale) SiO2 
 PCOD9044681
Probable space group: P -1
;
_chemical_formula_sum "Si O2"
_cell_formula_units_Z 14
_cell_length_a 5.470756
_cell_length_b 16.879482
_cell_length_c 8.643949
_cell_angle_alpha 119.210494
_cell_angle_beta 59.367536
_cell_angle_gamma 114.540011
_cell_volume 584.535163
_symmetry_space_group_name_H-M "P -1"
_symmetry_group_IT_number 2
_symmetry_cell_setting 'triclinic'
loop_
_space_group_symop_operation_xyz
x,y,z
-x,-y,-z
loop_
_atom_site_type_symbol
_atom_site_label
_atom_site_fract_x
_atom_site_fract_y
_atom_site_fract_z
Si Si1 0.758746 0.246122 0.182431
Si Si2 0.349200 0.935840 0.348809
Si Si3 0.716504 0.876362 0.568333
Si Si4 0.722940 0.581054 0.264630
Si Si5 0.080671 0.601226 0.488354
Si Si6 0.311469 0.633217 0.957295
Si Si7 0.314412 0.201652 0.835386
O O1 0.496251 0.176689 0.284852
O O2 0.954139 0.314323 0.309940
O O3 0.641816 0.315016 0.171185
O O4 0.976408 0.195694 0.971401
O O5 0.559741 0.870510 0.166460
O O6 0.055454 0.873514 0.457073
O O7 0.500000 0.000000 0.500000
O O8 0.282365 0.013188 0.326603
O O9 0.625854 0.828682 0.385630
O O10 0.431402 0.617757 0.372724
O O11 0.635218 0.469744 0.164102
O O12 0.888714 0.597897 0.392610
O O13 0.971641 0.622063 0.099775
O O14 0.000000 0.500000 0.500000
O O15 0.504493 0.696983 0.082524
#
# Coordination Sequence:
#
# PCOD9044681 Si02
#       7
#     2   2   2   2   2   2   2
#     4  12  27  40  72 106 144 185 253 293 366 425
#     4   9  21  45  75  97 139 183 231 285 382 434
#     4  10  23  47  71 103 138 186 229 303 361 445
#     4  11  27  46  72  97 151 201 246 305 369 421
#     4  12  25  47  70 105 147 199 248 304 360 432
#     4  11  26  43  67 104 139 190 246 300 360 433
#     4  11  24  44  68 105 141 183 236 302 356 446
#
# _framework density 23.950652999999999
#
# number of rings (size 3 to 8) (size 9 to 14) (size 15 to 20)
#    0.000    1.143    1.429    3.000    8.000    4.000 
#    0.000   10.000    0.000    0.000    0.000    0.000 
#    0.000    0.000    0.000    0.000    0.000    0.000 
#
# Total GULP energy -78414.703349 kJ/mol
# GULP energy per Si atom -5601.050239 kJ/mol
# Density = 2.389614 g / cm^3
# Si number density = 23.950653 Si / 1000 Ang^3
#
#
#
# Elastic Constant Matrix: (Units=GPa)
#
#
# Indices 1 2 3 4 5 6 
#
# 1 104.9787 34.1932 33.0195 5.5753 -3.9089 13.9271
# 2 34.1932 115.0978 51.7352 -28.8434 -4.9900 0.9392
# 3 33.0195 51.7352 87.4154 -13.1023 -12.2900 -15.8333
# 4 5.5753 -28.8434 -13.1023 37.3367 6.8960 1.2691
# 5 -3.9089 -4.9900 -12.2900 6.8960 43.3312 6.3068
# 6 13.9271 0.9392 -15.8333 1.2691 6.3068 18.2454
#
#
#
# Elastic Compliance Matrix: (Units=1/GPa)
#
#
# Indices 1 2 3 4 5 6 
#
# 1 0.016519 -0.002168 -0.009493 -0.007268 0.002790 -0.021195
# 2 -0.002168 0.015514 -0.008255 0.009888 -0.001375 -0.006520
# 3 -0.009493 -0.008255 0.025823 0.002960 0.000735 0.029620
# 4 -0.007268 0.009888 0.002960 0.037350 -0.005634 0.006956
# 5 0.002790 -0.001375 0.000735 -0.005634 0.025720 -0.009920
# 6 -0.021195 -0.006520 0.029620 0.006956 -0.009920 0.099971
#
#
# Mechanical properties :
#
#
# Convention : Reuss Voigt Hill
#
# Bulk Modulus (GPa) = 55.47967 60.59864 58.03915
# Shear Modulus (GPa) = 18.74497 32.35227 25.54862
#
# Velocity S-wave (km/s) = 2.80062 3.67929 3.26961
# Velocity P-wave (km/s) = 5.80279 6.58832 6.20800
#
# Compressibility (1/GPa) = 0.01802462
#
# Stress axis : x y z
#
# Youngs Moduli (GPa) = 60.53503 64.45632 38.72517
#
# Poissons Ratio (x) = 0.13974 0.36761
# Poissons Ratio (y) = 0.13124 0.31969
# Poissons Ratio (z) = 0.57465 0.53210
#
# Static dielectric constant tensor:
#      x y z
#    x 1.962150 -0.031110 0.008320 
#    y -0.031110 1.906290 0.001710 
#    z 0.008320 0.001710 1.938690 
# 
# From -- ./inp_files/49193.got.cif
#   From: 2010.05.17/outbox.cif.g08.bks.cpg/sg2_25_cif.got.tgz:49193.got - 2010.06.03 11:33:40.
