data_PCOD9044313
_publ_section_title
;
Structure prediction by ZEFSAII (Michael W. Deem and Ramdas Pophale) SiO2 
 PCOD9044313
Probable space group: P -1
;
_chemical_formula_sum "Si O2"
_cell_formula_units_Z 16
_cell_length_a 8.953959
_cell_length_b 11.287551
_cell_length_c 18.669044
_cell_angle_alpha 135.360431
_cell_angle_beta 43.794037
_cell_angle_gamma 102.308280
_cell_volume 721.459726
_symmetry_space_group_name_H-M "P -1"
_symmetry_group_IT_number 2
_symmetry_cell_setting 'triclinic'
loop_
_space_group_symop_operation_xyz
x,y,z
-x,-y,-z
loop_
_atom_site_type_symbol
_atom_site_label
_atom_site_fract_x
_atom_site_fract_y
_atom_site_fract_z
Si Si1 0.730166 0.868222 0.518190
Si Si2 0.150610 0.808279 0.924524
Si Si3 0.123994 0.260346 0.877921
Si Si4 0.902239 0.821741 0.719608
Si Si5 0.198043 0.065329 0.623192
Si Si6 0.528362 0.746114 0.887203
Si Si7 0.885655 0.271022 0.541984
Si Si8 0.496761 0.606404 0.474938
O O1 0.623304 0.728247 0.497180
O O2 0.899866 0.841124 0.516350
O O3 0.061429 0.175416 0.793066
O O4 0.910185 0.798064 0.353398
O O5 0.345935 0.832505 0.915345
O O6 0.332110 0.582127 0.723219
O O7 0.981239 0.782824 0.032111
O O8 0.000000 0.000000 0.000000
O O9 0.453398 0.112211 0.710690
O O10 0.000000 0.500000 0.000000
O O11 0.792232 0.733394 0.773985
O O12 0.969240 0.718076 0.573438
O O13 0.181217 0.765933 0.629043
O O14 0.656566 0.076625 0.912689
O O15 0.205439 0.865740 0.515253
O O16 0.500000 0.000000 0.500000
O O17 0.633634 0.506321 0.756940
O O18 0.500000 0.500000 0.500000
#
# Coordination Sequence:
#
# PCOD9044313 Si02
#       8
#     2   2   2   2   2   2   2   2
#     4  11  25  44  71 106 142 190 245 304 362 435
#     4  12  26  42  72 109 146 189 246 307 359 434
#     4  11  25  46  75 106 144 196 247 298 366 440
#     4  11  24  45  65 105 140 195 236 298 364 449
#     4  10  23  46  72  98 139 189 242 294 359 438
#     4  11  25  41  72 101 148 190 243 293 375 433
#     4  12  24  44  72 103 148 184 240 303 374 424
#     4  12  24  44  71 102 146 191 245 301 366 437
#
# _framework density 22.17726
#
# number of rings (size 3 to 8) (size 9 to 14) (size 15 to 20)
#    0.000    0.750    1.250    6.750    7.000    1.000 
#    2.250    0.625    0.000    0.000    0.000    0.000 
#    0.000    0.000    0.000    0.000    0.000    0.000 
#
# Total GULP energy -89435.503520 kJ/mol
# GULP energy per Si atom -5589.718970 kJ/mol
# Density = 2.212678 g / cm^3
# Si number density = 22.177260 Si / 1000 Ang^3
#
#
#
# Elastic Constant Matrix: (Units=GPa)
#
#
# Indices 1 2 3 4 5 6 
#
# 1 107.6106 34.9030 37.6512 9.0506 -2.1962 -4.4561
# 2 34.9030 125.0495 43.7450 7.7615 0.2996 -8.5369
# 3 37.6512 43.7450 123.5455 14.2468 16.2280 -2.3146
# 4 9.0506 7.7615 14.2468 45.3377 -3.9226 9.8806
# 5 -2.1962 0.2996 16.2280 -3.9226 32.4568 0.9492
# 6 -4.4561 -8.5369 -2.3146 9.8806 0.9492 44.6398
#
#
#
# Elastic Compliance Matrix: (Units=1/GPa)
#
#
# Indices 1 2 3 4 5 6 
#
# 1 0.011079 -0.002003 -0.002808 -0.000974 0.002032 0.000750
# 2 -0.002003 0.009705 -0.002867 -0.000620 0.001086 0.001622
# 3 -0.002808 -0.002867 0.011137 -0.003102 -0.006124 0.000566
# 4 -0.000974 -0.000620 -0.003102 0.025050 0.004694 -0.006021
# 5 0.002032 0.001086 -0.006124 0.004694 0.034616 -0.001682
# 6 0.000750 0.001622 0.000566 -0.006021 -0.001682 0.024184
#
#
# Mechanical properties :
#
#
# Convention : Reuss Voigt Hill
#
# Bulk Modulus (GPa) = 60.36213 65.42267 62.89240
# Shear Modulus (GPa) = 36.58963 40.48060 38.53511
#
# Velocity S-wave (km/s) = 4.06627 4.27701 4.17297
# Velocity P-wave (km/s) = 7.02304 7.34536 7.18601
#
# Compressibility (1/GPa) = 0.01656668
#
# Stress axis : x y z
#
# Youngs Moduli (GPa) = 90.25773 103.03501 89.78682
#
# Poissons Ratio (x) = 0.20642 0.25210
# Poissons Ratio (y) = 0.18083 0.25739
# Poissons Ratio (z) = 0.25342 0.29537
#
# Static dielectric constant tensor:
#      x y z
#    x 1.812480 -0.009930 0.009010 
#    y -0.009930 1.905710 -0.028500 
#    z 0.009010 -0.028500 1.849510 
# 
# From -- ./inp_files/589605.got.cif
#   From: 2010.05.17/outbox.cif.g08.bks.cpg/sg2_295_cif.got.tgz:589605.got - 2010.06.03 11:33:40.
