data_PCOD9044058
_publ_section_title
;
Structure prediction by ZEFSAII (Michael W. Deem and Ramdas Pophale) SiO2 
 PCOD9044058
Probable space group: P -1
;
_chemical_formula_sum "Si O2"
_cell_formula_units_Z 16
_cell_length_a 26.184250
_cell_length_b 9.025260
_cell_length_c 16.533279
_cell_angle_alpha 41.987061
_cell_angle_beta 157.500483
_cell_angle_gamma 151.173526
_cell_volume 673.054516
_symmetry_space_group_name_H-M "P -1"
_symmetry_group_IT_number 2
_symmetry_cell_setting 'triclinic'
loop_
_space_group_symop_operation_xyz
x,y,z
-x,-y,-z
loop_
_atom_site_type_symbol
_atom_site_label
_atom_site_fract_x
_atom_site_fract_y
_atom_site_fract_z
Si Si1 0.224379 0.178219 0.243291
Si Si2 0.295208 0.417870 0.069046
Si Si3 0.673577 0.215032 0.465136
Si Si4 0.864942 0.292781 0.308985
Si Si5 0.614135 0.279096 0.626810
Si Si6 0.940585 0.672398 0.816890
Si Si7 0.838438 0.627719 0.384894
Si Si8 0.496581 0.732337 0.084266
O O1 0.372118 0.469686 0.406358
O O2 0.247231 0.939431 0.371758
O O3 0.287869 0.340960 0.181946
O O4 0.000000 0.000000 0.000000
O O5 0.236857 0.603744 0.907235
O O6 0.477617 0.604417 0.197724
O O7 0.123284 0.059883 0.922143
O O8 0.824537 0.513609 0.627925
O O9 0.689733 0.361901 0.344997
O O10 0.465575 0.957800 0.315092
O O11 0.000000 0.500000 0.500000
O O12 0.018845 0.394140 0.427543
O O13 0.689012 0.916998 0.236847
O O14 0.810608 0.568872 0.746015
O O15 0.500000 0.000000 0.500000
O O16 0.000000 0.500000 0.000000
O O17 0.700739 0.547014 0.143637
O O18 0.000000 0.000000 0.500000
O O19 0.500000 0.000000 0.000000
#
# Coordination Sequence:
#
# PCOD9044058 Si02
#       8
#     2   2   2   2   2   2   2   2
#     4  12  22  42  69 104 134 182 230 276 347 422
#     4  11  22  41  74 100 138 178 239 289 344 424
#     4  11  25  42  67 103 143 181 228 288 351 418
#     4  11  24  46  73  99 137 189 237 290 356 411
#     4  10  24  42  61  99 143 178 227 274 345 423
#     4  11  21  45  65  99 143 182 223 280 355 420
#     4  12  26  48  72 103 148 183 238 296 348 415
#     4  10  23  46  69 106 135 181 245 287 346 422
#
# _framework density 23.772219
#
# number of rings (size 3 to 8) (size 9 to 14) (size 15 to 20)
#    0.000    1.000    5.000    1.875    3.500    0.500 
#    4.500    0.000    0.000    0.000    0.000    0.000 
#    0.000    0.000    0.000    0.000    0.000    0.000 
#
# Total GULP energy -89169.079062 kJ/mol
# GULP energy per Si atom -5573.067441 kJ/mol
# Density = 2.371811 g / cm^3
# Si number density = 23.772219 Si / 1000 Ang^3
#
#
#
# Elastic Constant Matrix: (Units=GPa)
#
#
# Indices 1 2 3 4 5 6 
#
# 1 140.7595 57.2676 30.4347 1.4792 -20.2424 27.5615
# 2 57.2676 90.8237 16.8952 13.7402 -11.2547 21.6795
# 3 30.4347 16.8952 60.7325 3.2041 -6.1895 8.1440
# 4 1.4792 13.7402 3.2041 30.3300 9.0145 -8.6428
# 5 -20.2424 -11.2547 -6.1895 9.0145 32.1831 11.2693
# 6 27.5615 21.6795 8.1440 -8.6428 11.2693 58.7745
#
#
#
# Elastic Compliance Matrix: (Units=1/GPa)
#
#
# Indices 1 2 3 4 5 6 
#
# 1 0.011651 -0.004256 -0.003058 -0.002095 0.007677 -0.005250
# 2 -0.004256 0.019798 -0.000053 -0.015081 0.011891 -0.009797
# 3 -0.003058 -0.000053 0.018871 -0.003531 0.003500 -0.002351
# 4 -0.002095 -0.015081 -0.003531 0.055165 -0.030043 0.020907
# 5 0.007677 0.011891 0.003500 -0.030043 0.057522 -0.023918
# 6 -0.005250 -0.009797 -0.002351 0.020907 -0.023918 0.031076
#
#
# Mechanical properties :
#
#
# Convention : Reuss Voigt Hill
#
# Bulk Modulus (GPa) = 28.10175 55.72339 41.91257
# Shear Modulus (GPa) = 22.65735 36.77207 29.71471
#
# Velocity S-wave (km/s) = 3.09058 3.93727 3.53934
# Velocity P-wave (km/s) = 4.95808 6.64537 5.86274
#
# Compressibility (1/GPa) = 0.03558498
#
# Stress axis : x y z
#
# Youngs Moduli (GPa) = 85.82917 50.51130 52.99123
#
# Poissons Ratio (x) = 0.21499 0.16203
# Poissons Ratio (y) = 0.36531 0.00283
# Poissons Ratio (z) = 0.26244 0.00269
#
# Static dielectric constant tensor:
#      x y z
#    x 1.818450 0.007910 -0.048810 
#    y 0.007910 1.891820 0.034280 
#    z -0.048810 0.034280 1.871600 
# 
# From -- ./inp_files/542656.got.cif
#   From: 2010.05.17/outbox.cif.g08.bks.cpg/sg2_272_cif.got.tgz:542656.got - 2010.06.03 11:33:40.
