data_PCOD9044717
_publ_section_title
;
Structure prediction by ZEFSAII (Michael W. Deem and Ramdas Pophale) SiO2 
 PCOD9044717
Probable space group: P -1
;
_chemical_formula_sum "Si O2"
_cell_formula_units_Z 16
_cell_length_a 12.935376
_cell_length_b 10.867715
_cell_length_c 5.347272
_cell_angle_alpha 67.112361
_cell_angle_beta 77.024246
_cell_angle_gamma 76.034015
_cell_volume 664.837202
_symmetry_space_group_name_H-M "P -1"
_symmetry_group_IT_number 2
_symmetry_cell_setting 'triclinic'
loop_
_space_group_symop_operation_xyz
x,y,z
-x,-y,-z
loop_
_atom_site_type_symbol
_atom_site_label
_atom_site_fract_x
_atom_site_fract_y
_atom_site_fract_z
Si Si1 0.431352 0.987234 0.295145
Si Si2 0.147046 0.085692 0.768873
Si Si3 0.758712 0.643989 0.410554
Si Si4 0.928466 0.113681 0.682659
Si Si5 0.738889 0.169243 0.352162
Si Si6 0.643082 0.721526 0.908984
Si Si7 0.458718 0.583744 0.210891
Si Si8 0.215144 0.636771 0.198675
O O1 0.371493 0.858205 0.444672
O O2 0.500000 0.000000 0.500000
O O3 0.500000 0.000000 0.000000
O O4 0.341201 0.123183 0.220206
O O5 0.186182 0.224217 0.700190
O O6 0.054395 0.114829 0.584079
O O7 0.239173 0.955371 0.763619
O O8 0.085071 0.028994 0.075765
O O9 0.715337 0.642090 0.152585
O O10 0.823210 0.501642 0.589991
O O11 0.666646 0.669465 0.655723
O O12 0.844499 0.139274 0.485743
O O13 0.879265 0.239507 0.788355
O O14 0.742316 0.318725 0.127472
O O15 0.521221 0.710154 0.050588
O O16 0.500000 0.500000 0.500000
O O17 0.330722 0.626217 0.280590
O O18 0.500000 0.500000 0.000000
#
# Coordination Sequence:
#
# PCOD9044717 Si02
#       8
#     2   2   2   2   2   2   2   2
#     4  12  27  43  68 104 141 181 232 290 346 408
#     4  10  23  47  72 102 132 184 237 294 357 421
#     4  12  25  45  71 100 140 184 232 284 347 415
#     4  10  24  45  74 101 136 178 239 296 357 413
#     4  11  24  44  72  99 143 183 234 289 356 417
#     4  12  24  44  67  99 138 186 235 279 344 415
#     4  12  24  42  66  95 139 188 226 271 337 417
#     4  11  26  42  67 106 139 182 236 285 349 417
#
# _framework density 24.066040000000001
#
# number of rings (size 3 to 8) (size 9 to 14) (size 15 to 20)
#    0.000    0.750    3.750    2.625    8.750    0.500 
#    0.000    0.625    0.000    0.000    0.000    0.000 
#    0.000    0.000    0.000    0.000    0.000    0.000 
#
# Total GULP energy -89315.391495 kJ/mol
# GULP energy per Si atom -5582.211968 kJ/mol
# Density = 2.401126 g / cm^3
# Si number density = 24.066040 Si / 1000 Ang^3
#
#
#
# Elastic Constant Matrix: (Units=GPa)
#
#
# Indices 1 2 3 4 5 6 
#
# 1 65.4690 0.9021 12.5598 -4.7389 9.8904 1.9376
# 2 0.9021 68.9034 30.9620 -16.1310 -13.1358 5.1456
# 3 12.5598 30.9620 124.4131 -16.7262 23.2739 4.3426
# 4 -4.7389 -16.1310 -16.7262 48.4904 4.2201 -11.3850
# 5 9.8904 -13.1358 23.2739 4.2201 31.1105 -2.5902
# 6 1.9376 5.1456 4.3426 -11.3850 -2.5902 37.3559
#
#
#
# Elastic Compliance Matrix: (Units=1/GPa)
#
#
# Indices 1 2 3 4 5 6 
#
# 1 0.016309 -0.000809 -0.000139 0.001627 -0.005694 -0.000617
# 2 -0.000809 0.021421 -0.007534 0.003172 0.014502 -0.000061
# 3 -0.000139 -0.007534 0.012796 0.002930 -0.013145 -0.000461
# 4 0.001627 0.003172 0.002930 0.024710 -0.004190 0.006378
# 5 -0.005694 0.014502 -0.013145 -0.004190 0.050651 0.002061
# 6 -0.000617 -0.000061 -0.000461 0.006378 0.002061 0.028950
#
#
# Mechanical properties :
#
#
# Convention : Reuss Voigt Hill
#
# Bulk Modulus (GPa) = 29.79727 38.62591 34.21159
# Shear Modulus (GPa) = 27.32430 37.68213 32.50321
#
# Velocity S-wave (km/s) = 3.37321 3.96129 3.67902
# Velocity P-wave (km/s) = 5.25164 6.08335 5.68273
#
# Compressibility (1/GPa) = 0.03356012
#
# Stress axis : x y z
#
# Youngs Moduli (GPa) = 61.31738 46.68371 78.15179
#
# Poissons Ratio (x) = 0.03779 0.01090
# Poissons Ratio (y) = 0.04963 0.58876
# Poissons Ratio (z) = 0.00855 0.35170
#
# Static dielectric constant tensor:
#      x y z
#    x 1.964770 -0.027210 -0.063120 
#    y -0.027210 2.124900 0.104010 
#    z -0.063120 0.104010 2.174520 
# 
# From -- ./inp_files/68522.got.cif
#   From: 2010.05.17/outbox.cif.g08.bks.cpg/sg2_35_cif.got.tgz:68522.got - 2010.06.03 11:33:40.
