data_PCOD9044291
_publ_section_title
;
Structure prediction by ZEFSAII (Michael W. Deem and Ramdas Pophale) SiO2 
 PCOD9044291
Probable space group: P -1
;
_chemical_formula_sum "Si O2"
_cell_formula_units_Z 16
_cell_length_a 16.589078
_cell_length_b 11.197123
_cell_length_c 5.482727
_cell_angle_alpha 120.607157
_cell_angle_beta 120.162901
_cell_angle_gamma 44.963730
_cell_volume 602.237285
_symmetry_space_group_name_H-M "P -1"
_symmetry_group_IT_number 2
_symmetry_cell_setting 'triclinic'
loop_
_space_group_symop_operation_xyz
x,y,z
-x,-y,-z
loop_
_atom_site_type_symbol
_atom_site_label
_atom_site_fract_x
_atom_site_fract_y
_atom_site_fract_z
Si Si1 0.256157 0.157001 0.279517
Si Si2 0.532039 0.107740 0.320277
Si Si3 0.916259 0.235535 0.381293
Si Si4 0.326013 0.474983 0.397877
Si Si5 0.674350 0.218956 0.395716
Si Si6 0.187283 0.460651 0.771059
Si Si7 0.818212 0.051860 0.938311
Si Si8 0.089484 0.319383 0.803807
O O1 0.230584 0.341418 0.475915
O O2 0.375848 0.016091 0.455202
O O3 0.219633 0.178170 0.964673
O O4 0.164689 0.128332 0.231820
O O5 0.426346 0.289359 0.475642
O O6 0.587426 0.174447 0.294487
O O7 0.500000 0.000000 0.000000
O O8 0.798432 0.375183 0.504487
O O9 0.885997 0.337007 0.185563
O O10 0.920563 0.066960 0.179583
O O11 0.027554 0.225007 0.616827
O O12 0.374575 0.581107 0.502215
O O13 0.291730 0.414356 0.049846
O O14 0.729517 0.142186 0.130098
O O15 0.762647 0.144989 0.689550
O O16 0.113527 0.403628 0.712115
O O17 0.000000 0.500000 0.000000
#
# Coordination Sequence:
#
# PCOD9044291 Si02
#       8
#     2   2   2   2   2   2   2   2
#     4  11  26  44  68 105 144 184 235 297 368 426
#     4  11  24  45  73 106 144 189 232 299 364 433
#     4  11  24  45  72 105 136 192 245 298 353 429
#     4  11  22  44  72 104 143 184 247 289 359 432
#     4  10  23  46  72 107 146 194 239 294 359 436
#     4  12  22  43  70 103 139 183 245 294 356 429
#     4  10  24  46  74 104 153 187 239 304 360 430
#     4  12  25  42  72 103 140 187 243 300 358 428
#
# _framework density 26.567603999999999
#
# number of rings (size 3 to 8) (size 9 to 14) (size 15 to 20)
#    0.000    1.000    5.000    0.750    3.500    1.500 
#    4.500   11.250    0.000    0.000    0.000    0.000 
#    0.000    0.000    0.000    0.000    0.000    0.000 
#
# Total GULP energy -89361.014875 kJ/mol
# GULP energy per Si atom -5585.063430 kJ/mol
# Density = 2.650713 g / cm^3
# Si number density = 26.567604 Si / 1000 Ang^3
#
#
#
# Elastic Constant Matrix: (Units=GPa)
#
#
# Indices 1 2 3 4 5 6 
#
# 1 159.5384 32.2378 52.4791 22.1042 21.7377 7.9946
# 2 32.2378 100.4726 32.7837 9.1398 13.0242 17.1863
# 3 52.4791 32.7837 109.1914 3.4276 38.9889 9.6359
# 4 22.1042 9.1398 3.4276 59.0331 15.8486 9.4065
# 5 21.7377 13.0242 38.9889 15.8486 46.5492 11.4101
# 6 7.9946 17.1863 9.6359 9.4065 11.4101 40.2598
#
#
#
# Elastic Compliance Matrix: (Units=1/GPa)
#
#
# Indices 1 2 3 4 5 6 
#
# 1 0.008004 -0.001265 -0.003580 -0.002773 0.000480 0.000319
# 2 -0.001265 0.011994 -0.002962 -0.000810 0.001036 -0.004264
# 3 -0.003580 -0.002962 0.016044 0.004112 -0.012514 0.000721
# 4 -0.002773 -0.000810 0.004112 0.020490 -0.008279 -0.002529
# 5 0.000480 0.001036 -0.012514 -0.008279 0.035671 -0.005718
# 6 0.000319 -0.004264 0.000721 -0.002529 -0.005718 0.028634
#
#
# Mechanical properties :
#
#
# Convention : Reuss Voigt Hill
#
# Bulk Modulus (GPa) = 48.94874 67.13372 58.04123
# Shear Modulus (GPa) = 34.90187 45.94853 40.42520
#
# Velocity S-wave (km/s) = 3.62843 4.16323 3.90500
# Velocity P-wave (km/s) = 6.00152 6.95944 6.49816
#
# Compressibility (1/GPa) = 0.02042953
#
# Stress axis : x y z
#
# Youngs Moduli (GPa) = 124.93836 83.37573 62.32974
#
# Poissons Ratio (x) = 0.10544 0.22313
# Poissons Ratio (y) = 0.15801 0.18459
# Poissons Ratio (z) = 0.44725 0.24692
#
# Static dielectric constant tensor:
#      x y z
#    x 2.178520 -0.096600 -0.072060 
#    y -0.096600 2.345830 -0.007130 
#    z -0.072060 -0.007130 2.180560 
# 
# From -- ./inp_files/109887.got.cif
#   From: 2010.05.17/outbox.cif.g08.bks.cpg/sg2_55_cif.got.tgz:109887.got - 2010.06.03 11:33:40.
