data_PCOD9044627
_publ_section_title
;
Structure prediction by ZEFSAII (Michael W. Deem and Ramdas Pophale) SiO2 
 PCOD9044627
Probable space group: P -1
;
_chemical_formula_sum "Si O2"
_cell_formula_units_Z 16
_cell_length_a 17.338644
_cell_length_b 8.597390
_cell_length_c 9.072294
_cell_angle_alpha 66.954320
_cell_angle_beta 135.003019
_cell_angle_gamma 134.552356
_cell_volume 666.560403
_symmetry_space_group_name_H-M "P -1"
_symmetry_group_IT_number 2
_symmetry_cell_setting 'triclinic'
loop_
_space_group_symop_operation_xyz
x,y,z
-x,-y,-z
loop_
_atom_site_type_symbol
_atom_site_label
_atom_site_fract_x
_atom_site_fract_y
_atom_site_fract_z
Si Si1 0.141534 0.261269 0.311638
Si Si2 0.315931 0.051546 0.159027
Si Si3 0.666132 0.234885 0.169585
Si Si4 0.565444 0.748354 0.462208
Si Si5 0.201719 0.963747 0.538029
Si Si6 0.910882 0.064505 0.289839
Si Si7 0.724199 0.351733 0.875642
Si Si8 0.589456 0.439990 0.218698
O O1 0.109978 0.029035 0.323686
O O2 0.187529 0.413638 0.175315
O O3 0.274034 0.381064 0.561639
O O4 0.020270 0.239317 0.247233
O O5 0.313640 0.085584 0.315708
O O6 0.477856 0.228834 0.252075
O O7 0.257425 0.810074 0.119323
O O8 0.229235 0.108580 0.933714
O O9 0.644811 0.372713 0.191941
O O10 0.773226 0.207945 0.403526
O O11 0.743214 0.356413 0.074514
O O12 0.500000 0.000000 0.000000
O O13 0.500000 0.500000 0.500000
O O14 0.635146 0.817267 0.370065
O O15 0.442685 0.761217 0.315043
O O16 0.151209 0.905510 0.661332
O O17 0.000000 0.000000 0.500000
O O18 0.500000 0.500000 0.000000
#
# Coordination Sequence:
#
# PCOD9044627 Si02
#       8
#     2   2   2   2   2   2   2   2
#     4  11  25  44  67  95 138 180 227 284 333 413
#     4  12  24  42  69  99 135 185 224 278 351 410
#     4  12  22  37  65  98 138 171 218 285 343 397
#     4  12  24  39  69 108 138 168 224 294 342 402
#     4  11  21  44  65  94 135 182 221 278 341 401
#     4  10  23  47  69  93 135 190 233 275 340 413
#     4  12  24  41  66 104 140 172 227 281 351 400
#     4  12  24  39  68 104 132 174 231 280 346 409
#
# _framework density 24.003824999999999
#
# number of rings (size 3 to 8) (size 9 to 14) (size 15 to 20)
#    0.000    0.500    6.250    2.625    3.500    0.500 
#    0.000    4.375    0.000    0.000    0.000    0.000 
#    0.000    0.000    0.000    0.000    0.000    0.000 
#
# Total GULP energy -89263.035106 kJ/mol
# GULP energy per Si atom -5578.939694 kJ/mol
# Density = 2.394919 g / cm^3
# Si number density = 24.003825 Si / 1000 Ang^3
#
#
#
# Elastic Constant Matrix: (Units=GPa)
#
#
# Indices 1 2 3 4 5 6 
#
# 1 169.5811 58.9184 39.3537 -18.2611 -3.7573 4.5735
# 2 58.9184 56.0236 23.4880 -26.9851 -7.8370 -8.1072
# 3 39.3537 23.4880 60.9093 -13.2206 3.0240 -15.0009
# 4 -18.2611 -26.9851 -13.2206 28.1161 3.4950 -1.5156
# 5 -3.7573 -7.8370 3.0240 3.4950 31.5320 -4.9942
# 6 4.5735 -8.1072 -15.0009 -1.5156 -4.9942 48.5886
#
#
#
# Elastic Compliance Matrix: (Units=1/GPa)
#
#
# Indices 1 2 3 4 5 6 
#
# 1 0.011760 -0.016591 -0.004868 -0.010643 -0.002013 -0.005917
# 2 -0.016591 0.062025 0.000400 0.048444 0.010345 0.014609
# 3 -0.004868 0.000400 0.023387 0.008947 -0.002485 0.007769
# 4 -0.010643 0.048444 0.008947 0.079725 0.003403 0.014684
# 5 -0.002013 0.010345 -0.002485 0.003403 0.034669 0.004818
# 6 -0.005917 0.014609 0.007769 0.014684 0.004818 0.026927
#
#
# Mechanical properties :
#
#
# Convention : Reuss Voigt Hill
#
# Bulk Modulus (GPa) = 18.16329 58.89268 38.52799
# Shear Modulus (GPa) = 16.72457 32.63096 24.67776
#
# Velocity S-wave (km/s) = 2.64246 3.69101 3.20984
# Velocity P-wave (km/s) = 4.11015 6.53856 5.46105
#
# Compressibility (1/GPa) = 0.05505610
#
# Stress axis : x y z
#
# Youngs Moduli (GPa) = 85.03741 16.12250 42.75847
#
# Poissons Ratio (x) = 0.26748 0.20813
# Poissons Ratio (y) = 1.41083 -0.01712
# Poissons Ratio (z) = 0.41392 -0.00645
#
# Static dielectric constant tensor:
#      x y z
#    x 1.949220 0.004200 0.017280 
#    y 0.004200 2.020750 -0.023190 
#    z 0.017280 -0.023190 1.936560 
# 
# From -- ./inp_files/327455.got.cif
#   From: 2010.05.17/outbox.cif.g08.bks.cpg/sg2_164_cif.got.tgz:327455.got - 2010.06.03 11:33:40.
