data_PCOD9044878
_publ_section_title
;
Structure prediction by ZEFSAII (Michael W. Deem and Ramdas Pophale) SiO2 
 PCOD9044878
Probable space group: P -1
;
_chemical_formula_sum "Si O2"
_cell_formula_units_Z 12
_cell_length_a 13.880779
_cell_length_b 13.959803
_cell_length_c 8.331493
_cell_angle_alpha 67.963509
_cell_angle_beta 133.358100
_cell_angle_gamma 149.287989
_cell_volume 488.708145
_symmetry_space_group_name_H-M "P -1"
_symmetry_group_IT_number 2
_symmetry_cell_setting 'triclinic'
loop_
_space_group_symop_operation_xyz
x,y,z
-x,-y,-z
loop_
_atom_site_type_symbol
_atom_site_label
_atom_site_fract_x
_atom_site_fract_y
_atom_site_fract_z
Si Si1 0.314433 0.972632 0.846143
Si Si2 0.908494 0.316479 0.981609
Si Si3 0.695810 0.845897 0.771044
Si Si4 0.563833 0.427761 0.676834
Si Si5 0.232874 0.895980 0.455739
Si Si6 0.592436 0.363024 0.079220
O O1 0.233727 0.958275 0.589130
O O2 0.055634 0.739445 0.795673
O O3 0.500000 0.000000 0.000000
O O4 0.493340 0.180291 0.022052
O O5 0.558477 0.072434 0.697565
O O6 0.000000 0.500000 0.000000
O O7 0.120853 0.411036 0.038961
O O8 0.534687 0.704303 0.510501
O O9 0.541556 0.712998 0.848058
O O10 0.769419 0.018383 0.736497
O O11 0.000000 0.000000 0.000000
O O12 0.500000 0.500000 0.500000
O O13 0.454109 0.338982 0.792703
O O14 0.946651 0.625214 0.327482
#
# Coordination Sequence:
#
# PCOD9044878 Si02
#       6
#     2   2   2   2   2   2
#     4  10  23  47  77 117 161 209 265 337 405 477
#     4  11  23  47  82 116 160 213 264 334 403 481
#     4  12  28  52  80 118 163 215 277 333 404 493
#     4  12  27  51  81 118 166 210 274 342 404 482
#     4  11  25  50  80 116 166 207 271 338 399 489
#     4  12  28  51  82 122 158 220 272 330 416 486
#
# _framework density 24.554534
#
# number of rings (size 3 to 8) (size 9 to 14) (size 15 to 20)
#    0.000    0.667    3.333    3.000    4.667    8.000 
#    3.000    0.000    0.000    0.000    0.000    0.000 
#    0.000    0.000    0.000    0.000    0.000    0.000 
#
# Total GULP energy -66861.559976 kJ/mol
# GULP energy per Si atom -5571.796665 kJ/mol
# Density = 2.449865 g / cm^3
# Si number density = 24.554534 Si / 1000 Ang^3
#
#
#
# Elastic Constant Matrix: (Units=GPa)
#
#
# Indices 1 2 3 4 5 6 
#
# 1 113.0525 72.9090 65.6043 2.5596 -20.6382 0.7015
# 2 72.9090 194.5802 82.2329 -8.5813 -7.6286 2.4126
# 3 65.6043 82.2329 109.4548 6.3203 -9.9251 12.0458
# 4 2.5596 -8.5813 6.3203 51.8981 -2.3409 -5.2110
# 5 -20.6382 -7.6286 -9.9251 -2.3409 58.5057 -4.0351
# 6 0.7015 2.4126 12.0458 -5.2110 -4.0351 55.5774
#
#
#
# Elastic Compliance Matrix: (Units=1/GPa)
#
#
# Indices 1 2 3 4 5 6 
#
# 1 0.015359 -0.002638 -0.007054 0.000021 0.003998 0.001742
# 2 -0.002638 0.008260 -0.004897 0.002158 -0.000536 0.000900
# 3 -0.007054 -0.004897 0.017591 -0.003013 -0.000528 -0.003832
# 4 0.000021 0.002158 -0.003013 0.020278 0.000763 0.002516
# 5 0.003998 -0.000536 -0.000528 0.000763 0.018477 0.001500
# 6 0.001742 0.000900 -0.003832 0.002516 0.001500 0.019107
#
#
# Mechanical properties :
#
#
# Convention : Reuss Voigt Hill
#
# Bulk Modulus (GPa) = 83.11059 95.39778 89.25419
# Shear Modulus (GPa) = 37.80369 46.28565 42.04467
#
# Velocity S-wave (km/s) = 3.92801 4.34639 4.14248
# Velocity P-wave (km/s) = 7.38195 8.00774 7.70120
#
# Compressibility (1/GPa) = 0.01203216
#
# Stress axis : x y z
#
# Youngs Moduli (GPa) = 65.10983 121.06192 56.84565
#
# Poissons Ratio (x) = 0.31930 0.40101
# Poissons Ratio (y) = 0.17173 0.27839
# Poissons Ratio (z) = 0.45931 0.59287
#
# Static dielectric constant tensor:
#      x y z
#    x 1.853850 0.057420 -0.042250 
#    y 0.057420 2.205190 0.076750 
#    z -0.042250 0.076750 2.326920 
# 
# From -- ./inp_files/309634.got.cif
#   From: 2010.05.17/outbox.cif.g08.bks.cpg/sg2_155_cif.got.tgz:309634.got - 2010.06.03 11:33:40.
