data_PCOD9044456
_publ_section_title
;
Structure prediction by ZEFSAII (Michael W. Deem and Ramdas Pophale) SiO2 
 PCOD9044456
Probable space group: P -1
;
_chemical_formula_sum "Si O2"
_cell_formula_units_Z 16
_cell_length_a 8.330721
_cell_length_b 8.488325
_cell_length_c 11.436157
_cell_angle_alpha 104.284063
_cell_angle_beta 59.518525
_cell_angle_gamma 119.560331
_cell_volume 606.206661
_symmetry_space_group_name_H-M "P -1"
_symmetry_group_IT_number 2
_symmetry_cell_setting 'triclinic'
loop_
_space_group_symop_operation_xyz
x,y,z
-x,-y,-z
loop_
_atom_site_type_symbol
_atom_site_label
_atom_site_fract_x
_atom_site_fract_y
_atom_site_fract_z
Si Si1 0.427249 0.247320 0.604631
Si Si2 0.517321 0.363161 0.347752
Si Si3 0.154928 0.283729 0.076892
Si Si4 0.762705 0.377574 0.030405
Si Si5 0.890360 0.821303 0.663107
Si Si6 0.267835 0.877366 0.202057
Si Si7 0.153894 0.686736 0.424219
Si Si8 0.711910 0.978845 0.166954
O O1 0.512547 0.244744 0.441427
O O2 0.375415 0.418178 0.638194
O O3 0.625422 0.299708 0.622785
O O4 0.273072 0.086158 0.715986
O O5 0.277010 0.297263 0.393466
O O6 0.619917 0.336738 0.188007
O O7 0.273066 0.483551 0.017643
O O8 0.163897 0.281776 0.212783
O O9 0.247090 0.158275 0.958978
O O10 0.907320 0.175660 0.119695
O O11 0.719156 0.195575 0.943208
O O12 0.000000 0.500000 0.000000
O O13 0.105975 0.840886 0.532908
O O14 0.846921 0.994980 0.728326
O O15 0.130664 0.701939 0.298421
O O16 0.488139 0.960684 0.204834
O O17 0.000000 0.500000 0.500000
#
# Coordination Sequence:
#
# PCOD9044456 Si02
#       8
#     2   2   2   2   2   2   2   2
#     4  10  23  46  75 110 147 193 243 307 364 442
#     4  11  25  44  75 111 151 189 247 301 372 436
#     4  11  26  46  76 107 150 190 250 301 366 443
#     4  12  29  46  77 111 148 197 245 305 371 438
#     4  12  27  44  74 108 149 195 248 304 367 437
#     4  11  28  47  74 107 153 195 248 304 368 440
#     4  11  23  46  74 107 146 194 246 304 369 435
#     4  10  24  48  75 106 149 193 244 303 372 426
#
# _framework density 26.393639
#
# number of rings (size 3 to 8) (size 9 to 14) (size 15 to 20)
#    0.000    1.000    2.500    1.875   10.500    4.000 
#    0.000    2.500    0.000    0.000    0.000    0.000 
#    0.000    0.000    0.000    0.000    0.000    0.000 
#
# Total GULP energy -89620.397707 kJ/mol
# GULP energy per Si atom -5601.274857 kJ/mol
# Density = 2.633357 g / cm^3
# Si number density = 26.393639 Si / 1000 Ang^3
#
#
#
# Elastic Constant Matrix: (Units=GPa)
#
#
# Indices 1 2 3 4 5 6 
#
# 1 68.3207 8.8225 -8.1744 -1.3252 6.5047 -10.8162
# 2 8.8225 101.7053 31.9689 -6.3220 2.1533 -15.3326
# 3 -8.1744 31.9689 143.9902 -9.0421 29.2466 -19.9177
# 4 -1.3252 -6.3220 -9.0421 52.8389 -2.4740 6.6622
# 5 6.5047 2.1533 29.2466 -2.4740 46.4168 0.9498
# 6 -10.8162 -15.3326 -19.9177 6.6622 0.9498 33.5280
#
#
#
# Elastic Compliance Matrix: (Units=1/GPa)
#
#
# Indices 1 2 3 4 5 6 
#
# 1 0.016644 -0.001304 0.003032 -0.000274 -0.004335 0.006751
# 2 -0.001304 0.011158 -0.002295 0.000559 0.001076 0.003177
# 3 0.003032 -0.002295 0.009802 0.000432 -0.006591 0.005852
# 4 -0.000274 0.000559 0.000432 0.019538 0.000853 -0.003482
# 5 -0.004335 0.001076 -0.006591 0.000853 0.026417 -0.005740
# 6 0.006751 0.003177 0.005852 -0.003482 -0.005740 0.037788
#
#
# Mechanical properties :
#
#
# Convention : Reuss Voigt Hill
#
# Bulk Modulus (GPa) = 27.42116 42.13890 34.78003
# Shear Modulus (GPa) = 37.13618 45.31669 41.22644
#
# Velocity S-wave (km/s) = 3.75509 4.14811 3.95648
# Velocity P-wave (km/s) = 5.40488 6.24040 5.83761
#
# Compressibility (1/GPa) = 0.03646819
#
# Stress axis : x y z
#
# Youngs Moduli (GPa) = 60.08093 89.62312 102.01921
#
# Poissons Ratio (x) = 0.11689 -0.30928
# Poissons Ratio (y) = 0.07836 0.23417
# Poissons Ratio (z) = -0.18214 0.20572
#
# Static dielectric constant tensor:
#      x y z
#    x 2.095770 0.006260 -0.023920 
#    y 0.006260 2.165810 -0.005120 
#    z -0.023920 -0.005120 2.079730 
# 
# From -- ./inp_files/382538.got.cif
#   From: 2010.05.17/outbox.cif.g08.bks.cpg/sg2_192_cif.got.tgz:382538.got - 2010.06.03 11:33:40.
