data_PCOD9044652
_publ_section_title
;
Structure prediction by ZEFSAII (Michael W. Deem and Ramdas Pophale) SiO2 
 PCOD9044652
Probable space group: P -1
;
_chemical_formula_sum "Si O2"
_cell_formula_units_Z 16
_cell_length_a 6.566779
_cell_length_b 16.743597
_cell_length_c 14.738655
_cell_angle_alpha 29.263480
_cell_angle_beta 119.780600
_cell_angle_gamma 107.880395
_cell_volume 656.391091
_symmetry_space_group_name_H-M "P -1"
_symmetry_group_IT_number 2
_symmetry_cell_setting 'triclinic'
loop_
_space_group_symop_operation_xyz
x,y,z
-x,-y,-z
loop_
_atom_site_type_symbol
_atom_site_label
_atom_site_fract_x
_atom_site_fract_y
_atom_site_fract_z
Si Si1 0.786753 0.962295 0.109130
Si Si2 0.713751 0.337338 0.171191
Si Si3 0.445596 0.483830 0.395768
Si Si4 0.111407 0.141333 0.339025
Si Si5 0.986538 0.346364 0.401606
Si Si6 0.409455 0.090753 0.280665
Si Si7 0.920202 0.245237 0.779845
Si Si8 0.696072 0.642529 0.159153
O O1 0.912533 0.824978 0.347914
O O2 0.880643 0.878772 0.116146
O O3 0.500000 0.000000 0.000000
O O4 0.853996 0.138490 0.952884
O O5 0.559486 0.206149 0.248198
O O6 0.898282 0.316171 0.145121
O O7 0.909658 0.297995 0.334906
O O8 0.500000 0.500000 0.000000
O O9 0.500000 0.500000 0.500000
O O10 0.200860 0.439090 0.360120
O O11 0.493741 0.631425 0.198031
O O12 0.681747 0.320351 0.591209
O O13 0.176835 0.113688 0.273540
O O14 0.386836 0.096097 0.489491
O O15 0.000000 0.000000 0.500000
O O16 0.751449 0.485783 0.256397
O O17 0.354948 0.180122 0.082445
O O18 0.046250 0.382073 0.708129
#
# Coordination Sequence:
#
# PCOD9044652 Si02
#       8
#     2   2   2   2   2   2   2   2
#     4  11  24  43  66  98 142 183 232 287 352 420
#     4  11  24  45  69 105 143 183 232 295 357 425
#     4  12  24  44  70 101 140 182 231 297 351 414
#     4   9  22  45  73  98 144 184 231 296 356 417
#     4  12  25  43  70 103 138 189 234 289 364 422
#     4  10  23  47  70 103 142 187 236 294 353 429
#     4  11  24  42  67  98 138 180 230 293 342 423
#     4  12  25  43  72 104 138 186 243 283 358 432
#
# _framework density 24.375710999999999
#
# number of rings (size 3 to 8) (size 9 to 14) (size 15 to 20)
#    0.000    1.000    5.000    1.125    0.000    7.500 
#    0.000    0.000    0.000    0.000    0.000    0.000 
#    0.000    0.000    0.000    0.000    0.000    0.000 
#
# Total GULP energy -89299.633582 kJ/mol
# GULP energy per Si atom -5581.227099 kJ/mol
# Density = 2.432023 g / cm^3
# Si number density = 24.375711 Si / 1000 Ang^3
#
#
#
# Elastic Constant Matrix: (Units=GPa)
#
#
# Indices 1 2 3 4 5 6 
#
# 1 162.3692 33.1465 41.7862 10.2578 -0.5308 -25.2985
# 2 33.1465 75.4852 -12.1336 13.4302 -4.9719 11.8940
# 3 41.7862 -12.1336 92.3058 20.0260 -5.2413 -13.2756
# 4 10.2578 13.4302 20.0260 34.5201 -13.8989 6.9759
# 5 -0.5308 -4.9719 -5.2413 -13.8989 48.8558 -9.8263
# 6 -25.2985 11.8940 -13.2756 6.9759 -9.8263 38.7421
#
#
#
# Elastic Compliance Matrix: (Units=1/GPa)
#
#
# Indices 1 2 3 4 5 6 
#
# 1 0.009447 -0.005995 -0.004297 0.000947 0.000613 0.006521
# 2 -0.005995 0.019302 0.006064 -0.008388 -0.001153 -0.006544
# 3 -0.004297 0.006064 0.016439 -0.011332 -0.000301 0.002929
# 4 0.000947 -0.008388 -0.011332 0.043422 0.009044 -0.006214
# 5 0.000613 -0.001153 -0.000301 0.009044 0.023922 0.005090
# 6 0.006521 -0.006544 0.002929 -0.006214 0.005090 0.035493
#
#
# Mechanical properties :
#
#
# Convention : Reuss Voigt Hill
#
# Bulk Modulus (GPa) = 27.22388 50.63984 38.93186
# Shear Modulus (GPa) = 29.63415 42.24767 35.94091
#
# Velocity S-wave (km/s) = 3.49051 4.16767 3.84403
# Velocity P-wave (km/s) = 5.23809 6.63168 5.97565
#
# Compressibility (1/GPa) = 0.03673246
#
# Stress axis : x y z
#
# Youngs Moduli (GPa) = 105.85667 51.80730 60.83207
#
# Poissons Ratio (x) = 0.31056 0.26140
# Poissons Ratio (y) = 0.63457 -0.36889
# Poissons Ratio (z) = 0.45488 -0.31416
#
# Static dielectric constant tensor:
#      x y z
#    x 2.019280 -0.080840 0.022820 
#    y -0.080840 2.004620 -0.066250 
#    z 0.022820 -0.066250 2.115640 
# 
# From -- ./inp_files/485171.got.cif
#   From: 2010.05.17/outbox.cif.g08.bks.cpg/sg2_243_cif.got.tgz:485171.got - 2010.06.03 11:33:40.
