data_PCOD9044062
_publ_section_title
;
Structure prediction by ZEFSAII (Michael W. Deem and Ramdas Pophale) SiO2 
 PCOD9044062
Probable space group: P -1
;
_chemical_formula_sum "Si O2"
_cell_formula_units_Z 16
_cell_length_a 8.582200
_cell_length_b 16.192958
_cell_length_c 7.951028
_cell_angle_alpha 93.380965
_cell_angle_beta 53.558901
_cell_angle_gamma 131.666972
_cell_volume 550.609941
_symmetry_space_group_name_H-M "P -1"
_symmetry_group_IT_number 2
_symmetry_cell_setting 'triclinic'
loop_
_space_group_symop_operation_xyz
x,y,z
-x,-y,-z
loop_
_atom_site_type_symbol
_atom_site_label
_atom_site_fract_x
_atom_site_fract_y
_atom_site_fract_z
Si Si1 0.780672 0.531605 0.174871
Si Si2 0.351790 0.839988 0.343326
Si Si3 0.185284 0.443613 0.222633
Si Si4 0.186250 0.213447 0.505048
Si Si5 0.273039 0.873864 0.923074
Si Si6 0.760986 0.888727 0.280439
Si Si7 0.621256 0.664552 0.207879
Si Si8 0.572327 0.240245 0.038894
O O1 0.502304 0.373065 0.353344
O O2 0.632343 0.575270 0.272206
O O3 0.063753 0.612276 0.135247
O O4 0.922404 0.570164 0.898148
O O5 0.505221 0.872664 0.429715
O O6 0.467931 0.815123 0.122496
O O7 0.007959 0.690954 0.570829
O O8 0.465121 0.969242 0.246004
O O9 0.325244 0.563819 0.260548
O O10 0.500000 0.500000 0.000000
O O11 0.106810 0.098272 0.629223
O O12 0.928127 0.179427 0.777042
O O13 0.303074 0.217640 0.247658
O O14 0.428578 0.838008 0.842127
O O15 0.000486 0.793941 0.948329
O O16 0.596275 0.746862 0.316115
O O17 0.000000 0.000000 0.000000
#
# Coordination Sequence:
#
# PCOD9044062 Si02
#       8
#     2   2   2   2   2   2   2   2
#     4  10  23  46  69 106 146 188 243 300 358 427
#     4  12  25  45  72 106 149 189 246 300 360 440
#     4  10  24  45  69 106 138 186 244 300 355 427
#     4  11  24  46  75  99 149 186 245 299 360 425
#     4  10  24  47  72 105 147 194 238 301 361 432
#     4  11  23  46  70 105 146 190 240 297 362 435
#     4   9  21  43  74 100 135 195 237 286 365 418
#     4  11  26  43  72 113 141 197 242 292 371 433
#
# _framework density 29.058681
#
# number of rings (size 3 to 8) (size 9 to 14) (size 15 to 20)
#    0.000    1.500    2.500    1.500    8.750    3.500 
#    4.500    3.750    0.000    0.000    0.000    0.000 
#    0.000    0.000    0.000    0.000    0.000    0.000 
#
# Total GULP energy -89141.668825 kJ/mol
# GULP energy per Si atom -5571.354302 kJ/mol
# Density = 2.899254 g / cm^3
# Si number density = 29.058681 Si / 1000 Ang^3
#
#
#
# Elastic Constant Matrix: (Units=GPa)
#
#
# Indices 1 2 3 4 5 6 
#
# 1 79.0486 5.4703 -5.8565 -2.4393 2.9381 10.8809
# 2 5.4703 99.4667 42.2491 -31.8436 20.4126 -3.3741
# 3 -5.8565 42.2491 150.5458 -29.6324 14.3473 -6.2623
# 4 -2.4393 -31.8436 -29.6324 59.0575 -15.4318 -3.3475
# 5 2.9381 20.4126 14.3473 -15.4318 38.5302 -1.2653
# 6 10.8809 -3.3741 -6.2623 -3.3475 -1.2653 54.8664
#
#
#
# Elastic Compliance Matrix: (Units=1/GPa)
#
#
# Indices 1 2 3 4 5 6 
#
# 1 0.013163 -0.000945 0.000759 0.000045 -0.000853 -0.002599
# 2 -0.000945 0.013652 -0.002432 0.005060 -0.004197 0.000961
# 3 0.000759 -0.002432 0.007958 0.002579 -0.000675 0.000750
# 4 0.000045 0.005060 0.002579 0.022495 0.005434 0.002094
# 5 -0.000853 -0.004197 -0.000675 0.005434 0.030699 0.000874
# 6 -0.002599 0.000961 0.000750 0.002094 0.000874 0.019034
#
#
# Mechanical properties :
#
#
# Convention : Reuss Voigt Hill
#
# Bulk Modulus (GPa) = 33.85599 45.86523 39.86061
# Shear Modulus (GPa) = 40.95567 49.63738 45.29653
#
# Velocity S-wave (km/s) = 3.75829 4.13749 3.95244
# Velocity P-wave (km/s) = 5.52351 6.21635 5.88015
#
# Compressibility (1/GPa) = 0.02953687
#
# Stress axis : x y z
#
# Youngs Moduli (GPa) = 75.97098 73.24672 125.66355
#
# Poissons Ratio (x) = 0.06923 -0.09542
# Poissons Ratio (y) = 0.07181 0.30565
# Poissons Ratio (z) = -0.05769 0.17816
#
# Static dielectric constant tensor:
#      x y z
#    x 2.591420 0.156310 0.063050 
#    y 0.156310 2.278110 0.166310 
#    z 0.063050 0.166310 2.398320 
# 
# From -- ./inp_files/279497.got.cif
#   From: 2010.05.17/outbox.cif.g08.bks.cpg/sg2_140_cif.got.tgz:279497.got - 2010.06.03 11:33:40.
