data_PCOD9044180
_publ_section_title
;
Structure prediction by ZEFSAII (Michael W. Deem and Ramdas Pophale) SiO2 
 PCOD9044180
Probable space group: P -1
;
_chemical_formula_sum "Si O2"
_cell_formula_units_Z 14
_cell_length_a 12.052921
_cell_length_b 11.952045
_cell_length_c 5.673601
_cell_angle_alpha 109.783815
_cell_angle_beta 130.027065
_cell_angle_gamma 66.842101
_cell_volume 571.164920
_symmetry_space_group_name_H-M "P -1"
_symmetry_group_IT_number 2
_symmetry_cell_setting 'triclinic'
loop_
_space_group_symop_operation_xyz
x,y,z
-x,-y,-z
loop_
_atom_site_type_symbol
_atom_site_label
_atom_site_fract_x
_atom_site_fract_y
_atom_site_fract_z
Si Si1 0.333907 0.355623 0.557635
Si Si2 0.338883 0.076684 0.442298
Si Si3 0.021071 0.063066 0.822849
Si Si4 0.129535 0.444553 0.953775
Si Si5 0.358402 0.752205 0.028681
Si Si6 0.866336 0.396441 0.317054
Si Si7 0.300427 0.869773 0.540960
O O1 0.331474 0.221078 0.554002
O O2 0.501223 0.362623 0.842118
O O3 0.226032 0.475990 0.603907
O O4 0.275766 0.362374 0.213751
O O5 0.500000 0.000000 0.500000
O O6 0.307815 0.010269 0.596144
O O7 0.190350 0.076515 0.080456
O O8 0.862335 0.161233 0.686786
O O9 0.000000 0.000000 0.500000
O O10 0.000000 0.000000 0.000000
O O11 0.158975 0.565131 0.960425
O O12 0.040428 0.375248 0.604750
O O13 0.000000 0.500000 0.000000
O O14 0.364390 0.812962 0.336749
O O15 0.204289 0.711982 0.783873
O O16 0.371408 0.824974 0.857932
#
# Coordination Sequence:
#
# PCOD9044180 Si02
#       7
#     2   2   2   2   2   2   2
#     4  11  25  44  70 109 140 196 238 307 373 430
#     4  11  24  48  72 108 152 191 244 307 363 444
#     4  10  23  46  71 100 140 192 246 291 354 430
#     4   9  22  45  69 104 141 182 246 294 375 429
#     4  12  27  45  78 104 150 190 247 305 368 439
#     4  10  24  45  73 105 141 192 243 309 365 444
#     4  11  26  48  72 110 145 200 246 298 370 438
#
# _framework density 24.511310999999999
#
# number of rings (size 3 to 8) (size 9 to 14) (size 15 to 20)
#    0.000    1.429    1.429    2.143    8.000    3.429 
#   10.286    0.000    0.000    0.000    0.000    0.000 
#    0.000    0.000    0.000    0.000    0.000    0.000 
#
# Total GULP energy -77968.040011 kJ/mol
# GULP energy per Si atom -5569.145715 kJ/mol
# Density = 2.445552 g / cm^3
# Si number density = 24.511311 Si / 1000 Ang^3
#
#
#
# Elastic Constant Matrix: (Units=GPa)
#
#
# Indices 1 2 3 4 5 6 
#
# 1 86.7783 11.8661 46.1560 -8.0077 -9.8888 9.9949
# 2 11.8661 68.1951 39.0117 -6.9674 -26.7110 23.1208
# 3 46.1560 39.0117 132.9708 -34.5063 -8.9735 13.5380
# 4 -8.0077 -6.9674 -34.5063 44.4148 -0.8539 -3.0429
# 5 -9.8888 -26.7110 -8.9735 -0.8539 47.4473 -7.0972
# 6 9.9949 23.1208 13.5380 -3.0429 -7.0972 47.1066
#
#
#
# Elastic Compliance Matrix: (Units=1/GPa)
#
#
# Indices 1 2 3 4 5 6 
#
# 1 0.014755 0.002625 -0.005853 -0.001579 0.003062 -0.002378
# 2 0.002625 0.026354 -0.007174 -0.001385 0.012561 -0.009627
# 3 -0.005853 -0.007174 0.013565 0.008384 -0.002386 0.001047
# 4 -0.001579 -0.001385 0.008384 0.028590 0.001084 0.000615
# 5 0.003062 0.012561 -0.002386 0.001084 0.028081 -0.001829
# 6 -0.002378 -0.009627 0.001047 0.000615 -0.001829 0.025921
#
#
# Mechanical properties :
#
#
# Convention : Reuss Voigt Hill
#
# Bulk Modulus (GPa) = 29.52560 53.55685 41.54123
# Shear Modulus (GPa) = 29.52301 40.52112 35.02206
#
# Velocity S-wave (km/s) = 3.47431 4.07032 3.78406
# Velocity P-wave (km/s) = 5.30719 6.63229 6.00639
#
# Compressibility (1/GPa) = 0.03386891
#
# Stress axis : x y z
#
# Youngs Moduli (GPa) = 67.77494 37.94506 73.71937
#
# Poissons Ratio (x) = -0.09960 0.43146
# Poissons Ratio (y) = -0.17790 0.52889
# Poissons Ratio (z) = 0.39667 0.27223
#
# Static dielectric constant tensor:
#      x y z
#    x 2.037310 -0.009920 -0.069830 
#    y -0.009920 2.056410 0.019180 
#    z -0.069830 0.019180 2.174840 
# 
# From -- ./inp_files/67387.got.cif
#   From: 2010.05.17/outbox.cif.g08.bks.cpg/sg2_34_cif.got.tgz:67387.got - 2010.06.03 11:33:40.
