data_PCOD9044434
_publ_section_title
;
Structure prediction by ZEFSAII (Michael W. Deem and Ramdas Pophale) SiO2 
 PCOD9044434
Probable space group: P -1
;
_chemical_formula_sum "Si O2"
_cell_formula_units_Z 14
_cell_length_a 25.945205
_cell_length_b 9.176899
_cell_length_c 5.153960
_cell_angle_alpha 78.618841
_cell_angle_beta 83.848693
_cell_angle_gamma 30.294856
_cell_volume 601.877073
_symmetry_space_group_name_H-M "P -1"
_symmetry_group_IT_number 2
_symmetry_cell_setting 'triclinic'
loop_
_space_group_symop_operation_xyz
x,y,z
-x,-y,-z
loop_
_atom_site_type_symbol
_atom_site_label
_atom_site_fract_x
_atom_site_fract_y
_atom_site_fract_z
Si Si1 0.207226 0.855186 0.542741
Si Si2 0.121680 0.226723 0.970904
Si Si3 0.873984 0.473577 0.929382
Si Si4 0.307641 0.129592 0.477697
Si Si5 0.420266 0.822459 0.013668
Si Si6 0.599880 0.821455 0.369431
Si Si7 0.934738 0.057035 0.326688
O O1 0.320729 0.503446 0.652263
O O2 0.162317 0.053204 0.746082
O O3 0.127260 0.918629 0.514873
O O4 0.194023 0.988576 0.249606
O O5 0.131421 0.379044 0.922433
O O6 0.000000 0.500000 0.000000
O O7 0.797135 0.663609 0.663693
O O8 0.987901 0.194993 0.843306
O O9 0.856443 0.359840 0.117054
O O10 0.328725 0.254234 0.450832
O O11 0.328142 0.018934 0.791471
O O12 0.391868 0.872914 0.309192
O O13 0.438965 0.952361 0.890594
O O14 0.500000 0.500000 0.000000
O O15 0.500000 0.000000 0.500000
O O16 0.000000 0.000000 0.500000
#
# Coordination Sequence:
#
# PCOD9044434 Si02
#       7
#     2   2   2   2   2   2   2
#     4  12  27  47  73 103 150 190 240 301 358 428
#     4  12  27  48  70 106 150 193 241 293 363 426
#     4  11  25  43  69 107 140 190 236 299 347 444
#     4  10  24  43  73 102 140 177 241 290 359 423
#     4  10  23  46  74  99 143 180 241 304 362 424
#     4  10  26  48  75 105 144 188 245 296 368 430
#     4  11  24  41  75 101 144 190 244 284 367 420
#
# _framework density 23.260567000000002
#
# number of rings (size 3 to 8) (size 9 to 14) (size 15 to 20)
#    0.857    0.286    1.429    3.429   10.000    1.714 
#    2.571    0.000    0.000    0.000    0.000    0.000 
#    0.000    0.000    0.000    0.000    0.000    0.000 
#
# Total GULP energy -78214.926775 kJ/mol
# GULP energy per Si atom -5586.780484 kJ/mol
# Density = 2.320762 g / cm^3
# Si number density = 23.260567 Si / 1000 Ang^3
#
#
#
# Elastic Constant Matrix: (Units=GPa)
#
#
# Indices 1 2 3 4 5 6 
#
# 1 79.5408 37.9810 1.8366 13.9214 9.7097 -0.1562
# 2 37.9810 156.9611 13.9705 23.9651 4.9085 12.7989
# 3 1.8366 13.9705 48.4601 20.5843 15.7713 3.2659
# 4 13.9214 23.9651 20.5843 37.8448 4.0781 7.8443
# 5 9.7097 4.9085 15.7713 4.0781 35.2076 5.1982
# 6 -0.1562 12.7989 3.2659 7.8443 5.1982 25.3838
#
#
#
# Elastic Compliance Matrix: (Units=1/GPa)
#
#
# Indices 1 2 3 4 5 6 
#
# 1 0.016022 -0.003478 0.004860 -0.006620 -0.006009 0.004503
# 2 -0.003478 0.007941 -0.001260 -0.002502 0.001199 -0.003336
# 3 0.004860 -0.001260 0.033058 -0.018456 -0.014589 0.005103
# 4 -0.006620 -0.002502 -0.018456 0.041955 0.007183 -0.010841
# 5 -0.006009 0.001199 -0.014589 0.007183 0.036855 -0.008531
# 6 0.004503 -0.003336 0.005103 -0.010841 -0.008531 0.045545
#
#
# Mechanical properties :
#
#
# Convention : Reuss Voigt Hill
#
# Bulk Modulus (GPa) = 17.46309 43.61538 30.53923
# Shear Modulus (GPa) = 24.97232 35.09884 30.03558
#
# Velocity S-wave (km/s) = 3.28012 3.88872 3.59732
# Velocity P-wave (km/s) = 4.67648 6.24134 5.51470
#
# Compressibility (1/GPa) = 0.05726364
#
# Stress axis : x y z
#
# Youngs Moduli (GPa) = 62.41537 125.92516 30.24980
#
# Poissons Ratio (x) = 0.43796 -0.14700
# Poissons Ratio (y) = 0.21708 0.03812
# Poissons Ratio (z) = -0.30331 0.15870
#
# Static dielectric constant tensor:
#      x y z
#    x 1.866710 -0.019390 -0.008790 
#    y -0.019390 1.889790 0.018120 
#    z -0.008790 0.018120 1.852740 
# 
# From -- ./inp_files/126274.got.cif
#   From: 2010.05.17/outbox.cif.g08.bks.cpg/sg2_64_cif.got.tgz:126274.got - 2010.06.03 11:33:40.
