data_PCOD9044593
_publ_section_title
;
Structure prediction by ZEFSAII (Michael W. Deem and Ramdas Pophale) SiO2 
 PCOD9044593
Probable space group: P -1
;
_chemical_formula_sum "Si O2"
_cell_formula_units_Z 14
_cell_length_a 13.144056
_cell_length_b 16.052390
_cell_length_c 9.702112
_cell_angle_alpha 150.890005
_cell_angle_beta 44.775393
_cell_angle_gamma 141.440691
_cell_volume 618.349140
_symmetry_space_group_name_H-M "P -1"
_symmetry_group_IT_number 2
_symmetry_cell_setting 'triclinic'
loop_
_space_group_symop_operation_xyz
x,y,z
-x,-y,-z
loop_
_atom_site_type_symbol
_atom_site_label
_atom_site_fract_x
_atom_site_fract_y
_atom_site_fract_z
Si Si1 0.749546 0.927652 0.130398
Si Si2 0.239923 0.389082 0.505479
Si Si3 0.984112 0.379707 0.565162
Si Si4 0.219065 0.560822 0.354142
Si Si5 0.392999 0.319847 0.512664
Si Si6 0.590585 0.763817 0.324834
Si Si7 0.591918 0.004585 0.154845
O O1 0.696766 0.814519 0.159946
O O2 0.596080 0.916614 0.173415
O O3 0.865556 0.152632 0.371472
O O4 0.821810 0.824800 0.810073
O O5 0.284574 0.383030 0.612578
O O6 0.416168 0.519186 0.451464
O O7 0.108360 0.457272 0.686387
O O8 0.870663 0.471751 0.753276
O O9 0.103717 0.416803 0.372078
O O10 0.253913 0.778876 0.682626
O O11 0.440630 0.048426 0.347829
O O12 0.343424 0.274794 0.652908
O O13 0.392166 0.132680 0.171243
O O14 0.404300 0.597321 0.231173
#
# Coordination Sequence:
#
# PCOD9044593 Si02
#       7
#     2   2   2   2   2   2   2
#     4  10  20  31  54  81 107 130 165 218 266 288
#     4  10  20  34  52  76 104 143 173 201 245 322
#     4  10  17  34  50  78 105 137 165 212 253 313
#     4   8  18  30  57  77 100 127 176 214 254 291
#     4  10  19  33  53  77 101 140 177 203 246 308
#     4  10  18  33  53  85 101 124 174 224 255 291
#     4   8  17  32  54  77  99 132 171 213 247 303
#
# _framework density 22.640930999999998
#
# number of rings (size 3 to 8) (size 9 to 14) (size 15 to 20)
#    0.857    1.714    1.429    1.286    0.000    0.571 
#    0.000    0.714    0.000    3.429    0.000    0.000 
#    0.000    0.000    0.000    0.000    0.000    0.000 
#
# Total GULP energy -78081.883027 kJ/mol
# GULP energy per Si atom -5577.277359 kJ/mol
# Density = 2.258940 g / cm^3
# Si number density = 22.640931 Si / 1000 Ang^3
#
#
#
# Elastic Constant Matrix: (Units=GPa)
#
#
# Indices 1 2 3 4 5 6 
#
# 1 174.8376 41.6714 12.1752 -13.4895 7.2451 -35.6986
# 2 41.6714 104.2683 11.5697 -6.3044 7.8552 -30.1053
# 3 12.1752 11.5697 55.8082 -4.6888 7.1613 -10.1843
# 4 -13.4895 -6.3044 -4.6888 15.8537 -4.9272 7.7147
# 5 7.2451 7.8552 7.1613 -4.9272 20.9082 -5.4189
# 6 -35.6986 -30.1053 -10.1843 7.7147 -5.4189 37.7190
#
#
#
# Elastic Compliance Matrix: (Units=1/GPa)
#
#
# Indices 1 2 3 4 5 6 
#
# 1 0.007342 -0.001198 -0.000126 0.003167 0.000075 0.005321
# 2 -0.001198 0.012777 -0.000593 -0.001071 -0.002150 0.008815
# 3 -0.000126 -0.000593 0.019535 0.002167 -0.005001 0.003520
# 4 0.003167 -0.001071 0.002167 0.075431 0.013551 -0.010754
# 5 0.000075 -0.002150 -0.005001 0.013551 0.054034 0.001995
# 6 0.005321 0.008815 0.003520 -0.010754 0.001995 0.042020
#
#
# Mechanical properties :
#
#
# Convention : Reuss Voigt Hill
#
# Bulk Modulus (GPa) = 27.91673 51.74965 39.83319
# Shear Modulus (GPa) = 22.03486 32.86269 27.44877
#
# Velocity S-wave (km/s) = 3.12305 3.81395 3.48566
# Velocity P-wave (km/s) = 5.03603 6.50394 5.81648
#
# Compressibility (1/GPa) = 0.03582082
#
# Stress axis : x y z
#
# Youngs Moduli (GPa) = 136.20963 78.26282 51.18963
#
# Poissons Ratio (x) = 0.09375 0.00644
# Poissons Ratio (y) = 0.16316 0.03036
# Poissons Ratio (z) = 0.01713 0.04642
#
# Static dielectric constant tensor:
#      x y z
#    x 1.940140 -0.015070 -0.036560 
#    y -0.015070 1.804250 0.033690 
#    z -0.036560 0.033690 1.854330 
# 
# From -- ./inp_files/250698.got.cif
#   From: 2010.05.17/outbox.cif.g08.bks.cpg/sg2_126_cif.got.tgz:250698.got - 2010.06.03 11:33:40.
