data_PCOD9044035
_publ_section_title
;
Structure prediction by ZEFSAII (Michael W. Deem and Ramdas Pophale) SiO2 
 PCOD9044035
Probable space group: P -1
;
_chemical_formula_sum "Si O2"
_cell_formula_units_Z 16
_cell_length_a 14.583921
_cell_length_b 5.650579
_cell_length_c 9.357204
_cell_angle_alpha 75.213529
_cell_angle_beta 108.520566
_cell_angle_gamma 102.959850
_cell_volume 698.278484
_symmetry_space_group_name_H-M "P -1"
_symmetry_group_IT_number 2
_symmetry_cell_setting 'triclinic'
loop_
_space_group_symop_operation_xyz
x,y,z
-x,-y,-z
loop_
_atom_site_type_symbol
_atom_site_label
_atom_site_fract_x
_atom_site_fract_y
_atom_site_fract_z
Si Si1 0.385933 0.821679 0.580888
Si Si2 0.232132 0.291322 0.005397
Si Si3 0.079024 0.854761 0.989428
Si Si4 0.519236 0.264425 0.635610
Si Si5 0.108755 0.387950 0.208821
Si Si6 0.804851 0.380907 0.321537
Si Si7 0.451322 0.431890 0.137906
Si Si8 0.888719 0.867479 0.455363
O O1 0.405542 0.841760 0.417839
O O2 0.285373 0.668433 0.604575
O O3 0.472382 0.703015 0.717658
O O4 0.412597 0.097184 0.614303
O O5 0.227322 0.521305 0.861912
O O6 0.169346 0.044111 0.946779
O O7 0.175136 0.325429 0.118993
O O8 0.344696 0.276324 0.089545
O O9 0.009000 0.696847 0.862894
O O10 0.116896 0.683610 0.155641
O O11 0.000000 0.000000 0.000000
O O12 0.500000 0.500000 0.500000
O O13 0.559310 0.335127 0.801020
O O14 0.138777 0.257774 0.384558
O O15 0.875407 0.625884 0.381031
O O16 0.836117 0.108721 0.365681
O O17 0.500000 0.500000 0.000000
O O18 0.000000 0.000000 0.500000
#
# Coordination Sequence:
#
# PCOD9044035 Si02
#       8
#     2   2   2   2   2   2   2   2
#     4  10  23  46  69 101 138 197 243 306 370 439
#     4  11  25  43  70 107 146 196 244 301 383 442
#     4   9  21  42  74 100 144 180 246 306 370 437
#     4   9  22  42  68  94 143 188 240 302 367 438
#     4  10  24  44  72 106 139 195 249 302 370 454
#     4  12  29  47  76 109 155 196 248 312 381 443
#     4  11  23  43  67 105 143 181 247 301 367 441
#     4  12  30  50  77 110 152 195 253 313 379 450
#
# _framework density 22.913494
#
# number of rings (size 3 to 8) (size 9 to 14) (size 15 to 20)
#    0.000    1.500    1.250    1.125   15.750    3.500 
#    0.000    0.000    0.000    0.000    0.000    0.000 
#    0.000    0.000    0.000    0.000    0.000    0.000 
#
# Total GULP energy -89278.215422 kJ/mol
# GULP energy per Si atom -5579.888464 kJ/mol
# Density = 2.286134 g / cm^3
# Si number density = 22.913494 Si / 1000 Ang^3
#
#
#
# Elastic Constant Matrix: (Units=GPa)
#
#
# Indices 1 2 3 4 5 6 
#
# 1 101.6182 20.3902 17.3797 5.3655 -0.2099 20.8426
# 2 20.3902 105.3555 29.7788 -15.2327 4.9452 9.4709
# 3 17.3797 29.7788 108.7583 -8.8669 -26.0785 -7.3413
# 4 5.3655 -15.2327 -8.8669 35.7614 -0.4651 6.7243
# 5 -0.2099 4.9452 -26.0785 -0.4651 34.6954 -2.7861
# 6 20.8426 9.4709 -7.3413 6.7243 -2.7861 36.2924
#
#
#
# Elastic Compliance Matrix: (Units=1/GPa)
#
#
# Indices 1 2 3 4 5 6 
#
# 1 0.012083 -0.000997 -0.002886 -0.001641 -0.002551 -0.007155
# 2 -0.000997 0.012391 -0.004450 0.005182 -0.005444 -0.004939
# 3 -0.002886 -0.004450 0.014229 0.001013 0.011841 0.006419
# 4 -0.001641 0.005182 0.001013 0.031815 -0.000051 -0.006104
# 5 -0.002551 -0.005444 0.011841 -0.000051 0.039149 0.008296
# 6 -0.007155 -0.004939 0.006419 -0.006104 0.008296 0.036018
#
#
# Mechanical properties :
#
#
# Convention : Reuss Voigt Hill
#
# Bulk Modulus (GPa) = 45.37679 50.09217 47.73448
# Shear Modulus (GPa) = 29.46416 37.89540 33.67978
#
# Velocity S-wave (km/s) = 3.58982 4.07116 3.83804
# Velocity P-wave (km/s) = 6.08514 6.63386 6.36541
#
# Compressibility (1/GPa) = 0.02203770
#
# Stress axis : x y z
#
# Youngs Moduli (GPa) = 82.75846 80.70253 70.27662
#
# Poissons Ratio (x) = 0.08047 0.20284
# Poissons Ratio (y) = 0.08252 0.31271
# Poissons Ratio (z) = 0.23887 0.35910
#
# Static dielectric constant tensor:
#      x y z
#    x 1.860460 -0.049310 -0.006040 
#    y -0.049310 1.990580 0.057120 
#    z -0.006040 0.057120 1.871010 
# 
# From -- ./inp_files/288703.got.cif
#   From: 2010.05.17/outbox.cif.g08.bks.cpg/sg2_145_cif.got.tgz:288703.got - 2010.06.03 11:33:40.
