data_PCOD9044083
_publ_section_title
;
Structure prediction by ZEFSAII (Michael W. Deem and Ramdas Pophale) SiO2 
 PCOD9044083
Probable space group: P -1
;
_chemical_formula_sum "Si O2"
_cell_formula_units_Z 16
_cell_length_a 15.351885
_cell_length_b 15.704998
_cell_length_c 12.724660
_cell_angle_alpha 147.623253
_cell_angle_beta 153.633531
_cell_angle_gamma 29.272084
_cell_volume 637.568792
_symmetry_space_group_name_H-M "P -1"
_symmetry_group_IT_number 2
_symmetry_cell_setting 'triclinic'
loop_
_space_group_symop_operation_xyz
x,y,z
-x,-y,-z
loop_
_atom_site_type_symbol
_atom_site_label
_atom_site_fract_x
_atom_site_fract_y
_atom_site_fract_z
Si Si1 0.954936 0.654683 0.030061
Si Si2 0.454881 0.915687 0.759737
Si Si3 0.312551 0.712154 0.541670
Si Si4 0.604181 0.953332 0.392765
Si Si5 0.195550 0.824020 0.086086
Si Si6 0.126229 0.591641 0.920276
Si Si7 0.621278 0.262239 0.117890
Si Si8 0.908134 0.366837 0.392088
O O1 0.053393 0.763004 0.313417
O O2 0.701403 0.762020 0.832166
O O3 0.000000 0.500000 0.000000
O O4 0.096702 0.586209 0.006943
O O5 0.328524 0.817199 0.567551
O O6 0.354340 0.040226 0.680677
O O7 0.500000 0.000000 0.000000
O O8 0.500000 0.500000 0.500000
O O9 0.359330 0.761712 0.759804
O O10 0.833415 0.785319 0.506336
O O11 0.604504 0.129874 0.627046
O O12 0.402482 0.905637 0.133456
O O13 0.110665 0.776079 0.051714
O O14 0.234840 0.654514 0.878681
O O15 0.000000 0.000000 0.000000
O O16 0.939446 0.543568 0.621416
O O17 0.381441 0.436186 0.014748
O O18 0.808849 0.308530 0.323827
#
# Coordination Sequence:
#
# PCOD9044083 Si02
#       8
#     2   2   2   2   2   2   2   2
#     4  12  25  41  70 100 137 187 221 271 340 409
#     4  12  26  43  64 102 140 178 226 279 338 405
#     4  12  23  41  66  96 141 179 228 272 332 412
#     4  10  24  44  64  96 141 176 225 285 340 415
#     4  10  23  46  69  95 133 180 229 290 347 400
#     4  11  23  43  69 100 136 173 231 281 342 412
#     4  11  23  41  66 101 133 179 227 280 339 413
#     4  10  24  43  72  96 131 177 227 289 347 397
#
# _framework density 25.095331000000002
#
# number of rings (size 3 to 8) (size 9 to 14) (size 15 to 20)
#    0.000    1.000    3.750    1.875    3.500    4.500 
#    0.000    2.500    0.000    0.000    0.000    0.000 
#    0.000    0.000    0.000    0.000    0.000    0.000 
#
# Total GULP energy -89405.976008 kJ/mol
# GULP energy per Si atom -5587.873501 kJ/mol
# Density = 2.503821 g / cm^3
# Si number density = 25.095331 Si / 1000 Ang^3
#
#
#
# Elastic Constant Matrix: (Units=GPa)
#
#
# Indices 1 2 3 4 5 6 
#
# 1 49.4828 14.6169 7.6881 -8.3442 4.6608 16.1709
# 2 14.6169 42.6175 18.4562 -1.3227 9.9791 17.9905
# 3 7.6881 18.4562 138.2660 7.8495 11.5454 1.6958
# 4 -8.3442 -1.3227 7.8495 25.5037 9.2570 5.1270
# 5 4.6608 9.9791 11.5454 9.2570 52.1492 -1.2014
# 6 16.1709 17.9905 1.6958 5.1270 -1.2014 35.0716
#
#
#
# Elastic Compliance Matrix: (Units=1/GPa)
#
#
# Indices 1 2 3 4 5 6 
#
# 1 0.028558 -0.001277 -0.001655 0.014508 -0.004856 -0.014720
# 2 -0.001277 0.036184 -0.004399 0.009622 -0.007992 -0.019440
# 3 -0.001655 -0.004399 0.008097 -0.003890 -0.000039 0.003196
# 4 0.014508 0.009622 -0.003890 0.054105 -0.012336 -0.019769
# 5 -0.004856 -0.007992 -0.000039 -0.012336 0.023544 0.008950
# 6 -0.014720 -0.019440 0.003196 -0.019769 0.008950 0.048314
#
#
# Mechanical properties :
#
#
# Convention : Reuss Voigt Hill
#
# Bulk Modulus (GPa) = 17.18941 34.65430 25.92186
# Shear Modulus (GPa) = 21.47261 35.18524 28.32892
#
# Velocity S-wave (km/s) = 2.92831 3.74848 3.36348
# Velocity P-wave (km/s) = 4.27760 5.70735 5.04339
#
# Compressibility (1/GPa) = 0.05817534
#
# Stress axis : x y z
#
# Youngs Moduli (GPa) = 35.01703 27.63649 123.50874
#
# Poissons Ratio (x) = 0.03529 0.20442
# Poissons Ratio (y) = 0.04471 0.54337
# Poissons Ratio (z) = 0.05796 0.12159
#
# Static dielectric constant tensor:
#      x y z
#    x 2.022470 -0.028920 -0.009780 
#    y -0.028920 2.024250 0.087000 
#    z -0.009780 0.087000 2.096670 
# 
# From -- ./inp_files/455123.got.cif
#   From: 2010.05.17/outbox.cif.g08.bks.cpg/sg2_228_cif.got.tgz:455123.got - 2010.06.03 11:33:40.
