data_PCOD9044029
_publ_section_title
;
Structure prediction by ZEFSAII (Michael W. Deem and Ramdas Pophale) SiO2 
 PCOD9044029
Probable space group: P -1
;
_chemical_formula_sum "Si O2"
_cell_formula_units_Z 16
_cell_length_a 16.006093
_cell_length_b 9.790368
_cell_length_c 16.345541
_cell_angle_alpha 118.252201
_cell_angle_beta 153.587523
_cell_angle_gamma 80.274953
_cell_volume 762.006045
_symmetry_space_group_name_H-M "P -1"
_symmetry_group_IT_number 2
_symmetry_cell_setting 'triclinic'
loop_
_space_group_symop_operation_xyz
x,y,z
-x,-y,-z
loop_
_atom_site_type_symbol
_atom_site_label
_atom_site_fract_x
_atom_site_fract_y
_atom_site_fract_z
Si Si1 0.968181 0.037152 0.779607
Si Si2 0.273998 0.340395 0.441670
Si Si3 0.216783 0.549685 0.762706
Si Si4 0.368593 0.267084 0.334058
Si Si5 0.131043 0.618436 0.890795
Si Si6 0.432994 0.948746 0.521329
Si Si7 0.254003 0.230805 0.773786
Si Si8 0.216987 0.330436 0.946528
O O1 0.829324 0.116699 0.709876
O O2 0.192723 0.132844 0.066102
O O3 0.039127 0.108186 0.768804
O O4 0.793304 0.798220 0.577276
O O5 0.234335 0.219308 0.290375
O O6 0.561074 0.531625 0.755861
O O7 0.107702 0.402924 0.312388
O O8 0.199957 0.353713 0.705637
O O9 0.000000 0.500000 0.500000
O O10 0.176999 0.605229 0.832329
O O11 0.501548 0.726521 0.032430
O O12 0.500000 0.500000 0.500000
O O13 0.552697 0.222503 0.491418
O O14 0.104274 0.439540 0.862662
O O15 0.362695 0.840537 0.191314
O O16 0.500000 0.000000 0.500000
O O17 0.319879 0.328596 0.949846
O O18 0.000000 0.000000 0.500000
#
# Coordination Sequence:
#
# PCOD9044029 Si02
#       8
#     2   2   2   2   2   2   2   2
#     4  12  25  40  68  91 131 174 218 269 326 383
#     4  12  23  45  65  93 136 171 223 272 321 385
#     4  10  23  46  69 100 133 176 220 275 341 395
#     4  12  25  43  61  97 133 176 222 269 323 387
#     4  11  24  42  69  95 130 172 220 271 323 397
#     4  12  24  43  65  94 132 177 217 267 328 383
#     4  10  24  44  70  99 138 170 218 276 336 410
#     4  11  25  42  65 102 125 173 219 267 331 391
#
# _framework density 20.997205999999998
#
# number of rings (size 3 to 8) (size 9 to 14) (size 15 to 20)
#    0.000    0.750    5.000    1.875    3.500    3.000 
#    0.000    0.000    0.000    0.000    0.000    0.000 
#    0.000    0.000    0.000    0.000    0.000    0.000 
#
# Total GULP energy -89432.543252 kJ/mol
# GULP energy per Si atom -5589.533953 kJ/mol
# Density = 2.094942 g / cm^3
# Si number density = 20.997206 Si / 1000 Ang^3
#
#
#
# Elastic Constant Matrix: (Units=GPa)
#
#
# Indices 1 2 3 4 5 6 
#
# 1 102.5194 73.5169 41.9154 -41.6029 4.1864 13.9280
# 2 73.5169 179.5566 70.6839 -42.3527 17.9118 13.2355
# 3 41.9154 70.6839 82.1045 -24.9129 4.2418 7.2928
# 4 -41.6029 -42.3527 -24.9129 54.1211 -7.9063 9.1007
# 5 4.1864 17.9118 4.2418 -7.9063 34.9690 0.8523
# 6 13.9280 13.2355 7.2928 9.1007 0.8523 35.7241
#
#
#
# Elastic Compliance Matrix: (Units=1/GPa)
#
#
# Indices 1 2 3 4 5 6 
#
# 1 0.019940 -0.003740 -0.002210 0.013416 0.003060 -0.009428
# 2 -0.003740 0.010548 -0.006131 0.002310 -0.003648 -0.001700
# 3 -0.002210 -0.006131 0.019571 0.003052 0.001762 -0.001682
# 4 0.013416 0.002310 0.003052 0.035436 0.005239 -0.015862
# 5 0.003060 -0.003648 0.001762 0.005239 0.031125 -0.002278
# 6 -0.009428 -0.001700 -0.001682 -0.015862 -0.002278 0.036736
#
#
# Mechanical properties :
#
#
# Convention : Reuss Voigt Hill
#
# Bulk Modulus (GPa) = 38.61433 81.82365 60.21899
# Shear Modulus (GPa) = 26.86004 36.83381 31.84692
#
# Velocity S-wave (km/s) = 3.58050 4.19289 3.89874
# Velocity P-wave (km/s) = 5.96015 7.90531 7.00062
#
# Compressibility (1/GPa) = 0.02589712
#
# Stress axis : x y z
#
# Youngs Moduli (GPa) = 50.15050 94.80182 51.09724
#
# Poissons Ratio (x) = 0.35456 0.11290
# Poissons Ratio (y) = 0.18756 0.31329
# Poissons Ratio (z) = 0.11081 0.58126
#
# Static dielectric constant tensor:
#      x y z
#    x 1.771540 0.052150 0.022720 
#    y 0.052150 1.768310 0.027410 
#    z 0.022720 0.027410 1.740170 
# 
# From -- ./inp_files/315468.got.cif
#   From: 2010.05.17/outbox.cif.g08.bks.cpg/sg2_158_cif.got.tgz:315468.got - 2010.06.03 11:33:40.
