data_PCOD9044626
_publ_section_title
;
Structure prediction by ZEFSAII (Michael W. Deem and Ramdas Pophale) SiO2 
 PCOD9044626
Probable space group: P -1
;
_chemical_formula_sum "Si O2"
_cell_formula_units_Z 14
_cell_length_a 18.249362
_cell_length_b 7.901173
_cell_length_c 11.217143
_cell_angle_alpha 71.419128
_cell_angle_beta 145.601776
_cell_angle_gamma 131.224713
_cell_volume 582.864123
_symmetry_space_group_name_H-M "P -1"
_symmetry_group_IT_number 2
_symmetry_cell_setting 'triclinic'
loop_
_space_group_symop_operation_xyz
x,y,z
-x,-y,-z
loop_
_atom_site_type_symbol
_atom_site_label
_atom_site_fract_x
_atom_site_fract_y
_atom_site_fract_z
Si Si1 0.544086 0.208092 0.424624
Si Si2 0.846334 0.585057 0.069071
Si Si3 0.770919 0.891873 0.401129
Si Si4 0.544862 0.620606 0.386787
Si Si5 0.777014 0.134627 0.123876
Si Si6 0.077074 0.881396 0.095818
Si Si7 0.896609 0.624554 0.659713
O O1 0.581641 0.443301 0.478583
O O2 0.725853 0.340920 0.555835
O O3 0.500000 0.000000 0.500000
O O4 0.368771 0.061354 0.132746
O O5 0.757616 0.325111 0.075540
O O6 0.030882 0.843004 0.329899
O O7 0.935753 0.622468 0.050870
O O8 0.673332 0.550509 0.838045
O O9 0.743822 0.975550 0.227024
O O10 0.599185 0.735973 0.300098
O O11 0.801572 0.712373 0.467955
O O12 0.701147 0.883891 0.618827
O O13 0.989973 0.331039 0.310897
O O14 0.037267 0.802607 0.922323
O O15 0.000000 0.000000 0.000000
#
# Coordination Sequence:
#
# PCOD9044626 Si02
#       7
#     2   2   2   2   2   2   2
#     4  11  25  42  64 100 131 166 219 274 337 382
#     4  11  24  43  67  99 130 175 222 268 330 390
#     4  10  23  47  69  93 127 180 229 262 323 391
#     4  10  24  44  72  95 132 174 222 272 322 397
#     4  12  27  41  67 100 136 172 216 275 329 391
#     4  11  21  43  70  96 127 176 227 262 325 394
#     4  11  24  45  66  96 135 173 216 276 328 385
#
# _framework density 24.019317999999998
#
# number of rings (size 3 to 8) (size 9 to 14) (size 15 to 20)
#    0.000    1.143    4.286    2.571    0.000   11.429 
#    0.000    0.000    0.000    0.000    0.000    0.000 
#    0.000    0.000    0.000    0.000    0.000    0.000 
#
# Total GULP energy -78400.039233 kJ/mol
# GULP energy per Si atom -5600.002802 kJ/mol
# Density = 2.396465 g / cm^3
# Si number density = 24.019318 Si / 1000 Ang^3
#
#
#
# Elastic Constant Matrix: (Units=GPa)
#
#
# Indices 1 2 3 4 5 6 
#
# 1 78.9845 47.8907 31.3225 -15.7752 23.0945 32.5055
# 2 47.8907 175.2272 39.1189 -24.4816 -13.3740 34.7786
# 3 31.3225 39.1189 85.8522 -3.5836 6.7078 22.7524
# 4 -15.7752 -24.4816 -3.5836 42.4085 18.5372 -10.1194
# 5 23.0945 -13.3740 6.7078 18.5372 19.3592 -2.7709
# 6 32.5055 34.7786 22.7524 -10.1194 -2.7709 47.5450
#
#
#
# Elastic Compliance Matrix: (Units=1/GPa)
#
#
# Indices 1 2 3 4 5 6 
#
# 1 -0.036355 0.008592 -0.004832 -0.048811 0.100054 0.016325
# 2 0.008592 0.005545 -0.001620 0.012888 -0.019276 -0.007535
# 3 -0.004832 -0.001620 0.014663 -0.003174 0.002163 -0.003077
# 4 -0.048811 0.012888 -0.003174 -0.021684 0.092754 0.026253
# 5 0.100054 -0.019276 0.002163 0.092754 -0.177159 -0.045923
# 6 0.016325 -0.007535 -0.003077 0.026253 -0.045923 0.019768
#
#
# Mechanical properties :
#
#
# Convention : Reuss Voigt Hill
#
# Bulk Modulus (GPa) = -84.25903 64.08090 -10.08907
# Shear Modulus (GPa) = -24.57542 36.64468 6.03463
#
# Velocity S-wave (km/s) = -3.20215 3.91017 1.58678
# Velocity P-wave (km/s) = 6.98767 6.86460 0.92324
#
# Compressibility (1/GPa) = -0.01186816
#
# Stress axis : x y z
#
# Youngs Moduli (GPa) = -27.50678 180.32894 68.19704
#
# Poissons Ratio (x) = -1.54932 0.32956
# Poissons Ratio (y) = 0.23633 0.11050
# Poissons Ratio (z) = -0.13293 0.29219
#
# Static dielectric constant tensor:
#      x y z
#    x 1.924890 -0.007770 0.007430 
#    y -0.007770 1.968900 0.019790 
#    z 0.007430 0.019790 1.922890 
# 
# From -- ./inp_files/469919.got.cif
#   From: 2010.05.17/outbox.cif.g08.bks.cpg/sg2_235_cif.got.tgz:469919.got - 2010.06.03 11:33:40.
