data_PCOD9044648
_publ_section_title
;
Structure prediction by ZEFSAII (Michael W. Deem and Ramdas Pophale) SiO2 
 PCOD9044648
Probable space group: P -1
;
_chemical_formula_sum "Si O2"
_cell_formula_units_Z 16
_cell_length_a 11.849195
_cell_length_b 16.232255
_cell_length_c 6.228949
_cell_angle_alpha 131.565903
_cell_angle_beta 69.434249
_cell_angle_gamma 127.058994
_cell_volume 712.962269
_symmetry_space_group_name_H-M "P -1"
_symmetry_group_IT_number 2
_symmetry_cell_setting 'triclinic'
loop_
_space_group_symop_operation_xyz
x,y,z
-x,-y,-z
loop_
_atom_site_type_symbol
_atom_site_label
_atom_site_fract_x
_atom_site_fract_y
_atom_site_fract_z
Si Si1 0.118678 0.965045 0.829510
Si Si2 0.051885 0.458649 0.191398
Si Si3 0.328946 0.413908 0.453411
Si Si4 0.254826 0.185164 0.784546
Si Si5 0.898790 0.754760 0.326541
Si Si6 0.328470 0.035892 0.190491
Si Si7 0.422406 0.897506 0.186346
Si Si8 0.231541 0.610469 0.969716
O O1 0.033066 0.830826 0.526346
O O2 0.227366 0.080932 0.803973
O O3 0.193012 0.969190 0.007883
O O4 0.000000 0.000000 0.000000
O O5 0.000000 0.500000 0.500000
O O6 0.914811 0.407749 0.045505
O O7 0.081030 0.344322 0.998346
O O8 0.194653 0.571869 0.177246
O O9 0.500000 0.500000 0.500000
O O10 0.240982 0.321903 0.558470
O O11 0.269174 0.511082 0.661272
O O12 0.299397 0.318037 0.106578
O O13 0.122614 0.156305 0.671689
O O14 0.350016 0.162847 0.515334
O O15 0.320103 0.932746 0.189026
O O16 0.462130 0.082029 0.029265
O O17 0.500000 0.000000 0.500000
O O18 0.349755 0.756120 0.091227
#
# Coordination Sequence:
#
# PCOD9044648 Si02
#       8
#     2   2   2   2   2   2   2   2
#     4  12  24  44  71 106 147 180 233 302 368 427
#     4  10  23  47  70 102 141 187 238 293 354 425
#     4  11  26  46  71 101 146 191 234 301 358 434
#     4  12  24  44  72 106 141 185 238 300 363 425
#     4  11  25  44  72 109 141 189 238 296 369 428
#     4  11  27  45  72 109 141 193 236 304 367 432
#     4  11  27  50  72 104 144 191 246 295 364 431
#     4  10  25  46  70 102 140 186 236 293 358 428
#
# _framework density 22.441579000000001
#
# number of rings (size 3 to 8) (size 9 to 14) (size 15 to 20)
#    0.000    1.000    2.500    1.875    8.750    2.500 
#    6.750    0.000    0.000    0.000    0.000    0.000 
#    0.000    0.000    0.000    0.000    0.000    0.000 
#
# Total GULP energy -89360.976215 kJ/mol
# GULP energy per Si atom -5585.061013 kJ/mol
# Density = 2.239050 g / cm^3
# Si number density = 22.441579 Si / 1000 Ang^3
#
#
#
# Elastic Constant Matrix: (Units=GPa)
#
#
# Indices 1 2 3 4 5 6 
#
# 1 105.1497 22.7667 46.5584 -6.0975 -5.8921 -8.2272
# 2 22.7667 95.0462 60.0503 14.3507 -8.7846 -0.4643
# 3 46.5584 60.0503 179.2850 -6.1342 -27.3148 -1.1391
# 4 -6.0975 14.3507 -6.1342 23.3793 5.2770 -2.2741
# 5 -5.8921 -8.7846 -27.3148 5.2770 48.9384 -2.6612
# 6 -8.2272 -0.4643 -1.1391 -2.2741 -2.6612 31.8440
#
#
#
# Elastic Compliance Matrix: (Units=1/GPa)
#
#
# Indices 1 2 3 4 5 6 
#
# 1 0.011358 -0.001955 -0.002212 0.003989 -0.000481 0.003071
# 2 -0.001955 0.016188 -0.005182 -0.012157 0.001021 -0.001237
# 3 -0.002212 -0.005182 0.008506 0.004154 0.003115 0.000214
# 4 0.003989 -0.012157 0.004154 0.053915 -0.004956 0.004438
# 5 -0.000481 0.001021 0.003115 -0.004956 0.022917 0.001563
# 6 0.003071 -0.001237 0.000214 0.004438 0.001563 0.032634
#
#
# Mechanical properties :
#
#
# Convention : Reuss Voigt Hill
#
# Bulk Modulus (GPa) = 57.62788 70.91462 64.27125
# Shear Modulus (GPa) = 29.41171 37.50603 33.45887
#
# Velocity S-wave (km/s) = 3.62413 4.09256 3.86545
# Velocity P-wave (km/s) = 6.57627 7.34849 6.97308
#
# Compressibility (1/GPa) = 0.01735271
#
# Stress axis : x y z
#
# Youngs Moduli (GPa) = 88.04678 61.77584 117.56374
#
# Poissons Ratio (x) = 0.12075 0.26006
# Poissons Ratio (y) = 0.17210 0.60927
# Poissons Ratio (z) = 0.19476 0.32015
#
# Static dielectric constant tensor:
#      x y z
#    x 1.876900 -0.003820 0.040350 
#    y -0.003820 1.893180 -0.008400 
#    z 0.040350 -0.008400 1.951750 
# 
# From -- ./inp_files/81698.got.cif
#   From: 2010.05.17/outbox.cif.g08.bks.cpg/sg2_41_cif.got.tgz:81698.got - 2010.06.03 11:33:40.
