data_PCOD9044704
_publ_section_title
;
Structure prediction by ZEFSAII (Michael W. Deem and Ramdas Pophale) SiO2 
 PCOD9044704
Probable space group: P -1
;
_chemical_formula_sum "Si O2"
_cell_formula_units_Z 14
_cell_length_a 12.335503
_cell_length_b 12.247765
_cell_length_c 8.730918
_cell_angle_alpha 129.981370
_cell_angle_beta 106.363207
_cell_angle_gamma 35.948582
_cell_volume 503.158410
_symmetry_space_group_name_H-M "P -1"
_symmetry_group_IT_number 2
_symmetry_cell_setting 'triclinic'
loop_
_space_group_symop_operation_xyz
x,y,z
-x,-y,-z
loop_
_atom_site_type_symbol
_atom_site_label
_atom_site_fract_x
_atom_site_fract_y
_atom_site_fract_z
Si Si1 0.701250 0.202219 0.080930
Si Si2 0.971342 0.297789 0.923277
Si Si3 0.871329 0.471877 0.712474
Si Si4 0.521857 0.243754 0.294503
Si Si5 0.598108 0.720515 0.407390
Si Si6 0.254378 0.134293 0.383094
Si Si7 0.944812 0.037176 0.766760
O O1 0.504111 0.387035 0.286847
O O2 0.884392 0.075160 0.147221
O O3 0.749091 0.986791 0.851797
O O4 0.723134 0.255873 0.974158
O O5 0.904636 0.457680 0.892124
O O6 0.807224 0.488115 0.171447
O O7 0.223308 0.055024 0.841422
O O8 0.933284 0.170915 0.755823
O O9 0.619891 0.729301 0.807679
O O10 0.970732 0.207845 0.469999
O O11 0.011610 0.420918 0.611233
O O12 0.422798 0.364528 0.535414
O O13 0.622248 0.854821 0.603443
O O14 0.391046 0.933891 0.406244
#
# Coordination Sequence:
#
# PCOD9044704 Si02
#       7
#     2   2   2   2   2   2   2
#     4   9  20  41  66  97 133 173 222 275 329 396
#     4  11  24  46  68 102 138 181 223 280 337 404
#     4  11  23  45  71 100 139 180 224 280 338 402
#     4  11  25  43  68 105 135 176 231 273 338 408
#     4  11  25  46  70 100 139 178 227 287 332 405
#     4  10  23  47  71  98 138 180 228 279 342 402
#     4   9  21  41  71  98 138 175 228 278 330 406
#
# _framework density 27.82424
#
# number of rings (size 3 to 8) (size 9 to 14) (size 15 to 20)
#    0.000    1.714    1.429    1.286   10.000    4.000 
#    2.571    5.000    0.000    0.000    0.000    0.000 
#    0.000    0.000    0.000    0.000    0.000    0.000 
#
# Total GULP energy -78323.853155 kJ/mol
# GULP energy per Si atom -5594.560940 kJ/mol
# Density = 2.776091 g / cm^3
# Si number density = 27.824240 Si / 1000 Ang^3
#
#
#
# Elastic Constant Matrix: (Units=GPa)
#
#
# Indices 1 2 3 4 5 6 
#
# 1 143.8779 38.8620 56.6624 -15.2500 -19.7636 -16.0059
# 2 38.8620 104.8807 29.9897 -16.7838 -23.0373 -15.6139
# 3 56.6624 29.9897 136.6462 -9.3085 -21.7638 -10.3710
# 4 -15.2500 -16.7838 -9.3085 31.8061 4.7858 -12.7972
# 5 -19.7636 -23.0373 -21.7638 4.7858 55.5932 4.3844
# 6 -16.0059 -15.6139 -10.3710 -12.7972 4.3844 37.3659
#
#
#
# Elastic Compliance Matrix: (Units=1/GPa)
#
#
# Indices 1 2 3 4 5 6 
#
# 1 0.009502 -0.001062 -0.002888 0.004729 0.001059 0.004320
# 2 -0.001062 0.013483 -0.000771 0.008904 0.003542 0.007599
# 3 -0.002888 -0.000771 0.009167 0.001019 0.002069 0.001091
# 4 0.004729 0.008904 0.001019 0.047728 -0.000105 0.022387
# 5 0.001059 0.003542 0.002069 -0.000105 0.020647 0.000049
# 6 0.004320 0.007599 0.001091 0.022387 0.000049 0.039753
#
#
# Mechanical properties :
#
#
# Convention : Reuss Voigt Hill
#
# Bulk Modulus (GPa) = 44.03730 70.71477 57.37604
# Shear Modulus (GPa) = 31.78793 42.27908 37.03350
#
# Velocity S-wave (km/s) = 3.38369 3.90231 3.65222
# Velocity P-wave (km/s) = 5.57917 6.76565 6.20085
#
# Compressibility (1/GPa) = 0.02270802
#
# Stress axis : x y z
#
# Youngs Moduli (GPa) = 105.24018 74.16752 109.09008
#
# Poissons Ratio (x) = 0.07880 0.31508
# Poissons Ratio (y) = 0.11181 0.08412
# Poissons Ratio (z) = 0.30396 0.05719
#
# Static dielectric constant tensor:
#      x y z
#    x 2.201370 0.060440 0.038880 
#    y 0.060440 2.094650 0.028300 
#    z 0.038880 0.028300 2.233030 
# 
# From -- ./inp_files/315946.got.cif
#   From: 2010.05.17/outbox.cif.g08.bks.cpg/sg2_158_cif.got.tgz:315946.got - 2010.06.03 11:33:40.
