data_PCOD9044151
_publ_section_title
;
Structure prediction by ZEFSAII (Michael W. Deem and Ramdas Pophale) SiO2 
 PCOD9044151
Probable space group: P -1
;
_chemical_formula_sum "Si O2"
_cell_formula_units_Z 14
_cell_length_a 12.633773
_cell_length_b 8.840656
_cell_length_c 14.922384
_cell_angle_alpha 120.078351
_cell_angle_beta 151.518190
_cell_angle_gamma 48.080986
_cell_volume 573.764035
_symmetry_space_group_name_H-M "P -1"
_symmetry_group_IT_number 2
_symmetry_cell_setting 'triclinic'
loop_
_space_group_symop_operation_xyz
x,y,z
-x,-y,-z
loop_
_atom_site_type_symbol
_atom_site_label
_atom_site_fract_x
_atom_site_fract_y
_atom_site_fract_z
Si Si1 0.524193 0.054816 0.262309
Si Si2 0.904337 0.956249 0.158016
Si Si3 0.779078 0.666841 0.452156
Si Si4 0.295570 0.609385 0.104474
Si Si5 0.285724 0.513134 0.276709
Si Si6 0.383464 0.869098 0.836448
Si Si7 0.177959 0.134854 0.301725
O O1 0.340488 0.284575 0.238026
O O2 0.674578 0.076263 0.295751
O O3 0.689959 0.891123 0.413102
O O4 0.363935 0.962801 0.072057
O O5 0.017902 0.709341 0.176751
O O6 0.852308 0.058982 0.247153
O O7 0.084968 0.002101 0.245827
O O8 0.520677 0.656583 0.265636
O O9 0.895986 0.660799 0.634815
O O10 0.000000 0.500000 0.500000
O O11 0.292484 0.582157 0.200895
O O12 0.411637 0.379887 0.080954
O O13 0.006217 0.780238 0.898887
O O14 0.500000 0.500000 0.500000
O O15 0.500000 0.000000 0.000000
O O16 0.500000 0.000000 0.500000
#
# Coordination Sequence:
#
# PCOD9044151 Si02
#       7
#     2   2   2   2   2   2   2
#     4  10  23  46  70 109 151 194 244 310 376 443
#     4  11  22  45  75 105 149 196 246 311 376 441
#     4  12  27  45  77 114 148 198 253 307 377 458
#     4  11  26  51  75 108 155 195 248 321 373 445
#     4  11  25  46  74 107 148 202 251 307 377 452
#     4   9  22  44  78 105 139 202 238 300 387 443
#     4  12  28  47  76 110 151 202 257 308 380 446
#
# _framework density 24.400275000000001
#
# number of rings (size 3 to 8) (size 9 to 14) (size 15 to 20)
#    0.000    1.143    1.429    3.000    6.000    3.429 
#   12.857    3.571    0.000    0.000    0.000    0.000 
#    0.000    0.000    0.000    0.000    0.000    0.000 
#
# Total GULP energy -78303.967540 kJ/mol
# GULP energy per Si atom -5593.140539 kJ/mol
# Density = 2.434474 g / cm^3
# Si number density = 24.400275 Si / 1000 Ang^3
#
#
#
# Elastic Constant Matrix: (Units=GPa)
#
#
# Indices 1 2 3 4 5 6 
#
# 1 129.8302 59.6566 65.3095 -8.5528 10.3011 -0.9469
# 2 59.6566 122.9686 30.8726 0.3867 -1.1555 -4.5119
# 3 65.3095 30.8726 145.4661 11.6948 -10.6876 11.9752
# 4 -8.5528 0.3867 11.6948 33.6790 3.5186 -3.3600
# 5 10.3011 -1.1555 -10.6876 3.5186 46.0376 6.1786
# 6 -0.9469 -4.5119 11.9752 -3.3600 6.1786 45.5684
#
#
#
# Elastic Compliance Matrix: (Units=1/GPa)
#
#
# Indices 1 2 3 4 5 6 
#
# 1 0.014339 -0.005295 -0.006514 0.006841 -0.005748 0.002770
# 2 -0.005295 0.010659 0.000325 -0.001694 0.001587 0.000520
# 3 -0.006514 0.000325 0.010957 -0.006404 0.005055 -0.004140
# 4 0.006841 -0.001694 -0.006404 0.034850 -0.006407 0.005096
# 5 -0.005748 0.001587 0.005055 -0.006407 0.025410 -0.005208
# 6 0.002770 0.000520 -0.004140 0.005096 -0.005208 0.024224
#
#
# Mechanical properties :
#
#
# Convention : Reuss Voigt Hill
#
# Bulk Modulus (GPa) = 77.00123 78.88248 77.94185
# Shear Modulus (GPa) = 33.84401 41.21876 37.53138
#
# Velocity S-wave (km/s) = 3.72833 4.11454 3.92619
# Velocity P-wave (km/s) = 7.08237 7.41426 7.25021
#
# Compressibility (1/GPa) = 0.01298681
#
# Stress axis : x y z
#
# Youngs Moduli (GPa) = 69.73814 93.82103 91.26343
#
# Poissons Ratio (x) = 0.49678 0.59453
# Poissons Ratio (y) = 0.36926 -0.02968
# Poissons Ratio (z) = 0.45431 -0.03051
#
# Static dielectric constant tensor:
#      x y z
#    x 2.062460 -0.033000 0.021990 
#    y -0.033000 1.950550 -0.047380 
#    z 0.021990 -0.047380 2.062280 
# 
# From -- ./inp_files/516168.got.cif
#   From: 2010.05.17/outbox.cif.g08.bks.cpg/sg2_259_cif.got.tgz:516168.got - 2010.06.03 11:33:40.
