data_PCOD9044863
_publ_section_title
;
Structure prediction by ZEFSAII (Michael W. Deem and Ramdas Pophale) SiO2 
 PCOD9044863
Probable space group: P -1
;
_chemical_formula_sum "Si O2"
_cell_formula_units_Z 16
_cell_length_a 15.531042
_cell_length_b 5.487968
_cell_length_c 8.409266
_cell_angle_alpha 104.728364
_cell_angle_beta 78.147665
_cell_angle_gamma 105.757598
_cell_volume 659.955384
_symmetry_space_group_name_H-M "P -1"
_symmetry_group_IT_number 2
_symmetry_cell_setting 'triclinic'
loop_
_space_group_symop_operation_xyz
x,y,z
-x,-y,-z
loop_
_atom_site_type_symbol
_atom_site_label
_atom_site_fract_x
_atom_site_fract_y
_atom_site_fract_z
Si Si1 0.263332 0.633545 0.358637
Si Si2 0.075544 0.390866 0.365792
Si Si3 0.598341 0.081559 0.398642
Si Si4 0.680532 0.879225 0.815802
Si Si5 0.864372 0.501003 0.012027
Si Si6 0.319641 0.292524 0.882290
Si Si7 0.522772 0.254589 0.140859
Si Si8 0.028989 0.882055 0.131553
O O1 0.162562 0.566552 0.449484
O O2 0.335918 0.726575 0.480671
O O3 0.267219 0.347318 0.255792
O O4 0.284048 0.858967 0.253793
O O5 0.000000 0.500000 0.500000
O O6 0.047599 0.077370 0.305793
O O7 0.101275 0.448971 0.177511
O O8 0.578194 0.215358 0.267543
O O9 0.500000 0.000000 0.500000
O O10 0.646828 0.846219 0.304716
O O11 0.578924 0.736461 0.774681
O O12 0.686952 0.918088 0.009106
O O13 0.769700 0.590443 0.081886
O O14 0.938742 0.648294 0.137799
O O15 0.880094 0.210294 0.965137
O O16 0.409053 0.512700 0.934548
O O17 0.500000 0.000000 0.000000
O O18 0.000000 0.000000 0.000000
#
# Coordination Sequence:
#
# PCOD9044863 Si02
#       8
#     2   2   2   2   2   2   2   2
#     4  12  29  49  78 113 161 206 265 330 408 477
#     4  11  26  46  74 111 153 200 256 328 406 474
#     4  12  28  48  72 114 164 209 259 332 402 471
#     4  12  26  51  79 109 155 212 269 323 390 487
#     4  10  23  47  76 111 148 204 264 326 391 469
#     4  12  27  45  81 114 151 210 275 324 390 487
#     4  12  26  46  77 112 155 206 268 322 395 469
#     4   9  22  46  74 104 149 197 255 326 386 469
#
# _framework density 24.244063000000001
#
# number of rings (size 3 to 8) (size 9 to 14) (size 15 to 20)
#    0.000    0.750    3.750    1.875    5.250    3.500 
#    4.500    0.000    0.000    0.000    0.000    0.000 
#    0.000    0.000    0.000    0.000    0.000    0.000 
#
# Total GULP energy -89253.396994 kJ/mol
# GULP energy per Si atom -5578.337312 kJ/mol
# Density = 2.418888 g / cm^3
# Si number density = 24.244063 Si / 1000 Ang^3
#
#
#
# Elastic Constant Matrix: (Units=GPa)
#
#
# Indices 1 2 3 4 5 6 
#
# 1 193.1621 41.0544 43.7802 4.8694 -26.3144 8.0466
# 2 41.0544 93.0913 36.7278 11.9600 -6.5531 -3.0951
# 3 43.7802 36.7278 84.9774 17.4223 -11.6482 1.7448
# 4 4.8694 11.9600 17.4223 28.9785 -3.0636 10.0113
# 5 -26.3144 -6.5531 -11.6482 -3.0636 53.4767 10.9068
# 6 8.0466 -3.0951 1.7448 10.0113 10.9068 50.0601
#
#
#
# Elastic Compliance Matrix: (Units=1/GPa)
#
#
# Indices 1 2 3 4 5 6 
#
# 1 0.006648 -0.002094 -0.002542 0.002376 0.003056 -0.002251
# 2 -0.002094 0.013855 -0.004339 -0.003646 -0.000952 0.002281
# 3 -0.002542 -0.004339 0.016749 -0.008032 0.001223 0.000897
# 4 0.002376 -0.003646 -0.008032 0.044254 0.003537 -0.009948
# 5 0.003056 -0.000952 0.001223 0.003537 0.021789 -0.006047
# 6 -0.002251 0.002281 0.000897 -0.009948 -0.006047 0.023755
#
#
# Mechanical properties :
#
#
# Convention : Reuss Voigt Hill
#
# Bulk Modulus (GPa) = 51.80925 68.26172 60.03548
# Shear Modulus (GPa) = 33.01759 43.14762 38.08260
#
# Velocity S-wave (km/s) = 3.69437 4.22325 3.96763
# Velocity P-wave (km/s) = 6.29398 7.21098 6.76803
#
# Compressibility (1/GPa) = 0.01930157
#
# Stress axis : x y z
#
# Youngs Moduli (GPa) = 150.41045 72.17704 59.70530
#
# Poissons Ratio (x) = 0.15114 0.15179
# Poissons Ratio (y) = 0.31496 0.25907
# Poissons Ratio (z) = 0.38238 0.31318
#
# Static dielectric constant tensor:
#      x y z
#    x 2.096850 0.039300 -0.111000 
#    y 0.039300 2.192930 -0.089500 
#    z -0.111000 -0.089500 2.067600 
# 
# From -- ./inp_files/289160.got.cif
#   From: 2010.05.17/outbox.cif.g08.bks.cpg/sg2_145_cif.got.tgz:289160.got - 2010.06.03 11:33:40.
