data_PCOD9044680
_publ_section_title
;
Structure prediction by ZEFSAII (Michael W. Deem and Ramdas Pophale) SiO2 
 PCOD9044680
Probable space group: P -1
;
_chemical_formula_sum "Si O2"
_cell_formula_units_Z 14
_cell_length_a 9.156953
_cell_length_b 5.090734
_cell_length_c 17.130623
_cell_angle_alpha 113.073294
_cell_angle_beta 62.799039
_cell_angle_gamma 79.318317
_cell_volume 585.013907
_symmetry_space_group_name_H-M "P -1"
_symmetry_group_IT_number 2
_symmetry_cell_setting 'triclinic'
loop_
_space_group_symop_operation_xyz
x,y,z
-x,-y,-z
loop_
_atom_site_type_symbol
_atom_site_label
_atom_site_fract_x
_atom_site_fract_y
_atom_site_fract_z
Si Si1 0.907211 0.759677 0.985335
Si Si2 0.930053 0.619140 0.247105
Si Si3 0.267480 0.470710 0.566722
Si Si4 0.490893 0.167107 0.940810
Si Si5 0.720372 0.689850 0.698181
Si Si6 0.954426 0.018587 0.636073
Si Si7 0.446259 0.854683 0.651203
O O1 0.954658 0.657322 0.871391
O O2 0.695860 0.817186 0.050015
O O3 0.000000 0.500000 0.000000
O O4 0.000000 0.000000 0.000000
O O5 0.872988 0.558572 0.340774
O O6 0.042830 0.819048 0.261895
O O7 0.739261 0.822828 0.272372
O O8 0.383948 0.594090 0.605759
O O9 0.404069 0.158905 0.450917
O O10 0.162970 0.738384 0.556717
O O11 0.653068 0.918010 0.817266
O O12 0.500000 0.500000 0.000000
O O13 0.500000 0.000000 0.000000
O O14 0.850711 0.319691 0.640441
O O15 0.541191 0.757695 0.699640
O O16 0.837328 0.826034 0.637640
#
# Coordination Sequence:
#
# PCOD9044680 Si02
#       7
#     2   2   2   2   2   2   2
#     4  12  28  44  72 107 140 183 241 297 349 414
#     4  11  23  46  74  95 148 181 238 278 366 414
#     4  10  23  47  71 103 137 192 227 285 357 427
#     4  12  26  46  71 100 144 188 236 284 358 425
#     4  12  25  45  69 105 140 181 235 292 346 406
#     4  11  25  44  72  97 141 186 227 279 352 421
#     4  10  25  42  73 105 139 179 237 291 351 418
#
# _framework density 23.931055000000001
#
# number of rings (size 3 to 8) (size 9 to 14) (size 15 to 20)
#    0.000    0.857    1.429    4.714    8.000    1.143 
#    0.000    0.000    0.000    0.000    0.000    0.000 
#    0.000    0.000    0.000    0.000    0.000    0.000 
#
# Total GULP energy -78120.991640 kJ/mol
# GULP energy per Si atom -5580.070831 kJ/mol
# Density = 2.387659 g / cm^3
# Si number density = 23.931055 Si / 1000 Ang^3
#
#
#
# Elastic Constant Matrix: (Units=GPa)
#
#
# Indices 1 2 3 4 5 6 
#
# 1 158.1354 64.1783 4.7776 1.7306 7.1182 -10.4322
# 2 64.1783 156.6176 -1.1420 3.0010 -1.6647 -1.3213
# 3 4.7776 -1.1420 64.5717 -5.1581 -0.4929 7.2778
# 4 1.7306 3.0010 -5.1581 24.4216 -1.0853 7.5394
# 5 7.1182 -1.6647 -0.4929 -1.0853 23.9060 -5.8373
# 6 -10.4322 -1.3213 7.2778 7.5394 -5.8373 42.5957
#
#
#
# Elastic Compliance Matrix: (Units=1/GPa)
#
#
# Indices 1 2 3 4 5 6 
#
# 1 0.007897 -0.003231 -0.000954 -0.001042 -0.002184 0.001882
# 2 -0.003231 0.007733 0.000387 -0.000472 0.001404 -0.000342
# 3 -0.000954 0.000387 0.016371 0.004664 -0.000081 -0.003855
# 4 -0.001042 -0.000472 0.004664 0.044844 0.000218 -0.008974
# 5 -0.002184 0.001404 -0.000081 0.000218 0.043931 0.005504
# 6 0.001882 -0.000342 -0.003855 -0.008974 0.005504 0.026928
#
#
# Mechanical properties :
#
#
# Convention : Reuss Voigt Hill
#
# Bulk Modulus (GPa) = 40.97133 57.21693 49.09413
# Shear Modulus (GPa) = 30.59354 38.95206 34.77280
#
# Velocity S-wave (km/s) = 3.57936 4.03883 3.81601
# Velocity P-wave (km/s) = 5.85151 6.76095 6.32260
#
# Compressibility (1/GPa) = 0.02440731
#
# Stress axis : x y z
#
# Youngs Moduli (GPa) = 126.62309 129.32152 61.08528
#
# Poissons Ratio (x) = 0.41777 0.05825
# Poissons Ratio (y) = 0.40906 -0.02366
# Poissons Ratio (z) = 0.12074 -0.05009
#
# Static dielectric constant tensor:
#      x y z
#    x 2.059600 0.016680 -0.164740 
#    y 0.016680 1.953860 -0.031150 
#    z -0.164740 -0.031150 1.847130 
# 
# From -- ./inp_files/553022.got.cif
#   From: 2010.05.17/outbox.cif.g08.bks.cpg/sg2_277_cif.got.tgz:553022.got - 2010.06.03 11:33:40.
