data_PCOD9044892
_publ_section_title
;
Structure prediction by ZEFSAII (Michael W. Deem and Ramdas Pophale) SiO2 
 PCOD9044892
Probable space group: P -1
;
_chemical_formula_sum "Si O2"
_cell_formula_units_Z 14
_cell_length_a 17.240639
_cell_length_b 10.420738
_cell_length_c 7.011976
_cell_angle_alpha 134.772729
_cell_angle_beta 137.741982
_cell_angle_gamma 46.343555
_cell_volume 562.427115
_symmetry_space_group_name_H-M "P -1"
_symmetry_group_IT_number 2
_symmetry_cell_setting 'triclinic'
loop_
_space_group_symop_operation_xyz
x,y,z
-x,-y,-z
loop_
_atom_site_type_symbol
_atom_site_label
_atom_site_fract_x
_atom_site_fract_y
_atom_site_fract_z
Si Si1 0.207980 0.811532 0.671678
Si Si2 0.003614 0.020715 0.803353
Si Si3 0.098326 0.337138 0.384212
Si Si4 0.481630 0.722498 0.655771
Si Si5 0.530870 0.192861 0.723037
Si Si6 0.265517 0.394831 0.418030
Si Si7 0.300000 0.130387 0.840976
O O1 0.232947 0.588944 0.439615
O O2 0.123855 0.953387 0.507140
O O3 0.118937 0.860251 0.746444
O O4 0.370400 0.898956 0.731458
O O5 0.028767 0.217944 0.020435
O O6 0.000000 0.000000 0.000000
O O7 0.173451 0.405574 0.434106
O O8 0.190648 0.195503 0.557264
O O9 0.000000 0.500000 0.500000
O O10 0.500000 0.500000 0.500000
O O11 0.458948 0.763563 0.433928
O O12 0.339084 0.823626 0.972512
O O13 0.602738 0.775971 0.970283
O O14 0.401206 0.356132 0.715836
O O15 0.500000 0.000000 0.500000
O O16 0.269165 0.229989 0.097799
#
# Coordination Sequence:
#
# PCOD9044892 Si02
#       7
#     2   2   2   2   2   2   2
#     4  11  25  47  75 112 154 201 262 324 387 474
#     4  11  26  48  72 109 149 204 263 324 384 465
#     4  12  26  48  78 106 155 209 263 329 401 468
#     4  10  23  47  78 114 160 210 261 325 406 479
#     4  11  24  48  76 115 158 208 257 330 406 477
#     4  11  25  47  75 114 153 202 263 323 403 472
#     4  10  24  47  73 115 157 205 261 329 388 478
#
# _framework density 24.892112000000001
#
# number of rings (size 3 to 8) (size 9 to 14) (size 15 to 20)
#    0.000    1.143    0.000    4.714    2.000    6.857 
#   30.857    1.429    0.000    0.000    0.000    0.000 
#    0.000    0.000    0.000    0.000    0.000    0.000 
#
# Total GULP energy -78420.644172 kJ/mol
# GULP energy per Si atom -5601.474584 kJ/mol
# Density = 2.483546 g / cm^3
# Si number density = 24.892112 Si / 1000 Ang^3
#
#
#
# Elastic Constant Matrix: (Units=GPa)
#
#
# Indices 1 2 3 4 5 6 
#
# 1 153.8091 53.2535 57.5911 -9.0780 2.7354 -3.5824
# 2 53.2535 155.3069 62.3832 9.9907 9.1736 7.2072
# 3 57.5911 62.3832 121.2630 0.5195 18.6778 -6.8044
# 4 -9.0780 9.9907 0.5195 56.8236 -11.1645 -10.6108
# 5 2.7354 9.1736 18.6778 -11.1645 52.9917 -13.7195
# 6 -3.5824 7.2072 -6.8044 -10.6108 -13.7195 44.5173
#
#
#
# Elastic Compliance Matrix: (Units=1/GPa)
#
#
# Indices 1 2 3 4 5 6 
#
# 1 0.008562 -0.001978 -0.003273 0.002463 0.002018 0.001718
# 2 -0.001978 0.009002 -0.003615 -0.002813 -0.001641 -0.003345
# 3 -0.003273 -0.003615 0.012237 -0.000460 -0.003343 0.001052
# 4 0.002463 -0.002813 -0.000460 0.021340 0.007048 0.007842
# 5 0.002018 -0.001641 -0.003343 0.007048 0.024046 0.009008
# 6 0.001718 -0.003345 0.001052 0.007842 0.009008 0.027949
#
#
# Mechanical properties :
#
#
# Convention : Reuss Voigt Hill
#
# Bulk Modulus (GPa) = 82.86374 86.31497 84.58936
# Shear Modulus (GPa) = 40.03533 48.00994 44.02263
#
# Velocity S-wave (km/s) = 4.01478 4.39649 4.20996
# Velocity P-wave (km/s) = 7.40626 7.77965 7.59525
#
# Compressibility (1/GPa) = 0.01206800
#
# Stress axis : x y z
#
# Youngs Moduli (GPa) = 116.80015 111.08452 81.72235
#
# Poissons Ratio (x) = 0.21974 0.26751
# Poissons Ratio (y) = 0.23105 0.29539
# Poissons Ratio (z) = 0.38234 0.40152
#
# Static dielectric constant tensor:
#      x y z
#    x 2.018020 -0.060400 -0.023490 
#    y -0.060400 1.940440 0.002800 
#    z -0.023490 0.002800 2.005440 
# 
# From -- ./inp_files/107849.got.cif
#   From: 2010.05.17/outbox.cif.g08.bks.cpg/sg2_54_cif.got.tgz:107849.got - 2010.06.03 11:33:40.
