data_PCOD9044109
_publ_section_title
;
Structure prediction by ZEFSAII (Michael W. Deem and Ramdas Pophale) SiO2 
 PCOD9044109
Probable space group: P -1
;
_chemical_formula_sum "Si O2"
_cell_formula_units_Z 16
_cell_length_a 11.916140
_cell_length_b 11.370626
_cell_length_c 6.191299
_cell_angle_alpha 81.574750
_cell_angle_beta 123.377366
_cell_angle_gamma 97.775346
_cell_volume 691.442553
_symmetry_space_group_name_H-M "P -1"
_symmetry_group_IT_number 2
_symmetry_cell_setting 'triclinic'
loop_
_space_group_symop_operation_xyz
x,y,z
-x,-y,-z
loop_
_atom_site_type_symbol
_atom_site_label
_atom_site_fract_x
_atom_site_fract_y
_atom_site_fract_z
Si Si1 0.947820 0.975777 0.701923
Si Si2 0.007438 0.729135 0.981345
Si Si3 0.439569 0.084490 0.233406
Si Si4 0.774228 0.547208 0.671430
Si Si5 0.674127 0.004981 0.260553
Si Si6 0.420496 0.243476 0.551423
Si Si7 0.729396 0.321366 0.944001
Si Si8 0.102027 0.609624 0.498524
O O1 0.809406 0.038733 0.519520
O O2 0.936212 0.833461 0.758534
O O3 0.000000 0.000000 0.500000
O O4 0.000000 0.000000 0.000000
O O5 0.922109 0.612098 0.838883
O O6 0.163754 0.739270 0.079305
O O7 0.013867 0.702986 0.250515
O O8 0.404405 0.201340 0.293690
O O9 0.500000 0.000000 0.500000
O O10 0.561688 0.092685 0.188764
O O11 0.321478 0.014617 0.988316
O O12 0.665399 0.645142 0.514135
O O13 0.735911 0.461492 0.854077
O O14 0.791931 0.456443 0.519858
O O15 0.633921 0.871722 0.341123
O O16 0.577889 0.270982 0.761678
O O17 0.805513 0.318116 0.251551
O O18 0.000000 0.500000 0.500000
#
# Coordination Sequence:
#
# PCOD9044109 Si02
#       8
#     2   2   2   2   2   2   2   2
#     4  12  31  48  76 115 149 190 256 317 365 449
#     4  11  24  45  70 100 142 190 242 298 374 434
#     4   9  22  43  70  93 135 188 234 295 366 439
#     4  11  22  42  66 101 137 183 239 295 365 441
#     4  10  23  46  70 101 138 188 242 297 380 435
#     4  11  24  41  69  98 143 181 236 302 366 436
#     4  11  24  41  67 104 136 187 238 297 360 450
#     4  11  21  41  72  99 142 191 241 298 367 443
#
# _framework density 23.140029999999999
#
# number of rings (size 3 to 8) (size 9 to 14) (size 15 to 20)
#    0.000    1.250    3.750    1.125    7.000    5.500 
#    0.000    0.000    0.000    0.000    0.000    0.000 
#    0.000    0.000    0.000    0.000    0.000    0.000 
#
# Total GULP energy -89150.084569 kJ/mol
# GULP energy per Si atom -5571.880286 kJ/mol
# Density = 2.308736 g / cm^3
# Si number density = 23.140030 Si / 1000 Ang^3
#
#
#
# Elastic Constant Matrix: (Units=GPa)
#
#
# Indices 1 2 3 4 5 6 
#
# 1 63.9452 11.3053 34.1430 -2.7243 10.8234 -3.8588
# 2 11.3053 63.4012 15.8367 -16.3775 -14.7237 6.5859
# 3 34.1430 15.8367 149.3050 10.0939 -12.1172 3.4932
# 4 -2.7243 -16.3775 10.0939 40.8279 -1.6577 1.1990
# 5 10.8234 -14.7237 -12.1172 -1.6577 36.4033 0.6172
# 6 -3.8588 6.5859 3.4932 1.1990 0.6172 30.3626
#
#
#
# Elastic Compliance Matrix: (Units=1/GPa)
#
#
# Indices 1 2 3 4 5 6 
#
# 1 0.021469 -0.005413 -0.005291 0.000008 -0.010414 0.004723
# 2 -0.005413 0.022579 -0.000763 0.009511 0.011024 -0.006098
# 3 -0.005291 -0.000763 0.008521 -0.002560 0.004010 -0.001468
# 4 0.000008 0.009511 -0.002560 0.029208 0.004374 -0.003010
# 5 -0.010414 0.011024 0.004010 0.004374 0.036645 -0.005094
# 6 0.004723 -0.006098 -0.001468 -0.003010 -0.005094 0.035249
#
#
# Mechanical properties :
#
#
# Convention : Reuss Voigt Hill
#
# Bulk Modulus (GPa) = 33.74489 44.35790 39.05139
# Shear Modulus (GPa) = 26.81193 35.87653 31.34423
#
# Velocity S-wave (km/s) = 3.40763 3.94180 3.68441
# Velocity P-wave (km/s) = 5.48609 6.31886 5.91714
#
# Compressibility (1/GPa) = 0.02963411
#
# Stress axis : x y z
#
# Youngs Moduli (GPa) = 46.57942 44.28926 117.35105
#
# Poissons Ratio (x) = 0.23975 0.62095
# Poissons Ratio (y) = 0.25215 0.08950
# Poissons Ratio (z) = 0.24647 0.03378
#
# Static dielectric constant tensor:
#      x y z
#    x 1.962300 0.023910 -0.047770 
#    y 0.023910 1.995270 -0.110380 
#    z -0.047770 -0.110380 2.209280 
# 
# From -- ./inp_files/70170.got.cif
#   From: 2010.05.17/outbox.cif.g08.bks.cpg/sg2_36_cif.got.tgz:70170.got - 2010.06.03 11:33:40.
