data_PCOD9044880
_publ_section_title
;
Structure prediction by ZEFSAII (Michael W. Deem and Ramdas Pophale) SiO2 
 PCOD9044880
Probable space group: P -1
;
_chemical_formula_sum "Si O2"
_cell_formula_units_Z 12
_cell_length_a 10.714952
_cell_length_b 5.154984
_cell_length_c 11.230638
_cell_angle_alpha 110.626747
_cell_angle_beta 61.832999
_cell_angle_gamma 75.620996
_cell_volume 442.487703
_symmetry_space_group_name_H-M "P -1"
_symmetry_group_IT_number 2
_symmetry_cell_setting 'triclinic'
loop_
_space_group_symop_operation_xyz
x,y,z
-x,-y,-z
loop_
_atom_site_type_symbol
_atom_site_label
_atom_site_fract_x
_atom_site_fract_y
_atom_site_fract_z
Si Si1 0.215277 0.778494 0.725857
Si Si2 0.581376 0.405105 0.710829
Si Si3 0.104590 0.630290 0.415855
Si Si4 0.647597 0.664563 0.933199
Si Si5 0.889939 0.338102 0.986197
Si Si6 0.494353 0.861433 0.626586
O O1 0.470211 0.736085 0.746428
O O2 0.313619 0.965809 0.677632
O O3 0.175277 0.739515 0.875874
O O4 0.026536 0.008423 0.805544
O O5 0.604898 0.415484 0.843525
O O6 0.749009 0.370276 0.577882
O O7 0.544112 0.128313 0.657209
O O8 0.192847 0.405725 0.226986
O O9 0.359801 0.425241 0.561229
O O10 0.000000 0.500000 0.500000
O O11 0.000000 0.000000 0.500000
O O12 0.731654 0.547296 0.005793
O O13 0.500000 0.000000 0.000000
O O14 0.000000 0.500000 0.000000
#
# Coordination Sequence:
#
# PCOD9044880 Si02
#       6
#     2   2   2   2   2   2
#     4  10  28  50  83 118 163 225 282 341 421 507
#     4  10  26  45  86 118 168 203 286 349 426 483
#     4  10  23  47  77 118 162 210 270 346 415 491
#     4  10  27  53  84 124 169 220 276 349 431 502
#     4  11  27  53  82 115 176 218 280 339 429 512
#     4  11  25  51  85 122 158 221 286 352 411 502
#
# _framework density 27.119396999999999
#
# number of rings (size 3 to 8) (size 9 to 14) (size 15 to 20)
#    1.000    0.667    0.000    1.000    9.333    2.667 
#    9.000    5.833    7.333    0.000    0.000    0.000 
#    0.000    0.000    0.000    0.000    0.000    0.000 
#
# Total GULP energy -66894.094385 kJ/mol
# GULP energy per Si atom -5574.507865 kJ/mol
# Density = 2.705767 g / cm^3
# Si number density = 27.119397 Si / 1000 Ang^3
#
#
#
# Elastic Constant Matrix: (Units=GPa)
#
#
# Indices 1 2 3 4 5 6 
#
# 1 171.6306 87.5828 52.7204 3.8499 -7.3994 8.3027
# 2 87.5828 156.8921 52.7972 -3.5943 -5.5153 12.0724
# 3 52.7204 52.7972 155.5195 -7.1105 -36.3025 -16.8182
# 4 3.8499 -3.5943 -7.1105 48.7469 -9.9104 -9.2698
# 5 -7.3994 -5.5153 -36.3025 -9.9104 53.1694 1.9549
# 6 8.3027 12.0724 -16.8182 -9.2698 1.9549 63.9891
#
#
#
# Elastic Compliance Matrix: (Units=1/GPa)
#
#
# Indices 1 2 3 4 5 6 
#
# 1 0.008563 -0.004138 -0.001862 -0.001605 -0.000771 -0.001029
# 2 -0.004138 0.009555 -0.002274 0.000143 -0.001044 -0.001811
# 3 -0.001862 -0.002274 0.009979 0.003509 0.006840 0.003593
# 4 -0.001605 0.000143 0.003509 0.023272 0.006368 0.004280
# 5 -0.000771 -0.001044 0.006840 0.006368 0.024366 0.002273
# 6 -0.001029 -0.001811 0.003593 0.004280 0.002273 0.017598
#
#
# Mechanical properties :
#
#
# Convention : Reuss Voigt Hill
#
# Bulk Modulus (GPa) = 86.59678 96.69367 91.64523
# Shear Modulus (GPa) = 43.96357 52.57720 48.27039
#
# Velocity S-wave (km/s) = 4.03067 4.40788 4.22349
# Velocity P-wave (km/s) = 7.32549 7.85099 7.59279
#
# Compressibility (1/GPa) = 0.01154777
#
# Stress axis : x y z
#
# Youngs Moduli (GPa) = 116.78533 104.65787 100.20899
#
# Poissons Ratio (x) = 0.43307 0.18664
# Poissons Ratio (y) = 0.48325 0.22788
# Poissons Ratio (z) = 0.21751 0.23800
#
# Static dielectric constant tensor:
#      x y z
#    x 2.276240 -0.145890 0.194940 
#    y -0.145890 2.226250 -0.041610 
#    z 0.194940 -0.041610 2.332370 
# 
# From -- ./inp_files/408724.got.cif
#   From: 2010.05.17/outbox.cif.g08.bks.cpg/sg2_205_cif.got.tgz:408724.got - 2010.06.03 11:33:40.
