data_PCOD9044429
_publ_section_title
;
Structure prediction by ZEFSAII (Michael W. Deem and Ramdas Pophale) SiO2 
 PCOD9044429
Probable space group: P -1
;
_chemical_formula_sum "Si O2"
_cell_formula_units_Z 16
_cell_length_a 11.543494
_cell_length_b 19.154025
_cell_length_c 9.096793
_cell_angle_alpha 153.404725
_cell_angle_beta 54.651909
_cell_angle_gamma 133.559786
_cell_volume 648.104417
_symmetry_space_group_name_H-M "P -1"
_symmetry_group_IT_number 2
_symmetry_cell_setting 'triclinic'
loop_
_space_group_symop_operation_xyz
x,y,z
-x,-y,-z
loop_
_atom_site_type_symbol
_atom_site_label
_atom_site_fract_x
_atom_site_fract_y
_atom_site_fract_z
Si Si1 0.864579 0.570566 0.580135
Si Si2 0.137754 0.777385 0.003111
Si Si3 0.631351 0.911936 0.790730
Si Si4 0.414001 0.350873 0.158715
Si Si5 0.630492 0.983204 0.268868
Si Si6 0.123519 0.250190 0.662695
Si Si7 0.410830 0.599074 0.174278
Si Si8 0.974308 0.309099 0.614653
O O1 0.712467 0.605041 0.750565
O O2 0.970244 0.672960 0.557122
O O3 0.814661 0.362793 0.222098
O O4 0.985725 0.662111 0.794935
O O5 0.051578 0.847085 0.315237
O O6 0.274967 0.923950 0.079374
O O7 0.760133 0.835583 0.563420
O O8 0.473662 0.771701 0.553950
O O9 0.593769 0.941601 0.042618
O O10 0.500000 0.500000 0.500000
O O11 0.343049 0.169292 0.958331
O O12 0.530824 0.352769 0.945900
O O13 0.500000 0.000000 0.500000
O O14 0.791999 0.166219 0.498793
O O15 0.087332 0.259639 0.537454
O O16 0.224377 0.454498 0.029368
O O17 0.500000 0.500000 0.000000
O O18 0.000000 0.500000 0.000000
#
# Coordination Sequence:
#
# PCOD9044429 Si02
#       8
#     2   2   2   2   2   2   2   2
#     4  11  24  45  76 112 151 200 256 311 389 455
#     4  11  24  43  77 113 154 197 251 317 384 465
#     4  11  24  50  77 114 154 202 261 323 385 464
#     4  12  27  49  81 115 158 209 260 321 388 471
#     4  12  31  52  78 113 154 208 266 326 398 461
#     4  11  24  44  79 113 154 202 256 311 393 461
#     4  10  23  46  74 113 155 199 250 314 386 462
#     4  12  26  48  75 110 154 200 259 325 379 461
#
# _framework density 24.687381999999999
#
# number of rings (size 3 to 8) (size 9 to 14) (size 15 to 20)
#    0.000    0.750    2.500    4.875    7.000    1.000 
#    2.250    0.625    0.000    0.000    0.000    0.000 
#    0.000    0.000    0.000    0.000    0.000    0.000 
#
# Total GULP energy -89668.891067 kJ/mol
# GULP energy per Si atom -5604.305692 kJ/mol
# Density = 2.463119 g / cm^3
# Si number density = 24.687382 Si / 1000 Ang^3
#
#
#
# Elastic Constant Matrix: (Units=GPa)
#
#
# Indices 1 2 3 4 5 6 
#
# 1 102.0135 54.4294 52.7953 4.6220 -9.6200 -10.6879
# 2 54.4294 217.2903 78.4859 -4.2271 5.2876 -8.4726
# 3 52.7953 78.4859 110.9100 1.5946 6.3493 8.9515
# 4 4.6220 -4.2271 1.5946 42.4221 -1.0793 1.8614
# 5 -9.6200 5.2876 6.3493 -1.0793 49.1050 1.6797
# 6 -10.6879 -8.4726 8.9515 1.8614 1.6797 39.3933
#
#
#
# Elastic Compliance Matrix: (Units=1/GPa)
#
#
# Indices 1 2 3 4 5 6 
#
# 1 0.014996 -0.001169 -0.006931 -0.001628 0.003742 0.005309
# 2 -0.001169 0.006521 -0.004208 0.000835 -0.000438 0.002021
# 3 -0.006931 -0.004208 0.015960 -0.000058 -0.002754 -0.006292
# 4 -0.001628 0.000835 -0.000058 0.023900 0.000171 -0.001385
# 5 0.003742 -0.000438 -0.002754 0.000171 0.021483 0.000623
# 6 0.005309 0.002021 -0.006292 -0.001385 0.000623 0.028729
#
#
# Mechanical properties :
#
#
# Convention : Reuss Voigt Hill
#
# Bulk Modulus (GPa) = 77.75265 89.07056 83.41160
# Shear Modulus (GPa) = 35.58954 42.48431 39.03693
#
# Velocity S-wave (km/s) = 3.80097 4.15286 3.98081
# Velocity P-wave (km/s) = 7.12927 7.69108 7.41550
#
# Compressibility (1/GPa) = 0.01286130
#
# Stress axis : x y z
#
# Youngs Moduli (GPa) = 66.68453 153.36198 62.65816
#
# Poissons Ratio (x) = 0.17923 0.43427
# Poissons Ratio (y) = 0.07793 0.26367
# Poissons Ratio (z) = 0.46217 0.64535
#
# Static dielectric constant tensor:
#      x y z
#    x 1.941610 -0.088930 0.046150 
#    y -0.088930 1.563890 0.211440 
#    z 0.046150 0.211440 1.879350 
# 
# From -- ./inp_files/280246.got.cif
#   From: 2010.05.17/outbox.cif.g08.bks.cpg/sg2_141_cif.got.tgz:280246.got - 2010.06.03 11:33:40.
