data_PCOD9044302
_publ_section_title
;
Structure prediction by ZEFSAII (Michael W. Deem and Ramdas Pophale) SiO2 
 PCOD9044302
Probable space group: P -1
;
_chemical_formula_sum "Si O2"
_cell_formula_units_Z 10
_cell_length_a 9.041712
_cell_length_b 20.789582
_cell_length_c 5.350263
_cell_angle_alpha 126.234567
_cell_angle_beta 126.419259
_cell_angle_gamma 31.979779
_cell_volume 419.482655
_symmetry_space_group_name_H-M "P -1"
_symmetry_group_IT_number 2
_symmetry_cell_setting 'triclinic'
loop_
_space_group_symop_operation_xyz
x,y,z
-x,-y,-z
loop_
_atom_site_type_symbol
_atom_site_label
_atom_site_fract_x
_atom_site_fract_y
_atom_site_fract_z
Si Si1 0.084348 0.517881 0.372536
Si Si2 0.252124 0.077895 0.207521
Si Si3 0.251688 0.721185 0.469703
Si Si4 0.183093 0.240613 0.147169
Si Si5 0.248575 0.904391 0.821934
O O1 0.425740 0.410965 0.462578
O O2 0.000000 0.500000 0.500000
O O3 0.907304 0.658115 0.532412
O O4 0.000000 0.500000 0.000000
O O5 0.310522 0.125823 0.173289
O O6 0.950417 0.200870 0.313781
O O7 0.500000 0.000000 0.500000
O O8 0.198401 0.007059 0.875051
O O9 0.237286 0.814245 0.541705
O O10 0.099270 0.702813 0.121816
O O11 0.403754 0.198737 0.059793
O O12 0.000000 0.000000 0.000000
#
# Coordination Sequence:
#
# PCOD9044302 Si02
#       5
#     2   2   2   2   2
#     4  12  30  53  83 115 159 210 271 334 401 471
#     4  11  25  44  75 113 159 202 262 321 393 477
#     4  11  26  48  77 113 155 209 263 326 398 469
#     4  12  26  48  81 109 160 210 266 327 397 473
#     4  10  23  46  72 111 158 198 258 313 399 461
#
# _framework density 23.838888000000001
#
# number of rings (size 3 to 8) (size 9 to 14) (size 15 to 20)
#    0.000    0.800    4.000    1.200    8.400    1.600 
#    3.600    0.000    0.000    0.000    0.000    0.000 
#    0.000    0.000    0.000    0.000    0.000    0.000 
#
# Total GULP energy -55719.733995 kJ/mol
# GULP energy per Si atom -5571.973400 kJ/mol
# Density = 2.378463 g / cm^3
# Si number density = 23.838888 Si / 1000 Ang^3
#
#
#
# Elastic Constant Matrix: (Units=GPa)
#
#
# Indices 1 2 3 4 5 6 
#
# 1 152.4246 39.5212 21.9342 -15.3361 23.6946 -27.1091
# 2 39.5212 112.6750 10.4964 0.7685 4.8996 -36.8630
# 3 21.9342 10.4964 80.7868 8.6968 20.8113 -9.2380
# 4 -15.3361 0.7685 8.6968 56.3681 10.8356 13.0674
# 5 23.6946 4.8996 20.8113 10.8356 26.1088 4.1392
# 6 -27.1091 -36.8630 -9.2380 13.0674 4.1392 52.0857
#
#
#
# Elastic Compliance Matrix: (Units=1/GPa)
#
#
# Indices 1 2 3 4 5 6 
#
# 1 0.009738 -0.001751 0.000461 0.003845 -0.011079 0.003827
# 2 -0.001751 0.012355 0.000507 -0.002442 -0.001492 0.008654
# 3 0.000461 0.000507 0.016450 -0.000843 -0.014044 0.004844
# 4 0.003845 -0.002442 -0.000843 0.022083 -0.010801 -0.004559
# 5 -0.011079 -0.001492 -0.014044 -0.010801 0.066194 -0.011863
# 6 0.003827 0.008654 0.004844 -0.004559 -0.011863 0.030261
#
#
# Mechanical properties :
#
#
# Convention : Reuss Voigt Hill
#
# Bulk Modulus (GPa) = 27.04408 54.42108 40.73258
# Shear Modulus (GPa) = 29.24469 45.17484 37.20977
#
# Velocity S-wave (km/s) = 3.50632 4.35789 3.95509
# Velocity P-wave (km/s) = 5.26892 6.94261 6.16285
#
# Compressibility (1/GPa) = 0.03697667
#
# Stress axis : x y z
#
# Youngs Moduli (GPa) = 102.69140 80.94043 60.79169
#
# Poissons Ratio (x) = 0.14174 -0.02804
# Poissons Ratio (y) = 0.17982 -0.03082
# Poissons Ratio (z) = -0.04737 -0.04104
#
# Static dielectric constant tensor:
#      x y z
#    x 1.899310 -0.013010 0.023100 
#    y -0.013010 1.887230 0.078730 
#    z 0.023100 0.078730 1.806790 
# 
# From -- ./inp_files/49994.got.cif
#   From: 2010.05.17/outbox.cif.g08.bks.cpg/sg2_25_cif.got.tgz:49994.got - 2010.06.03 11:33:40.
