data_PCOD9044350
_publ_section_title
;
Structure prediction by ZEFSAII (Michael W. Deem and Ramdas Pophale) SiO2 
 PCOD9044350
Probable space group: P -1
;
_chemical_formula_sum "Si O2"
_cell_formula_units_Z 11
_cell_length_a 5.688337
_cell_length_b 13.916641
_cell_length_c 9.521105
_cell_angle_alpha 139.843483
_cell_angle_beta 118.629734
_cell_angle_gamma 68.163126
_cell_volume 426.604274
_symmetry_space_group_name_H-M "P -1"
_symmetry_group_IT_number 2
_symmetry_cell_setting 'triclinic'
loop_
_space_group_symop_operation_xyz
x,y,z
-x,-y,-z
loop_
_atom_site_type_symbol
_atom_site_label
_atom_site_fract_x
_atom_site_fract_y
_atom_site_fract_z
Si Si1 0.206222 0.068138 0.466907
Si Si2 0.500000 0.500000 0.000000
Si Si3 0.774094 0.842146 0.033137
Si Si4 0.627569 0.929736 0.780738
Si Si5 0.000681 0.479719 0.309449
Si Si6 0.835515 0.312846 0.659572
O O1 0.193482 0.104485 0.338645
O O2 0.120823 0.229195 0.683859
O O3 0.500000 0.000000 0.500000
O O4 0.000431 0.935158 0.283038
O O5 0.728745 0.413586 0.868052
O O6 0.305371 0.522541 0.832744
O O7 0.489680 0.902122 0.076028
O O8 0.763587 0.898987 0.932437
O O9 0.842797 0.671361 0.853451
O O10 0.374711 0.820232 0.571741
O O11 0.133428 0.604237 0.387057
O O12 0.000000 0.500000 0.500000
#
# Coordination Sequence:
#
# PCOD9044350 Si02
#       6
#     2   1   2   2   2   2
#     4  11  25  43  76 104 146 194 249 311 368 443
#     4  12  28  46  74 106 160 198 248 306 370 460
#     4  10  24  43  73 107 141 193 250 305 381 438
#     4  10  23  46  73 104 147 189 252 315 362 450
#     4  12  28  48  76 113 155 201 249 309 386 456
#     4  11  26  48  74 111 151 199 252 310 378 451
#
# _framework density 25.785021
#
# number of rings (size 3 to 8) (size 9 to 14) (size 15 to 20)
#    0.000    1.091    0.000    4.364    7.636    8.727 
#    0.000    0.000    0.000    0.000    0.000    0.000 
#    0.000    0.000    0.000    0.000    0.000    0.000 
#
# Total GULP energy -61400.575449 kJ/mol
# GULP energy per Si atom -5581.870495 kJ/mol
# Density = 2.572633 g / cm^3
# Si number density = 25.785021 Si / 1000 Ang^3
#
#
#
# Elastic Constant Matrix: (Units=GPa)
#
#
# Indices 1 2 3 4 5 6 
#
# 1 78.1788 64.1793 47.1271 13.4102 -37.7672 -11.5685
# 2 64.1793 155.5977 72.8688 13.5174 -21.9761 -19.3138
# 3 47.1271 72.8688 133.8530 -6.1828 -42.9705 -6.2579
# 4 13.4102 13.5174 -6.1828 66.5535 -7.1311 -8.9833
# 5 -37.7672 -21.9761 -42.9705 -7.1311 58.3939 -2.5881
# 6 -11.5685 -19.3138 -6.2579 -8.9833 -2.5881 45.9694
#
#
#
# Elastic Compliance Matrix: (Units=1/GPa)
#
#
# Indices 1 2 3 4 5 6 
#
# 1 0.028087 -0.008719 -0.000379 -0.001851 0.014548 0.003811
# 2 -0.008719 0.012017 -0.005052 -0.001467 -0.004942 0.001602
# 3 -0.000379 -0.005052 0.013069 0.003249 0.007896 0.000641
# 4 -0.001851 -0.001467 0.003249 0.016673 0.002801 0.002776
# 5 0.014548 -0.004942 0.007896 0.002801 0.031047 0.004955
# 6 0.003811 0.001602 0.000641 0.002776 0.004955 0.024295
#
#
# Mechanical properties :
#
#
# Convention : Reuss Voigt Hill
#
# Bulk Modulus (GPa) = 40.20300 81.77555 60.98927
# Shear Modulus (GPa) = 30.90649 46.41363 38.66006
#
# Velocity S-wave (km/s) = 3.46587 4.24727 3.87631
# Velocity P-wave (km/s) = 5.62510 7.47232 6.61352
#
# Compressibility (1/GPa) = 0.02487377
#
# Stress axis : x y z
#
# Youngs Moduli (GPa) = 35.60411 83.21452 76.51420
#
# Poissons Ratio (x) = 0.72553 0.02902
# Poissons Ratio (y) = 0.31042 0.38652
# Poissons Ratio (z) = 0.01351 0.42037
#
# Static dielectric constant tensor:
#      x y z
#    x 2.216460 0.037750 0.025650 
#    y 0.037750 2.030360 0.012100 
#    z 0.025650 0.012100 2.036060 
# 
# From -- ./inp_files/16992.got.cif
#   From: 2010.05.17/outbox.cif.g08.bks.cpg/sg2_9_cif.got.tgz:16992.got - 2010.06.03 11:33:40.
