data_PCOD9044485
_publ_section_title
;
Structure prediction by ZEFSAII (Michael W. Deem and Ramdas Pophale) SiO2 
 PCOD9044485
Probable space group: P -1
;
_chemical_formula_sum "Si O2"
_cell_formula_units_Z 14
_cell_length_a 11.234841
_cell_length_b 11.835053
_cell_length_c 6.006399
_cell_angle_alpha 111.538120
_cell_angle_beta 129.911226
_cell_angle_gamma 71.275903
_cell_volume 565.710822
_symmetry_space_group_name_H-M "P -1"
_symmetry_group_IT_number 2
_symmetry_cell_setting 'triclinic'
loop_
_space_group_symop_operation_xyz
x,y,z
-x,-y,-z
loop_
_atom_site_type_symbol
_atom_site_label
_atom_site_fract_x
_atom_site_fract_y
_atom_site_fract_z
Si Si1 0.671256 0.582436 0.059923
Si Si2 0.324905 0.651553 0.794009
Si Si3 0.096735 0.254582 0.320382
Si Si4 0.870386 0.418592 0.869823
Si Si5 0.874384 0.972144 0.511329
Si Si6 0.670487 0.888593 0.837269
Si Si7 0.672448 0.129545 0.706434
O O1 0.677227 0.480192 0.187139
O O2 0.799970 0.670235 0.340763
O O3 0.497103 0.650794 0.894250
O O4 0.722889 0.509131 0.845875
O O5 0.189681 0.662611 0.456109
O O6 0.307145 0.756763 0.031986
O O7 0.058383 0.134455 0.317057
O O8 0.206281 0.210343 0.209146
O O9 0.950592 0.341110 0.113459
O O10 0.000000 0.500000 0.000000
O O11 0.802126 0.089556 0.648016
O O12 0.731402 0.920815 0.174311
O O13 0.000000 0.000000 0.500000
O O14 0.498371 0.849468 0.596063
O O15 0.670587 0.011232 0.777971
#
# Coordination Sequence:
#
# PCOD9044485 Si02
#       7
#     2   2   2   2   2   2   2
#     4  11  25  48  74 110 149 197 256 306 365 451
#     4  11  25  48  78 110 153 195 254 309 365 449
#     4  11  25  47  78 108 153 192 251 312 373 445
#     4  12  27  47  75 114 151 201 246 302 388 442
#     4  11  27  48  76 110 148 196 249 308 381 447
#     4  10  23  46  77 105 145 197 249 308 380 435
#     4  10  23  48  75 109 145 194 255 310 367 449
#
# _framework density 24.747624999999999
#
# number of rings (size 3 to 8) (size 9 to 14) (size 15 to 20)
#    0.000    1.143    2.857    1.286    2.000    6.857 
#    2.571    2.143    0.000    0.000    0.000    0.000 
#    0.000    0.000    0.000    0.000    0.000    0.000 
#
# Total GULP energy -78600.014825 kJ/mol
# GULP energy per Si atom -5614.286773 kJ/mol
# Density = 2.469130 g / cm^3
# Si number density = 24.747625 Si / 1000 Ang^3
#
#
#
# Elastic Constant Matrix: (Units=GPa)
#
#
# Indices 1 2 3 4 5 6 
#
# 1 160.7954 65.8531 54.9718 3.6408 5.7557 -17.6793
# 2 65.8531 89.9438 34.8811 16.4499 2.6890 -8.7560
# 3 54.9718 34.8811 177.3926 23.8780 15.9511 -11.0257
# 4 3.6408 16.4499 23.8780 37.2580 -1.9169 -7.8338
# 5 5.7557 2.6890 15.9511 -1.9169 32.0914 2.1219
# 6 -17.6793 -8.7560 -11.0257 -7.8338 2.1219 39.6751
#
#
#
# Elastic Compliance Matrix: (Units=1/GPa)
#
#
# Indices 1 2 3 4 5 6 
#
# 1 0.010056 -0.006991 -0.002083 0.004099 -0.000148 0.003177
# 2 -0.006991 0.017605 -0.000354 -0.007030 -0.000419 -0.000694
# 3 -0.002083 -0.000354 0.007283 -0.004417 -0.003502 0.000333
# 4 0.004099 -0.007030 -0.004417 0.033723 0.003700 0.005508
# 5 -0.000148 -0.000419 -0.003502 0.003700 0.033329 -0.002184
# 6 0.003177 -0.000694 0.000333 0.005508 -0.002184 0.027764
#
#
# Mechanical properties :
#
#
# Convention : Reuss Voigt Hill
#
# Bulk Modulus (GPa) = 62.16108 82.17153 72.16631
# Shear Modulus (GPa) = 32.47251 39.96662 36.21957
#
# Velocity S-wave (km/s) = 3.62629 4.02303 3.82980
# Velocity P-wave (km/s) = 6.53497 7.40645 6.98432
#
# Compressibility (1/GPa) = 0.01608724
#
# Stress axis : x y z
#
# Youngs Moduli (GPa) = 99.44448 56.80345 137.31541
#
# Poissons Ratio (x) = 0.39710 0.28597
# Poissons Ratio (y) = 0.69520 0.04867
# Poissons Ratio (z) = 0.20710 0.02013
#
# Static dielectric constant tensor:
#      x y z
#    x 1.949190 0.006610 0.018640 
#    y 0.006610 1.935750 -0.001970 
#    z 0.018640 -0.001970 1.911270 
# 
# From -- ./inp_files/72080.got.cif
#   From: 2010.05.17/outbox.cif.g08.bks.cpg/sg2_37_cif.got.tgz:72080.got - 2010.06.03 11:33:40.
