data_PCOD9044613
_publ_section_title
;
Structure prediction by ZEFSAII (Michael W. Deem and Ramdas Pophale) SiO2 
 PCOD9044613
Probable space group: P -1
;
_chemical_formula_sum "Si O2"
_cell_formula_units_Z 14
_cell_length_a 6.328993
_cell_length_b 7.908946
_cell_length_c 16.861570
_cell_angle_alpha 135.768718
_cell_angle_beta 83.561575
_cell_angle_gamma 86.385239
_cell_volume 572.380535
_symmetry_space_group_name_H-M "P -1"
_symmetry_group_IT_number 2
_symmetry_cell_setting 'triclinic'
loop_
_space_group_symop_operation_xyz
x,y,z
-x,-y,-z
loop_
_atom_site_type_symbol
_atom_site_label
_atom_site_fract_x
_atom_site_fract_y
_atom_site_fract_z
Si Si1 0.528687 0.775324 0.092169
Si Si2 0.088780 0.088762 0.945536
Si Si3 0.333829 0.508900 0.436674
Si Si4 0.077902 0.156756 0.482501
Si Si5 0.832868 0.987692 0.718653
Si Si6 0.734114 0.455700 0.292040
Si Si7 0.159180 0.368087 0.829622
O O1 0.670168 0.849827 0.041246
O O2 0.295523 0.939041 0.169831
O O3 0.654848 0.784130 0.172742
O O4 0.500000 0.500000 0.000000
O O5 0.140671 0.833849 0.805561
O O6 0.942190 0.366315 0.033995
O O7 0.000000 0.000000 0.000000
O O8 0.500000 0.500000 0.500000
O O9 0.145318 0.754343 0.528589
O O10 0.486712 0.478122 0.341473
O O11 0.188157 0.301479 0.376311
O O12 0.164653 0.376149 0.594410
O O13 0.000000 0.000000 0.500000
O O14 0.250254 0.983706 0.360528
O O15 0.988822 0.186937 0.775435
O O16 0.765045 0.558530 0.236345
#
# Coordination Sequence:
#
# PCOD9044613 Si02
#       7
#     2   2   2   2   2   2   2
#     4  12  26  45  73 108 143 192 246 301 370 439
#     4  10  23  47  69 102 142 188 238 302 367 430
#     4  12  28  46  73 111 148 195 253 302 365 439
#     4  12  28  47  75 107 152 199 244 304 377 438
#     4  12  26  44  74 107 145 191 244 301 370 437
#     4  11  25  47  72 105 149 193 245 306 366 443
#     4  11  26  45  73 105 149 191 243 305 368 441
#
# _framework density 24.459251999999999
#
# number of rings (size 3 to 8) (size 9 to 14) (size 15 to 20)
#    0.000    0.571    5.714    0.857    6.000    0.571 
#    0.000    1.429    0.000    0.000    0.000    0.000 
#    0.000    0.000    0.000    0.000    0.000    0.000 
#
# Total GULP energy -77947.614075 kJ/mol
# GULP energy per Si atom -5567.686720 kJ/mol
# Density = 2.440358 g / cm^3
# Si number density = 24.459252 Si / 1000 Ang^3
#
#
#
# Elastic Constant Matrix: (Units=GPa)
#
#
# Indices 1 2 3 4 5 6 
#
# 1 77.5413 63.7102 35.3048 4.1564 -3.1006 31.5372
# 2 63.7102 146.6011 14.9690 -0.0564 0.4568 46.4431
# 3 35.3048 14.9690 118.8090 14.7763 9.9180 26.6558
# 4 4.1564 -0.0564 14.7763 44.1867 15.2636 -7.1009
# 5 -3.1006 0.4568 9.9180 15.2636 40.0547 -7.3774
# 6 31.5372 46.4431 26.6558 -7.1009 -7.3774 44.8125
#
#
#
# Elastic Compliance Matrix: (Units=1/GPa)
#
#
# Indices 1 2 3 4 5 6 
#
# 1 0.024609 -0.008458 -0.004951 -0.002670 0.003232 -0.005499
# 2 -0.008458 0.013651 0.003699 -0.001044 -0.003376 -0.011117
# 3 -0.004951 0.003699 0.012160 -0.003755 -0.003621 -0.008774
# 4 -0.002670 -0.001044 -0.003755 0.028430 -0.008572 0.008289
# 5 0.003232 -0.003376 -0.003621 -0.008572 0.030721 0.007078
# 6 -0.005499 -0.011117 -0.008774 0.008289 0.007078 0.045405
#
#
# Mechanical properties :
#
#
# Convention : Reuss Voigt Hill
#
# Bulk Modulus (GPa) = 32.25750 63.43548 47.84649
# Shear Modulus (GPa) = 27.06669 41.07526 34.07097
#
# Velocity S-wave (km/s) = 3.33017 4.10241 3.73630
# Velocity P-wave (km/s) = 5.29185 6.95925 6.18202
#
# Compressibility (1/GPa) = 0.03100054
#
# Stress axis : x y z
#
# Youngs Moduli (GPa) = 40.63582 73.25273 82.23809
#
# Poissons Ratio (x) = 0.61958 0.40716
# Poissons Ratio (y) = 0.34370 -0.30424
# Poissons Ratio (z) = 0.20119 -0.27099
#
# Static dielectric constant tensor:
#      x y z
#    x 1.994220 -0.044230 -0.155610 
#    y -0.044230 2.041190 0.014980 
#    z -0.155610 0.014980 2.049250 
# 
# From -- ./inp_files/131734.got.cif
#   From: 2010.05.17/outbox.cif.g08.bks.cpg/sg2_66_cif.got.tgz:131734.got - 2010.06.03 11:33:40.
