data_PCOD9044413
_publ_section_title
;
Structure prediction by ZEFSAII (Michael W. Deem and Ramdas Pophale) SiO2 
 PCOD9044413
Probable space group: P -1
;
_chemical_formula_sum "Si O2"
_cell_formula_units_Z 14
_cell_length_a 9.438115
_cell_length_b 16.499393
_cell_length_c 4.827946
_cell_angle_alpha 63.671012
_cell_angle_beta 76.387705
_cell_angle_gamma 48.164829
_cell_volume 499.985641
_symmetry_space_group_name_H-M "P -1"
_symmetry_group_IT_number 2
_symmetry_cell_setting 'triclinic'
loop_
_space_group_symop_operation_xyz
x,y,z
-x,-y,-z
loop_
_atom_site_type_symbol
_atom_site_label
_atom_site_fract_x
_atom_site_fract_y
_atom_site_fract_z
Si Si1 0.500000 0.500000 0.500000
Si Si2 0.229865 0.359909 0.788683
Si Si3 0.500000 0.000000 0.000000
Si Si4 0.586807 0.294942 0.421378
Si Si5 0.754479 0.818524 0.651036
Si Si6 0.795525 0.142308 0.062161
Si Si7 0.086689 0.603525 0.509879
Si Si8 0.789492 0.982198 0.725262
O O1 0.580683 0.399000 0.374513
O O2 0.279125 0.573433 0.375036
O O3 0.384953 0.332255 0.540509
O O4 0.160202 0.478808 0.794153
O O5 0.058477 0.375003 0.690968
O O6 0.313041 0.252890 0.118896
O O7 0.627072 0.911682 0.336023
O O8 0.393784 0.939385 0.116580
O O9 0.641481 0.262541 0.125909
O O10 0.748407 0.178370 0.708727
O O11 0.744724 0.894023 0.793777
O O12 0.965823 0.716375 0.593461
O O13 0.008508 0.091928 0.106807
O O14 0.789301 0.047260 0.361667
#
# Coordination Sequence:
#
# PCOD9044413 Si02
#       8
#     1   2   1   2   2   2   2   2
#     4  10  24  48  74 114 146 198 256 310 392 464
#     4  10  24  45  72 112 148 195 252 316 394 453
#     4  12  28  44  72 104 150 194 262 314 378 446
#     4  11  26  48  76 109 149 201 248 315 383 461
#     4  12  25  44  73 108 145 202 251 324 371 468
#     4  11  28  48  75 104 157 198 253 314 391 448
#     4  10  23  46  74 105 153 191 253 321 385 463
#     4  11  28  45  69 106 143 201 255 316 372 458
#
# _framework density 28.000805
#
# number of rings (size 3 to 8) (size 9 to 14) (size 15 to 20)
#    0.000    1.143    0.000    3.429   14.000    1.714 
#    7.714    0.000    0.000    0.000    0.000    0.000 
#    0.000    0.000    0.000    0.000    0.000    0.000 
#
# Total GULP energy -78132.301009 kJ/mol
# GULP energy per Si atom -5580.878643 kJ/mol
# Density = 2.793707 g / cm^3
# Si number density = 28.000805 Si / 1000 Ang^3
#
#
#
# Elastic Constant Matrix: (Units=GPa)
#
#
# Indices 1 2 3 4 5 6 
#
# 1 146.9758 7.8701 28.6525 -3.5108 3.4207 -25.7869
# 2 7.8701 126.5769 10.0146 -7.0103 1.2112 2.7716
# 3 28.6525 10.0146 120.7464 8.0221 -3.6509 11.1932
# 4 -3.5108 -7.0103 8.0221 22.4964 4.6729 -11.3138
# 5 3.4207 1.2112 -3.6509 4.6729 41.4414 -6.0770
# 6 -25.7869 2.7716 11.1932 -11.3138 -6.0770 60.9575
#
#
#
# Elastic Compliance Matrix: (Units=1/GPa)
#
#
# Indices 1 2 3 4 5 6 
#
# 1 0.008337 -0.000130 -0.002764 0.004850 -0.000761 0.004864
# 2 -0.000130 0.008151 -0.000892 0.003092 -0.000618 0.000250
# 3 -0.002764 -0.000892 0.009855 -0.006508 0.001267 -0.004020
# 4 0.004850 0.003092 -0.006508 0.056163 -0.005493 0.012983
# 5 -0.000761 -0.000618 0.001267 -0.005493 0.025082 0.000954
# 6 0.004864 0.000250 -0.004020 0.012983 0.000954 0.021694
#
#
# Mechanical properties :
#
#
# Convention : Reuss Voigt Hill
#
# Bulk Modulus (GPa) = 53.27758 54.15261 53.71510
# Shear Modulus (GPa) = 34.93784 48.16320 41.55052
#
# Velocity S-wave (km/s) = 3.53617 4.15187 3.85633
# Velocity P-wave (km/s) = 5.97839 6.50889 6.24927
#
# Compressibility (1/GPa) = 0.01876962
#
# Stress axis : x y z
#
# Youngs Moduli (GPa) = 119.95274 122.68832 101.47159
#
# Poissons Ratio (x) = 0.01598 0.28043
# Poissons Ratio (y) = 0.01563 0.09056
# Poissons Ratio (z) = 0.33151 0.10949
#
# Static dielectric constant tensor:
#      x y z
#    x 1.888280 0.501870 0.364730 
#    y 0.501870 1.425990 -0.660470 
#    z 0.364730 -0.660470 1.381400 
# 
# From -- ./inp_files/27279.got.cif
#   From: 2010.05.17/outbox.cif.g08.bks.cpg/sg2_14_cif.got.tgz:27279.got - 2010.06.03 11:33:40.
