data_PCOD9044978
_publ_section_title
;
Structure prediction by ZEFSAII (Michael W. Deem and Ramdas Pophale) SiO2 
 PCOD9044978
Probable space group: P -1
;
_chemical_formula_sum "Si O2"
_cell_formula_units_Z 14
_cell_length_a 6.413350
_cell_length_b 17.473959
_cell_length_c 9.654151
_cell_angle_alpha 51.368642
_cell_angle_beta 51.741747
_cell_angle_gamma 57.424003
_cell_volume 642.991664
_symmetry_space_group_name_H-M "P -1"
_symmetry_group_IT_number 2
_symmetry_cell_setting 'triclinic'
loop_
_space_group_symop_operation_xyz
x,y,z
-x,-y,-z
loop_
_atom_site_type_symbol
_atom_site_label
_atom_site_fract_x
_atom_site_fract_y
_atom_site_fract_z
Si Si1 0.050860 0.211887 0.968417
Si Si2 0.852989 0.883348 0.271628
Si Si3 0.535879 0.755948 0.724241
Si Si4 0.293161 0.423303 0.948289
Si Si5 0.424935 0.930218 0.989214
Si Si6 0.360460 0.427392 0.310493
Si Si7 0.185033 0.420612 0.690521
O O1 0.302123 0.159112 0.024650
O O2 0.766800 0.190177 0.158837
O O3 0.112809 0.174961 0.825582
O O4 0.030246 0.330711 0.850215
O O5 0.708137 0.827715 0.505661
O O6 0.667580 0.996021 0.186902
O O7 0.156133 0.891442 0.180102
O O8 0.512429 0.674507 0.707497
O O9 0.685180 0.683794 0.868180
O O10 0.491833 0.482826 0.871210
O O11 0.349015 0.411272 0.775789
O O12 0.000000 0.500000 0.000000
O O13 0.500000 0.000000 0.000000
O O14 0.367631 0.407069 0.494263
O O15 0.042974 0.473093 0.346770
#
# Coordination Sequence:
#
# PCOD9044978 Si02
#       7
#     2   2   2   2   2   2   2
#     4  11  23  42  70 101 133 173 226 282 332 401
#     4  10  23  48  70  98 133 173 220 279 343 408
#     4  12  24  43  69 101 139 178 227 280 333 397
#     4  12  24  39  60  95 138 181 226 273 322 385
#     4   9  22  47  73  96 132 170 217 281 345 408
#     4  11  23  44  62  92 139 184 227 273 326 388
#     4  11  23  41  66  93 134 184 228 272 328 391
#
# _framework density 21.773220999999999
#
# number of rings (size 3 to 8) (size 9 to 14) (size 15 to 20)
#    0.000    1.143    4.286    1.714    2.000    1.714 
#    5.143    6.429    0.000    0.000    0.000    0.000 
#    0.000    0.000    0.000    0.000    0.000    0.000 
#
# Total GULP energy -78269.922707 kJ/mol
# GULP energy per Si atom -5590.708765 kJ/mol
# Density = 2.172366 g / cm^3
# Si number density = 21.773221 Si / 1000 Ang^3
#
#
#
# Elastic Constant Matrix: (Units=GPa)
#
#
# Indices 1 2 3 4 5 6 
#
# 1 98.4200 24.1004 54.9970 -5.9438 0.7393 -12.2809
# 2 24.1004 49.6099 30.6687 -3.3696 4.6574 -22.1041
# 3 54.9970 30.6687 168.9067 -9.5320 -1.0551 -13.9553
# 4 -5.9438 -3.3696 -9.5320 27.6473 12.8299 3.4359
# 5 0.7393 4.6574 -1.0551 12.8299 35.5492 0.6615
# 6 -12.2809 -22.1041 -13.9553 3.4359 0.6615 47.5238
#
#
#
# Elastic Compliance Matrix: (Units=1/GPa)
#
#
# Indices 1 2 3 4 5 6 
#
# 1 0.013205 -0.003940 -0.003477 0.001251 -0.000322 0.000473
# 2 -0.003940 0.029906 -0.003049 0.002637 -0.005099 0.011877
# 3 -0.003477 -0.003049 0.007676 0.001468 0.000173 -0.000171
# 4 0.001251 0.002637 0.001468 0.045092 -0.016582 -0.001048
# 5 -0.000322 -0.005099 0.000173 -0.016582 0.034826 -0.001690
# 6 0.000473 0.011877 -0.000171 -0.001048 -0.001690 0.026737
#
#
# Mechanical properties :
#
#
# Convention : Reuss Voigt Hill
#
# Bulk Modulus (GPa) = 33.49446 59.60764 46.55105
# Shear Modulus (GPa) = 26.54994 35.95543 31.25269
#
# Velocity S-wave (km/s) = 3.49576 4.06810 3.79274
# Velocity P-wave (km/s) = 5.63121 7.03576 6.37230
#
# Compressibility (1/GPa) = 0.02985568
#
# Stress axis : x y z
#
# Youngs Moduli (GPa) = 75.72898 33.43853 130.27862
#
# Poissons Ratio (x) = 0.13174 0.45293
# Poissons Ratio (y) = 0.29836 0.39722
# Poissons Ratio (z) = 0.26328 0.10195
#
# Static dielectric constant tensor:
#      x y z
#    x 1.837780 -0.014480 0.014930 
#    y -0.014480 1.817220 0.003420 
#    z 0.014930 0.003420 1.796070 
# 
# From -- ./inp_files/115545.got.cif
#   From: 2010.05.17/outbox.cif.g08.bks.cpg/sg2_58_cif.got.tgz:115545.got - 2010.06.03 11:33:40.
