data_PCOD9044672
_publ_section_title
;
Structure prediction by ZEFSAII (Michael W. Deem and Ramdas Pophale) SiO2 
 PCOD9044672
Probable space group: P -1
;
_chemical_formula_sum "Si O2"
_cell_formula_units_Z 12
_cell_length_a 7.561734
_cell_length_b 11.718639
_cell_length_c 8.315055
_cell_angle_alpha 141.445338
_cell_angle_beta 86.162532
_cell_angle_gamma 100.315146
_cell_volume 448.589075
_symmetry_space_group_name_H-M "P -1"
_symmetry_group_IT_number 2
_symmetry_cell_setting 'triclinic'
loop_
_space_group_symop_operation_xyz
x,y,z
-x,-y,-z
loop_
_atom_site_type_symbol
_atom_site_label
_atom_site_fract_x
_atom_site_fract_y
_atom_site_fract_z
Si Si1 0.378957 0.144037 0.208612
Si Si2 0.032521 0.231904 0.330329
Si Si3 0.676183 0.938975 0.506236
Si Si4 0.676089 0.550188 0.932643
Si Si5 0.724006 0.433566 0.452778
Si Si6 0.899927 0.283240 0.728770
O O1 0.171750 0.108136 0.117793
O O2 0.363091 0.131307 0.387738
O O3 0.519169 0.323449 0.330629
O O4 0.500000 0.000000 0.000000
O O5 0.183996 0.431612 0.546417
O O6 0.865022 0.293655 0.318584
O O7 0.983721 0.190767 0.473212
O O8 0.500000 0.000000 0.500000
O O9 0.828551 0.131255 0.700352
O O10 0.743619 0.767058 0.223119
O O11 0.720335 0.559082 0.750596
O O12 0.730250 0.349096 0.734519
O O13 0.500000 0.500000 0.000000
O O14 0.000000 0.500000 0.000000
#
# Coordination Sequence:
#
# PCOD9044672 Si02
#       6
#     2   2   2   2   2   2
#     4  12  27  42  71 109 141 183 238 295 358 428
#     4  10  24  46  67 100 141 183 237 286 359 427
#     4  12  25  45  73 106 142 190 242 289 359 432
#     4  11  21  43  72  97 133 186 237 288 348 421
#     4  10  23  47  71 100 138 193 229 297 364 414
#     4  11  25  42  68 103 140 180 234 296 355 416
#
# _framework density 26.750537000000001
#
# number of rings (size 3 to 8) (size 9 to 14) (size 15 to 20)
#    0.000    1.000    3.333    2.500    4.667    3.333 
#    6.000    0.000    0.000    0.000    0.000    0.000 
#    0.000    0.000    0.000    0.000    0.000    0.000 
#
# Total GULP energy -66841.438832 kJ/mol
# GULP energy per Si atom -5570.119903 kJ/mol
# Density = 2.668965 g / cm^3
# Si number density = 26.750537 Si / 1000 Ang^3
#
#
#
# Elastic Constant Matrix: (Units=GPa)
#
#
# Indices 1 2 3 4 5 6 
#
# 1 131.2161 10.1887 -8.6638 -14.8277 -31.0613 16.1509
# 2 10.1887 117.4106 -10.6132 23.6519 -3.7197 8.0111
# 3 -8.6638 -10.6132 104.3534 10.3082 -38.2256 -4.3026
# 4 -14.8277 23.6519 10.3082 40.2062 10.0838 -0.6992
# 5 -31.0613 -3.7197 -38.2256 10.0838 41.5876 6.8096
# 6 16.1509 8.0111 -4.3026 -0.6992 6.8096 40.4975
#
#
#
# Elastic Compliance Matrix: (Units=1/GPa)
#
#
# Indices 1 2 3 4 5 6 
#
# 1 0.013599 0.001540 0.008841 -0.003475 0.020625 -0.008317
# 2 0.001540 0.011863 0.006484 -0.011052 0.011573 -0.004409
# 3 0.008841 0.006484 0.025323 -0.016159 0.035754 -0.008409
# 4 -0.003475 -0.011052 -0.016159 0.041848 -0.029828 0.007593
# 5 0.020625 0.011573 0.035754 -0.029828 0.084081 -0.021369
# 6 -0.008317 -0.004409 -0.008409 0.007593 -0.021369 0.031713
#
#
# Mechanical properties :
#
#
# Convention : Reuss Voigt Hill
#
# Bulk Modulus (GPa) = 11.83222 37.20039 24.51631
# Shear Modulus (GPa) = 24.64655 48.59615 36.62135
#
# Velocity S-wave (km/s) = 3.03866 4.26683 3.70401
# Velocity P-wave (km/s) = 4.09195 6.18151 5.24191
#
# Compressibility (1/GPa) = 0.08451498
#
# Stress axis : x y z
#
# Youngs Moduli (GPa) = 73.53709 84.29249 39.48987
#
# Poissons Ratio (x) = -0.12982 -0.34914
# Poissons Ratio (y) = -0.11326 -0.25604
# Poissons Ratio (z) = -0.65016 -0.54652
#
# Static dielectric constant tensor:
#      x y z
#    x 2.381890 0.151470 -0.009710 
#    y 0.151470 2.235560 0.169920 
#    z -0.009710 0.169920 2.286110 
# 
# From -- ./inp_files/183506.got.cif
#   From: 2010.05.17/outbox.cif.g08.bks.cpg/sg2_92_cif.got.tgz:183506.got - 2010.06.03 11:33:40.
