data_PCOD9044084
_publ_section_title
;
Structure prediction by ZEFSAII (Michael W. Deem and Ramdas Pophale) SiO2 
 PCOD9044084
Probable space group: P -1
;
_chemical_formula_sum "Si O2"
_cell_formula_units_Z 16
_cell_length_a 11.086369
_cell_length_b 7.101110
_cell_length_c 12.145241
_cell_angle_alpha 50.975473
_cell_angle_beta 97.399366
_cell_angle_gamma 99.648095
_cell_volume 731.958932
_symmetry_space_group_name_H-M "P -1"
_symmetry_group_IT_number 2
_symmetry_cell_setting 'triclinic'
loop_
_space_group_symop_operation_xyz
x,y,z
-x,-y,-z
loop_
_atom_site_type_symbol
_atom_site_label
_atom_site_fract_x
_atom_site_fract_y
_atom_site_fract_z
Si Si1 0.793578 0.509268 0.960818
Si Si2 0.725449 0.239572 0.520764
Si Si3 0.023430 0.504424 0.832736
Si Si4 0.837535 0.015596 0.411252
Si Si5 0.413545 0.248248 0.265943
Si Si6 0.618020 0.100820 0.198735
Si Si7 0.915350 0.479679 0.604801
Si Si8 0.533952 0.569522 0.351808
O O1 0.709129 0.694779 0.830191
O O2 0.902495 0.467766 0.905875
O O3 0.863417 0.587963 0.054156
O O4 0.702605 0.265832 0.063869
O O5 0.815377 0.137736 0.480864
O O6 0.795307 0.306103 0.617869
O O7 0.667280 0.476092 0.383453
O O8 0.612710 0.031046 0.596324
O O9 0.066708 0.793814 0.713119
O O10 0.988280 0.396804 0.748664
O O11 0.709854 0.007549 0.334328
O O12 0.876543 0.747919 0.525580
O O13 0.527154 0.263315 0.190594
O O14 0.442984 0.424428 0.308130
O O15 0.543447 0.858762 0.230703
O O16 0.000000 0.500000 0.500000
O O17 0.500000 0.500000 0.500000
#
# Coordination Sequence:
#
# PCOD9044084 Si02
#       8
#     2   2   2   2   2   2   2   2
#     4  10  25  45  70  94 136 199 232 269 334 405
#     4  12  24  40  69 108 138 175 220 288 361 405
#     4  10  23  46  69  95 138 182 236 280 329 405
#     4  11  22  42  70 101 143 175 220 292 353 406
#     4  12  25  42  71  98 140 181 227 277 346 414
#     4  11  23  44  68  98 139 180 229 281 336 415
#     4  12  25  40  72 109 136 175 228 289 356 401
#     4  12  24  42  68 105 141 172 222 291 352 408
#
# _framework density 21.85915
#
# number of rings (size 3 to 8) (size 9 to 14) (size 15 to 20)
#    0.000    0.750    5.000    2.625    3.500    0.500 
#    0.000    1.875    2.750    0.000    0.000    0.000 
#    0.000    0.000    0.000    0.000    0.000    0.000 
#
# Total GULP energy -89508.931396 kJ/mol
# GULP energy per Si atom -5594.308212 kJ/mol
# Density = 2.180940 g / cm^3
# Si number density = 21.859150 Si / 1000 Ang^3
#
#
#
# Elastic Constant Matrix: (Units=GPa)
#
#
# Indices 1 2 3 4 5 6 
#
# 1 83.8893 18.3667 23.5675 11.1450 -3.3027 -2.7859
# 2 18.3667 91.9122 25.7397 16.7775 -1.5639 -0.4609
# 3 23.5675 25.7397 63.4690 16.1322 -7.6627 0.0682
# 4 11.1450 16.7775 16.1322 28.0164 10.7724 4.4989
# 5 -3.3027 -1.5639 -7.6627 10.7724 52.8811 1.2475
# 6 -2.7859 -0.4609 0.0682 4.4989 1.2475 39.0467
#
#
#
# Elastic Compliance Matrix: (Units=1/GPa)
#
#
# Indices 1 2 3 4 5 6 
#
# 1 0.013712 -0.001087 -0.003724 -0.003220 0.000910 0.001314
# 2 -0.001087 0.013142 -0.003246 -0.006103 0.001076 0.000752
# 3 -0.003724 -0.003246 0.021951 -0.011319 0.005139 0.000798
# 4 -0.003220 -0.006103 -0.011319 0.052980 -0.012673 -0.005981
# 5 0.000910 0.001076 0.005139 -0.012673 0.022306 0.000816
# 6 0.001314 0.000752 0.000798 -0.005981 0.000816 0.026375
#
#
# Mechanical properties :
#
#
# Convention : Reuss Voigt Hill
#
# Bulk Modulus (GPa) = 30.58852 41.62427 36.10639
# Shear Modulus (GPa) = 28.17258 35.42861 31.80059
#
# Velocity S-wave (km/s) = 3.59391 4.03024 3.81832
# Velocity P-wave (km/s) = 5.58976 6.38283 5.99942
#
# Compressibility (1/GPa) = 0.03269201
#
# Stress axis : x y z
#
# Youngs Moduli (GPa) = 72.92940 76.08997 45.55534
#
# Poissons Ratio (x) = 0.08274 0.16964
# Poissons Ratio (y) = 0.07930 0.14786
# Poissons Ratio (z) = 0.27157 0.24696
#
# Static dielectric constant tensor:
#      x y z
#    x 1.838980 0.029920 -0.013830 
#    y 0.029920 1.783960 0.017400 
#    z -0.013830 0.017400 1.809370 
# 
# From -- ./inp_files/70867.got.cif
#   From: 2010.05.17/outbox.cif.g08.bks.cpg/sg2_36_cif.got.tgz:70867.got - 2010.06.03 11:33:40.
