data_PCOD9044820
_publ_section_title
;
Structure prediction by ZEFSAII (Michael W. Deem and Ramdas Pophale) SiO2 
 PCOD9044820
Probable space group: P -1
;
_chemical_formula_sum "Si O2"
_cell_formula_units_Z 10
_cell_length_a 7.565921
_cell_length_b 13.511285
_cell_length_c 10.596769
_cell_angle_alpha 31.127179
_cell_angle_beta 78.967198
_cell_angle_gamma 56.919818
_cell_volume 361.749900
_symmetry_space_group_name_H-M "P -1"
_symmetry_group_IT_number 2
_symmetry_cell_setting 'triclinic'
loop_
_space_group_symop_operation_xyz
x,y,z
-x,-y,-z
loop_
_atom_site_type_symbol
_atom_site_label
_atom_site_fract_x
_atom_site_fract_y
_atom_site_fract_z
Si Si1 0.581894 0.795621 0.958693
Si Si2 0.291767 0.287014 0.626788
Si Si3 0.773457 0.220451 0.896515
Si Si4 0.982138 0.339198 0.080912
Si Si5 0.710667 0.202157 0.195346
O O1 0.852127 0.706367 0.011722
O O2 0.540712 0.712864 0.924371
O O3 0.343915 0.138960 0.647853
O O4 0.501631 0.687805 0.181984
O O5 0.327173 0.483896 0.395543
O O6 0.500000 0.000000 0.000000
O O7 0.000000 0.500000 0.500000
O O8 0.890327 0.063659 0.190039
O O9 0.000000 0.000000 0.000000
O O10 0.716909 0.421463 0.993062
O O11 0.165813 0.029096 0.461673
O O12 0.000000 0.500000 0.000000
#
# Coordination Sequence:
#
# PCOD9044820 Si02
#       5
#     2   2   2   2   2
#     4  10  25  43  75 107 155 206 259 329 396 468
#     4  12  27  48  79 115 161 213 265 330 405 483
#     4  10  23  47  74 112 156 202 264 326 398 480
#     4  11  24  43  72 109 152 212 263 326 394 469
#     4   9  24  44  67 107 155 194 272 316 389 474
#
# _framework density 27.643408000000001
#
# number of rings (size 3 to 8) (size 9 to 14) (size 15 to 20)
#    1.200    0.400    2.000    0.600    5.600    6.400 
#    0.000    0.000    0.000    0.000    0.000    0.000 
#    0.000    0.000    0.000    0.000    0.000    0.000 
#
# Total GULP energy -55799.316689 kJ/mol
# GULP energy per Si atom -5579.931669 kJ/mol
# Density = 2.758049 g / cm^3
# Si number density = 27.643408 Si / 1000 Ang^3
#
#
#
# Elastic Constant Matrix: (Units=GPa)
#
#
# Indices 1 2 3 4 5 6 
#
# 1 189.6195 40.3055 79.1814 -23.8225 -64.6743 -4.3626
# 2 40.3055 150.1194 41.3105 -26.6436 -24.6624 17.3522
# 3 79.1814 41.3105 148.3160 -19.7116 -38.2393 -3.6197
# 4 -23.8225 -26.6436 -19.7116 53.6869 17.1603 -12.4946
# 5 -64.6743 -24.6624 -38.2393 17.1603 76.1255 -5.9265
# 6 -4.3626 17.3522 -3.6197 -12.4946 -5.9265 51.4987
#
#
#
# Elastic Compliance Matrix: (Units=1/GPa)
#
#
# Indices 1 2 3 4 5 6 
#
# 1 0.008685 -0.000627 -0.002822 0.001090 0.005641 0.001662
# 2 -0.000627 0.008024 -0.001471 0.002461 0.000602 -0.002194
# 3 -0.002822 -0.001471 0.009273 0.001230 0.001615 0.001393
# 4 0.001090 0.002461 0.001230 0.022612 -0.002401 0.004559
# 5 0.005641 0.000602 0.001615 -0.002401 0.019637 0.002066
# 6 0.001662 -0.002194 0.001393 0.004559 0.002066 0.021740
#
#
# Mechanical properties :
#
#
# Convention : Reuss Voigt Hill
#
# Bulk Modulus (GPa) = 61.95681 89.96109 75.95895
# Shear Modulus (GPa) = 47.53279 58.07939 52.80609
#
# Velocity S-wave (km/s) = 4.15118 4.58866 4.37539
# Velocity P-wave (km/s) = 6.74077 7.79028 7.28445
#
# Compressibility (1/GPa) = 0.01614028
#
# Stress axis : x y z
#
# Youngs Moduli (GPa) = 115.14511 124.62849 107.84553
#
# Poissons Ratio (x) = 0.07815 0.30433
# Poissons Ratio (y) = 0.07221 0.15868
# Poissons Ratio (z) = 0.32493 0.18338
#
# Static dielectric constant tensor:
#      x y z
#    x 1.292040 -0.435650 -0.609080 
#    y -0.435650 1.997080 -0.301960 
#    z -0.609080 -0.301960 1.643200 
# 
# From -- ./inp_files/183669.got.cif
#   From: 2010.05.17/outbox.cif.g08.bks.cpg/sg2_92_cif.got.tgz:183669.got - 2010.06.03 11:33:40.
