data_PCOD9044284
_publ_section_title
;
Structure prediction by ZEFSAII (Michael W. Deem and Ramdas Pophale) SiO2 
 PCOD9044284
Probable space group: P -1
;
_chemical_formula_sum "Si O2"
_cell_formula_units_Z 15
_cell_length_a 10.395021
_cell_length_b 14.048696
_cell_length_c 10.001250
_cell_angle_alpha 148.642018
_cell_angle_beta 134.358423
_cell_angle_gamma 54.331860
_cell_volume 543.035863
_symmetry_space_group_name_H-M "P -1"
_symmetry_group_IT_number 2
_symmetry_cell_setting 'triclinic'
loop_
_space_group_symop_operation_xyz
x,y,z
-x,-y,-z
loop_
_atom_site_type_symbol
_atom_site_label
_atom_site_fract_x
_atom_site_fract_y
_atom_site_fract_z
Si Si1 0.991137 0.772072 0.333466
Si Si2 0.366366 0.453797 0.727745
Si Si3 0.207102 0.057254 0.202714
Si Si4 0.887218 0.520924 0.738890
Si Si5 0.000000 0.500000 0.500000
Si Si6 0.689179 0.965159 0.448736
Si Si7 0.594030 0.216666 0.437102
Si Si8 0.422474 0.774450 0.858635
O O1 0.895906 0.945239 0.530495
O O2 0.980935 0.616484 0.253659
O O3 0.197561 0.782359 0.452440
O O4 0.882274 0.699042 0.038892
O O5 0.228916 0.275519 0.447894
O O6 0.212322 0.597703 0.766856
O O7 0.489737 0.390616 0.621371
O O8 0.500000 0.500000 0.000000
O O9 0.308368 0.025902 0.379324
O O10 0.283555 0.929947 0.989650
O O11 0.000000 0.000000 0.000000
O O12 0.697148 0.410354 0.465482
O O13 0.972021 0.561079 0.706837
O O14 0.602950 0.110685 0.460536
O O15 0.574216 0.785878 0.097199
O O16 0.503813 0.176059 0.176738
#
# Coordination Sequence:
#
# PCOD9044284 Si02
#       8
#     2   2   2   2   1   2   2   2
#     4  10  23  46  72 105 150 187 242 300 372 439
#     4  12  29  49  76 110 155 194 254 316 373 450
#     4  12  27  48  75 106 150 197 249 314 374 451
#     4  10  24  46  69 105 145 190 241 305 360 447
#     4  12  26  46  74 106 144 196 248 296 380 434
#     4  12  25  44  78 104 145 197 244 298 379 443
#     4  11  25  47  73 109 147 190 245 310 366 447
#     4  11  25  45  71 108 149 185 245 300 371 443
#
# _framework density 27.622485000000001
#
# number of rings (size 3 to 8) (size 9 to 14) (size 15 to 20)
#    0.000    0.800    1.333    5.200    3.733    5.867 
#    0.000    0.000    0.000    0.000    0.000    0.000 
#    0.000    0.000    0.000    0.000    0.000    0.000 
#
# Total GULP energy -83759.975873 kJ/mol
# GULP energy per Si atom -5583.998392 kJ/mol
# Density = 2.755961 g / cm^3
# Si number density = 27.622485 Si / 1000 Ang^3
#
#
#
# Elastic Constant Matrix: (Units=GPa)
#
#
# Indices 1 2 3 4 5 6 
#
# 1 118.6490 27.2537 22.4851 -13.6225 -33.7182 8.6384
# 2 27.2537 87.5790 17.9416 -17.9394 -9.1679 24.0151
# 3 22.4851 17.9416 100.7699 -34.2364 -12.3470 16.2853
# 4 -13.6225 -17.9394 -34.2364 49.8626 9.6921 4.6004
# 5 -33.7182 -9.1679 -12.3470 9.6921 63.2537 -25.8532
# 6 8.6384 24.0151 16.2853 4.6004 -25.8532 54.2584
#
#
#
# Elastic Compliance Matrix: (Units=1/GPa)
#
#
# Indices 1 2 3 4 5 6 
#
# 1 0.011157 -0.003663 -0.002091 -0.001376 0.006780 0.003820
# 2 -0.003663 0.015998 0.001582 0.007611 -0.004477 -0.009751
# 3 -0.002091 0.001582 0.014750 0.011273 -0.002588 -0.006983
# 4 -0.001376 0.007611 0.011273 0.032875 -0.007795 -0.013035
# 5 0.006780 -0.004477 -0.002588 -0.007795 0.025359 0.014423
# 6 0.003820 -0.009751 -0.006983 -0.013035 0.014423 0.032211
#
#
# Mechanical properties :
#
#
# Convention : Reuss Voigt Hill
#
# Bulk Modulus (GPa) = 29.79715 49.15096 39.47405
# Shear Modulus (GPa) = 32.92035 49.42943 41.17489
#
# Velocity S-wave (km/s) = 3.45598 4.23479 3.86506
# Velocity P-wave (km/s) = 5.17067 6.46094 5.85148
#
# Compressibility (1/GPa) = 0.03356025
#
# Stress axis : x y z
#
# Youngs Moduli (GPa) = 89.63235 62.50660 67.79706
#
# Poissons Ratio (x) = 0.22897 0.14179
# Poissons Ratio (y) = 0.32833 -0.10727
# Poissons Ratio (z) = 0.18746 -0.09890
#
# Static dielectric constant tensor:
#      x y z
#    x 1.993600 0.657670 0.139130 
#    y 0.657670 0.501240 -0.076770 
#    z 0.139130 -0.076770 2.210080 
# 
# From -- ./inp_files/436275.got.cif
#   From: 2010.05.17/outbox.cif.g08.bks.cpg/sg2_219_cif.got.tgz:436275.got - 2010.06.03 11:33:40.
