data_PCOD9044172
_publ_section_title
;
Structure prediction by ZEFSAII (Michael W. Deem and Ramdas Pophale) SiO2 
 PCOD9044172
Probable space group: P -1
;
_chemical_formula_sum "Si O2"
_cell_formula_units_Z 14
_cell_length_a 20.161416
_cell_length_b 16.540981
_cell_length_c 9.023205
_cell_angle_alpha 134.030884
_cell_angle_beta 45.693663
_cell_angle_gamma 163.952253
_cell_volume 590.966553
_symmetry_space_group_name_H-M "P -1"
_symmetry_group_IT_number 2
_symmetry_cell_setting 'triclinic'
loop_
_space_group_symop_operation_xyz
x,y,z
-x,-y,-z
loop_
_atom_site_type_symbol
_atom_site_label
_atom_site_fract_x
_atom_site_fract_y
_atom_site_fract_z
Si Si1 0.898018 0.703122 0.739502
Si Si2 0.617976 0.614785 0.118929
Si Si3 0.360636 0.779272 0.303048
Si Si4 0.752373 0.235371 0.840844
Si Si5 0.913712 0.745558 0.436261
Si Si6 0.212366 0.872170 0.088205
Si Si7 0.704122 0.671588 0.495704
O O1 0.841009 0.527124 0.696839
O O2 0.819765 0.602576 0.559970
O O3 0.742956 0.633177 0.958820
O O4 0.174628 0.058360 0.759570
O O5 0.382868 0.368358 0.269866
O O6 0.500000 0.500000 0.000000
O O7 0.261667 0.754992 0.300504
O O8 0.500000 0.000000 0.500000
O O9 0.552547 0.912522 0.087837
O O10 0.982258 0.556214 0.962795
O O11 0.776589 0.144338 0.773804
O O12 0.500000 0.000000 0.000000
O O13 0.721362 0.558852 0.369428
O O14 0.051905 0.020181 0.577955
O O15 0.128818 0.906174 0.253521
O O16 0.500000 0.500000 0.500000
#
# Coordination Sequence:
#
# PCOD9044172 Si02
#       7
#     2   2   2   2   2   2   2
#     4  11  25  42  70 106 138 183 233 288 350 420
#     4  11  23  46  68 100 142 178 228 288 357 412
#     4  11  26  47  70 106 144 187 237 288 352 418
#     4   9  22  45  70  98 129 186 235 291 338 414
#     4  11  24  41  69 103 133 178 236 282 351 418
#     4  10  23  46  70  99 137 185 233 293 349 410
#     4  11  23  43  66  99 133 178 225 288 341 417
#
# _framework density 23.690004999999999
#
# number of rings (size 3 to 8) (size 9 to 14) (size 15 to 20)
#    0.000    1.429    2.857    0.857    6.000    6.286 
#    2.571    0.000    0.000    0.000    0.000    0.000 
#    0.000    0.000    0.000    0.000    0.000    0.000 
#
# Total GULP energy -78037.668208 kJ/mol
# GULP energy per Si atom -5574.119158 kJ/mol
# Density = 2.363609 g / cm^3
# Si number density = 23.690005 Si / 1000 Ang^3
#
#
#
# Elastic Constant Matrix: (Units=GPa)
#
#
# Indices 1 2 3 4 5 6 
#
# 1 205.4328 36.4284 56.9247 -7.5644 25.9586 -6.6965
# 2 36.4284 92.7855 18.7382 -9.3947 -0.6686 -11.0330
# 3 56.9247 18.7382 74.4044 -14.2419 3.2809 -4.7822
# 4 -7.5644 -9.3947 -14.2419 38.3629 5.7425 -4.1295
# 5 25.9586 -0.6686 3.2809 5.7425 42.4630 -9.4601
# 6 -6.6965 -11.0330 -4.7822 -4.1295 -9.4601 38.6531
#
#
#
# Elastic Compliance Matrix: (Units=1/GPa)
#
#
# Indices 1 2 3 4 5 6 
#
# 1 0.007033 -0.001970 -0.004840 -0.000382 -0.004126 -0.000993
# 2 -0.001970 0.012471 -0.001015 0.002401 0.002010 0.003841
# 3 -0.004840 -0.001015 0.018578 0.005739 0.001193 0.002075
# 4 -0.000382 0.002401 0.005739 0.029608 -0.003359 0.003670
# 5 -0.004126 0.002010 0.001193 -0.003359 0.027909 0.006478
# 6 -0.000993 0.003841 0.002075 0.003670 0.006478 0.029030
#
#
# Mechanical properties :
#
#
# Convention : Reuss Voigt Hill
#
# Bulk Modulus (GPa) = 44.58177 66.31172 55.44674
# Shear Modulus (GPa) = 33.83958 41.26455 37.55207
#
# Velocity S-wave (km/s) = 3.78356 4.17808 3.98571
# Velocity P-wave (km/s) = 6.16010 7.16431 6.68110
#
# Compressibility (1/GPa) = 0.02243069
#
# Stress axis : x y z
#
# Youngs Moduli (GPa) = 142.18298 80.18908 53.82822
#
# Poissons Ratio (x) = 0.15801 0.26051
# Poissons Ratio (y) = 0.28016 0.05465
# Poissons Ratio (z) = 0.68811 0.08141
#
# Static dielectric constant tensor:
#      x y z
#    x 2.129370 0.183430 0.087720 
#    y 0.183430 1.942940 0.208100 
#    z 0.087720 0.208100 2.027600 
# 
# From -- ./inp_files/335758.got.cif
#   From: 2010.05.17/outbox.cif.g08.bks.cpg/sg2_168_cif.got.tgz:335758.got - 2010.06.03 11:33:40.
