data_PCOD9044816
_publ_section_title
;
Structure prediction by ZEFSAII (Michael W. Deem and Ramdas Pophale) SiO2 
 PCOD9044816
Probable space group: P -1
;
_chemical_formula_sum "Si O2"
_cell_formula_units_Z 12
_cell_length_a 13.464166
_cell_length_b 10.799497
_cell_length_c 9.460782
_cell_angle_alpha 41.473195
_cell_angle_beta 148.161573
_cell_angle_gamma 140.310022
_cell_volume 444.427461
_symmetry_space_group_name_H-M "P -1"
_symmetry_group_IT_number 2
_symmetry_cell_setting 'triclinic'
loop_
_space_group_symop_operation_xyz
x,y,z
-x,-y,-z
loop_
_atom_site_type_symbol
_atom_site_label
_atom_site_fract_x
_atom_site_fract_y
_atom_site_fract_z
Si Si1 0.484474 0.239359 0.395798
Si Si2 0.310561 0.757927 0.624171
Si Si3 0.231914 0.295690 0.279458
Si Si4 0.904357 0.906303 0.315464
Si Si5 0.482837 0.181234 0.915708
Si Si6 0.073096 0.530184 0.288915
O O1 0.529996 0.295558 0.238576
O O2 0.354515 0.331536 0.251383
O O3 0.386165 0.291627 0.594395
O O4 0.371815 0.998583 0.476594
O O5 0.106596 0.638383 0.391240
O O6 0.316835 0.718861 0.831188
O O7 0.283289 0.673210 0.341925
O O8 0.047330 0.073220 0.238636
O O9 0.116344 0.445378 0.038184
O O10 0.677453 0.889219 0.088011
O O11 0.917764 0.689421 0.500852
O O12 0.000000 0.000000 0.500000
O O13 0.500000 0.000000 0.000000
#
# Coordination Sequence:
#
# PCOD9044816 Si02
#       6
#     2   2   2   2   2   2
#     4   9  20  43  73 107 143 195 240 299 369 436
#     4   9  20  43  73 105 149 190 242 305 362 442
#     4  11  23  44  80 105 145 197 242 305 367 441
#     4  10  25  46  69 110 155 187 240 320 362 433
#     4  11  22  43  69 105 144 194 239 294 373 433
#     4  10  23  47  74 109 146 191 254 295 369 442
#
# _framework density 27.001031000000001
#
# number of rings (size 3 to 8) (size 9 to 14) (size 15 to 20)
#    1.000    1.000    1.667    1.000    0.000    4.000 
#    6.000    4.167    0.000    0.000    8.667    0.000 
#    0.000    0.000    0.000    0.000    0.000    0.000 
#
# Total GULP energy -67086.323193 kJ/mol
# GULP energy per Si atom -5590.526933 kJ/mol
# Density = 2.693958 g / cm^3
# Si number density = 27.001031 Si / 1000 Ang^3
#
#
#
# Elastic Constant Matrix: (Units=GPa)
#
#
# Indices 1 2 3 4 5 6 
#
# 1 117.5936 13.6663 48.7482 6.0014 19.6907 -19.0533
# 2 13.6663 140.5815 77.9665 -7.4256 -11.1860 -21.6276
# 3 48.7482 77.9665 132.7027 1.9118 6.1829 -25.7628
# 4 6.0014 -7.4256 1.9118 52.7590 -6.0681 -11.1387
# 5 19.6907 -11.1860 6.1829 -6.0681 32.9254 -3.7422
# 6 -19.0533 -21.6276 -25.7628 -11.1387 -3.7422 41.2652
#
#
#
# Elastic Compliance Matrix: (Units=1/GPa)
#
#
# Indices 1 2 3 4 5 6 
#
# 1 0.011475 0.000986 -0.004033 -0.001155 -0.005702 0.002468
# 2 0.000986 0.012205 -0.007109 0.003363 0.005950 0.003861
# 3 -0.004033 -0.007109 0.013827 -0.000772 -0.002445 0.002614
# 4 -0.001155 0.003363 -0.000772 0.021911 0.006844 0.007282
# 5 -0.005702 0.005950 -0.002445 0.006844 0.038007 0.004254
# 6 0.002468 0.003861 0.002614 0.007282 0.004254 0.031380
#
#
# Mechanical properties :
#
#
# Convention : Reuss Voigt Hill
#
# Bulk Modulus (GPa) = 58.15871 74.62664 66.39268
# Shear Modulus (GPa) = 32.28922 42.08972 37.18947
#
# Velocity S-wave (km/s) = 3.46186 3.95247 3.71527
# Velocity P-wave (km/s) = 6.12907 6.96619 6.56100
#
# Compressibility (1/GPa) = 0.01719433
#
# Stress axis : x y z
#
# Youngs Moduli (GPa) = 87.14643 81.93051 72.32364
#
# Poissons Ratio (x) = -0.08081 0.29170
# Poissons Ratio (y) = -0.08596 0.51418
# Poissons Ratio (z) = 0.35149 0.58248
#
# Static dielectric constant tensor:
#      x y z
#    x 2.205050 0.209830 0.179970 
#    y 0.209830 2.259770 0.255000 
#    z 0.179970 0.255000 2.574530 
# 
# From -- ./inp_files/152321.got.cif
#   From: 2010.05.17/outbox.cif.g08.bks.cpg/sg2_77_cif.got.tgz:152321.got - 2010.06.03 11:33:40.
