data_PCOD9044016
_publ_section_title
;
Structure prediction by ZEFSAII (Michael W. Deem and Ramdas Pophale) SiO2 
 PCOD9044016
Probable space group: P -1
;
_chemical_formula_sum "Si O2"
_cell_formula_units_Z 14
_cell_length_a 6.555616
_cell_length_b 23.530415
_cell_length_c 6.777624
_cell_angle_alpha 122.354249
_cell_angle_beta 106.286397
_cell_angle_gamma 53.511811
_cell_volume 708.962240
_symmetry_space_group_name_H-M "P -1"
_symmetry_group_IT_number 2
_symmetry_cell_setting 'triclinic'
loop_
_space_group_symop_operation_xyz
x,y,z
-x,-y,-z
loop_
_atom_site_type_symbol
_atom_site_label
_atom_site_fract_x
_atom_site_fract_y
_atom_site_fract_z
Si Si1 0.094500 0.406749 0.334059
Si Si2 0.305489 0.591436 0.058105
Si Si3 0.417332 0.021920 0.737971
Si Si4 0.015219 0.191929 0.078901
Si Si5 0.907436 0.951582 0.995176
Si Si6 0.877289 0.688397 0.447502
Si Si7 0.488811 0.688734 0.067665
O O1 0.136956 0.364319 0.478604
O O2 0.338487 0.359201 0.166282
O O3 0.000000 0.500000 0.500000
O O4 0.874048 0.403462 0.157356
O O5 0.453779 0.630519 0.091485
O O6 0.500000 0.500000 0.000000
O O7 0.124163 0.635998 0.278776
O O8 0.500000 0.000000 0.500000
O O9 0.668165 0.968522 0.834800
O O10 0.273319 0.117839 0.912810
O O11 0.204519 0.009586 0.748013
O O12 0.926078 0.143731 0.100650
O O13 0.090089 0.244695 0.318606
O O14 0.791025 0.243912 0.960428
O O15 0.000000 0.000000 0.000000
O O16 0.637637 0.718756 0.292813
#
# Coordination Sequence:
#
# PCOD9044016 Si02
#       7
#     2   2   2   2   2   2   2
#     4  11  24  42  67  98 135 179 227 274 325 398
#     4  11  24  42  67  98 133 180 230 269 328 400
#     4   9  21  45  66  96 131 167 220 265 329 407
#     4  10  23  46  68  98 136 171 220 279 330 397
#     4   9  21  45  66  96 128 172 215 261 340 396
#     4  11  25  44  65  98 138 171 223 280 330 386
#     4  11  25  44  65 101 134 176 227 267 343 381
#
# _framework density 19.747171000000002
#
# number of rings (size 3 to 8) (size 9 to 14) (size 15 to 20)
#    0.857    0.857    1.429    1.714    4.000    6.286 
#    5.143    0.000    0.000    0.000    0.000    0.000 
#    0.000    0.000    0.000    0.000    0.000    0.000 
#
# Total GULP energy -78019.890682 kJ/mol
# GULP energy per Si atom -5572.849334 kJ/mol
# Density = 1.970223 g / cm^3
# Si number density = 19.747171 Si / 1000 Ang^3
#
#
#
# Elastic Constant Matrix: (Units=GPa)
#
#
# Indices 1 2 3 4 5 6 
#
# 1 80.1148 34.5064 37.5309 -1.8837 -4.8107 26.6412
# 2 34.5064 124.4770 45.0721 -4.2471 4.9834 10.2222
# 3 37.5309 45.0721 123.2372 -2.4324 -10.8466 6.1647
# 4 -1.8837 -4.2471 -2.4324 27.2135 5.1967 -0.4458
# 5 -4.8107 4.9834 -10.8466 5.1967 28.0130 -8.8751
# 6 26.6412 10.2222 6.1647 -0.4458 -8.8751 43.9815
#
#
#
# Elastic Compliance Matrix: (Units=1/GPa)
#
#
# Indices 1 2 3 4 5 6 
#
# 1 0.019220 -0.002778 -0.004416 0.000595 -0.001401 -0.010654
# 2 -0.002778 0.010287 -0.003198 0.001921 -0.004250 -0.001098
# 3 -0.004416 -0.003198 0.010917 -0.000755 0.005099 0.002909
# 4 0.000595 0.001921 -0.000755 0.038576 -0.008318 -0.001989
# 5 -0.001401 -0.004250 0.005099 -0.008318 0.042795 0.009673
# 6 -0.010654 -0.001098 0.002909 -0.001989 0.009673 0.030970
#
#
# Mechanical properties :
#
#
# Convention : Reuss Voigt Hill
#
# Bulk Modulus (GPa) = 50.91172 62.44974 56.68073
# Shear Modulus (GPa) = 27.76303 33.88955 30.82629
#
# Velocity S-wave (km/s) = 3.75363 4.14717 3.95530
# Velocity P-wave (km/s) = 6.68013 7.39089 7.04448
#
# Compressibility (1/GPa) = 0.01964184
#
# Stress axis : x y z
#
# Youngs Moduli (GPa) = 52.02899 97.20699 91.59873
#
# Poissons Ratio (x) = 0.27001 0.40450
# Poissons Ratio (y) = 0.14452 0.29290
# Poissons Ratio (z) = 0.22976 0.31084
#
# Static dielectric constant tensor:
#      x y z
#    x 1.724310 0.023050 -0.031390 
#    y 0.023050 1.670650 -0.020360 
#    z -0.031390 -0.020360 1.724330 
# 
# From -- ./inp_files/11556.got.cif
#   From: 2010.05.17/outbox.cif.g08.bks.cpg/sg2_6_cif.got.tgz:11556.got - 2010.06.03 11:33:40.
