data_PCOD9044798
_publ_section_title
;
Structure prediction by ZEFSAII (Michael W. Deem and Ramdas Pophale) SiO2 
 PCOD9044798
Probable space group: P -1
;
_chemical_formula_sum "Si O2"
_cell_formula_units_Z 16
_cell_length_a 12.843631
_cell_length_b 9.351458
_cell_length_c 8.833008
_cell_angle_alpha 68.219491
_cell_angle_beta 128.061182
_cell_angle_gamma 78.459414
_cell_volume 628.257202
_symmetry_space_group_name_H-M "P -1"
_symmetry_group_IT_number 2
_symmetry_cell_setting 'triclinic'
loop_
_space_group_symop_operation_xyz
x,y,z
-x,-y,-z
loop_
_atom_site_type_symbol
_atom_site_label
_atom_site_fract_x
_atom_site_fract_y
_atom_site_fract_z
Si Si1 0.971250 0.943767 0.157951
Si Si2 0.957284 0.367761 0.845079
Si Si3 0.381535 0.439357 0.385508
Si Si4 0.617445 0.628709 0.909910
Si Si5 0.302398 0.699412 0.710205
Si Si6 0.492086 0.967432 0.246463
Si Si7 0.257543 0.945052 0.841643
Si Si8 0.121888 0.231828 0.366902
O O1 0.966093 0.768032 0.176381
O O2 0.129739 0.864705 0.428923
O O3 0.817318 0.086282 0.066095
O O4 0.000000 0.000000 0.000000
O O5 0.766395 0.457739 0.667020
O O6 0.956983 0.550051 0.752158
O O7 0.052076 0.250532 0.128710
O O8 0.500000 0.500000 0.500000
O O9 0.301486 0.477381 0.132583
O O10 0.484542 0.209349 0.574299
O O11 0.438331 0.670091 0.730003
O O12 0.596210 0.825019 0.839106
O O13 0.694661 0.483169 0.177022
O O14 0.336051 0.768084 0.869339
O O15 0.680539 0.888689 0.422835
O O16 0.386480 0.982147 0.002823
O O17 0.112064 0.124280 0.543280
#
# Coordination Sequence:
#
# PCOD9044798 Si02
#       8
#     2   2   2   2   2   2   2   2
#     4  12  29  45  72 103 145 187 244 291 358 435
#     4  10  25  45  72 104 144 189 236 298 360 421
#     4  11  24  44  74 105 148 191 239 293 358 427
#     4  11  25  43  74 103 144 183 244 291 359 422
#     4  11  26  47  71 104 143 187 236 302 356 427
#     4  11  25  44  74 108 143 187 241 296 355 426
#     4  12  26  45  77 102 143 191 236 295 366 420
#     4  10  23  47  74 102 148 183 238 300 359 427
#
# _framework density 25.467275000000001
#
# number of rings (size 3 to 8) (size 9 to 14) (size 15 to 20)
#    0.000    1.000    1.250    3.375    8.750    5.500 
#    0.000    0.000    0.000    0.000    0.000    0.000 
#    0.000    0.000    0.000    0.000    0.000    0.000 
#
# Total GULP energy -89553.716734 kJ/mol
# GULP energy per Si atom -5597.107296 kJ/mol
# Density = 2.540931 g / cm^3
# Si number density = 25.467275 Si / 1000 Ang^3
#
#
#
# Elastic Constant Matrix: (Units=GPa)
#
#
# Indices 1 2 3 4 5 6 
#
# 1 84.0881 11.9521 17.2167 -0.8086 -5.0144 -0.2336
# 2 11.9521 139.9889 24.9762 1.8570 -8.7347 8.1409
# 3 17.2167 24.9762 108.0499 4.5404 0.2982 12.7116
# 4 -0.8086 1.8570 4.5404 39.2501 9.3998 -10.4765
# 5 -5.0144 -8.7347 0.2982 9.3998 36.5063 -7.3342
# 6 -0.2336 8.1409 12.7116 -10.4765 -7.3342 38.3022
#
#
#
# Elastic Compliance Matrix: (Units=1/GPa)
#
#
# Indices 1 2 3 4 5 6 
#
# 1 0.012514 -0.000686 -0.002019 0.000472 0.001721 0.001351
# 2 -0.000686 0.007653 -0.001505 -0.000904 0.001773 -0.001039
# 3 -0.002019 -0.001505 0.010469 -0.001984 -0.000996 -0.003900
# 4 0.000472 -0.000904 -0.001984 0.029280 -0.006130 0.007689
# 5 0.001721 0.001773 -0.000996 -0.006130 0.030468 0.004121
# 6 0.001351 -0.001039 -0.003900 0.007689 0.004121 0.030524
#
#
# Mechanical properties :
#
#
# Convention : Reuss Voigt Hill
#
# Bulk Modulus (GPa) = 45.00717 48.93521 46.97119
# Shear Modulus (GPa) = 36.56760 41.34385 38.95572
#
# Velocity S-wave (km/s) = 3.79339 4.03353 3.91530
# Velocity P-wave (km/s) = 6.07432 6.39915 6.23885
#
# Compressibility (1/GPa) = 0.02221868
#
# Stress axis : x y z
#
# Youngs Moduli (GPa) = 79.91014 130.65960 95.51584
#
# Poissons Ratio (x) = 0.08958 0.19285
# Poissons Ratio (y) = 0.05479 0.14370
# Poissons Ratio (z) = 0.16134 0.19658
#
# Static dielectric constant tensor:
#      x y z
#    x 2.020980 0.053070 -0.060640 
#    y 0.053070 2.008180 -0.009890 
#    z -0.060640 -0.009890 2.038030 
# 
# From -- ./inp_files/298377.got.cif
#   From: 2010.05.17/outbox.cif.g08.bks.cpg/sg2_150_cif.got.tgz:298377.got - 2010.06.03 11:33:40.
