data_PCOD9044378
_publ_section_title
;
Structure prediction by ZEFSAII (Michael W. Deem and Ramdas Pophale) SiO2 
 PCOD9044378
Probable space group: P -1
;
_chemical_formula_sum "Si O2"
_cell_formula_units_Z 12
_cell_length_a 15.322575
_cell_length_b 4.975903
_cell_length_c 7.495866
_cell_angle_alpha 72.634254
_cell_angle_beta 64.504215
_cell_angle_gamma 63.850014
_cell_volume 458.864180
_symmetry_space_group_name_H-M "P -1"
_symmetry_group_IT_number 2
_symmetry_cell_setting 'triclinic'
loop_
_space_group_symop_operation_xyz
x,y,z
-x,-y,-z
loop_
_atom_site_type_symbol
_atom_site_label
_atom_site_fract_x
_atom_site_fract_y
_atom_site_fract_z
Si Si1 0.973453 0.421554 0.736033
Si Si2 0.445565 0.764581 0.633035
Si Si3 0.210159 0.708943 0.242054
Si Si4 0.262661 0.199395 0.873104
Si Si5 0.585923 0.671901 0.007726
Si Si6 0.900922 0.238899 0.289284
O O1 0.999607 0.665693 0.781333
O O2 0.000000 0.500000 0.500000
O O3 0.862751 0.394313 0.806340
O O4 0.056686 0.089227 0.771494
O O5 0.500000 0.500000 0.500000
O O6 0.458761 0.585948 0.844940
O O7 0.500000 0.000000 0.500000
O O8 0.323468 0.971020 0.705236
O O9 0.154639 0.774694 0.470104
O O10 0.325216 0.450891 0.196660
O O11 0.226403 0.995665 0.081916
O O12 0.346680 0.298854 0.884594
O O13 0.176776 0.491633 0.809060
O O14 0.500000 0.000000 0.000000
#
# Coordination Sequence:
#
# PCOD9044378 Si02
#       6
#     2   2   2   2   2   2
#     4  10  23  46  73 109 143 193 239 291 361 434
#     4  11  24  47  72  98 143 185 245 300 355 429
#     4  10  25  45  72 104 151 185 242 301 358 434
#     4  11  27  45  72 112 142 189 249 292 368 433
#     4  11  27  48  73 108 147 192 245 304 373 429
#     4  11  26  44  77 105 147 192 241 291 362 428
#
# _framework density 26.151527999999999
#
# number of rings (size 3 to 8) (size 9 to 14) (size 15 to 20)
#    0.000    1.333    1.667    2.000   14.000    5.333 
#    0.000    0.000    0.000    0.000    0.000    0.000 
#    0.000    0.000    0.000    0.000    0.000    0.000 
#
# Total GULP energy -67251.631631 kJ/mol
# GULP energy per Si atom -5604.302636 kJ/mol
# Density = 2.609201 g / cm^3
# Si number density = 26.151528 Si / 1000 Ang^3
#
#
#
# Elastic Constant Matrix: (Units=GPa)
#
#
# Indices 1 2 3 4 5 6 
#
# 1 79.6917 32.6703 26.0398 -16.5981 -19.8489 -12.8902
# 2 32.6703 162.7835 34.7136 -16.3932 -21.5089 -6.8389
# 3 26.0398 34.7136 168.2216 -8.1614 -24.2217 0.5361
# 4 -16.5981 -16.3932 -8.1614 56.4469 3.0665 -0.6022
# 5 -19.8489 -21.5089 -24.2217 3.0665 38.5666 -4.9934
# 6 -12.8902 -6.8389 0.5361 -0.6022 -4.9934 62.5228
#
#
#
# Elastic Compliance Matrix: (Units=1/GPa)
#
#
# Indices 1 2 3 4 5 6 
#
# 1 0.016834 -0.001628 -0.001039 0.003973 0.007295 0.003922
# 2 -0.001628 0.007149 -0.000780 0.001349 0.002640 0.000677
# 3 -0.001039 -0.000780 0.006745 0.000267 0.003233 -0.000097
# 4 0.003973 0.001349 0.000267 0.019241 0.001600 0.001277
# 5 0.007295 0.002640 0.003233 0.001600 0.033638 0.004467
# 6 0.003922 0.000677 -0.000097 0.001277 0.004467 0.017247
#
#
# Mechanical properties :
#
#
# Convention : Reuss Voigt Hill
#
# Bulk Modulus (GPa) = 41.95685 66.39381 54.17533
# Shear Modulus (GPa) = 43.21779 52.65879 47.93829
#
# Velocity S-wave (km/s) = 4.06962 4.49219 4.28611
# Velocity P-wave (km/s) = 6.17746 7.23530 6.72720
#
# Compressibility (1/GPa) = 0.02383401
#
# Stress axis : x y z
#
# Youngs Moduli (GPa) = 59.40246 139.87452 148.25693
#
# Poissons Ratio (x) = 0.22774 0.15407
# Poissons Ratio (y) = 0.09672 0.11562
# Poissons Ratio (z) = 0.06173 0.10909
#
# Static dielectric constant tensor:
#      x y z
#    x 2.319360 -0.038490 0.027550 
#    y -0.038490 2.083350 0.076590 
#    z 0.027550 0.076590 2.089830 
# 
# From -- ./inp_files/91098.got.cif
#   From: 2010.05.17/outbox.cif.g08.bks.cpg/sg2_46_cif.got.tgz:91098.got - 2010.06.03 11:33:40.
