data_PCOD9044039
_publ_section_title
;
Structure prediction by ZEFSAII (Michael W. Deem and Ramdas Pophale) SiO2 
 PCOD9044039
Probable space group: P -1
;
_chemical_formula_sum "Si O2"
_cell_formula_units_Z 16
_cell_length_a 6.638111
_cell_length_b 17.094528
_cell_length_c 14.717407
_cell_angle_alpha 151.310570
_cell_angle_beta 91.525113
_cell_angle_gamma 79.536940
_cell_volume 756.617318
_symmetry_space_group_name_H-M "P -1"
_symmetry_group_IT_number 2
_symmetry_cell_setting 'triclinic'
loop_
_space_group_symop_operation_xyz
x,y,z
-x,-y,-z
loop_
_atom_site_type_symbol
_atom_site_label
_atom_site_fract_x
_atom_site_fract_y
_atom_site_fract_z
Si Si1 0.133601 0.646282 0.862913
Si Si2 0.248713 0.434031 0.925724
Si Si3 0.376233 0.705695 0.092584
Si Si4 0.910683 0.461542 0.555804
Si Si5 0.188933 0.879978 0.817669
Si Si6 0.590651 0.936131 0.535301
Si Si7 0.453163 0.753265 0.858170
Si Si8 0.690673 0.941858 0.172743
O O1 0.306110 0.622719 0.919650
O O2 0.246308 0.709995 0.845604
O O3 0.063735 0.490566 0.665610
O O4 0.910807 0.786020 0.034392
O O5 0.298084 0.607931 0.073308
O O6 0.304413 0.270470 0.689628
O O7 0.373189 0.357682 0.943266
O O8 0.000000 0.500000 0.000000
O O9 0.296664 0.914850 0.293579
O O10 0.890858 0.276315 0.367718
O O11 0.670101 0.592537 0.695790
O O12 0.000000 0.500000 0.500000
O O13 0.396294 0.824628 0.828899
O O14 0.242097 0.954670 0.801063
O O15 0.000000 0.000000 0.000000
O O16 0.500000 0.000000 0.500000
O O17 0.413764 0.965698 0.642057
O O18 0.509699 0.878299 0.058055
#
# Coordination Sequence:
#
# PCOD9044039 Si02
#       8
#     2   2   2   2   2   2   2   2
#     4  11  23  43  70  97 136 183 235 281 348 423
#     4  10  24  46  73 106 138 181 234 290 361 427
#     4  10  23  46  69 101 140 178 231 292 353 423
#     4  11  24  42  66  99 136 191 234 276 356 419
#     4  12  23  44  69  99 141 181 233 298 343 411
#     4  10  23  46  71 100 140 182 231 288 357 425
#     4  11  22  44  68  95 137 182 229 286 346 418
#     4  11  24  43  68 104 135 180 237 290 359 415
#
# _framework density 21.146754999999999
#
# number of rings (size 3 to 8) (size 9 to 14) (size 15 to 20)
#    0.000    1.250    3.750    1.500    3.500    1.500 
#    9.000    0.000    0.000    0.000    0.000    0.000 
#    0.000    0.000    0.000    0.000    0.000    0.000 
#
# Total GULP energy -89200.641659 kJ/mol
# GULP energy per Si atom -5575.040104 kJ/mol
# Density = 2.109862 g / cm^3
# Si number density = 21.146755 Si / 1000 Ang^3
#
#
#
# Elastic Constant Matrix: (Units=GPa)
#
#
# Indices 1 2 3 4 5 6 
#
# 1 106.1856 29.1097 57.6966 -6.2168 4.8636 -4.8912
# 2 29.1097 79.5441 41.7094 -16.8137 2.8126 -1.1804
# 3 57.6966 41.7094 134.2291 -15.3891 3.0214 1.4592
# 4 -6.2168 -16.8137 -15.3891 29.6004 4.2412 6.9314
# 5 4.8636 2.8126 3.0214 4.2412 27.9585 -13.3345
# 6 -4.8912 -1.1804 1.4592 6.9314 -13.3345 35.6987
#
#
#
# Elastic Compliance Matrix: (Units=1/GPa)
#
#
# Indices 1 2 3 4 5 6 
#
# 1 0.012779 -0.002405 -0.004966 -0.001747 -0.000150 0.002158
# 2 -0.002405 0.017018 -0.003156 0.008641 -0.003517 -0.002629
# 3 -0.004966 -0.003156 0.011074 0.003817 -0.001871 -0.002677
# 4 -0.001747 0.008641 0.003817 0.045853 -0.014884 -0.014572
# 5 -0.000150 -0.003517 -0.001871 -0.014884 0.048618 0.020990
# 6 0.002158 -0.002629 -0.002677 -0.014572 0.020990 0.039000
#
#
# Mechanical properties :
#
#
# Convention : Reuss Voigt Hill
#
# Bulk Modulus (GPa) = 50.46009 64.11002 57.28506
# Shear Modulus (GPa) = 24.75213 31.41440 28.08327
#
# Velocity S-wave (km/s) = 3.42496 3.85845 3.64815
# Velocity P-wave (km/s) = 6.28921 7.08751 6.70026
#
# Compressibility (1/GPa) = 0.01981764
#
# Stress axis : x y z
#
# Youngs Moduli (GPa) = 78.25348 58.76003 90.30079
#
# Poissons Ratio (x) = 0.14129 0.44844
# Poissons Ratio (y) = 0.18817 0.28501
# Poissons Ratio (z) = 0.38861 0.18546
#
# Static dielectric constant tensor:
#      x y z
#    x 1.754280 0.009580 0.033960 
#    y 0.009580 1.993580 -0.111420 
#    z 0.033960 -0.111420 1.897500 
# 
# From -- ./inp_files/485315.got.cif
#   From: 2010.05.17/outbox.cif.g08.bks.cpg/sg2_243_cif.got.tgz:485315.got - 2010.06.03 11:33:40.
