data_PCOD9044508
_publ_section_title
;
Structure prediction by ZEFSAII (Michael W. Deem and Ramdas Pophale) SiO2 
 PCOD9044508
Probable space group: P -1
;
_chemical_formula_sum "Si O2"
_cell_formula_units_Z 10
_cell_length_a 7.082472
_cell_length_b 15.438290
_cell_length_c 8.949898
_cell_angle_alpha 30.670479
_cell_angle_beta 122.488462
_cell_angle_gamma 115.804694
_cell_volume 420.247502
_symmetry_space_group_name_H-M "P -1"
_symmetry_group_IT_number 2
_symmetry_cell_setting 'triclinic'
loop_
_space_group_symop_operation_xyz
x,y,z
-x,-y,-z
loop_
_atom_site_type_symbol
_atom_site_label
_atom_site_fract_x
_atom_site_fract_y
_atom_site_fract_z
Si Si1 0.869481 0.740733 0.420766
Si Si2 0.551191 0.456953 0.753430
Si Si3 0.251702 0.482420 0.853851
Si Si4 0.497995 0.097176 0.198093
Si Si5 0.146590 0.124026 0.473046
O O1 0.728898 0.594932 0.660828
O O2 0.909839 0.864946 0.391909
O O3 0.090621 0.641756 0.597499
O O4 0.726141 0.826280 0.095796
O O5 0.500000 0.500000 0.500000
O O6 0.320764 0.474728 0.721379
O O7 0.150596 0.308519 0.122666
O O8 0.500000 0.500000 0.000000
O O9 0.632669 0.260421 0.066280
O O10 0.500000 0.000000 0.500000
O O11 0.609030 0.970197 0.310610
O O12 0.000000 0.000000 0.500000
#
# Coordination Sequence:
#
# PCOD9044508 Si02
#       5
#     2   2   2   2   2
#     4  11  26  49  76 109 154 201 254 308 374 457
#     4  10  23  46  79 105 150 195 261 302 377 448
#     4  12  25  47  80 109 149 205 256 304 377 459
#     4  11  24  47  73 111 151 194 250 316 379 441
#     4  12  26  46  77 111 158 197 249 318 385 441
#
# _framework density 23.795501999999999
#
# number of rings (size 3 to 8) (size 9 to 14) (size 15 to 20)
#    0.000    0.800    4.000    2.400    2.800    3.200 
#    7.200    2.000    0.000    0.000    0.000    0.000 
#    0.000    0.000    0.000    0.000    0.000    0.000 
#
# Total GULP energy -55874.549576 kJ/mol
# GULP energy per Si atom -5587.454958 kJ/mol
# Density = 2.374134 g / cm^3
# Si number density = 23.795502 Si / 1000 Ang^3
#
#
#
# Elastic Constant Matrix: (Units=GPa)
#
#
# Indices 1 2 3 4 5 6 
#
# 1 122.3484 51.3008 72.1905 6.7960 0.6727 -38.4960
# 2 51.3008 149.1454 62.6299 8.8987 -3.4219 -28.0904
# 3 72.1905 62.6299 160.8501 -2.0057 10.2708 -17.2716
# 4 6.7960 8.8987 -2.0057 35.9201 -6.5178 5.7242
# 5 0.6727 -3.4219 10.2708 -6.5178 51.3793 -14.8019
# 6 -38.4960 -28.0904 -17.2716 5.7242 -14.8019 58.8764
#
#
#
# Elastic Compliance Matrix: (Units=1/GPa)
#
#
# Indices 1 2 3 4 5 6 
#
# 1 0.014751 -0.000782 -0.005612 -0.003772 0.002911 0.008724
# 2 -0.000782 0.009106 -0.002953 -0.002508 0.001955 0.003702
# 3 -0.005612 -0.002953 0.009751 0.002350 -0.002673 -0.003118
# 4 -0.003772 -0.002508 0.002350 0.030491 0.001692 -0.005513
# 5 0.002911 0.001955 -0.002673 0.001692 0.022476 0.007539
# 6 0.008724 0.003702 -0.003118 -0.005513 0.007539 0.025972
#
#
# Mechanical properties :
#
#
# Convention : Reuss Voigt Hill
#
# Bulk Modulus (GPa) = 67.05554 89.39848 78.22701
# Shear Modulus (GPa) = 36.70738 45.65001 41.17870
#
# Velocity S-wave (km/s) = 3.93188 4.38474 4.16447
# Velocity P-wave (km/s) = 6.98956 7.95523 7.48798
#
# Compressibility (1/GPa) = 0.01491301
#
# Stress axis : x y z
#
# Youngs Moduli (GPa) = 67.79084 109.82092 102.55768
#
# Poissons Ratio (x) = 0.08591 0.57556
# Poissons Ratio (y) = 0.05303 0.30285
# Poissons Ratio (z) = 0.38044 0.32430
#
# Static dielectric constant tensor:
#      x y z
#    x 1.985240 0.041810 0.018990 
#    y 0.041810 1.980200 0.046130 
#    z 0.018990 0.046130 1.946660 
# 
# From -- ./inp_files/138299.got.cif
#   From: 2010.05.17/outbox.cif.g08.bks.cpg/sg2_70_cif.got.tgz:138299.got - 2010.06.03 11:33:40.
