data_PCOD9044335
_publ_section_title
;
Structure prediction by ZEFSAII (Michael W. Deem and Ramdas Pophale) SiO2 
 PCOD9044335
Probable space group: P -1
;
_chemical_formula_sum "Si O2"
_cell_formula_units_Z 16
_cell_length_a 14.261527
_cell_length_b 9.488403
_cell_length_c 11.823970
_cell_angle_alpha 26.048643
_cell_angle_beta 85.049005
_cell_angle_gamma 76.151119
_cell_volume 650.350329
_symmetry_space_group_name_H-M "P -1"
_symmetry_group_IT_number 2
_symmetry_cell_setting 'triclinic'
loop_
_space_group_symop_operation_xyz
x,y,z
-x,-y,-z
loop_
_atom_site_type_symbol
_atom_site_label
_atom_site_fract_x
_atom_site_fract_y
_atom_site_fract_z
Si Si1 0.908081 0.811490 0.527102
Si Si2 0.438557 0.891503 0.680480
Si Si3 0.333170 0.496282 0.854127
Si Si4 0.834706 0.619038 0.908553
Si Si5 0.732749 0.646314 0.261962
Si Si6 0.533668 0.823605 0.295078
Si Si7 0.893269 0.752973 0.041109
Si Si8 0.903060 0.416202 0.603437
O O1 0.865697 0.623799 0.572074
O O2 0.029999 0.624515 0.660402
O O3 0.883493 0.201375 0.211701
O O4 0.861904 0.750248 0.694207
O O5 0.347284 0.822574 0.676525
O O6 0.500000 0.000000 0.500000
O O7 0.425636 0.152439 0.598662
O O8 0.500000 0.500000 0.000000
O O9 0.277395 0.333489 0.067420
O O10 0.276276 0.593736 0.668564
O O11 0.437494 0.182873 0.037926
O O12 0.883220 0.758122 0.905192
O O13 0.623766 0.811821 0.210457
O O14 0.782039 0.873668 0.021285
O O15 0.813917 0.509088 0.452748
O O16 0.500000 0.500000 0.500000
O O17 0.942041 0.007514 0.900126
O O18 0.000000 0.500000 0.500000
#
# Coordination Sequence:
#
# PCOD9044335 Si02
#       8
#     2   2   2   2   2   2   2   2
#     4  12  26  47  75 110 151 197 255 314 381 459
#     4  10  23  46  73 102 145 196 246 309 375 437
#     4  10  25  49  74 110 154 201 256 318 378 456
#     4  11  28  45  78 109 150 199 258 312 386 456
#     4  11  26  45  75 109 152 198 258 308 392 447
#     4  11  25  46  78 114 151 202 256 315 382 457
#     4  11  26  47  75 106 153 197 255 318 387 457
#     4  12  27  48  76 109 157 200 253 323 388 454
#
# _framework density 24.602124
#
# number of rings (size 3 to 8) (size 9 to 14) (size 15 to 20)
#    0.000    1.000    1.250    3.000   10.500    3.000 
#    0.000    0.000    0.000    0.000    0.000    0.000 
#    0.000    0.000    0.000    0.000    0.000    0.000 
#
# Total GULP energy -89482.082597 kJ/mol
# GULP energy per Si atom -5592.630162 kJ/mol
# Density = 2.454613 g / cm^3
# Si number density = 24.602124 Si / 1000 Ang^3
#
#
#
# Elastic Constant Matrix: (Units=GPa)
#
#
# Indices 1 2 3 4 5 6 
#
# 1 140.6786 71.2196 39.1270 -5.1432 -3.2170 5.1848
# 2 71.2196 215.2714 49.1894 5.7699 -10.1687 24.3458
# 3 39.1270 49.1894 66.1503 -17.4406 -11.5815 -4.5960
# 4 -5.1432 5.7699 -17.4406 37.2079 5.3497 -3.0022
# 5 -3.2170 -10.1687 -11.5815 5.3497 34.1880 -3.4599
# 6 5.1848 24.3458 -4.5960 -3.0022 -3.4599 72.8265
#
#
#
# Elastic Compliance Matrix: (Units=1/GPa)
#
#
# Indices 1 2 3 4 5 6 
#
# 1 0.009342 -0.002149 -0.004207 -0.000200 -0.001182 -0.000277
# 2 -0.002149 0.006937 -0.005039 -0.004021 0.000517 -0.002625
# 3 -0.004207 -0.005039 0.025720 0.011830 0.005408 0.004352
# 4 -0.000200 -0.004021 0.011830 0.033595 -0.002121 0.003389
# 5 -0.001182 0.000517 0.005408 -0.002121 0.031625 0.001667
# 6 -0.000277 -0.002625 0.004352 0.003389 0.001667 0.015122
#
#
# Mechanical properties :
#
#
# Convention : Reuss Voigt Hill
#
# Bulk Modulus (GPa) = 52.05594 82.35247 67.20421
# Shear Modulus (GPa) = 32.99583 46.34879 39.67231
#
# Velocity S-wave (km/s) = 3.66618 4.34514 4.02002
# Velocity P-wave (km/s) = 6.25510 7.66290 6.99451
#
# Compressibility (1/GPa) = 0.01921010
#
# Stress axis : x y z
#
# Youngs Moduli (GPa) = 107.04273 144.16108 38.87961
#
# Poissons Ratio (x) = 0.30975 0.16356
# Poissons Ratio (y) = 0.23000 0.19592
# Poissons Ratio (z) = 0.45030 0.72645
#
# Static dielectric constant tensor:
#      x y z
#    x 2.020640 -0.007860 0.076830 
#    y -0.007860 2.096070 -0.130800 
#    z 0.076830 -0.130800 2.142590 
# 
# From -- ./inp_files/446537.got.cif
#   From: 2010.05.17/outbox.cif.g08.bks.cpg/sg2_224_cif.got.tgz:446537.got - 2010.06.03 11:33:40.
