data_PCOD9044066
_publ_section_title
;
Structure prediction by ZEFSAII (Michael W. Deem and Ramdas Pophale) SiO2 
 PCOD9044066
Probable space group: P -1
;
_chemical_formula_sum "Si O2"
_cell_formula_units_Z 13
_cell_length_a 7.105334
_cell_length_b 12.630114
_cell_length_c 7.355043
_cell_angle_alpha 89.437140
_cell_angle_beta 57.010654
_cell_angle_gamma 114.154780
_cell_volume 481.256322
_symmetry_space_group_name_H-M "P -1"
_symmetry_group_IT_number 2
_symmetry_cell_setting 'triclinic'
loop_
_space_group_symop_operation_xyz
x,y,z
-x,-y,-z
loop_
_atom_site_type_symbol
_atom_site_label
_atom_site_fract_x
_atom_site_fract_y
_atom_site_fract_z
Si Si1 0.756427 0.000104 0.939052
Si Si2 0.750074 0.824838 0.505827
Si Si3 0.690722 0.555830 0.226885
Si Si4 0.500000 0.500000 0.000000
Si Si5 0.016135 0.696909 0.578015
Si Si6 0.539123 0.736074 0.218515
Si Si7 0.209320 0.781210 0.877197
O O1 0.163896 0.891195 0.959444
O O2 0.677480 0.868638 0.059067
O O3 0.013168 0.045051 0.683042
O O4 0.500000 0.000000 0.000000
O O5 0.902571 0.769617 0.531032
O O6 0.622503 0.750464 0.386740
O O7 0.510536 0.820841 0.738188
O O8 0.500000 0.500000 0.500000
O O9 0.605278 0.632038 0.120506
O O10 0.626517 0.452569 0.116435
O O11 0.988336 0.657155 0.092882
O O12 0.785252 0.567854 0.749851
O O13 0.240823 0.689952 0.354333
O O14 0.150021 0.762987 0.694546
#
# Coordination Sequence:
#
# PCOD9044066 Si02
#       7
#     2   2   2   1   2   2   2
#     4  12  25  46  72 107 149 193 239 292 370 444
#     4  11  23  46  72 102 148 190 241 292 364 436
#     4  11  24  47  78 103 147 197 244 307 375 428
#     4  10  24  42  68 106 140 182 254 302 352 440
#     4  10  23  46  69 108 142 189 247 300 362 431
#     4  11  24  45  72 106 147 191 240 302 363 440
#     4  10  26  46  70 106 147 190 241 301 358 438
#
# _framework density 27.012633000000001
#
# number of rings (size 3 to 8) (size 9 to 14) (size 15 to 20)
#    0.000    1.231    3.077    1.385    0.000    7.385 
#    2.769    4.615    0.000    0.000    0.000    0.000 
#    0.000    0.000    0.000    0.000    0.000    0.000 
#
# Total GULP energy -72614.252417 kJ/mol
# GULP energy per Si atom -5585.711724 kJ/mol
# Density = 2.695115 g / cm^3
# Si number density = 27.012633 Si / 1000 Ang^3
#
#
#
# Elastic Constant Matrix: (Units=GPa)
#
#
# Indices 1 2 3 4 5 6 
#
# 1 183.4409 34.5055 78.6308 -1.3967 -33.8524 -17.4004
# 2 34.5055 113.9285 50.6476 -1.6978 -15.2220 -10.2962
# 3 78.6308 50.6476 190.5798 -20.4686 -49.2466 -16.5604
# 4 -1.3967 -1.6978 -20.4686 42.9630 8.4453 2.6255
# 5 -33.8524 -15.2220 -49.2466 8.4453 75.6883 10.8084
# 6 -17.4004 -10.2962 -16.5604 2.6255 10.8084 48.2093
#
#
#
# Elastic Compliance Matrix: (Units=1/GPa)
#
#
# Indices 1 2 3 4 5 6 
#
# 1 0.006970 -0.000791 -0.002327 -0.001268 0.001400 0.001303
# 2 -0.000791 0.010158 -0.002340 -0.000826 0.000102 0.001103
# 3 -0.002327 -0.002340 0.008053 0.002984 0.003321 0.000520
# 4 -0.001268 -0.000826 0.002984 0.024954 -0.001486 -0.000635
# 5 0.001400 0.000102 0.003321 -0.001486 0.016463 -0.001942
# 6 0.001303 0.001103 0.000520 -0.000635 -0.001942 0.022097
#
#
# Mechanical properties :
#
#
# Convention : Reuss Voigt Hill
#
# Bulk Modulus (GPa) = 70.09864 90.61298 80.35581
# Shear Modulus (GPa) = 47.90889 54.98313 51.44601
#
# Velocity S-wave (km/s) = 4.21595 4.51650 4.36881
# Velocity P-wave (km/s) = 7.05022 7.79845 7.43376
#
# Compressibility (1/GPa) = 0.01426561
#
# Stress axis : x y z
#
# Youngs Moduli (GPa) = 143.47929 98.44373 124.17989
#
# Poissons Ratio (x) = 0.07784 0.28893
# Poissons Ratio (y) = 0.11344 0.29059
# Poissons Ratio (z) = 0.33384 0.23037
#
# Static dielectric constant tensor:
#      x y z
#    x 2.297980 0.213540 0.095830 
#    y 0.213540 2.705350 0.124290 
#    z 0.095830 0.124290 2.186910 
# 
# From -- ./inp_files/133932.got.cif
#   From: 2010.05.17/outbox.cif.g08.bks.cpg/sg2_67_cif.got.tgz:133932.got - 2010.06.03 11:33:40.
