data_PCOD9044088
_publ_section_title
;
Structure prediction by ZEFSAII (Michael W. Deem and Ramdas Pophale) SiO2 
 PCOD9044088
Probable space group: P -1
;
_chemical_formula_sum "Si O2"
_cell_formula_units_Z 14
_cell_length_a 9.749014
_cell_length_b 16.379244
_cell_length_c 5.208080
_cell_angle_alpha 106.252708
_cell_angle_beta 66.254712
_cell_angle_gamma 66.635035
_cell_volume 595.566329
_symmetry_space_group_name_H-M "P -1"
_symmetry_group_IT_number 2
_symmetry_cell_setting 'triclinic'
loop_
_space_group_symop_operation_xyz
x,y,z
-x,-y,-z
loop_
_atom_site_type_symbol
_atom_site_label
_atom_site_fract_x
_atom_site_fract_y
_atom_site_fract_z
Si Si1 0.543420 0.205044 0.840648
Si Si2 0.872560 0.688508 0.733425
Si Si3 0.833020 0.807517 0.379661
Si Si4 0.254683 0.570807 0.506432
Si Si5 0.842278 0.985819 0.664173
Si Si6 0.358404 0.639800 0.975608
Si Si7 0.557484 0.058751 0.317104
O O1 0.658179 0.093665 0.799893
O O2 0.547735 0.159549 0.517527
O O3 0.325856 0.290257 0.132723
O O4 0.646711 0.258848 0.866692
O O5 0.912584 0.720478 0.460990
O O6 0.063190 0.585458 0.602747
O O7 0.838687 0.767213 0.057072
O O8 0.618017 0.889077 0.692277
O O9 0.906086 0.878237 0.390915
O O10 0.249393 0.638190 0.810406
O O11 0.427352 0.453193 0.324247
O O12 0.302242 0.608419 0.247928
O O13 0.767053 0.982068 0.996566
O O14 0.000000 0.000000 0.500000
O O15 0.500000 0.000000 0.500000
#
# Coordination Sequence:
#
# PCOD9044088 Si02
#       7
#     2   2   2   2   2   2   2
#     4  11  25  41  65  97 134 175 225 281 330 395
#     4  11  24  40  70  95 127 179 228 268 328 409
#     4  11  23  42  63  93 133 182 222 270 329 405
#     4  10  23  46  69  97 131 173 220 272 352 407
#     4  12  26  39  61  98 137 177 227 284 334 392
#     4  10  24  44  70  98 134 170 213 286 344 404
#     4  11  22  45  65  89 138 187 225 273 336 399
#
# _framework density 23.507035999999999
#
# number of rings (size 3 to 8) (size 9 to 14) (size 15 to 20)
#    0.000    1.143    2.857    3.000    6.000    1.143 
#    0.000    0.000    0.000    7.714    0.000    0.000 
#    0.000    0.000    0.000    0.000    0.000    0.000 
#
# Total GULP energy -78054.430627 kJ/mol
# GULP energy per Si atom -5575.316473 kJ/mol
# Density = 2.345353 g / cm^3
# Si number density = 23.507036 Si / 1000 Ang^3
#
#
#
# Elastic Constant Matrix: (Units=GPa)
#
#
# Indices 1 2 3 4 5 6 
#
# 1 116.0475 12.8728 24.6246 -10.2164 -6.1616 -1.6832
# 2 12.8728 19.9390 -6.3124 1.4808 7.5572 -9.2815
# 3 24.6246 -6.3124 78.6741 -10.2207 -2.6889 7.5819
# 4 -10.2164 1.4808 -10.2207 26.3825 -3.0841 -0.1128
# 5 -6.1616 7.5572 -2.6889 -3.0841 45.4523 13.9394
# 6 -1.6832 -9.2815 7.5819 -0.1128 13.9394 46.9020
#
#
#
# Elastic Compliance Matrix: (Units=1/GPa)
#
#
# Indices 1 2 3 4 5 6 
#
# 1 0.011178 -0.011437 -0.003490 0.004107 0.004274 -0.002558
# 2 -0.011437 0.077325 0.005995 -0.008793 -0.020809 0.020086
# 3 -0.003490 0.005995 0.014956 0.004114 0.000118 -0.001382
# 4 0.004107 -0.008793 0.004114 0.042309 0.006375 -0.004051
# 5 0.004274 -0.020809 0.000118 0.006375 0.030474 -0.013025
# 6 -0.002558 0.020086 -0.001382 -0.004051 -0.013025 0.029289
#
#
# Mechanical properties :
#
#
# Convention : Reuss Voigt Hill
#
# Bulk Modulus (GPa) = 11.68322 30.78118 21.23220
# Shear Modulus (GPa) = 19.84704 35.97907 27.91306
#
# Velocity S-wave (km/s) = 2.90884 3.91649 3.44965
# Velocity P-wave (km/s) = 4.03270 5.79437 4.99186
#
# Compressibility (1/GPa) = 0.08559283
#
# Stress axis : x y z
#
# Youngs Moduli (GPa) = 89.46315 12.93251 66.86445
#
# Poissons Ratio (x) = 0.14791 0.23336
# Poissons Ratio (y) = 1.02320 -0.40082
# Poissons Ratio (z) = 0.31223 -0.07753
#
# Static dielectric constant tensor:
#      x y z
#    x 1.930930 -0.094610 -0.000240 
#    y -0.094610 1.952200 -0.038970 
#    z -0.000240 -0.038970 2.140050 
# 
# From -- ./inp_files/48561.got.cif
#   From: 2010.05.17/outbox.cif.g08.bks.cpg/sg2_25_cif.got.tgz:48561.got - 2010.06.03 11:33:40.
