data_PCOD9044994
_publ_section_title
;
Structure prediction by ZEFSAII (Michael W. Deem and Ramdas Pophale) SiO2 
 PCOD9044994
Probable space group: P -1
;
_chemical_formula_sum "Si O2"
_cell_formula_units_Z 16
_cell_length_a 13.786914
_cell_length_b 9.414822
_cell_length_c 11.960895
_cell_angle_alpha 37.203454
_cell_angle_beta 123.991690
_cell_angle_gamma 130.550504
_cell_volume 710.403119
_symmetry_space_group_name_H-M "P -1"
_symmetry_group_IT_number 2
_symmetry_cell_setting 'triclinic'
loop_
_space_group_symop_operation_xyz
x,y,z
-x,-y,-z
loop_
_atom_site_type_symbol
_atom_site_label
_atom_site_fract_x
_atom_site_fract_y
_atom_site_fract_z
Si Si1 0.694434 0.129258 0.813219
Si Si2 0.623724 0.937058 0.642554
Si Si3 0.102294 0.754785 0.958738
Si Si4 0.345810 0.405236 0.544573
Si Si5 0.709085 0.134562 0.196105
Si Si6 0.162667 0.674854 0.614710
Si Si7 0.898578 0.716213 0.376181
Si Si8 0.501702 0.650553 0.113487
O O1 0.623823 0.321793 0.664416
O O2 0.687921 0.068719 0.716794
O O3 0.833599 0.269467 0.869230
O O4 0.625289 0.853302 0.001664
O O5 0.570542 0.630287 0.810658
O O6 0.500000 0.000000 0.500000
O O7 0.730812 0.069406 0.534722
O O8 0.212728 0.838975 0.883585
O O9 0.054558 0.979741 0.801992
O O10 0.000000 0.500000 0.000000
O O11 0.216546 0.359923 0.560651
O O12 0.450420 0.406670 0.700897
O O13 0.323252 0.161107 0.605354
O O14 0.788493 0.319505 0.231285
O O15 0.592937 0.206369 0.041913
O O16 0.154076 0.442624 0.672684
O O17 0.021052 0.669821 0.525046
#
# Coordination Sequence:
#
# PCOD9044994 Si02
#       8
#     2   2   2   2   2   2   2   2
#     4  12  25  45  77 100 146 197 236 297 365 425
#     4  12  25  45  74 110 144 191 242 292 369 428
#     4  11  28  46  71 104 146 195 242 290 367 430
#     4  11  24  47  72  99 148 190 235 290 368 427
#     4  11  27  44  71 107 146 188 237 302 355 428
#     4  11  25  45  74 106 138 189 242 302 355 418
#     4  10  23  48  71  99 144 184 243 296 354 426
#     4  12  25  46  71 110 147 183 248 294 353 440
#
# _framework density 22.522424000000001
#
# number of rings (size 3 to 8) (size 9 to 14) (size 15 to 20)
#    0.000    0.750    5.000    1.500    7.000    1.500 
#    0.000    1.250    0.000    0.000    0.000    0.000 
#    0.000    0.000    0.000    0.000    0.000    0.000 
#
# Total GULP energy -89493.231418 kJ/mol
# GULP energy per Si atom -5593.326964 kJ/mol
# Density = 2.247116 g / cm^3
# Si number density = 22.522424 Si / 1000 Ang^3
#
#
#
# Elastic Constant Matrix: (Units=GPa)
#
#
# Indices 1 2 3 4 5 6 
#
# 1 84.2558 30.2286 19.9730 3.6312 20.1068 0.4126
# 2 30.2286 159.7806 51.0948 -4.6420 8.9331 -1.2297
# 3 19.9730 51.0948 91.3464 -15.3629 10.7230 0.7892
# 4 3.6312 -4.6420 -15.3629 53.2690 -8.3837 9.4602
# 5 20.1068 8.9331 10.7230 -8.3837 24.1744 2.2191
# 6 0.4126 -1.2297 0.7892 9.4602 2.2191 13.6232
#
#
#
# Elastic Compliance Matrix: (Units=1/GPa)
#
#
# Indices 1 2 3 4 5 6 
#
# 1 0.016635 -0.001870 -0.001773 -0.005049 -0.014598 0.005314
# 2 -0.001870 0.007927 -0.004155 -0.000612 0.000127 0.001417
# 3 -0.001773 -0.004155 0.014625 0.004439 -0.001571 -0.003995
# 4 -0.005049 -0.000612 0.004439 0.026081 0.013379 -0.020450
# 5 -0.014598 0.000127 -0.001571 0.013379 0.060505 -0.018602
# 6 0.005314 0.001417 -0.003995 -0.020450 -0.018602 0.090834
#
#
# Mechanical properties :
#
#
# Convention : Reuss Voigt Hill
#
# Bulk Modulus (GPa) = 42.38950 59.77503 51.08227
# Shear Modulus (GPa) = 20.82760 33.81909 27.32334
#
# Velocity S-wave (km/s) = 3.04427 3.87922 3.48683
# Velocity P-wave (km/s) = 5.58736 6.83098 6.24023
#
# Compressibility (1/GPa) = 0.02359075
#
# Stress axis : x y z
#
# Youngs Moduli (GPa) = 60.11463 126.14876 68.37754
#
# Poissons Ratio (x) = 0.23588 0.12123
# Poissons Ratio (y) = 0.11241 0.28413
# Poissons Ratio (z) = 0.10658 0.52418
#
# Static dielectric constant tensor:
#      x y z
#    x 1.859560 0.043570 -0.029280 
#    y 0.043570 1.890820 -0.052880 
#    z -0.029280 -0.052880 1.841590 
# 
# From -- ./inp_files/446707.got.cif
#   From: 2010.05.17/outbox.cif.g08.bks.cpg/sg2_224_cif.got.tgz:446707.got - 2010.06.03 11:33:40.
