data_PCOD9044045
_publ_section_title
;
Structure prediction by ZEFSAII (Michael W. Deem and Ramdas Pophale) SiO2 
 PCOD9044045
Probable space group: P -1
;
_chemical_formula_sum "Si O2"
_cell_formula_units_Z 10
_cell_length_a 5.142400
_cell_length_b 10.734283
_cell_length_c 13.211157
_cell_angle_alpha 148.891998
_cell_angle_beta 85.780817
_cell_angle_gamma 85.372520
_cell_volume 360.848578
_symmetry_space_group_name_H-M "P -1"
_symmetry_group_IT_number 2
_symmetry_cell_setting 'triclinic'
loop_
_space_group_symop_operation_xyz
x,y,z
-x,-y,-z
loop_
_atom_site_type_symbol
_atom_site_label
_atom_site_fract_x
_atom_site_fract_y
_atom_site_fract_z
Si Si1 0.583423 0.655504 0.197891
Si Si2 0.407408 0.099249 0.363330
Si Si3 0.300811 0.083680 0.970268
Si Si4 0.050632 0.729886 0.365259
Si Si5 0.877055 0.404036 0.339275
O O1 0.874714 0.595604 0.202771
O O2 0.371304 0.626551 0.269846
O O3 0.539571 0.929632 0.336937
O O4 0.500000 0.500000 0.000000
O O5 0.088143 0.174413 0.455453
O O6 0.402204 0.386396 0.536049
O O7 0.522328 0.934611 0.148120
O O8 0.155594 0.863649 0.813369
O O9 0.080052 0.335960 0.188519
O O10 0.500000 0.000000 0.000000
O O11 0.000000 0.000000 0.500000
O O12 0.000000 0.500000 0.500000
#
# Coordination Sequence:
#
# PCOD9044045 Si02
#       5
#     2   2   2   2   2
#     4  11  25  46  71 109 144 182 247 298 351 439
#     4  11  24  43  74  98 142 194 223 298 370 408
#     4  11  25  46  66 105 138 183 241 290 349 432
#     4  10  23  46  69 102 142 185 237 295 354 429
#     4  11  25  45  70 100 144 180 241 295 347 429
#
# _framework density 27.712454999999999
#
# number of rings (size 3 to 8) (size 9 to 14) (size 15 to 20)
#    0.000    1.200    2.000    3.600    2.800    6.400 
#    0.000    0.000    0.000    0.000    0.000    0.000 
#    0.000    0.000    0.000    0.000    0.000    0.000 
#
# Total GULP energy -55885.932731 kJ/mol
# GULP energy per Si atom -5588.593273 kJ/mol
# Density = 2.764938 g / cm^3
# Si number density = 27.712455 Si / 1000 Ang^3
#
#
#
# Elastic Constant Matrix: (Units=GPa)
#
#
# Indices 1 2 3 4 5 6 
#
# 1 123.9503 41.1546 64.2376 -26.6519 24.7166 -11.9178
# 2 41.1546 162.7630 62.3258 -49.6289 -14.7339 -15.6799
# 3 64.2376 62.3258 199.0824 -23.6950 -5.1410 -3.9124
# 4 -26.6519 -49.6289 -23.6950 59.7875 -1.8741 -17.6730
# 5 24.7166 -14.7339 -5.1410 -1.8741 56.9054 -8.1867
# 6 -11.9178 -15.6799 -3.9124 -17.6730 -8.1867 58.1336
#
#
#
# Elastic Compliance Matrix: (Units=1/GPa)
#
#
# Indices 1 2 3 4 5 6 
#
# 1 0.012224 -0.000841 -0.003289 0.004029 -0.005327 0.002532
# 2 -0.000841 0.011173 -0.001768 0.010243 0.004364 0.006451
# 3 -0.003289 -0.001768 0.006608 -0.000458 0.001461 -0.000640
# 4 0.004029 0.010243 -0.000458 0.030955 0.003823 0.013507
# 5 -0.005327 0.004364 0.001461 0.003823 0.021912 0.004431
# 6 0.002532 0.006451 -0.000640 0.013507 0.004431 0.024148
#
#
# Mechanical properties :
#
#
# Convention : Reuss Voigt Hill
#
# Bulk Modulus (GPa) = 54.91835 91.24798 73.08317
# Shear Modulus (GPa) = 40.03632 56.17047 48.10339
#
# Velocity S-wave (km/s) = 3.80505 4.50700 4.17082
# Velocity P-wave (km/s) = 6.25818 7.75127 7.04440
#
# Compressibility (1/GPa) = 0.01820885
#
# Stress axis : x y z
#
# Youngs Moduli (GPa) = 81.80834 89.50000 151.32087
#
# Poissons Ratio (x) = 0.07528 0.49772
# Poissons Ratio (y) = 0.06881 0.26753
# Poissons Ratio (z) = 0.26908 0.15824
#
# Static dielectric constant tensor:
#      x y z
#    x 2.653360 0.565340 0.349670 
#    y 0.565340 2.974240 0.424780 
#    z 0.349670 0.424780 2.475870 
# 
# From -- ./inp_files/247146.got.cif
#   From: 2010.05.17/outbox.cif.g08.bks.cpg/sg2_124_cif.got.tgz:247146.got - 2010.06.03 11:33:40.
