data_PCOD9044030
_publ_section_title
;
Structure prediction by ZEFSAII (Michael W. Deem and Ramdas Pophale) SiO2 
 PCOD9044030
Probable space group: P -1
;
_chemical_formula_sum "Si O2"
_cell_formula_units_Z 16
_cell_length_a 7.524247
_cell_length_b 6.441887
_cell_length_c 17.616768
_cell_angle_alpha 75.443414
_cell_angle_beta 64.175125
_cell_angle_gamma 66.787934
_cell_volume 703.114092
_symmetry_space_group_name_H-M "P -1"
_symmetry_group_IT_number 2
_symmetry_cell_setting 'triclinic'
loop_
_space_group_symop_operation_xyz
x,y,z
-x,-y,-z
loop_
_atom_site_type_symbol
_atom_site_label
_atom_site_fract_x
_atom_site_fract_y
_atom_site_fract_z
Si Si1 0.628405 0.155149 0.582759
Si Si2 0.021736 0.261783 0.054418
Si Si3 0.337088 0.598061 0.593013
Si Si4 0.292005 0.837314 0.989009
Si Si5 0.781456 0.621354 0.572670
Si Si6 0.017201 0.224975 0.234732
Si Si7 0.666426 0.513216 0.857718
Si Si8 0.723589 0.276449 0.723630
O O1 0.389749 0.325436 0.598046
O O2 0.733849 0.256075 0.484211
O O3 0.650265 0.192035 0.665712
O O4 0.720274 0.887745 0.576572
O O5 0.862289 0.160955 0.051538
O O6 0.971121 0.276197 0.150412
O O7 0.000000 0.500000 0.000000
O O8 0.249407 0.086849 0.007011
O O9 0.563616 0.613832 0.575361
O O10 0.178308 0.693112 0.680915
O O11 0.509998 0.703008 0.922532
O O12 0.245411 0.693238 0.080701
O O13 0.811996 0.465371 0.655664
O O14 0.000000 0.500000 0.500000
O O15 0.170687 0.367570 0.211305
O O16 0.122176 0.955077 0.249718
O O17 0.584658 0.409726 0.808672
#
# Coordination Sequence:
#
# PCOD9044030 Si02
#       8
#     2   2   2   2   2   2   2   2
#     4  10  23  46  69 100 137 187 224 277 343 403
#     4  11  23  45  71  99 135 182 222 288 349 409
#     4  10  25  43  70 103 141 178 228 284 336 412
#     4  10  24  45  69  97 134 177 235 281 342 410
#     4  11  24  45  73 100 135 185 231 280 340 404
#     4  12  25  44  68 103 141 179 229 285 349 402
#     4  11  24  44  69  99 135 182 228 286 338 407
#     4  11  25  42  66 102 141 180 230 287 330 410
#
# _framework density 22.755908000000002
#
# number of rings (size 3 to 8) (size 9 to 14) (size 15 to 20)
#    0.000    1.250    2.500    1.875    3.500   11.000 
#    2.250    0.000    0.000    0.000    0.000    0.000 
#    0.000    0.000    0.000    0.000    0.000    0.000 
#
# Total GULP energy -89146.311703 kJ/mol
# GULP energy per Si atom -5571.644481 kJ/mol
# Density = 2.270411 g / cm^3
# Si number density = 22.755908 Si / 1000 Ang^3
#
#
#
# Elastic Constant Matrix: (Units=GPa)
#
#
# Indices 1 2 3 4 5 6 
#
# 1 52.5068 22.3811 28.7480 3.2650 2.6640 4.8754
# 2 22.3811 194.2491 65.2784 2.1288 -3.8365 -7.3164
# 3 28.7480 65.2784 147.7203 2.2216 18.2796 3.9050
# 4 3.2650 2.1288 2.2216 43.3806 -4.7428 11.2011
# 5 2.6640 -3.8365 18.2796 -4.7428 28.9989 5.9224
# 6 4.8754 -7.3164 3.9050 11.2011 5.9224 19.6541
#
#
#
# Elastic Compliance Matrix: (Units=1/GPa)
#
#
# Indices 1 2 3 4 5 6 
#
# 1 0.022156 -0.001525 -0.003648 0.000254 0.001304 -0.005877
# 2 -0.001525 0.006458 -0.002887 -0.000623 0.002083 0.003083
# 3 -0.003648 -0.002887 0.009534 -0.000831 -0.006252 0.000294
# 4 0.000254 -0.000623 -0.000831 0.029143 0.009168 -0.019501
# 5 0.001304 0.002083 -0.006252 0.009168 0.043477 -0.016632
# 6 -0.005877 0.003083 0.000294 -0.019501 -0.016632 0.069553
#
#
# Mechanical properties :
#
#
# Convention : Reuss Voigt Hill
#
# Bulk Modulus (GPa) = 45.39654 69.69904 57.54779
# Shear Modulus (GPa) = 24.53584 36.94462 30.74023
#
# Velocity S-wave (km/s) = 3.28719 4.03366 3.67940
# Velocity P-wave (km/s) = 5.86516 7.23805 6.58747
#
# Compressibility (1/GPa) = 0.02202811
#
# Stress axis : x y z
#
# Youngs Moduli (GPa) = 45.13420 154.84633 104.89271
#
# Poissons Ratio (x) = 0.23620 0.38260
# Poissons Ratio (y) = 0.06885 0.30281
# Poissons Ratio (z) = 0.16463 0.44702
#
# Static dielectric constant tensor:
#      x y z
#    x 2.000730 -0.010760 0.012330 
#    y -0.010760 1.946370 0.045660 
#    z 0.012330 0.045660 1.857780 
# 
# From -- ./inp_files/553343.got.cif
#   From: 2010.05.17/outbox.cif.g08.bks.cpg/sg2_277_cif.got.tgz:553343.got - 2010.06.03 11:33:40.
