data_PCOD9044255
_publ_section_title
;
Structure prediction by ZEFSAII (Michael W. Deem and Ramdas Pophale) SiO2 
 PCOD9044255
Probable space group: P -1
;
_chemical_formula_sum "Si O2"
_cell_formula_units_Z 12
_cell_length_a 16.922592
_cell_length_b 5.144795
_cell_length_c 12.015269
_cell_angle_alpha 112.750062
_cell_angle_beta 145.475678
_cell_angle_gamma 54.358738
_cell_volume 471.815503
_symmetry_space_group_name_H-M "P -1"
_symmetry_group_IT_number 2
_symmetry_cell_setting 'triclinic'
loop_
_space_group_symop_operation_xyz
x,y,z
-x,-y,-z
loop_
_atom_site_type_symbol
_atom_site_label
_atom_site_fract_x
_atom_site_fract_y
_atom_site_fract_z
Si Si1 0.770329 0.991199 0.469858
Si Si2 0.070889 0.754062 0.936846
Si Si3 0.318623 0.295812 0.854342
Si Si4 0.438351 0.859969 0.539932
Si Si5 0.814625 0.094643 0.297924
Si Si6 0.735516 0.926101 0.840961
O O1 0.771712 0.683277 0.363914
O O2 0.625975 0.146539 0.414664
O O3 0.749800 0.189517 0.365941
O O4 0.932767 0.880874 0.705519
O O5 0.127611 0.400363 0.995692
O O6 0.215739 0.796943 0.061880
O O7 0.000000 0.000000 0.000000
O O8 0.291784 0.652066 0.879394
O O9 0.217653 0.208972 0.807583
O O10 0.500000 0.000000 0.000000
O O11 0.500000 0.500000 0.500000
O O12 0.571323 0.969570 0.710469
O O13 0.295755 0.110837 0.333248
O O14 0.000000 0.000000 0.500000
#
# Coordination Sequence:
#
# PCOD9044255 Si02
#       6
#     2   2   2   2   2   2
#     4  10  26  40  71  97 135 178 224 268 341 392
#     4  12  23  41  63  95 133 178 221 265 322 393
#     4  10  23  46  71  99 130 173 224 285 341 398
#     4  11  22  45  63  96 139 183 223 271 319 392
#     4  10  23  46  72  97 135 171 220 287 343 397
#     4  11  24  39  62  88 135 178 218 269 315 377
#
# _framework density 25.433668999999998
#
# number of rings (size 3 to 8) (size 9 to 14) (size 15 to 20)
#    1.000    0.333    3.333    1.500    2.333    2.667 
#    6.000    0.000    0.000    0.000    0.000    0.000 
#    0.000    0.000    0.000    0.000    0.000    0.000 
#
# Total GULP energy -67029.583745 kJ/mol
# GULP energy per Si atom -5585.798645 kJ/mol
# Density = 2.537578 g / cm^3
# Si number density = 25.433669 Si / 1000 Ang^3
#
#
#
# Elastic Constant Matrix: (Units=GPa)
#
#
# Indices 1 2 3 4 5 6 
#
# 1 179.9787 44.1830 18.3861 -7.4067 7.7910 21.8085
# 2 44.1830 62.3743 8.4513 -25.1908 -12.6218 29.2574
# 3 18.3861 8.4513 102.8335 2.5778 7.8563 11.7117
# 4 -7.4067 -25.1908 2.5778 35.9417 2.0181 -11.7391
# 5 7.7910 -12.6218 7.8563 2.0181 46.7398 1.8123
# 6 21.8085 29.2574 11.7117 -11.7391 1.8123 52.2529
#
#
#
# Elastic Compliance Matrix: (Units=1/GPa)
#
#
# Indices 1 2 3 4 5 6 
#
# 1 0.007322 -0.007258 -0.000460 -0.003217 -0.002983 0.000492
# 2 -0.007258 0.038553 -0.001672 0.020425 0.011563 -0.013995
# 3 -0.000460 -0.001672 0.010344 -0.002446 -0.001943 -0.001672
# 4 -0.003217 0.020425 -0.002446 0.041242 0.004699 -0.000443
# 5 -0.002983 0.011563 -0.001943 0.004699 0.025317 -0.004616
# 6 0.000492 -0.013995 -0.001672 -0.000443 -0.004616 0.027204
#
#
# Mechanical properties :
#
#
# Convention : Reuss Voigt Hill
#
# Bulk Modulus (GPa) = 26.70992 54.13636 40.42314
# Shear Modulus (GPa) = 27.58724 45.26464 36.42594
#
# Velocity S-wave (km/s) = 3.29701 4.22324 3.78854
# Velocity P-wave (km/s) = 5.00183 6.71659 5.92161
#
# Compressibility (1/GPa) = 0.03743928
#
# Stress axis : x y z
#
# Youngs Moduli (GPa) = 136.57286 25.93824 96.67080
#
# Poissons Ratio (x) = 0.18825 0.04448
# Poissons Ratio (y) = 0.99121 0.16166
# Poissons Ratio (z) = 0.06284 0.04338
#
# Static dielectric constant tensor:
#      x y z
#    x 2.063020 0.067800 -0.061180 
#    y 0.067800 2.202960 0.035000 
#    z -0.061180 0.035000 2.166070 
# 
# From -- ./inp_files/458701.got.cif
#   From: 2010.05.17/outbox.cif.g08.bks.cpg/sg2_230_cif.got.tgz:458701.got - 2010.06.03 11:33:40.
