data_PCOD9044762
_publ_section_title
;
Structure prediction by ZEFSAII (Michael W. Deem and Ramdas Pophale) SiO2 
 PCOD9044762
Probable space group: P -1
;
_chemical_formula_sum "Si O2"
_cell_formula_units_Z 16
_cell_length_a 8.678992
_cell_length_b 18.141406
_cell_length_c 11.364336
_cell_angle_alpha 127.972602
_cell_angle_beta 29.376122
_cell_angle_gamma 124.067459
_cell_volume 690.582636
_symmetry_space_group_name_H-M "P -1"
_symmetry_group_IT_number 2
_symmetry_cell_setting 'triclinic'
loop_
_space_group_symop_operation_xyz
x,y,z
-x,-y,-z
loop_
_atom_site_type_symbol
_atom_site_label
_atom_site_fract_x
_atom_site_fract_y
_atom_site_fract_z
Si Si1 0.294974 0.912533 0.360451
Si Si2 0.142456 0.378575 0.383320
Si Si3 0.576953 0.905174 0.789481
Si Si4 0.815848 0.404791 0.384427
Si Si5 0.351884 0.772530 0.399632
Si Si6 0.413402 0.771759 0.962872
Si Si7 0.259022 0.926166 0.777472
Si Si8 0.174330 0.313101 0.843888
O O1 0.331003 0.837530 0.365218
O O2 0.950833 0.917334 0.541233
O O3 0.425672 0.013879 0.416529
O O4 0.480154 0.866453 0.086266
O O5 0.205489 0.483294 0.489990
O O6 0.411013 0.311585 0.177231
O O7 0.069898 0.382782 0.296068
O O8 0.825780 0.327968 0.599911
O O9 0.524595 0.807085 0.796061
O O10 0.354682 0.902024 0.821369
O O11 0.500000 0.000000 0.000000
O O12 0.478822 0.361111 0.618263
O O13 0.953572 0.373763 0.135772
O O14 0.173038 0.830892 0.673973
O O15 0.681796 0.757642 0.227333
O O16 0.050509 0.738607 0.153080
O O17 0.000000 0.000000 0.000000
#
# Coordination Sequence:
#
# PCOD9044762 Si02
#       8
#     2   2   2   2   2   2   2   2
#     4  12  25  45  68  98 140 186 235 285 357 415
#     4  10  23  47  73 102 140 183 237 288 365 428
#     4  12  26  45  66  96 142 186 235 285 356 416
#     4  10  25  49  74 104 144 187 232 302 363 431
#     4  11  24  43  72 103 135 188 239 296 345 432
#     4  12  26  43  71 104 138 188 230 296 347 434
#     4  12  26  43  68 100 141 186 239 292 352 411
#     4  11  27  44  74 108 142 185 238 297 362 425
#
# _framework density 23.168842000000001
#
# number of rings (size 3 to 8) (size 9 to 14) (size 15 to 20)
#    0.000    0.750    2.500    3.750    8.750    6.500 
#    0.000    0.000    0.000    0.000    0.000    0.000 
#    0.000    0.000    0.000    0.000    0.000    0.000 
#
# Total GULP energy -89387.471057 kJ/mol
# GULP energy per Si atom -5586.716941 kJ/mol
# Density = 2.311611 g / cm^3
# Si number density = 23.168842 Si / 1000 Ang^3
#
#
#
# Elastic Constant Matrix: (Units=GPa)
#
#
# Indices 1 2 3 4 5 6 
#
# 1 96.3033 33.3301 30.3975 -5.6485 -18.5396 -6.6119
# 2 33.3301 115.0453 34.4846 8.7981 -5.4866 -5.8531
# 3 30.3975 34.4846 82.3433 1.9426 -13.1598 2.0326
# 4 -5.6485 8.7981 1.9426 26.3416 -0.0061 -8.0041
# 5 -18.5396 -5.4866 -13.1598 -0.0061 43.6715 -0.7154
# 6 -6.6119 -5.8531 2.0326 -8.0041 -0.7154 36.8756
#
#
#
# Elastic Compliance Matrix: (Units=1/GPa)
#
#
# Indices 1 2 3 4 5 6 
#
# 1 0.013919 -0.003042 -0.003342 0.005292 0.004577 0.003435
# 2 -0.003042 0.010906 -0.003521 -0.003878 -0.000975 0.000519
# 3 -0.003342 -0.003521 0.015377 -0.001357 0.002735 -0.002247
# 4 0.005292 -0.003878 -0.001357 0.043495 0.001518 0.009878
# 5 0.004577 -0.000975 0.002735 0.001518 0.025565 0.001341
# 6 0.003435 0.000519 -0.002247 0.009878 0.001341 0.030110
#
#
# Mechanical properties :
#
#
# Convention : Reuss Voigt Hill
#
# Bulk Modulus (GPa) = 49.04301 54.45738 51.75019
# Shear Modulus (GPa) = 30.12396 34.40972 32.26684
#
# Velocity S-wave (km/s) = 3.60973 3.85797 3.73591
# Velocity P-wave (km/s) = 6.21186 6.58794 6.40266
#
# Compressibility (1/GPa) = 0.02039027
#
# Stress axis : x y z
#
# Youngs Moduli (GPa) = 71.84397 91.69629 65.03047
#
# Poissons Ratio (x) = 0.27897 0.21736
# Poissons Ratio (y) = 0.21858 0.22898
# Poissons Ratio (z) = 0.24013 0.32287
#
# Static dielectric constant tensor:
#      x y z
#    x 2.302000 -0.010220 -0.118450 
#    y -0.010220 1.873860 -0.051450 
#    z -0.118450 -0.051450 1.990640 
# 
# From -- ./inp_files/37276.got.cif
#   From: 2010.05.17/outbox.cif.g08.bks.cpg/sg2_19_cif.got.tgz:37276.got - 2010.06.03 11:33:40.
