data_PCOD9044268
_publ_section_title
;
Structure prediction by ZEFSAII (Michael W. Deem and Ramdas Pophale) SiO2 
 PCOD9044268
Probable space group: P -1
;
_chemical_formula_sum "Si O2"
_cell_formula_units_Z 16
_cell_length_a 10.793298
_cell_length_b 23.106547
_cell_length_c 5.691117
_cell_angle_alpha 51.480681
_cell_angle_beta 59.639495
_cell_angle_gamma 35.322477
_cell_volume 642.049130
_symmetry_space_group_name_H-M "P -1"
_symmetry_group_IT_number 2
_symmetry_cell_setting 'triclinic'
loop_
_space_group_symop_operation_xyz
x,y,z
-x,-y,-z
loop_
_atom_site_type_symbol
_atom_site_label
_atom_site_fract_x
_atom_site_fract_y
_atom_site_fract_z
Si Si1 0.987165 0.575411 0.495450
Si Si2 0.682865 0.284579 0.635588
Si Si3 0.307461 0.482431 0.799297
Si Si4 0.942026 0.314712 0.163699
Si Si5 0.548037 0.894273 0.734201
Si Si6 0.615988 0.034538 0.784580
Si Si7 0.078681 0.887524 0.767161
Si Si8 0.540384 0.700697 0.566122
O O1 0.732090 0.680706 0.506054
O O2 0.000000 0.500000 0.500000
O O3 0.131789 0.506126 0.756120
O O4 0.073824 0.619204 0.195096
O O5 0.524762 0.397422 0.654465
O O6 0.812729 0.287823 0.323564
O O7 0.519129 0.287148 0.678014
O O8 0.862783 0.169484 0.892123
O O9 0.176584 0.602943 0.708058
O O10 0.376682 0.410691 0.143208
O O11 0.195229 0.211160 0.230035
O O12 0.461944 0.897370 0.556554
O O13 0.500000 0.000000 0.500000
O O14 0.434348 0.910713 0.045957
O O15 0.869212 0.922837 0.798605
O O16 0.500000 0.000000 0.000000
O O17 0.311228 0.798022 0.655125
O O18 0.000000 0.000000 0.500000
#
# Coordination Sequence:
#
# PCOD9044268 Si02
#       8
#     2   2   2   2   2   2   2   2
#     4  12  25  47  71 104 145 191 241 300 367 452
#     4  11  25  48  70 108 147 184 246 303 377 444
#     4  11  24  46  74 104 145 186 250 298 377 438
#     4  12  27  41  78 106 144 194 241 312 368 445
#     4  10  24  44  71 106 146 190 247 304 368 438
#     4  10  23  46  72 102 144 192 247 305 363 441
#     4  11  28  46  73 103 145 193 242 307 370 445
#     4  11  26  46  73 102 146 193 238 304 370 445
#
# _framework density 24.920210000000001
#
# number of rings (size 3 to 8) (size 9 to 14) (size 15 to 20)
#    0.000    1.000    2.500    2.250    8.750    5.500 
#    0.000    0.000    0.000    0.000    0.000    0.000 
#    0.000    0.000    0.000    0.000    0.000    0.000 
#
# Total GULP energy -89316.711414 kJ/mol
# GULP energy per Si atom -5582.294463 kJ/mol
# Density = 2.486349 g / cm^3
# Si number density = 24.920210 Si / 1000 Ang^3
#
#
#
# Elastic Constant Matrix: (Units=GPa)
#
#
# Indices 1 2 3 4 5 6 
#
# 1 82.0191 30.8841 39.1431 -1.0255 9.8625 -30.4179
# 2 30.8841 141.1636 54.5417 -17.7796 1.9928 -25.9154
# 3 39.1431 54.5417 92.8840 1.3083 5.4403 -16.8627
# 4 -1.0255 -17.7796 1.3083 45.5090 -11.3721 0.1832
# 5 9.8625 1.9928 5.4403 -11.3721 44.9100 4.1296
# 6 -30.4179 -25.9154 -16.8627 0.1832 4.1296 45.6095
#
#
#
# Elastic Compliance Matrix: (Units=1/GPa)
#
#
# Indices 1 2 3 4 5 6 
#
# 1 0.019897 0.000096 -0.006056 -0.000599 -0.004852 0.011527
# 2 0.000096 0.010494 -0.005626 0.004493 0.000979 0.003840
# 3 -0.006056 -0.005626 0.016548 -0.003084 -0.001114 -0.001004
# 4 -0.000599 0.004493 -0.003084 0.025485 0.006731 0.000301
# 5 -0.004852 0.000979 -0.001114 0.006731 0.025628 -0.005439
# 6 0.011527 0.003840 -0.001004 0.000301 -0.005439 0.031915
#
#
# Mechanical properties :
#
#
# Convention : Reuss Voigt Hill
#
# Bulk Modulus (GPa) = 42.07506 62.80048 52.43777
# Shear Modulus (GPa) = 31.04399 39.97220 35.50809
#
# Velocity S-wave (km/s) = 3.53333 4.00935 3.77884
# Velocity P-wave (km/s) = 5.79365 6.83290 6.33463
#
# Compressibility (1/GPa) = 0.02376705
#
# Stress axis : x y z
#
# Youngs Moduli (GPa) = 50.25798 95.29573 60.42944
#
# Poissons Ratio (x) = -0.00915 0.36597
# Poissons Ratio (y) = -0.00483 0.33997
# Poissons Ratio (z) = 0.30437 0.53612
#
# Static dielectric constant tensor:
#      x y z
#    x 2.092650 0.117700 0.018800 
#    y 0.117700 2.115880 0.098740 
#    z 0.018800 0.098740 2.070780 
# 
# From -- ./inp_files/84971.got.cif
#   From: 2010.05.17/outbox.cif.g08.bks.cpg/sg2_43_cif.got.tgz:84971.got - 2010.06.03 11:33:40.
