data_PCOD9044943
_publ_section_title
;
Structure prediction by ZEFSAII (Michael W. Deem and Ramdas Pophale) SiO2 
 PCOD9044943
Probable space group: P -1
;
_chemical_formula_sum "Si O2"
_cell_formula_units_Z 16
_cell_length_a 5.442522
_cell_length_b 9.412507
_cell_length_c 14.527777
_cell_angle_alpha 89.552538
_cell_angle_beta 110.133961
_cell_angle_gamma 89.422115
_cell_volume 698.660383
_symmetry_space_group_name_H-M "P -1"
_symmetry_group_IT_number 2
_symmetry_cell_setting 'triclinic'
loop_
_space_group_symop_operation_xyz
x,y,z
-x,-y,-z
loop_
_atom_site_type_symbol
_atom_site_label
_atom_site_fract_x
_atom_site_fract_y
_atom_site_fract_z
Si Si1 0.675257 0.640533 0.906107
Si Si2 0.309613 0.025522 0.062510
Si Si3 0.157659 0.481159 0.873123
Si Si4 0.471679 0.908875 0.589304
Si Si5 0.161452 0.641173 0.302479
Si Si6 0.709208 0.610985 0.563889
Si Si7 0.990818 0.790583 0.452690
Si Si8 0.504244 0.129396 0.732367
O O1 0.671832 0.810917 0.902257
O O2 0.384648 0.577290 0.859016
O O3 0.893404 0.569998 0.867016
O O4 0.752866 0.590620 0.019586
O O5 0.429151 0.920403 0.156571
O O6 0.500000 0.000000 0.000000
O O7 0.000000 0.000000 0.000000
O O8 0.092091 0.354492 0.794476
O O9 0.599265 0.754463 0.593907
O O10 0.160396 0.875863 0.548000
O O11 0.500000 0.000000 0.500000
O O12 0.615411 0.996365 0.686582
O O13 0.156382 0.480596 0.338440
O O14 0.381434 0.714302 0.269718
O O15 0.176736 0.730635 0.397247
O O16 0.500000 0.500000 0.500000
O O17 0.871365 0.662690 0.496573
O O18 0.770687 0.861457 0.358702
#
# Coordination Sequence:
#
# PCOD9044943 Si02
#       8
#     2   2   2   2   2   2   2   2
#     4  10  23  48  69 106 144 182 242 309 373 426
#     4  12  29  51  79 110 151 195 251 317 373 453
#     4  10  24  43  75 102 142 188 238 307 369 438
#     4  12  24  46  67 105 149 191 242 306 359 451
#     4  12  26  43  72 104 142 193 246 299 363 450
#     4  12  24  44  67 102 144 186 238 300 358 432
#     4  12  24  44  72 100 149 195 242 298 375 433
#     4  12  28  45  75 104 144 197 246 297 385 442
#
# _framework density 22.900970000000001
#
# number of rings (size 3 to 8) (size 9 to 14) (size 15 to 20)
#    0.000    0.500    5.000    2.250    7.000    2.000 
#    0.000    0.000    0.000    0.000    0.000    0.000 
#    0.000    0.000    0.000    0.000    0.000    0.000 
#
# Total GULP energy -89238.521166 kJ/mol
# GULP energy per Si atom -5577.407573 kJ/mol
# Density = 2.284885 g / cm^3
# Si number density = 22.900970 Si / 1000 Ang^3
#
#
#
# Elastic Constant Matrix: (Units=GPa)
#
#
# Indices 1 2 3 4 5 6 
#
# 1 92.7410 25.5190 32.1945 -14.4387 2.5058 20.9474
# 2 25.5190 89.1934 22.7028 -17.5672 3.7499 11.1502
# 3 32.1945 22.7028 131.1482 -11.9569 -7.3362 15.1860
# 4 -14.4387 -17.5672 -11.9569 42.5216 8.5434 5.8799
# 5 2.5058 3.7499 -7.3362 8.5434 24.9567 2.7881
# 6 20.9474 11.1502 15.1860 5.8799 2.7881 40.0982
#
#
#
# Elastic Compliance Matrix: (Units=1/GPa)
#
#
# Indices 1 2 3 4 5 6 
#
# 1 0.014382 -0.001583 -0.002158 0.005134 -0.002837 -0.006811
# 2 -0.001583 0.013735 -0.001306 0.006001 -0.003997 -0.003099
# 3 -0.002158 -0.001306 0.008889 0.000941 0.002952 -0.002219
# 4 0.005134 0.006001 0.000941 0.031382 -0.010929 -0.008549
# 5 -0.002837 -0.003997 0.002952 -0.010929 0.045574 -0.000091
# 6 -0.006811 -0.003099 -0.002219 -0.008549 -0.000091 0.031459
#
#
# Mechanical properties :
#
#
# Convention : Reuss Voigt Hill
#
# Bulk Modulus (GPa) = 37.16245 52.65722 44.90983
# Shear Modulus (GPa) = 30.39757 37.02639 33.71198
#
# Velocity S-wave (km/s) = 3.64723 4.02531 3.84093
# Velocity P-wave (km/s) = 5.83087 6.68188 6.27083
#
# Compressibility (1/GPa) = 0.02690888
#
# Stress axis : x y z
#
# Youngs Moduli (GPa) = 69.53056 72.80918 112.50193
#
# Poissons Ratio (x) = 0.11529 0.24282
# Poissons Ratio (y) = 0.11010 0.14698
# Poissons Ratio (z) = 0.15007 0.09512
#
# Static dielectric constant tensor:
#      x y z
#    x 1.981370 -0.114390 0.030200 
#    y -0.114390 2.036370 0.011030 
#    z 0.030200 0.011030 1.776200 
# 
# From -- ./inp_files/46321.got.cif
#   From: 2010.05.17/outbox.cif.g08.bks.cpg/sg2_24_cif.got.tgz:46321.got - 2010.06.03 11:33:40.
