data_PCOD9044344
_publ_section_title
;
Structure prediction by ZEFSAII (Michael W. Deem and Ramdas Pophale) SiO2 
 PCOD9044344
Probable space group: P -1
;
_chemical_formula_sum "Si O2"
_cell_formula_units_Z 14
_cell_length_a 11.545417
_cell_length_b 8.781214
_cell_length_c 9.447439
_cell_angle_alpha 44.455205
_cell_angle_beta 101.762242
_cell_angle_gamma 120.941447
_cell_volume 553.712445
_symmetry_space_group_name_H-M "P -1"
_symmetry_group_IT_number 2
_symmetry_cell_setting 'triclinic'
loop_
_space_group_symop_operation_xyz
x,y,z
-x,-y,-z
loop_
_atom_site_type_symbol
_atom_site_label
_atom_site_fract_x
_atom_site_fract_y
_atom_site_fract_z
Si Si1 0.660326 0.301444 0.413715
Si Si2 0.395578 0.290641 0.441937
Si Si3 0.361641 0.215713 0.180356
Si Si4 0.225612 0.721130 0.836100
Si Si5 0.129342 0.959540 0.044054
Si Si6 0.784058 0.671686 0.425392
Si Si7 0.934850 0.569762 0.742015
O O1 0.550648 0.384981 0.365666
O O2 0.722412 0.366992 0.227891
O O3 0.777531 0.467903 0.448658
O O4 0.601632 0.003938 0.633710
O O5 0.310530 0.235250 0.310701
O O6 0.355576 0.442697 0.436956
O O7 0.344013 0.019493 0.684278
O O8 0.243059 0.097252 0.107611
O O9 0.500000 0.500000 0.000000
O O10 0.086314 0.707778 0.757981
O O11 0.179402 0.557609 0.075630
O O12 0.081564 0.666268 0.199168
O O13 0.195772 0.100121 0.818199
O O14 0.000000 0.000000 0.000000
O O15 0.907486 0.744835 0.517068
#
# Coordination Sequence:
#
# PCOD9044344 Si02
#       7
#     2   2   2   2   2   2   2
#     4  11  24  46  77 104 147 195 243 303 365 439
#     4  11  25  45  73 108 146 193 246 299 362 441
#     4  11  25  47  73 107 145 196 248 300 369 437
#     4  10  23  46  73 103 147 191 248 291 367 431
#     4  12  27  46  73 111 149 191 249 302 368 444
#     4  12  26  45  73 109 150 184 248 296 372 430
#     4  11  25  47  73 107 146 197 234 310 361 431
#
# _framework density 25.283881000000001
#
# number of rings (size 3 to 8) (size 9 to 14) (size 15 to 20)
#    0.000    0.857    2.857    3.857    4.000    8.571 
#    0.000    2.143    0.000    0.000    0.000    0.000 
#    0.000    0.000    0.000    0.000    0.000    0.000 
#
# Total GULP energy -78289.852925 kJ/mol
# GULP energy per Si atom -5592.132352 kJ/mol
# Density = 2.522633 g / cm^3
# Si number density = 25.283881 Si / 1000 Ang^3
#
#
#
# Elastic Constant Matrix: (Units=GPa)
#
#
# Indices 1 2 3 4 5 6 
#
# 1 120.7174 27.6190 40.0137 25.6409 -7.1136 -13.2405
# 2 27.6190 80.6920 19.5355 23.1508 4.0907 -15.6939
# 3 40.0137 19.5355 87.5848 27.1860 -0.9610 -0.7763
# 4 25.6409 23.1508 27.1860 54.1714 -0.3604 -2.1248
# 5 -7.1136 4.0907 -0.9610 -0.3604 46.6495 12.8935
# 6 -13.2405 -15.6939 -0.7763 -2.1248 12.8935 45.4678
#
#
#
# Elastic Compliance Matrix: (Units=1/GPa)
#
#
# Indices 1 2 3 4 5 6 
#
# 1 0.010714 -0.001749 -0.003742 -0.002359 0.001133 0.002021
# 2 -0.001749 0.016054 -0.001134 -0.005262 -0.003316 0.005707
# 3 -0.003742 -0.001134 0.015028 -0.005345 0.000222 -0.001537
# 4 -0.002359 -0.005262 -0.005345 0.024448 0.000631 -0.001631
# 5 0.001133 -0.003316 0.000222 0.000631 0.024007 -0.007589
# 6 0.002021 0.005707 -0.001537 -0.001631 -0.007589 0.026601
#
#
# Mechanical properties :
#
#
# Convention : Reuss Voigt Hill
#
# Bulk Modulus (GPa) = 35.03222 51.48119 43.25670
# Shear Modulus (GPa) = 35.81236 42.71279 39.26258
#
# Velocity S-wave (km/s) = 3.76761 4.11460 3.94492
# Velocity P-wave (km/s) = 5.72819 6.55582 6.15593
#
# Compressibility (1/GPa) = 0.02854515
#
# Stress axis : x y z
#
# Youngs Moduli (GPa) = 93.33805 62.29097 66.54324
#
# Poissons Ratio (x) = 0.10893 0.24901
# Poissons Ratio (y) = 0.16322 0.07548
# Poissons Ratio (z) = 0.34927 0.07066
#
# Static dielectric constant tensor:
#      x y z
#    x 2.047860 0.012910 0.019100 
#    y 0.012910 2.077030 -0.005010 
#    z 0.019100 -0.005010 2.012410 
# 
# From -- ./inp_files/242198.got.cif
#   From: 2010.05.17/outbox.cif.g08.bks.cpg/sg2_122_cif.got.tgz:242198.got - 2010.06.03 11:33:40.
