data_PCOD9044622
_publ_section_title
;
Structure prediction by ZEFSAII (Michael W. Deem and Ramdas Pophale) SiO2 
 PCOD9044622
Probable space group: P -1
;
_chemical_formula_sum "Si O2"
_cell_formula_units_Z 16
_cell_length_a 9.106050
_cell_length_b 5.285012
_cell_length_c 22.474891
_cell_angle_alpha 65.586038
_cell_angle_beta 132.295836
_cell_angle_gamma 127.425081
_cell_volume 635.341707
_symmetry_space_group_name_H-M "P -1"
_symmetry_group_IT_number 2
_symmetry_cell_setting 'triclinic'
loop_
_space_group_symop_operation_xyz
x,y,z
-x,-y,-z
loop_
_atom_site_type_symbol
_atom_site_label
_atom_site_fract_x
_atom_site_fract_y
_atom_site_fract_z
Si Si1 0.030240 0.705891 0.429399
Si Si2 0.817695 0.738676 0.931419
Si Si3 0.895544 0.331399 0.080431
Si Si4 0.999185 0.416996 0.695968
Si Si5 0.771390 0.023101 0.197788
Si Si6 0.533446 0.006338 0.425479
Si Si7 0.359448 0.265020 0.629680
Si Si8 0.618202 0.128478 0.811598
O O1 0.934046 0.500535 0.363668
O O2 0.301550 0.939615 0.477516
O O3 0.000000 0.500000 0.500000
O O4 0.876838 0.865340 0.386192
O O5 0.963486 0.800514 0.905302
O O6 0.605982 0.795259 0.856802
O O7 0.772051 0.424645 0.986236
O O8 0.000000 0.000000 0.000000
O O9 0.748839 0.139832 0.114909
O O10 0.113890 0.636405 0.138308
O O11 0.099633 0.683137 0.748655
O O12 0.726745 0.252903 0.632668
O O13 0.082995 0.157230 0.753967
O O14 0.526701 0.813487 0.182999
O O15 0.548821 0.352149 0.384897
O O16 0.660768 0.885213 0.425330
O O17 0.520706 0.172579 0.719682
#
# Coordination Sequence:
#
# PCOD9044622 Si02
#       8
#     2   2   2   2   2   2   2   2
#     4  10  24  44  69  97 138 181 232 290 348 418
#     4   9  22  43  74 103 142 181 233 276 345 420
#     4  10  23  47  69 107 139 187 229 283 344 418
#     4  12  26  47  62 107 135 180 238 289 341 419
#     4  12  29  43  73 104 146 179 237 292 341 413
#     4  11  24  43  70  94 134 190 223 296 352 409
#     4  11  24  41  68 103 133 178 239 276 358 413
#     4  11  24  42  71 100 141 190 222 294 344 412
#
# _framework density 25.183299000000002
#
# number of rings (size 3 to 8) (size 9 to 14) (size 15 to 20)
#    0.000    1.250    1.250    3.000   12.250    2.500 
#    0.000   10.000    0.000    0.000    0.000    0.000 
#    0.000    0.000    0.000    0.000    0.000    0.000 
#
# Total GULP energy -89381.020034 kJ/mol
# GULP energy per Si atom -5586.313752 kJ/mol
# Density = 2.512598 g / cm^3
# Si number density = 25.183299 Si / 1000 Ang^3
#
#
#
# Elastic Constant Matrix: (Units=GPa)
#
#
# Indices 1 2 3 4 5 6 
#
# 1 54.6745 26.4009 8.1884 -8.8033 -2.3998 -16.2380
# 2 26.4009 74.5900 21.7295 14.4575 2.9297 -23.6977
# 3 8.1884 21.7295 111.7866 1.4303 1.4310 -20.8455
# 4 -8.8033 14.4575 1.4303 17.0971 1.1430 2.6597
# 5 -2.3998 2.9297 1.4310 1.1430 58.1224 2.3168
# 6 -16.2380 -23.6977 -20.8455 2.6597 2.3168 45.9773
#
#
#
# Elastic Compliance Matrix: (Units=1/GPa)
#
#
# Indices 1 2 3 4 5 6 
#
# 1 0.031684 -0.017134 0.000761 0.030504 0.001519 0.000863
# 2 -0.017134 0.030669 -0.002176 -0.036150 -0.001926 0.010958
# 3 0.000761 -0.002176 0.009984 0.000848 -0.000266 0.003638
# 4 0.030504 -0.036150 0.000848 0.106729 0.001509 -0.013725
# 5 0.001519 -0.001926 -0.000266 0.001509 0.017403 -0.001541
# 6 0.000863 0.010958 0.003638 -0.013725 -0.001541 0.030223
#
#
# Mechanical properties :
#
#
# Convention : Reuss Voigt Hill
#
# Bulk Modulus (GPa) = 28.37813 39.29873 33.83843
# Shear Modulus (GPa) = 18.14639 36.55483 27.35061
#
# Velocity S-wave (km/s) = 2.68726 3.81406 3.29912
# Velocity P-wave (km/s) = 4.57401 5.91904 5.28945
#
# Compressibility (1/GPa) = 0.03523840
#
# Stress axis : x y z
#
# Youngs Moduli (GPa) = 31.56153 32.60621 100.16211
#
# Poissons Ratio (x) = 0.55868 -0.07621
# Poissons Ratio (y) = 0.54078 0.21794
# Poissons Ratio (z) = -0.02401 0.07095
#
# Static dielectric constant tensor:
#      x y z
#    x 2.028010 0.050450 0.010420 
#    y 0.050450 2.221140 -0.006120 
#    z 0.010420 -0.006120 1.978090 
# 
# From -- ./inp_files/52288.got.cif
#   From: 2010.05.17/outbox.cif.g08.bks.cpg/sg2_27_cif.got.tgz:52288.got - 2010.06.03 11:33:40.
