data_PCOD9044797
_publ_section_title
;
Structure prediction by ZEFSAII (Michael W. Deem and Ramdas Pophale) SiO2 
 PCOD9044797
Probable space group: P -1
;
_chemical_formula_sum "Si O2"
_cell_formula_units_Z 16
_cell_length_a 14.307302
_cell_length_b 11.901987
_cell_length_c 14.481451
_cell_angle_alpha 150.400064
_cell_angle_beta 47.898636
_cell_angle_gamma 147.760923
_cell_volume 629.690434
_symmetry_space_group_name_H-M "P -1"
_symmetry_group_IT_number 2
_symmetry_cell_setting 'triclinic'
loop_
_space_group_symop_operation_xyz
x,y,z
-x,-y,-z
loop_
_atom_site_type_symbol
_atom_site_label
_atom_site_fract_x
_atom_site_fract_y
_atom_site_fract_z
Si Si1 0.677457 0.268689 0.140157
Si Si2 0.900504 0.307156 0.824613
Si Si3 0.712751 0.690471 0.638356
Si Si4 0.183189 0.154283 0.114277
Si Si5 0.702746 0.806074 0.445866
Si Si6 0.579435 0.350794 0.839173
Si Si7 0.268776 0.770940 0.724179
Si Si8 0.805576 0.685313 0.110844
O O1 0.711792 0.580834 0.334021
O O2 0.626163 0.119590 0.169634
O O3 0.885381 0.442019 0.121585
O O4 0.500000 0.000000 0.000000
O O5 0.791493 0.991748 0.737366
O O6 0.841645 0.155653 0.652303
O O7 0.845826 0.500802 0.006041
O O8 0.719726 0.763625 0.793646
O O9 0.501990 0.378032 0.534906
O O10 0.821428 0.594616 0.485564
O O11 0.287385 0.469552 0.206962
O O12 0.989472 0.993460 0.158182
O O13 0.171343 0.890432 0.883141
O O14 0.738285 0.782221 0.298957
O O15 0.406925 0.964766 0.684958
O O16 0.500000 0.500000 0.000000
O O17 0.679247 0.463021 0.950338
#
# Coordination Sequence:
#
# PCOD9044797 Si02
#       8
#     2   2   2   2   2   2   2   2
#     4  12  25  43  70 105 153 198 244 298 371 451
#     4  12  28  46  72 113 156 200 246 306 377 462
#     4  12  27  45  74 111 150 200 248 305 373 456
#     4  11  25  45  73 105 141 195 258 309 374 440
#     4  12  27  43  71 110 156 198 250 296 376 455
#     4  10  23  47  74 102 141 194 255 314 371 441
#     4  11  24  46  71 100 146 191 250 307 369 433
#     4  12  26  44  77 106 151 195 248 312 381 444
#
# _framework density 25.409310999999999
#
# number of rings (size 3 to 8) (size 9 to 14) (size 15 to 20)
#    0.000    0.500    2.500    5.625    7.000    1.500 
#    0.000    3.750    0.000    6.000    0.000    0.000 
#    0.000    0.000    0.000    0.000    0.000    0.000 
#
# Total GULP energy -89503.163807 kJ/mol
# GULP energy per Si atom -5593.947738 kJ/mol
# Density = 2.535148 g / cm^3
# Si number density = 25.409311 Si / 1000 Ang^3
#
#
#
# Elastic Constant Matrix: (Units=GPa)
#
#
# Indices 1 2 3 4 5 6 
#
# 1 73.9525 29.2910 4.2046 -8.3978 3.4635 10.0953
# 2 29.2910 180.6384 11.9775 -17.5275 4.7346 -8.3499
# 3 4.2046 11.9775 93.1797 -20.1351 8.1647 10.1800
# 4 -8.3978 -17.5275 -20.1351 29.5275 -2.3041 -2.3589
# 5 3.4635 4.7346 8.1647 -2.3041 37.2873 1.1762
# 6 10.0953 -8.3499 10.1800 -2.3589 1.1762 49.8770
#
#
#
# Elastic Compliance Matrix: (Units=1/GPa)
#
#
# Indices 1 2 3 4 5 6 
#
# 1 0.015288 -0.002362 0.000750 0.003103 -0.000983 -0.003473
# 2 -0.002362 0.006319 -0.000200 0.003049 -0.000405 0.001731
# 3 0.000750 -0.000200 0.013049 0.008623 -0.002293 -0.002387
# 4 0.003103 0.003049 0.008623 0.042454 0.000056 0.000129
# 5 -0.000983 -0.000405 -0.002293 0.000056 0.027469 -0.000046
# 6 -0.003473 0.001731 -0.002387 0.000129 -0.000046 0.021536
#
#
# Mechanical properties :
#
#
# Convention : Reuss Voigt Hill
#
# Bulk Modulus (GPa) = 32.22724 48.74632 40.48678
# Shear Modulus (GPa) = 35.69316 43.49153 39.59234
#
# Velocity S-wave (km/s) = 3.75204 4.14168 3.95166
# Velocity P-wave (km/s) = 5.61081 6.48826 6.06542
#
# Compressibility (1/GPa) = 0.03102965
#
# Stress axis : x y z
#
# Youngs Moduli (GPa) = 65.41200 158.25975 76.63486
#
# Poissons Ratio (x) = 0.37387 -0.05747
# Poissons Ratio (y) = 0.15453 0.01535
# Poissons Ratio (z) = -0.04905 0.03171
#
# Static dielectric constant tensor:
#      x y z
#    x 1.752780 0.091900 -0.048270 
#    y 0.091900 2.083210 -0.011810 
#    z -0.048270 -0.011810 2.005780 
# 
# From -- ./inp_files/532792.got.cif
#   From: 2010.05.17/outbox.cif.g08.bks.cpg/sg2_267_cif.got.tgz:532792.got - 2010.06.03 11:33:40.
