data_PCOD9044027
_publ_section_title
;
Structure prediction by ZEFSAII (Michael W. Deem and Ramdas Pophale) SiO2 
 PCOD9044027
Probable space group: P -1
;
_chemical_formula_sum "Si O2"
_cell_formula_units_Z 16
_cell_length_a 22.511597
_cell_length_b 8.170382
_cell_length_c 11.907493
_cell_angle_alpha 113.949463
_cell_angle_beta 157.881200
_cell_angle_gamma 71.442864
_cell_volume 742.935564
_symmetry_space_group_name_H-M "P -1"
_symmetry_group_IT_number 2
_symmetry_cell_setting 'triclinic'
loop_
_space_group_symop_operation_xyz
x,y,z
-x,-y,-z
loop_
_atom_site_type_symbol
_atom_site_label
_atom_site_fract_x
_atom_site_fract_y
_atom_site_fract_z
Si Si1 0.884728 0.761929 0.507257
Si Si2 0.884383 0.727936 0.240451
Si Si3 0.645657 0.354351 0.775865
Si Si4 0.229762 0.667345 0.783510
Si Si5 0.678156 0.640351 0.672387
Si Si6 0.470202 0.320437 0.820254
Si Si7 0.327120 0.023848 0.658242
Si Si8 0.791564 0.275094 0.803420
O O1 0.906334 0.810002 0.426343
O O2 0.792057 0.553508 0.303525
O O3 0.780708 0.897823 0.417730
O O4 0.050807 0.760188 0.864224
O O5 0.055456 0.716659 0.484724
O O6 0.785551 0.526414 0.043420
O O7 0.778973 0.791717 0.972914
O O8 0.484049 0.415306 0.553809
O O9 0.647443 0.237432 0.633375
O O10 0.699694 0.255215 0.952101
O O11 0.355794 0.723844 0.921773
O O12 0.619017 0.668103 0.451783
O O13 0.783508 0.480007 0.806867
O O14 0.362966 0.170280 0.663255
O O15 0.500000 0.500000 0.000000
O O16 0.238882 0.844542 0.393470
O O17 0.500000 0.000000 0.000000
#
# Coordination Sequence:
#
# PCOD9044027 Si02
#       8
#     2   2   2   2   2   2   2   2
#     4  11  20  38  64  92 126 163 200 255 299 367
#     4  10  17  33  63 101 118 148 210 258 301 347
#     4   9  17  30  59  96 124 152 198 254 293 353
#     4  10  17  35  64  92 121 153 203 253 302 347
#     4  10  21  34  66 100 119 155 206 260 302 352
#     4  11  23  43  61  87 128 163 206 251 304 366
#     4  12  28  42  62  87 121 172 208 248 306 373
#     4  11  20  38  61  96 126 156 204 246 312 365
#
# _framework density 21.536186000000001
#
# number of rings (size 3 to 8) (size 9 to 14) (size 15 to 20)
#    0.000    1.500    5.000    3.375    5.250    0.000 
#    0.000    7.500    0.000    1.500    0.000    0.000 
#    0.000    0.000    0.000    0.000    0.000    0.000 
#
# Total GULP energy -89197.869835 kJ/mol
# GULP energy per Si atom -5574.866865 kJ/mol
# Density = 2.148717 g / cm^3
# Si number density = 21.536186 Si / 1000 Ang^3
#
#
#
# Elastic Constant Matrix: (Units=GPa)
#
#
# Indices 1 2 3 4 5 6 
#
# 1 112.1818 27.1580 53.6282 -13.8059 -9.2101 -34.6849
# 2 27.1580 43.0012 26.3597 -10.7215 -3.4169 -23.5631
# 3 53.6282 26.3597 136.7696 -27.0610 -14.8703 -24.9296
# 4 -13.8059 -10.7215 -27.0610 21.8352 -4.3766 4.5932
# 5 -9.2101 -3.4169 -14.8703 -4.3766 39.0830 -2.9811
# 6 -34.6849 -23.5631 -24.9296 4.5932 -2.9811 30.6879
#
#
#
# Elastic Compliance Matrix: (Units=1/GPa)
#
#
# Indices 1 2 3 4 5 6 
#
# 1 0.016026 0.003496 -0.001401 0.007254 0.005822 0.019139
# 2 0.003496 0.048670 0.002576 0.023012 0.011772 0.041114
# 3 -0.001401 0.002576 0.013036 0.016055 0.007362 0.009297
# 4 0.007254 0.023012 0.016055 0.079679 0.020966 0.029022
# 5 0.005822 0.011772 0.007362 0.020966 0.034803 0.021842
# 6 0.019139 0.041114 0.009297 0.029022 0.021842 0.091117
#
#
# Mechanical properties :
#
#
# Convention : Reuss Voigt Hill
#
# Bulk Modulus (GPa) = 11.48440 56.24937 33.86688
# Shear Modulus (GPa) = 16.50101 30.64166 23.57134
#
# Velocity S-wave (km/s) = 2.77103 3.77609 3.31191
# Velocity P-wave (km/s) = 3.94745 6.72213 5.51223
#
# Compressibility (1/GPa) = 0.08707463
#
# Stress axis : x y z
#
# Youngs Moduli (GPa) = 62.40017 20.54662 76.71083
#
# Poissons Ratio (x) = -0.07184 0.10745
# Poissons Ratio (y) = -0.21818 -0.19760
# Poissons Ratio (z) = 0.08740 -0.05293
#
# Static dielectric constant tensor:
#      x y z
#    x 1.800090 -0.024440 -0.078440 
#    y -0.024440 1.876580 0.044520 
#    z -0.078440 0.044520 1.894490 
# 
# From -- ./inp_files/474431.got.cif
#   From: 2010.05.17/outbox.cif.g08.bks.cpg/sg2_238_cif.got.tgz:474431.got - 2010.06.03 11:33:40.
