data_PCOD9044961
_publ_section_title
;
Structure prediction by ZEFSAII (Michael W. Deem and Ramdas Pophale) SiO2 
 PCOD9044961
Probable space group: P -1
;
_chemical_formula_sum "Si O2"
_cell_formula_units_Z 12
_cell_length_a 8.795887
_cell_length_b 9.886447
_cell_length_c 10.328494
_cell_angle_alpha 133.123878
_cell_angle_beta 41.122848
_cell_angle_gamma 119.941869
_cell_volume 430.906133
_symmetry_space_group_name_H-M "P -1"
_symmetry_group_IT_number 2
_symmetry_cell_setting 'triclinic'
loop_
_space_group_symop_operation_xyz
x,y,z
-x,-y,-z
loop_
_atom_site_type_symbol
_atom_site_label
_atom_site_fract_x
_atom_site_fract_y
_atom_site_fract_z
Si Si1 0.676511 0.797494 0.130143
Si Si2 0.227089 0.526276 0.959026
Si Si3 0.301508 0.603141 0.573679
Si Si4 0.478046 0.960523 0.836237
Si Si5 0.158351 0.857747 0.613329
Si Si6 0.931144 0.773583 0.443414
O O1 0.418911 0.827796 0.372908
O O2 0.643433 0.868831 0.051758
O O3 0.839963 0.943323 0.190116
O O4 0.752733 0.597350 0.003575
O O5 0.165052 0.730917 0.185180
O O6 0.457830 0.470334 0.695918
O O7 0.000000 0.500000 0.000000
O O8 0.652043 0.228286 0.245964
O O9 0.141087 0.697882 0.627425
O O10 0.809275 0.577737 0.416276
O O11 0.738286 0.901985 0.581826
O O12 0.500000 0.000000 0.000000
O O13 0.989140 0.844221 0.594150
#
# Coordination Sequence:
#
# PCOD9044961 Si02
#       6
#     2   2   2   2   2   2
#     4   9  22  47  68 101 146 180 236 296 344 419
#     4  11  24  45  78 102 135 190 234 290 357 410
#     4  10  23  48  70 103 149 179 236 300 345 415
#     4  11  25  44  70 104 145 190 230 290 353 411
#     4   9  21  42  73 102 137 187 234 291 354 414
#     4  12  25  42  72 109 137 187 236 283 357 429
#
# _framework density 27.848292000000001
#
# number of rings (size 3 to 8) (size 9 to 14) (size 15 to 20)
#    0.000    1.667    1.667    2.000    0.000    8.667 
#    0.000    3.333    0.000    0.000    0.000    0.000 
#    0.000    0.000    0.000    0.000    0.000    0.000 
#
# Total GULP energy -67301.204732 kJ/mol
# GULP energy per Si atom -5608.433728 kJ/mol
# Density = 2.778491 g / cm^3
# Si number density = 27.848292 Si / 1000 Ang^3
#
#
#
# Elastic Constant Matrix: (Units=GPa)
#
#
# Indices 1 2 3 4 5 6 
#
# 1 178.3911 42.2823 50.1956 9.7598 -3.0219 -15.6468
# 2 42.2823 148.8027 44.1423 12.2291 5.7369 -15.5017
# 3 50.1956 44.1423 147.7961 -13.0838 -28.7037 -0.1119
# 4 9.7598 12.2291 -13.0838 41.6686 -14.0517 0.7659
# 5 -3.0219 5.7369 -28.7037 -14.0517 60.7219 6.2657
# 6 -15.6468 -15.5017 -0.1119 0.7659 6.2657 37.3656
#
#
#
# Elastic Compliance Matrix: (Units=1/GPa)
#
#
# Indices 1 2 3 4 5 6 
#
# 1 0.006936 -0.000454 -0.002889 -0.003139 -0.002025 0.003112
# 2 -0.000454 0.009067 -0.003878 -0.005338 -0.004403 0.004408
# 3 -0.002889 -0.003878 0.011120 0.008005 0.007771 -0.004253
# 4 -0.003139 -0.005338 0.008005 0.033127 0.012445 -0.006271
# 5 -0.002025 -0.004403 0.007771 0.012445 0.024053 -0.006940
# 6 0.003112 0.004408 -0.004253 -0.006271 -0.006940 0.031174
#
#
# Mechanical properties :
#
#
# Convention : Reuss Voigt Hill
#
# Bulk Modulus (GPa) = 78.85392 83.13669 80.99530
# Shear Modulus (GPa) = 37.27250 50.50921 43.89086
#
# Velocity S-wave (km/s) = 3.66240 4.26341 3.97428
# Velocity P-wave (km/s) = 6.80156 7.35892 7.08573
#
# Compressibility (1/GPa) = 0.01268168
#
# Stress axis : x y z
#
# Youngs Moduli (GPa) = 144.16518 110.28464 89.92605
#
# Poissons Ratio (x) = 0.05004 0.25980
# Poissons Ratio (y) = 0.06542 0.34877
# Poissons Ratio (z) = 0.41651 0.42773
#
# Static dielectric constant tensor:
#      x y z
#    x 2.114480 0.036590 0.030570 
#    y 0.036590 2.195570 -0.076680 
#    z 0.030570 -0.076680 2.214190 
# 
# From -- ./inp_files/380495.got.cif
#   From: 2010.05.17/outbox.cif.g08.bks.cpg/sg2_191_cif.got.tgz:380495.got - 2010.06.03 11:33:40.
