data_PCOD9044673
_publ_section_title
;
Structure prediction by ZEFSAII (Michael W. Deem and Ramdas Pophale) SiO2 
 PCOD9044673
Probable space group: P -1
;
_chemical_formula_sum "Si O2"
_cell_formula_units_Z 14
_cell_length_a 12.317848
_cell_length_b 7.807850
_cell_length_c 13.719660
_cell_angle_alpha 93.027607
_cell_angle_beta 36.171862
_cell_angle_gamma 68.758541
_cell_volume 565.082733
_symmetry_space_group_name_H-M "P -1"
_symmetry_group_IT_number 2
_symmetry_cell_setting 'triclinic'
loop_
_space_group_symop_operation_xyz
x,y,z
-x,-y,-z
loop_
_atom_site_type_symbol
_atom_site_label
_atom_site_fract_x
_atom_site_fract_y
_atom_site_fract_z
Si Si1 0.805603 0.297270 0.282042
Si Si2 0.842598 0.415449 0.782205
Si Si3 0.503064 0.189579 0.791236
Si Si4 0.213914 0.154717 0.841511
Si Si5 0.756594 0.803763 0.748718
Si Si6 0.037646 0.935950 0.645153
Si Si7 0.745430 0.697609 0.392336
O O1 0.500000 0.500000 0.500000
O O2 0.857906 0.438379 0.307792
O O3 0.924961 0.085080 0.264686
O O4 0.965149 0.219529 0.064637
O O5 0.821080 0.561767 0.711616
O O6 0.841069 0.211984 0.762458
O O7 0.110154 0.274441 0.637641
O O8 0.644449 0.611283 0.012329
O O9 0.314993 0.219147 0.852904
O O10 0.673828 0.931307 0.708838
O O11 0.689000 0.196438 0.600269
O O12 0.201064 0.267606 0.753841
O O13 0.449112 0.879151 0.638740
O O14 0.949439 0.814526 0.657717
O O15 0.500000 0.000000 0.000000
#
# Coordination Sequence:
#
# PCOD9044673 Si02
#       7
#     2   2   2   2   2   2   2
#     4  12  26  42  67 103 146 184 229 288 345 416
#     4  11  24  45  71 101 139 185 223 288 350 401
#     4  11  23  43  73 101 136 181 231 289 340 411
#     4  11  24  44  71 102 137 185 234 282 351 412
#     4  10  23  47  71 100 141 180 228 288 344 405
#     4  12  25  45  68 109 136 178 240 274 349 421
#     4  11  23  45  71  96 139 186 228 288 351 405
#
# _framework density 24.775134000000001
#
# number of rings (size 3 to 8) (size 9 to 14) (size 15 to 20)
#    0.000    0.857    4.286    2.571    4.000    4.571 
#    0.000    0.000    0.000    0.000    0.000    0.000 
#    0.000    0.000    0.000    0.000    0.000    0.000 
#
# Total GULP energy -78313.207046 kJ/mol
# GULP energy per Si atom -5593.800503 kJ/mol
# Density = 2.471874 g / cm^3
# Si number density = 24.775134 Si / 1000 Ang^3
#
#
#
# Elastic Constant Matrix: (Units=GPa)
#
#
# Indices 1 2 3 4 5 6 
#
# 1 81.2819 7.7046 41.0920 -10.8589 1.9495 -8.9882
# 2 7.7046 101.7561 46.8833 10.6060 7.2611 5.6815
# 3 41.0920 46.8833 181.5474 -22.2181 -0.7701 -15.7456
# 4 -10.8589 10.6060 -22.2181 41.0921 0.9072 4.8949
# 5 1.9495 7.2611 -0.7701 0.9072 32.3933 -0.3366
# 6 -8.9882 5.6815 -15.7456 4.8949 -0.3366 40.1170
#
#
#
# Elastic Compliance Matrix: (Units=1/GPa)
#
#
# Indices 1 2 3 4 5 6 
#
# 1 0.014224 -0.000033 -0.002805 0.002054 -0.000954 0.001832
# 2 -0.000033 0.012625 -0.004134 -0.005104 -0.002812 -0.002819
# 3 -0.002805 -0.004134 0.007965 0.004300 0.001191 0.002568
# 4 0.002054 -0.005104 0.004300 0.028587 0.000316 -0.000615
# 5 -0.000954 -0.002812 0.001191 0.000316 0.031587 0.000879
# 6 0.001832 -0.002819 0.002568 -0.000615 0.000879 0.026827
#
#
# Mechanical properties :
#
#
# Convention : Reuss Voigt Hill
#
# Bulk Modulus (GPa) = 47.91597 61.77170 54.84383
# Shear Modulus (GPa) = 35.03510 40.64750 37.84130
#
# Velocity S-wave (km/s) = 3.76456 4.05490 3.91242
# Velocity P-wave (km/s) = 6.18694 6.84909 6.52642
#
# Compressibility (1/GPa) = 0.02086987
#
# Stress axis : x y z
#
# Youngs Moduli (GPa) = 70.30494 79.21005 125.55521
#
# Poissons Ratio (x) = 0.00261 0.35215
# Poissons Ratio (y) = 0.00232 0.51903
# Poissons Ratio (z) = 0.19719 0.32744
#
# Static dielectric constant tensor:
#      x y z
#    x 2.097750 0.059430 0.080080 
#    y 0.059430 2.033050 0.026820 
#    z 0.080080 0.026820 2.027680 
# 
# From -- ./inp_files/528449.got.cif
#   From: 2010.05.17/outbox.cif.g08.bks.cpg/sg2_265_cif.got.tgz:528449.got - 2010.06.03 11:33:40.
