data_PCOD9044804
_publ_section_title
;
Structure prediction by ZEFSAII (Michael W. Deem and Ramdas Pophale) SiO2 
 PCOD9044804
Probable space group: P -1
;
_chemical_formula_sum "Si O2"
_cell_formula_units_Z 16
_cell_length_a 7.696543
_cell_length_b 9.382004
_cell_length_c 15.911002
_cell_angle_alpha 116.131958
_cell_angle_beta 123.984949
_cell_angle_gamma 101.458376
_cell_volume 685.778663
_symmetry_space_group_name_H-M "P -1"
_symmetry_group_IT_number 2
_symmetry_cell_setting 'triclinic'
loop_
_space_group_symop_operation_xyz
x,y,z
-x,-y,-z
loop_
_atom_site_type_symbol
_atom_site_label
_atom_site_fract_x
_atom_site_fract_y
_atom_site_fract_z
Si Si1 0.282706 0.727121 0.364788
Si Si2 0.454931 0.009069 0.637953
Si Si3 0.758136 0.982316 0.154611
Si Si4 0.000920 0.306428 0.448454
Si Si5 0.228431 0.718249 0.051775
Si Si6 0.566228 0.524787 0.620372
Si Si7 0.186094 0.356816 0.892329
Si Si8 0.003215 0.151955 0.097315
O O1 0.440289 0.868228 0.524362
O O2 0.231269 0.525583 0.324838
O O3 0.017149 0.692938 0.252176
O O4 0.480444 0.817420 0.362557
O O5 0.187384 0.855557 0.574741
O O6 0.668338 0.137489 0.801779
O O7 0.477356 0.839243 0.086066
O O8 0.872802 0.853124 0.154822
O O9 0.909068 0.180819 0.304253
O O10 0.780783 0.047165 0.081302
O O11 0.299392 0.392212 0.563866
O O12 0.000000 0.500000 0.500000
O O13 0.161062 0.499693 0.984221
O O14 0.011218 0.712734 0.939050
O O15 0.500000 0.500000 0.500000
O O16 0.727003 0.745455 0.752136
O O17 0.500000 0.500000 0.000000
O O18 0.000000 0.000000 0.000000
#
# Coordination Sequence:
#
# PCOD9044804 Si02
#       8
#     2   2   2   2   2   2   2   2
#     4  11  25  47  75 104 146 193 244 302 374 431
#     4  10  26  44  74 101 147 190 246 297 365 431
#     4  10  24  45  73  98 147 190 238 299 360 434
#     4  11  25  45  73 104 146 192 243 302 364 429
#     4  10  23  48  69 102 145 190 241 300 358 434
#     4  12  26  47  75 105 147 195 246 305 367 434
#     4  10  23  47  74 105 142 188 235 299 365 434
#     4  12  27  42  71 109 143 191 245 293 374 428
#
# _framework density 23.331143999999998
#
# number of rings (size 3 to 8) (size 9 to 14) (size 15 to 20)
#    0.000    1.250    2.500    1.125   10.500    2.000 
#    9.000    0.000    0.000    0.000    0.000    0.000 
#    0.000    0.000    0.000    0.000    0.000    0.000 
#
# Total GULP energy -89147.713315 kJ/mol
# GULP energy per Si atom -5571.732082 kJ/mol
# Density = 2.327804 g / cm^3
# Si number density = 23.331144 Si / 1000 Ang^3
#
#
#
# Elastic Constant Matrix: (Units=GPa)
#
#
# Indices 1 2 3 4 5 6 
#
# 1 83.2158 41.0896 50.6056 -5.0590 -8.3684 11.8643
# 2 41.0896 107.5907 54.6709 -4.6447 -8.3243 -5.6067
# 3 50.6056 54.6709 184.7639 9.0141 -25.5841 -5.0786
# 4 -5.0590 -4.6447 9.0141 40.3336 7.4474 0.0659
# 5 -8.3684 -8.3243 -25.5841 7.4474 50.2592 3.6389
# 6 11.8643 -5.6067 -5.0786 0.0659 3.6389 50.7363
#
#
#
# Elastic Compliance Matrix: (Units=1/GPa)
#
#
# Indices 1 2 3 4 5 6 
#
# 1 0.017544 -0.005047 -0.003523 0.002358 0.000307 -0.005038
# 2 -0.005047 0.012597 -0.002399 0.001415 -0.000355 0.002356
# 3 -0.003523 -0.002399 0.007727 -0.003060 0.003323 0.001098
# 4 0.002358 0.001415 -0.003060 0.026838 -0.004880 -0.000386
# 5 0.000307 -0.000355 0.003323 -0.004880 0.022404 -0.001379
# 6 -0.005038 0.002356 0.001098 -0.000386 -0.001379 0.021357
#
#
# Mechanical properties :
#
#
# Convention : Reuss Voigt Hill
#
# Bulk Modulus (GPa) = 62.77119 74.25586 68.51353
# Shear Modulus (GPa) = 36.84236 43.54610 40.19423
#
# Velocity S-wave (km/s) = 3.97811 4.32491 4.15513
# Velocity P-wave (km/s) = 6.93277 7.53896 7.24221
#
# Compressibility (1/GPa) = 0.01593088
#
# Stress axis : x y z
#
# Youngs Moduli (GPa) = 57.00016 79.38286 129.42388
#
# Poissons Ratio (x) = 0.40065 0.45592
# Poissons Ratio (y) = 0.28768 0.31043
# Poissons Ratio (z) = 0.20079 0.19041
#
# Static dielectric constant tensor:
#      x y z
#    x 1.918100 -0.009200 0.001550 
#    y -0.009200 2.084710 0.170540 
#    z 0.001550 0.170540 1.984060 
# 
# From -- ./inp_files/495512.got.cif
#   From: 2010.05.17/outbox.cif.g08.bks.cpg/sg2_248_cif.got.tgz:495512.got - 2010.06.03 11:33:40.
