data_PCOD9044570
_publ_section_title
;
Structure prediction by ZEFSAII (Michael W. Deem and Ramdas Pophale) SiO2 
 PCOD9044570
Probable space group: P -1
;
_chemical_formula_sum "Si O2"
_cell_formula_units_Z 14
_cell_length_a 12.205278
_cell_length_b 14.475263
_cell_length_c 8.407872
_cell_angle_alpha 68.099026
_cell_angle_beta 31.910625
_cell_angle_gamma 56.823960
_cell_volume 643.000518
_symmetry_space_group_name_H-M "P -1"
_symmetry_group_IT_number 2
_symmetry_cell_setting 'triclinic'
loop_
_space_group_symop_operation_xyz
x,y,z
-x,-y,-z
loop_
_atom_site_type_symbol
_atom_site_label
_atom_site_fract_x
_atom_site_fract_y
_atom_site_fract_z
Si Si1 0.243510 0.330636 0.223542
Si Si2 0.413233 0.112827 0.933479
Si Si3 0.596466 0.396484 0.566152
Si Si4 0.235276 0.821922 0.708345
Si Si5 0.733299 0.969448 0.130004
Si Si6 0.382699 0.781913 0.910285
Si Si7 0.750149 0.400422 0.700607
O O1 0.362921 0.284958 0.277042
O O2 0.965416 0.405656 0.516439
O O3 0.291452 0.221693 0.126064
O O4 0.387024 0.386460 0.924531
O O5 0.637490 0.116806 0.577738
O O6 0.259911 0.105826 0.980441
O O7 0.500000 0.000000 0.000000
O O8 0.500000 0.500000 0.500000
O O9 0.728378 0.283756 0.374377
O O10 0.757273 0.408226 0.496877
O O11 0.363465 0.779278 0.746088
O O12 0.959316 0.905276 0.003891
O O13 0.500000 0.000000 0.500000
O O14 0.718140 0.086337 0.010720
O O15 0.243470 0.718602 0.190410
O O16 0.500000 0.500000 0.000000
#
# Coordination Sequence:
#
# PCOD9044570 Si02
#       7
#     2   2   2   2   2   2   2
#     4  10  24  44  67  99 130 167 220 262 326 390
#     4  11  23  40  64  93 132 174 211 262 323 376
#     4  10  23  47  67  98 128 170 218 268 325 381
#     4  11  25  42  65  98 135 170 220 265 319 388
#     4  12  25  41  63 100 133 175 217 262 322 385
#     4  11  24  40  67  95 132 173 216 264 323 377
#     4  11  25  45  68  98 128 169 216 272 326 382
#
# _framework density 21.772922000000001
#
# number of rings (size 3 to 8) (size 9 to 14) (size 15 to 20)
#    0.000    1.143    2.857    2.143    4.000    3.429 
#    2.571    0.000    0.000    0.000    0.000    0.000 
#    0.000    0.000    0.000    0.000    0.000    0.000 
#
# Total GULP energy -78330.243225 kJ/mol
# GULP energy per Si atom -5595.017373 kJ/mol
# Density = 2.172337 g / cm^3
# Si number density = 21.772922 Si / 1000 Ang^3
#
#
#
# Elastic Constant Matrix: (Units=GPa)
#
#
# Indices 1 2 3 4 5 6 
#
# 1 178.5462 44.4511 45.4439 11.9104 -11.7441 -20.5701
# 2 44.4511 111.2731 43.1939 -13.4389 -6.8119 -18.7012
# 3 45.4439 43.1939 87.9454 19.4366 -19.3214 -22.2783
# 4 11.9104 -13.4389 19.4366 28.6625 -8.5003 0.7401
# 5 -11.7441 -6.8119 -19.3214 -8.5003 33.2979 -0.3179
# 6 -20.5701 -18.7012 -22.2783 0.7401 -0.3179 45.4449
#
#
#
# Elastic Compliance Matrix: (Units=1/GPa)
#
#
# Indices 1 2 3 4 5 6 
#
# 1 0.006921 -0.002352 -0.001235 -0.003040 0.000483 0.001612
# 2 -0.002352 0.015476 -0.009389 0.014786 0.000667 0.000465
# 3 -0.001235 -0.009389 0.024220 -0.018418 0.007070 0.007800
# 4 -0.003040 0.014786 -0.018418 0.057453 0.005883 -0.005215
# 5 0.000483 0.000667 0.007070 0.005883 0.035982 0.004115
# 6 0.001612 0.000465 0.007800 -0.005215 0.004115 0.026863
#
#
# Mechanical properties :
#
#
# Convention : Reuss Voigt Hill
#
# Bulk Modulus (GPa) = 48.39087 71.54915 59.97001
# Shear Modulus (GPa) = 25.03064 37.79280 31.41172
#
# Velocity S-wave (km/s) = 3.39429 4.17078 3.80241
# Velocity P-wave (km/s) = 6.13474 7.49178 6.84696
#
# Compressibility (1/GPa) = 0.02066506
#
# Stress axis : x y z
#
# Youngs Moduli (GPa) = 144.48946 64.61648 41.28880
#
# Poissons Ratio (x) = 0.15198 0.05098
# Poissons Ratio (y) = 0.33985 0.38766
# Poissons Ratio (z) = 0.17840 0.60668
#
# Static dielectric constant tensor:
#      x y z
#    x 1.817470 0.018790 -0.008420 
#    y 0.018790 1.791380 0.013520 
#    z -0.008420 0.013520 1.782160 
# 
# From -- ./inp_files/27609.got.cif
#   From: 2010.05.17/outbox.cif.g08.bks.cpg/sg2_14_cif.got.tgz:27609.got - 2010.06.03 11:33:40.
