data_PCOD9044396
_publ_section_title
;
Structure prediction by ZEFSAII (Michael W. Deem and Ramdas Pophale) SiO2 
 PCOD9044396
Probable space group: P -1
;
_chemical_formula_sum "Si O2"
_cell_formula_units_Z 16
_cell_length_a 13.452684
_cell_length_b 12.587564
_cell_length_c 12.216951
_cell_angle_alpha 36.848889
_cell_angle_beta 35.262043
_cell_angle_gamma 35.018092
_cell_volume 629.036067
_symmetry_space_group_name_H-M "P -1"
_symmetry_group_IT_number 2
_symmetry_cell_setting 'triclinic'
loop_
_space_group_symop_operation_xyz
x,y,z
-x,-y,-z
loop_
_atom_site_type_symbol
_atom_site_label
_atom_site_fract_x
_atom_site_fract_y
_atom_site_fract_z
Si Si1 0.246779 0.868656 0.422577
Si Si2 0.630608 0.370692 0.822026
Si Si3 0.015335 0.580925 0.145353
Si Si4 0.423832 0.327738 0.557191
Si Si5 0.946913 0.704878 0.807936
Si Si6 0.252136 0.443502 0.240402
Si Si7 0.029993 0.967266 0.762234
Si Si8 0.344075 0.015669 0.536349
O O1 0.467592 0.726084 0.379958
O O2 0.140690 0.736413 0.593167
O O3 0.131297 0.977911 0.549288
O O4 0.209450 0.058210 0.222700
O O5 0.551512 0.503306 0.673871
O O6 0.713262 0.483991 0.734239
O O7 0.813298 0.151412 0.818605
O O8 0.450269 0.376948 0.046168
O O9 0.800954 0.610916 0.295811
O O10 0.139692 0.357780 0.168242
O O11 0.071652 0.599862 0.202512
O O12 0.032316 0.756002 0.923679
O O13 0.523070 0.122424 0.566739
O O14 0.000000 0.500000 0.000000
O O15 0.220886 0.251456 0.433902
O O16 0.174864 0.949176 0.747690
O O17 0.500000 0.000000 0.500000
#
# Coordination Sequence:
#
# PCOD9044396 Si02
#       8
#     2   2   2   2   2   2   2   2
#     4  10  23  46  74 101 137 171 222 282 337 405
#     4  11  24  40  66  95 135 179 225 276 328 401
#     4  12  25  42  69  97 134 178 225 277 338 399
#     4  11  23  43  65 100 135 174 220 275 333 398
#     4  11  23  45  76 100 131 178 220 279 348 400
#     4  11  24  41  63  95 131 180 228 274 336 391
#     4  11  24  42  63  98 134 175 224 275 331 402
#     4  11  22  39  63  89 130 176 220 273 328 389
#
# _framework density 25.435744
#
# number of rings (size 3 to 8) (size 9 to 14) (size 15 to 20)
#    0.000    1.000    2.500    5.250    3.500    2.000 
#    0.000    0.625    0.000    0.000    0.000    0.000 
#    0.000    0.000    0.000    0.000    0.000    0.000 
#
# Total GULP energy -89384.208429 kJ/mol
# GULP energy per Si atom -5586.513027 kJ/mol
# Density = 2.537785 g / cm^3
# Si number density = 25.435744 Si / 1000 Ang^3
#
#
#
# Elastic Constant Matrix: (Units=GPa)
#
#
# Indices 1 2 3 4 5 6 
#
# 1 121.9217 33.3077 22.0963 -16.4433 -17.6103 -15.9789
# 2 33.3077 91.6965 39.0780 -17.2849 -13.6875 -1.1123
# 3 22.0963 39.0780 96.3329 -33.8748 -13.9689 7.8245
# 4 -16.4433 -17.2849 -33.8748 49.7380 2.9245 -5.1363
# 5 -17.6103 -13.6875 -13.9689 2.9245 39.9639 -9.8078
# 6 -15.9789 -1.1123 7.8245 -5.1363 -9.8078 45.9922
#
#
#
# Elastic Compliance Matrix: (Units=1/GPa)
#
#
# Indices 1 2 3 4 5 6 
#
# 1 0.010634 -0.002494 -0.000163 0.002772 0.004798 0.004995
# 2 -0.002494 0.014326 -0.004639 0.000947 0.002331 0.000872
# 3 -0.000163 -0.004639 0.015961 0.008900 0.002958 -0.001259
# 4 0.002772 0.000947 0.008900 0.027549 0.003447 0.003283
# 5 0.004798 0.002331 0.002958 0.003447 0.030718 0.008156
# 6 0.004995 0.000872 -0.001259 0.003283 0.008156 0.025819
#
#
# Mechanical properties :
#
#
# Convention : Reuss Voigt Hill
#
# Bulk Modulus (GPa) = 37.98090 55.43501 46.70796
# Shear Modulus (GPa) = 33.69838 41.50342 37.60090
#
# Velocity S-wave (km/s) = 3.64379 4.04381 3.84900
# Velocity P-wave (km/s) = 5.71554 6.60641 6.17706
#
# Compressibility (1/GPa) = 0.02632902
#
# Stress axis : x y z
#
# Youngs Moduli (GPa) = 94.03547 69.80559 62.65366
#
# Poissons Ratio (x) = 0.17411 0.01020
# Poissons Ratio (y) = 0.23454 0.29064
# Poissons Ratio (z) = 0.01531 0.32382
#
# Static dielectric constant tensor:
#      x y z
#    x 2.110530 -0.053510 0.100130 
#    y -0.053510 2.050070 0.035430 
#    z 0.100130 0.035430 2.009550 
# 
# From -- ./inp_files/534046.got.cif
#   From: 2010.05.17/outbox.cif.g08.bks.cpg/sg2_268_cif.got.tgz:534046.got - 2010.06.03 11:33:40.
