data_PCOD9044377
_publ_section_title
;
Structure prediction by ZEFSAII (Michael W. Deem and Ramdas Pophale) SiO2 
 PCOD9044377
Probable space group: P -1
;
_chemical_formula_sum "Si O2"
_cell_formula_units_Z 12
_cell_length_a 12.011835
_cell_length_b 14.015701
_cell_length_c 5.253921
_cell_angle_alpha 102.133942
_cell_angle_beta 80.755666
_cell_angle_gamma 149.058400
_cell_volume 444.288536
_symmetry_space_group_name_H-M "P -1"
_symmetry_group_IT_number 2
_symmetry_cell_setting 'triclinic'
loop_
_space_group_symop_operation_xyz
x,y,z
-x,-y,-z
loop_
_atom_site_type_symbol
_atom_site_label
_atom_site_fract_x
_atom_site_fract_y
_atom_site_fract_z
Si Si1 0.922568 0.887990 0.217285
Si Si2 0.783214 0.521703 0.427184
Si Si3 0.228279 0.795086 0.190353
Si Si4 0.500000 0.500000 0.000000
Si Si5 0.500000 0.500000 0.500000
Si Si6 0.498989 0.155456 0.611291
Si Si7 0.121129 0.857702 0.887414
O O1 0.661335 0.680034 0.241076
O O2 0.000000 0.000000 0.500000
O O3 0.026819 0.856482 0.142355
O O4 0.000000 0.000000 0.000000
O O5 0.632979 0.494206 0.348351
O O6 0.623122 0.321879 0.482426
O O7 0.971217 0.612573 0.237030
O O8 0.929195 0.674443 0.685317
O O9 0.325570 0.764735 0.222012
O O10 0.366153 0.976315 0.401587
O O11 0.244350 0.850788 0.933981
O O12 0.342197 0.371278 0.227132
O O13 0.303891 0.056604 0.791494
#
# Coordination Sequence:
#
# PCOD9044377 Si02
#       7
#     2   2   2   1   1   2   2
#     4  12  29  47  76 111 156 212 265 321 399 478
#     4  11  25  45  74 108 156 206 256 322 396 470
#     4  10  23  46  73 108 152 193 263 328 381 482
#     4  12  26  50  72 108 154 210 254 332 378 484
#     4  12  26  46  78 108 160 206 262 320 394 480
#     4  10  24  45  75 110 146 202 257 321 405 460
#     4  11  25  46  71 111 151 198 260 333 385 480
#
# _framework density 27.009475999999999
#
# number of rings (size 3 to 8) (size 9 to 14) (size 15 to 20)
#    0.000    1.000    1.667    3.000    7.000    3.333 
#    0.000    1.667    0.000    0.000    0.000    0.000 
#    0.000    0.000    0.000    0.000    0.000    0.000 
#
# Total GULP energy -66869.233422 kJ/mol
# GULP energy per Si atom -5572.436119 kJ/mol
# Density = 2.694800 g / cm^3
# Si number density = 27.009476 Si / 1000 Ang^3
#
#
#
# Elastic Constant Matrix: (Units=GPa)
#
#
# Indices 1 2 3 4 5 6 
#
# 1 79.2508 40.1466 -15.4157 2.4938 11.9055 3.6109
# 2 40.1466 225.1607 22.1074 -1.1980 -6.9122 -8.6648
# 3 -15.4157 22.1074 67.9546 0.3014 -12.2179 3.8305
# 4 2.4938 -1.1980 0.3014 42.1441 3.5186 7.5723
# 5 11.9055 -6.9122 -12.2179 3.5186 41.7650 -10.4478
# 6 3.6109 -8.6648 3.8305 7.5723 -10.4478 37.6321
#
#
#
# Elastic Compliance Matrix: (Units=1/GPa)
#
#
# Indices 1 2 3 4 5 6 
#
# 1 0.016218 -0.003621 0.004185 0.000093 -0.005067 -0.004241
# 2 -0.003621 0.005471 -0.002403 -0.000200 0.001854 0.002407
# 3 0.004185 -0.002403 0.017087 -0.000366 0.002991 -0.001790
# 4 0.000093 -0.000200 -0.000366 0.025141 -0.003820 -0.006137
# 5 -0.005067 0.001854 0.002991 -0.003820 0.029269 0.009503
# 6 -0.004241 0.002407 -0.001790 -0.006137 0.009503 0.031590
#
#
# Mechanical properties :
#
#
# Convention : Reuss Voigt Hill
#
# Bulk Modulus (GPa) = 28.49145 51.78251 40.13698
# Shear Modulus (GPa) = 35.67530 46.01010 40.84270
#
# Velocity S-wave (km/s) = 3.63828 4.13180 3.89287
# Velocity P-wave (km/s) = 5.31235 6.47889 5.92440
#
# Compressibility (1/GPa) = 0.03509825
#
# Stress axis : x y z
#
# Youngs Moduli (GPa) = 61.66026 182.77360 58.52394
#
# Poissons Ratio (x) = 0.66179 -0.24490
# Poissons Ratio (y) = 0.22326 0.14062
# Poissons Ratio (z) = -0.25803 0.43917
#
# Static dielectric constant tensor:
#      x y z
#    x 0.000000 0.000000 0.000000 
#    y 0.000000 0.000000 0.000000 
#    z 0.000000 0.000000 0.000000 
# 
# From -- ./inp_files/78161.got.cif
#   From: 2010.05.17/outbox.cif.g08.bks.cpg/sg2_40_cif.got.tgz:78161.got - 2010.06.03 11:33:40.
