data_PCOD9044971
_publ_section_title
;
Structure prediction by ZEFSAII (Michael W. Deem and Ramdas Pophale) SiO2 
 PCOD9044971
Probable space group: P -1
;
_chemical_formula_sum "Si O2"
_cell_formula_units_Z 14
_cell_length_a 19.701849
_cell_length_b 5.070524
_cell_length_c 5.146982
_cell_angle_alpha 93.138400
_cell_angle_beta 89.651275
_cell_angle_gamma 82.417982
_cell_volume 508.870916
_symmetry_space_group_name_H-M "P -1"
_symmetry_group_IT_number 2
_symmetry_cell_setting 'triclinic'
loop_
_space_group_symop_operation_xyz
x,y,z
-x,-y,-z
loop_
_atom_site_type_symbol
_atom_site_label
_atom_site_fract_x
_atom_site_fract_y
_atom_site_fract_z
Si Si1 0.029037 0.209065 0.713786
Si Si2 0.661350 0.425562 0.262098
Si Si3 0.724390 0.883450 0.483086
Si Si4 0.391199 0.957985 0.142748
Si Si5 0.855331 0.507859 0.483730
Si Si6 0.473381 0.295731 0.780683
Si Si7 0.110737 0.787926 0.034281
O O1 0.069662 0.398816 0.549064
O O2 0.964028 0.296820 0.903584
O O3 0.000000 0.000000 0.500000
O O4 0.087421 0.068803 0.906324
O O5 0.703268 0.673490 0.261561
O O6 0.585232 0.537551 0.381047
O O7 0.705262 0.185569 0.404527
O O8 0.642671 0.287571 0.988581
O O9 0.670271 0.860519 0.710941
O O10 0.800525 0.763878 0.552189
O O11 0.455709 0.867518 0.324815
O O12 0.428970 0.099878 0.923476
O O13 0.853202 0.289090 0.697210
O O14 0.846574 0.378569 0.197485
O O15 0.500000 0.500000 0.000000
#
# Coordination Sequence:
#
# PCOD9044971 Si02
#       7
#     2   2   2   2   2   2   2
#     4  11  25  47  81 116 148 198 258 332 387 469
#     4  11  25  48  69 107 143 199 251 316 379 471
#     4  12  30  46  74 105 152 207 258 308 401 475
#     4  10  23  48  70 108 151 190 251 334 382 472
#     4  12  29  48  73 113 155 208 256 324 395 483
#     4   9  20  43  76 105 145 190 253 325 396 448
#     4  11  26  47  76 110 154 193 257 319 396 458
#
# _framework density 27.511886000000001
#
# number of rings (size 3 to 8) (size 9 to 14) (size 15 to 20)
#    0.000    1.143    2.857    0.857   12.000    1.143 
#    2.571    0.000    0.000    0.000    0.000    0.000 
#    0.000    0.000    0.000    0.000    0.000    0.000 
#
# Total GULP energy -78306.058907 kJ/mol
# GULP energy per Si atom -5593.289922 kJ/mol
# Density = 2.744927 g / cm^3
# Si number density = 27.511886 Si / 1000 Ang^3
#
#
#
# Elastic Constant Matrix: (Units=GPa)
#
#
# Indices 1 2 3 4 5 6 
#
# 1 106.6416 38.7514 33.3703 3.2589 -14.2267 -43.1488
# 2 38.7514 126.6380 37.9667 -17.8360 -11.7982 -27.3624
# 3 33.3703 37.9667 128.5943 -10.6210 -14.4595 -7.0621
# 4 3.2589 -17.8360 -10.6210 36.5927 -9.7772 5.6308
# 5 -14.2267 -11.7982 -14.4595 -9.7772 34.0799 17.8391
# 6 -43.1488 -27.3624 -7.0621 5.6308 17.8391 72.7707
#
#
#
# Elastic Compliance Matrix: (Units=1/GPa)
#
#
# Indices 1 2 3 4 5 6 
#
# 1 0.014577 -0.002658 -0.003217 -0.005344 -0.002050 0.008248
# 2 -0.002658 0.010448 -0.001564 0.005470 0.002848 0.001079
# 3 -0.003217 -0.001564 0.009828 0.004231 0.005137 -0.003128
# 4 -0.005344 0.005470 0.004231 0.037140 0.016043 -0.007508
# 5 -0.002050 0.002848 0.005137 0.016043 0.042125 -0.011214
# 6 0.008248 0.001079 -0.003128 -0.007508 -0.011214 0.022064
#
#
# Mechanical properties :
#
#
# Convention : Reuss Voigt Hill
#
# Bulk Modulus (GPa) = 50.06058 64.67230 57.36644
# Shear Modulus (GPa) = 31.70240 45.47436 38.58838
#
# Velocity S-wave (km/s) = 3.39826 4.07000 3.74920
# Velocity P-wave (km/s) = 5.79940 6.75608 6.29594
#
# Compressibility (1/GPa) = 0.01997580
#
# Stress axis : x y z
#
# Youngs Moduli (GPa) = 68.60345 95.71642 101.74908
#
# Poissons Ratio (x) = 0.25438 0.32732
# Poissons Ratio (y) = 0.18232 0.15909
# Poissons Ratio (z) = 0.22070 0.14966
#
# Static dielectric constant tensor:
#      x y z
#    x 2.126580 -0.041790 0.070670 
#    y -0.041790 2.251940 0.003550 
#    z 0.070670 0.003550 2.179090 
# 
# From -- ./inp_files/114203.got.cif
#   From: 2010.05.17/outbox.cif.g08.bks.cpg/sg2_58_cif.got.tgz:114203.got - 2010.06.03 11:33:40.
