data_PCOD9044931
_publ_section_title
;
Structure prediction by ZEFSAII (Michael W. Deem and Ramdas Pophale) SiO2 
 PCOD9044931
Probable space group: P -1
;
_chemical_formula_sum "Si O2"
_cell_formula_units_Z 14
_cell_length_a 15.180121
_cell_length_b 7.020299
_cell_length_c 8.470340
_cell_angle_alpha 52.969376
_cell_angle_beta 116.163647
_cell_angle_gamma 109.148606
_cell_volume 644.319715
_symmetry_space_group_name_H-M "P -1"
_symmetry_group_IT_number 2
_symmetry_cell_setting 'triclinic'
loop_
_space_group_symop_operation_xyz
x,y,z
-x,-y,-z
loop_
_atom_site_type_symbol
_atom_site_label
_atom_site_fract_x
_atom_site_fract_y
_atom_site_fract_z
Si Si1 0.648194 0.606927 0.970478
Si Si2 0.577215 0.963500 0.938515
Si Si3 0.453511 0.261820 0.499367
Si Si4 0.703661 0.073621 0.259665
Si Si5 0.966169 0.382473 0.863979
Si Si6 0.895786 0.856264 0.453870
Si Si7 0.137934 0.147831 0.941121
O O1 0.585732 0.655782 0.740628
O O2 0.589695 0.693997 0.032487
O O3 0.750702 0.775524 0.957215
O O4 0.677133 0.338031 0.151303
O O5 0.458821 0.911552 0.311055
O O6 0.676575 0.060070 0.057563
O O7 0.500000 0.000000 0.000000
O O8 0.500000 0.500000 0.500000
O O9 0.363391 0.122971 0.594225
O O10 0.813999 0.003905 0.397864
O O11 0.902229 0.585786 0.646950
O O12 0.065500 0.323662 0.880216
O O13 0.000000 0.500000 0.000000
O O14 0.900951 0.129269 0.925461
O O15 0.872977 0.831658 0.264434
O O16 0.000000 0.000000 0.500000
#
# Coordination Sequence:
#
# PCOD9044931 Si02
#       7
#     2   2   2   2   2   2   2
#     4  12  25  45  74 103 146 181 240 296 355 429
#     4  10  23  48  68 102 137 182 235 294 357 418
#     4  11  25  46  74 102 140 186 239 294 361 422
#     4  11  26  45  71 105 143 186 238 297 355 422
#     4  11  25  45  72 103 148 185 242 297 346 420
#     4  12  24  45  74 101 147 191 231 288 361 422
#     4  11  26  44  70 110 138 193 238 291 356 423
#
# _framework density 21.728345000000001
#
# number of rings (size 3 to 8) (size 9 to 14) (size 15 to 20)
#    0.000    0.857    4.286    1.714    2.000    4.571 
#    5.143    0.000    0.000    0.000    0.000    0.000 
#    0.000    0.000    0.000    0.000    0.000    0.000 
#
# Total GULP energy -78151.695709 kJ/mol
# GULP energy per Si atom -5582.263979 kJ/mol
# Density = 2.167889 g / cm^3
# Si number density = 21.728345 Si / 1000 Ang^3
#
#
#
# Elastic Constant Matrix: (Units=GPa)
#
#
# Indices 1 2 3 4 5 6 
#
# 1 99.4038 63.7445 46.2612 -13.9680 20.1773 -11.9363
# 2 63.7445 148.1878 43.4787 -19.2586 17.6093 -20.1450
# 3 46.2612 43.4787 107.8627 -24.2214 22.8758 -11.8628
# 4 -13.9680 -19.2586 -24.2214 43.9600 -3.7816 12.4509
# 5 20.1773 17.6093 22.8758 -3.7816 30.5596 -3.0197
# 6 -11.9363 -20.1450 -11.8628 12.4509 -3.0197 46.0442
#
#
#
# Elastic Compliance Matrix: (Units=1/GPa)
#
#
# Indices 1 2 3 4 5 6 
#
# 1 0.016206 -0.005196 -0.003710 0.000246 -0.004841 0.000588
# 2 -0.005196 0.009892 -0.000944 0.001418 -0.001163 0.002278
# 3 -0.003710 -0.000944 0.013918 0.005411 -0.006725 0.000307
# 4 0.000246 0.001418 0.005411 0.027827 -0.002138 -0.005587
# 5 -0.004841 -0.001163 -0.006725 -0.002138 0.041338 -0.000207
# 6 0.000588 0.002278 0.000307 -0.005587 -0.000207 0.024444
#
#
# Mechanical properties :
#
#
# Convention : Reuss Voigt Hill
#
# Bulk Modulus (GPa) = 49.21743 73.60258 61.41000
# Shear Modulus (GPa) = 31.23144 37.57742 34.40443
#
# Velocity S-wave (km/s) = 3.79537 4.16314 3.98350
# Velocity P-wave (km/s) = 6.47355 7.55358 7.03432
#
# Compressibility (1/GPa) = 0.02031801
#
# Stress axis : x y z
#
# Youngs Moduli (GPa) = 61.70569 101.09085 71.85173
#
# Poissons Ratio (x) = 0.52522 0.26655
# Poissons Ratio (y) = 0.32059 0.06780
# Poissons Ratio (z) = 0.22891 0.09539
#
# Static dielectric constant tensor:
#      x y z
#    x 1.829890 0.004340 0.018890 
#    y 0.004340 1.789110 0.000250 
#    z 0.018890 0.000250 1.842200 
# 
# From -- ./inp_files/321532.got.cif
#   From: 2010.05.17/outbox.cif.g08.bks.cpg/sg2_161_cif.got.tgz:321532.got - 2010.06.03 11:33:40.
