data_PCOD9044307
_publ_section_title
;
Structure prediction by ZEFSAII (Michael W. Deem and Ramdas Pophale) SiO2 
 PCOD9044307
Probable space group: P -1
;
_chemical_formula_sum "Si O2"
_cell_formula_units_Z 16
_cell_length_a 13.428191
_cell_length_b 8.498886
_cell_length_c 10.669823
_cell_angle_alpha 93.164182
_cell_angle_beta 79.198497
_cell_angle_gamma 144.782314
_cell_volume 679.399965
_symmetry_space_group_name_H-M "P -1"
_symmetry_group_IT_number 2
_symmetry_cell_setting 'triclinic'
loop_
_space_group_symop_operation_xyz
x,y,z
-x,-y,-z
loop_
_atom_site_type_symbol
_atom_site_label
_atom_site_fract_x
_atom_site_fract_y
_atom_site_fract_z
Si Si1 0.814502 0.588293 0.942415
Si Si2 0.768151 0.862074 0.069702
Si Si3 0.202031 0.360606 0.336601
Si Si4 0.442232 0.062178 0.679446
Si Si5 0.350074 0.358246 0.631964
Si Si6 0.901715 0.081493 0.541384
Si Si7 0.609456 0.961238 0.599940
Si Si8 0.786603 0.225414 0.043206
O O1 0.828595 0.611431 0.791237
O O2 0.722973 0.635375 0.009209
O O3 0.728672 0.312159 0.991773
O O4 0.016175 0.853200 0.959813
O O5 0.694660 0.766401 0.225632
O O6 0.718048 0.960759 0.013414
O O7 0.412308 0.615736 0.322327
O O8 0.128727 0.089061 0.354272
O O9 0.108223 0.347661 0.466111
O O10 0.377249 0.989081 0.549724
O O11 0.568281 0.073437 0.677190
O O12 0.279809 0.847564 0.801869
O O13 0.500000 0.500000 0.500000
O O14 0.180066 0.100333 0.575130
O O15 0.426970 0.630042 0.651405
O O16 0.785395 0.086656 0.599057
O O17 0.000000 0.500000 0.000000
#
# Coordination Sequence:
#
# PCOD9044307 Si02
#       8
#     2   2   2   2   2   2   2   2
#     4  10  22  40  61  90 127 166 213 264 308 384
#     4  10  20  38  66  92 117 168 221 256 313 379
#     4  11  23  40  62  94 135 165 204 265 333 388
#     4  11  23  40  63  95 128 162 213 267 323 379
#     4  10  17  33  66  92 113 156 210 263 304 373
#     4  10  21  39  64  96 128 166 206 259 334 389
#     4  10  22  38  65  97 121 164 214 267 314 390
#     4  10  22  40  62  91 123 168 220 265 306 375
#
# _framework density 23.550191000000002
#
# number of rings (size 3 to 8) (size 9 to 14) (size 15 to 20)
#    0.000    1.750    2.500    2.250    3.500    1.000 
#    2.250    0.625    0.000    0.000    0.000    0.000 
#    0.000    0.000    0.000    0.000    0.000    0.000 
#
# Total GULP energy -89226.391341 kJ/mol
# GULP energy per Si atom -5576.649459 kJ/mol
# Density = 2.349659 g / cm^3
# Si number density = 23.550191 Si / 1000 Ang^3
#
#
#
# Elastic Constant Matrix: (Units=GPa)
#
#
# Indices 1 2 3 4 5 6 
#
# 1 116.5860 29.4470 30.3043 -15.4382 -4.3629 -44.1830
# 2 29.4470 54.1045 27.9629 -21.3947 1.1754 -18.2661
# 3 30.3043 27.9629 89.4238 -41.0667 10.4794 -21.0187
# 4 -15.4382 -21.3947 -41.0667 27.3461 1.6130 0.9991
# 5 -4.3629 1.1754 10.4794 1.6130 35.7723 -15.7263
# 6 -44.1830 -18.2661 -21.0187 0.9991 -15.7263 44.6721
#
#
#
# Elastic Compliance Matrix: (Units=1/GPa)
#
#
# Indices 1 2 3 4 5 6 
#
# 1 0.021046 0.006422 0.013508 0.035319 0.011308 0.032988
# 2 0.006422 0.044958 0.030523 0.083022 0.003540 0.038485
# 3 0.013508 0.030523 0.080370 0.150268 -0.003749 0.058975
# 4 0.035319 0.083022 0.150268 0.342293 0.000144 0.131977
# 5 0.011308 0.003540 -0.003749 0.000144 0.041510 0.025478
# 6 0.032988 0.038485 0.058975 0.131977 0.025478 0.104514
#
#
# Mechanical properties :
#
#
# Convention : Reuss Voigt Hill
#
# Bulk Modulus (GPa) = 4.04402 48.39362 26.21882
# Shear Modulus (GPa) = 8.11409 33.05142 20.58275
#
# Velocity S-wave (km/s) = 1.85820 3.75032 2.95955
# Velocity P-wave (km/s) = 2.51492 6.27272 4.77869
#
# Compressibility (1/GPa) = 0.24727889
#
# Stress axis : x y z
#
# Youngs Moduli (GPa) = 47.51536 22.24307 12.44244
#
# Poissons Ratio (x) = -0.14284 -0.16807
# Poissons Ratio (y) = -0.30513 -0.37978
# Poissons Ratio (z) = -0.64184 -0.67892
#
# Static dielectric constant tensor:
#      x y z
#    x 2.008020 -0.050920 -0.043930 
#    y -0.050920 2.062060 -0.022510 
#    z -0.043930 -0.022510 1.841650 
# 
# From -- ./inp_files/308255.got.cif
#   From: 2010.05.17/outbox.cif.g08.bks.cpg/sg2_155_cif.got.tgz:308255.got - 2010.06.03 11:33:40.
