data_PCOD9044741
_publ_section_title
;
Structure prediction by ZEFSAII (Michael W. Deem and Ramdas Pophale) SiO2 
 PCOD9044741
Probable space group: P -1
;
_chemical_formula_sum "Si O2"
_cell_formula_units_Z 16
_cell_length_a 19.623865
_cell_length_b 7.053052
_cell_length_c 11.333643
_cell_angle_alpha 57.263157
_cell_angle_beta 153.183208
_cell_angle_gamma 124.350123
_cell_volume 581.346629
_symmetry_space_group_name_H-M "P -1"
_symmetry_group_IT_number 2
_symmetry_cell_setting 'triclinic'
loop_
_space_group_symop_operation_xyz
x,y,z
-x,-y,-z
loop_
_atom_site_type_symbol
_atom_site_label
_atom_site_fract_x
_atom_site_fract_y
_atom_site_fract_z
Si Si1 0.814770 0.930136 0.217963
Si Si2 0.497374 0.847351 0.738119
Si Si3 0.088060 0.169875 0.245309
Si Si4 0.779519 0.481951 0.466472
Si Si5 0.387708 0.514689 0.139238
Si Si6 0.714628 0.606821 0.721650
Si Si7 0.762528 0.134089 0.831979
Si Si8 0.117798 0.680336 0.538504
O O1 0.764657 0.692777 0.288844
O O2 0.654118 0.016126 0.969244
O O3 0.111193 0.947685 0.431038
O O4 0.806610 0.964249 0.054374
O O5 0.377700 0.707630 0.694635
O O6 0.549274 0.656969 0.796475
O O7 0.390077 0.959698 0.447890
O O8 0.168492 0.391893 0.373233
O O9 0.165110 0.197114 0.227450
O O10 0.000000 0.000000 0.500000
O O11 0.909702 0.179274 0.959962
O O12 0.902527 0.388664 0.607854
O O13 0.548119 0.639031 0.406764
O O14 0.286524 0.407437 0.133915
O O15 0.283487 0.648679 0.854374
O O16 0.744665 0.363306 0.798574
O O17 0.000000 0.500000 0.500000
#
# Coordination Sequence:
#
# PCOD9044741 Si02
#       8
#     2   2   2   2   2   2   2   2
#     4  12  25  43  77 116 150 210 266 319 406 480
#     4  11  25  51  77 114 163 209 266 339 402 482
#     4  12  26  49  80 116 155 214 273 326 409 480
#     4  12  26  51  80 117 160 210 270 340 400 478
#     4  10  23  47  72 106 158 203 257 331 400 465
#     4  10  24  47  74 111 155 207 261 332 396 482
#     4  11  24  45  78 113 151 215 262 326 406 480
#     4  12  30  48  77 117 161 207 270 340 395 487
#
# _framework density 27.522307000000001
#
# number of rings (size 3 to 8) (size 9 to 14) (size 15 to 20)
#    0.000    0.750    5.000    1.875    3.500    0.500 
#    9.000    1.250    0.000    0.000    0.000    0.000 
#    0.000    0.000    0.000    0.000    0.000    0.000 
#
# Total GULP energy -89466.850680 kJ/mol
# GULP energy per Si atom -5591.678167 kJ/mol
# Density = 2.745967 g / cm^3
# Si number density = 27.522307 Si / 1000 Ang^3
#
#
#
# Elastic Constant Matrix: (Units=GPa)
#
#
# Indices 1 2 3 4 5 6 
#
# 1 169.9075 66.1165 34.3157 1.3144 1.3744 25.1246
# 2 66.1165 114.3473 54.3334 -15.4019 2.2909 36.7113
# 3 34.3157 54.3334 205.2408 0.3862 13.3887 13.3070
# 4 1.3144 -15.4019 0.3862 47.5582 10.1339 -0.2291
# 5 1.3744 2.2909 13.3887 10.1339 47.5157 8.2164
# 6 25.1246 36.7113 13.3070 -0.2291 8.2164 71.7505
#
#
#
# Elastic Compliance Matrix: (Units=1/GPa)
#
#
# Indices 1 2 3 4 5 6 
#
# 1 0.007748 -0.004550 -0.000091 -0.001791 0.000477 -0.000429
# 2 -0.004550 0.015266 -0.002931 0.005039 0.000128 -0.005673
# 3 -0.000091 -0.002931 0.005717 -0.000685 -0.001430 0.000633
# 4 -0.001791 0.005039 -0.000685 0.023743 -0.004856 -0.001192
# 5 0.000477 0.000128 -0.001430 -0.004856 0.022915 -0.002607
# 6 -0.000429 -0.005673 0.000633 -0.001192 -0.002607 0.017167
#
#
# Mechanical properties :
#
#
# Convention : Reuss Voigt Hill
#
# Bulk Modulus (GPa) = 73.59447 88.78075 81.18761
# Shear Modulus (GPa) = 44.55247 55.68020 50.11634
#
# Velocity S-wave (km/s) = 4.02777 4.50276 4.27187
# Velocity P-wave (km/s) = 6.95906 7.70460 7.34130
#
# Compressibility (1/GPa) = 0.01358798
#
# Stress axis : x y z
#
# Youngs Moduli (GPa) = 129.07001 65.50560 174.91931
#
# Poissons Ratio (x) = 0.29803 0.01590
# Poissons Ratio (y) = 0.58723 0.51263
# Poissons Ratio (z) = 0.01173 0.19197
#
# Static dielectric constant tensor:
#      x y z
#    x 2.249590 -0.151210 0.048310 
#    y -0.151210 2.417330 -0.067380 
#    z 0.048310 -0.067380 2.259570 
# 
# From -- ./inp_files/470675.got.cif
#   From: 2010.05.17/outbox.cif.g08.bks.cpg/sg2_236_cif.got.tgz:470675.got - 2010.06.03 11:33:40.
