data_PCOD9044416
_publ_section_title
;
Structure prediction by ZEFSAII (Michael W. Deem and Ramdas Pophale) SiO2 
 PCOD9044416
Probable space group: P -1
;
_chemical_formula_sum "Si O2"
_cell_formula_units_Z 15
_cell_length_a 11.968139
_cell_length_b 8.336160
_cell_length_c 8.928689
_cell_angle_alpha 111.914550
_cell_angle_beta 112.585556
_cell_angle_gamma 49.936780
_cell_volume 619.382052
_symmetry_space_group_name_H-M "P -1"
_symmetry_group_IT_number 2
_symmetry_cell_setting 'triclinic'
loop_
_space_group_symop_operation_xyz
x,y,z
-x,-y,-z
loop_
_atom_site_type_symbol
_atom_site_label
_atom_site_fract_x
_atom_site_fract_y
_atom_site_fract_z
Si Si1 0.464628 0.216078 0.634488
Si Si2 0.838768 0.666275 0.545702
Si Si3 0.519478 0.793806 0.003312
Si Si4 0.192842 0.667794 0.988491
Si Si5 0.908550 0.694874 0.909444
Si Si6 0.231362 0.899265 0.832973
Si Si7 0.743241 0.145543 0.636824
Si Si8 0.000000 0.000000 0.500000
O O1 0.285366 0.362235 0.587291
O O2 0.507808 0.189786 0.823762
O O3 0.564959 0.268324 0.611111
O O4 0.500000 0.000000 0.500000
O O5 0.841043 0.648796 0.719936
O O6 0.000000 0.500000 0.500000
O O7 0.799848 0.898506 0.570126
O O8 0.685190 0.579484 0.997614
O O9 0.404754 0.774689 0.839091
O O10 0.500000 0.000000 0.000000
O O11 0.202944 0.804160 0.168528
O O12 0.226202 0.736104 0.876267
O O13 0.030856 0.721848 0.913626
O O14 0.000000 0.500000 0.000000
O O15 0.794102 0.906652 0.014465
O O16 0.092716 0.008090 0.688745
O O17 0.834274 0.162688 0.558306
#
# Coordination Sequence:
#
# PCOD9044416 Si02
#       8
#     2   2   2   2   2   2   2   1
#     4  10  23  46  74 106 153 193 247 301 386 446
#     4  11  24  43  76 108 148 192 246 304 379 457
#     4  12  27  47  77 113 148 195 253 314 378 462
#     4  12  24  50  76 103 147 204 246 307 391 458
#     4  12  25  45  71 107 149 197 248 305 378 445
#     4  12  25  48  73 105 149 193 253 309 378 454
#     4  11  24  48  72 103 145 197 250 312 371 446
#     4  12  28  44  74 108 146 190 262 320 358 436
#
# _framework density 24.217684999999999
#
# number of rings (size 3 to 8) (size 9 to 14) (size 15 to 20)
#    0.000    0.533    4.000    4.000    5.600    0.000 
#    0.000    2.000    0.000    0.000    0.000    0.000 
#    0.000    0.000    0.000    0.000    0.000    0.000 
#
# Total GULP energy -83647.813639 kJ/mol
# GULP energy per Si atom -5576.520909 kJ/mol
# Density = 2.416256 g / cm^3
# Si number density = 24.217685 Si / 1000 Ang^3
#
#
#
# Elastic Constant Matrix: (Units=GPa)
#
#
# Indices 1 2 3 4 5 6 
#
# 1 128.7980 6.7182 31.0609 -4.1544 22.7155 -32.4937
# 2 6.7182 86.9192 22.4644 11.0824 6.0755 -19.2564
# 3 31.0609 22.4644 99.8790 1.6469 23.7627 -13.1567
# 4 -4.1544 11.0824 1.6469 30.3174 -15.5864 5.2435
# 5 22.7155 6.0755 23.7627 -15.5864 34.5141 -4.9699
# 6 -32.4937 -19.2564 -13.1567 5.2435 -4.9699 40.7016
#
#
#
# Elastic Compliance Matrix: (Units=1/GPa)
#
#
# Indices 1 2 3 4 5 6 
#
# 1 0.011723 0.002876 -0.000772 -0.005676 -0.008795 0.010127
# 2 0.002876 0.015628 -0.001235 -0.010640 -0.007190 0.009783
# 3 -0.000772 -0.001235 0.013693 -0.006694 -0.011336 0.002704
# 4 -0.005676 -0.010640 -0.006694 0.056243 0.033472 -0.014888
# 5 -0.008795 -0.007190 -0.011336 0.033472 0.057306 -0.011402
# 6 0.010127 0.009783 0.002704 -0.014888 -0.011402 0.038683
#
#
# Mechanical properties :
#
#
# Convention : Reuss Voigt Hill
#
# Bulk Modulus (GPa) = 23.37405 48.45369 35.91387
# Shear Modulus (GPa) = 24.29533 38.13014 31.21274
#
# Velocity S-wave (km/s) = 3.17078 3.97227 3.59394
# Velocity P-wave (km/s) = 4.80393 6.41012 5.66424
#
# Compressibility (1/GPa) = 0.04278249
#
# Stress axis : x y z
#
# Youngs Moduli (GPa) = 85.29931 63.98589 73.02747
#
# Poissons Ratio (x) = -0.18400 0.05641
# Poissons Ratio (y) = -0.24529 0.09016
# Poissons Ratio (z) = 0.06589 0.07899
#
# Static dielectric constant tensor:
#      x y z
#    x 1.960310 -0.021650 -0.049890 
#    y -0.021650 1.970810 0.018100 
#    z -0.049890 0.018100 1.867960 
# 
# From -- ./inp_files/240598.got.cif
#   From: 2010.05.17/outbox.cif.g08.bks.cpg/sg2_121_cif.got.tgz:240598.got - 2010.06.03 11:33:40.
