data_PCOD9044944
_publ_section_title
;
Structure prediction by ZEFSAII (Michael W. Deem and Ramdas Pophale) SiO2 
 PCOD9044944
Probable space group: P -1
;
_chemical_formula_sum "Si O2"
_cell_formula_units_Z 14
_cell_length_a 7.462334
_cell_length_b 7.704912
_cell_length_c 17.144273
_cell_angle_alpha 139.918435
_cell_angle_beta 57.566482
_cell_angle_gamma 122.866287
_cell_volume 519.567853
_symmetry_space_group_name_H-M "P -1"
_symmetry_group_IT_number 2
_symmetry_cell_setting 'triclinic'
loop_
_space_group_symop_operation_xyz
x,y,z
-x,-y,-z
loop_
_atom_site_type_symbol
_atom_site_label
_atom_site_fract_x
_atom_site_fract_y
_atom_site_fract_z
Si Si1 0.653417 0.996130 0.597978
Si Si2 0.791083 0.724983 0.609433
Si Si3 0.110697 0.452345 0.633243
Si Si4 0.647490 0.828260 0.986907
Si Si5 0.479252 0.341646 0.203971
Si Si6 0.107111 0.069834 0.890766
Si Si7 0.206965 0.156893 0.721834
O O1 0.720439 0.736979 0.450712
O O2 0.633184 0.884028 0.653559
O O3 0.434749 0.059705 0.638531
O O4 0.869360 0.250018 0.630897
O O5 0.156216 0.484215 0.539656
O O6 0.686708 0.605587 0.673920
O O7 0.014079 0.953372 0.651508
O O8 0.134343 0.752491 0.767498
O O9 0.477710 0.018814 0.101334
O O10 0.719419 0.749107 0.027513
O O11 0.574857 0.617097 0.860271
O O12 0.868733 0.029398 0.969183
O O13 0.717867 0.538501 0.227305
O O14 0.126627 0.178864 0.836390
#
# Coordination Sequence:
#
# PCOD9044944 Si02
#       7
#     2   2   2   2   2   2   2
#     4   9  22  45  67 106 144 183 225 280 359 421
#     4  10  23  48  69 106 146 175 227 299 340 425
#     4   9  22  46  70 100 148 176 230 295 336 425
#     4  10  24  45  70  94 142 184 234 293 338 405
#     4  11  24  47  68 106 142 176 237 296 340 412
#     4  11  23  45  70 101 134 192 235 276 354 413
#     4  12  25  42  75 107 135 191 229 277 369 411
#
# _framework density 26.94547
#
# number of rings (size 3 to 8) (size 9 to 14) (size 15 to 20)
#    0.857    0.857    1.429    1.714    2.000    2.857 
#    2.571    1.429    0.000    0.000    0.000    0.000 
#    0.000    0.000    0.000    0.000    0.000    0.000 
#
# Total GULP energy -78427.210489 kJ/mol
# GULP energy per Si atom -5601.943606 kJ/mol
# Density = 2.688414 g / cm^3
# Si number density = 26.945470 Si / 1000 Ang^3
#
#
#
# Elastic Constant Matrix: (Units=GPa)
#
#
# Indices 1 2 3 4 5 6 
#
# 1 96.5449 4.1331 34.9335 -1.0471 16.3214 7.6239
# 2 4.1331 90.3507 26.8136 -0.6437 13.1014 8.7086
# 3 34.9335 26.8136 120.9865 -16.4903 10.8821 -5.2624
# 4 -1.0471 -0.6437 -16.4903 35.3352 -3.8895 9.1409
# 5 16.3214 13.1014 10.8821 -3.8895 56.1522 -5.6884
# 6 7.6239 8.7086 -5.2624 9.1409 -5.6884 41.2512
#
#
#
# Elastic Compliance Matrix: (Units=1/GPa)
#
#
# Indices 1 2 3 4 5 6 
#
# 1 0.012584 0.001434 -0.003900 -0.000937 -0.003648 -0.003421
# 2 0.001434 0.012764 -0.003200 -0.000620 -0.003189 -0.003670
# 3 -0.003900 -0.003200 0.010755 0.004403 0.000287 0.001832
# 4 -0.000937 -0.000620 0.004403 0.032014 0.001167 -0.006067
# 5 -0.003648 -0.003189 0.000287 0.001167 0.020032 0.003888
# 6 -0.003421 -0.003670 0.001832 -0.006067 0.003888 0.027763
#
#
# Mechanical properties :
#
#
# Convention : Reuss Voigt Hill
#
# Bulk Modulus (GPa) = 40.37032 48.84917 44.60974
# Shear Modulus (GPa) = 36.89996 42.68118 39.79057
#
# Velocity S-wave (km/s) = 3.70460 3.98425 3.84696
# Velocity P-wave (km/s) = 5.77178 6.27167 6.02691
#
# Compressibility (1/GPa) = 0.02477068
#
# Stress axis : x y z
#
# Youngs Moduli (GPa) = 79.46392 78.34589 92.98322
#
# Poissons Ratio (x) = -0.11233 0.36262
# Poissons Ratio (y) = -0.11393 0.29755
# Poissons Ratio (z) = 0.30989 0.25071
#
# Static dielectric constant tensor:
#      x y z
#    x 2.161080 -0.033730 0.033230 
#    y -0.033730 2.086740 0.019260 
#    z 0.033230 0.019260 2.063910 
# 
# From -- ./inp_files/313608.got.cif
#   From: 2010.05.17/outbox.cif.g08.bks.cpg/sg2_157_cif.got.tgz:313608.got - 2010.06.03 11:33:40.
