data_PCOD9044369
_publ_section_title
;
Structure prediction by ZEFSAII (Michael W. Deem and Ramdas Pophale) SiO2 
 PCOD9044369
Probable space group: P -1
;
_chemical_formula_sum "Si O2"
_cell_formula_units_Z 12
_cell_length_a 11.552759
_cell_length_b 7.481579
_cell_length_c 7.683808
_cell_angle_alpha 123.477904
_cell_angle_beta 68.135882
_cell_angle_gamma 85.308624
_cell_volume 477.410749
_symmetry_space_group_name_H-M "P -1"
_symmetry_group_IT_number 2
_symmetry_cell_setting 'triclinic'
loop_
_space_group_symop_operation_xyz
x,y,z
-x,-y,-z
loop_
_atom_site_type_symbol
_atom_site_label
_atom_site_fract_x
_atom_site_fract_y
_atom_site_fract_z
Si Si1 0.367104 0.537563 0.412676
Si Si2 0.787837 0.207545 0.040446
Si Si3 0.698416 0.878582 0.711042
Si Si4 0.507491 0.796539 0.258540
Si Si5 0.208406 0.534811 0.187217
Si Si6 0.954318 0.463806 0.198076
O O1 0.331749 0.653476 0.683609
O O2 0.393730 0.267907 0.270733
O O3 0.475770 0.603390 0.282039
O O4 0.237966 0.634286 0.406010
O O5 0.799289 0.311907 0.898384
O O6 0.913034 0.240872 0.087917
O O7 0.763289 0.977524 0.881196
O O8 0.821242 0.684577 0.437450
O O9 0.391470 0.910684 0.244588
O O10 0.656239 0.684732 0.041447
O O11 0.500000 0.000000 0.500000
O O12 0.078010 0.470351 0.244829
O O13 0.000000 0.500000 0.000000
#
# Coordination Sequence:
#
# PCOD9044369 Si02
#       6
#     2   2   2   2   2   2
#     4  11  26  47  72 107 148 183 238 304 349 423
#     4  10  23  46  73 108 140 189 239 292 359 422
#     4  11  25  47  76 107 141 189 242 292 359 424
#     4  12  26  47  75 108 142 192 241 291 362 425
#     4  11  24  48  72 104 152 185 235 302 353 422
#     4   9  21  45  75 104 145 187 234 299 352 422
#
# _framework density 25.135587000000001
#
# number of rings (size 3 to 8) (size 9 to 14) (size 15 to 20)
#    0.000    1.333    1.667    3.500    2.333    8.667 
#    3.000    1.667    0.000    0.000    0.000    0.000 
#    0.000    0.000    0.000    0.000    0.000    0.000 
#
# Total GULP energy -67112.906811 kJ/mol
# GULP energy per Si atom -5592.742234 kJ/mol
# Density = 2.507838 g / cm^3
# Si number density = 25.135587 Si / 1000 Ang^3
#
#
#
# Elastic Constant Matrix: (Units=GPa)
#
#
# Indices 1 2 3 4 5 6 
#
# 1 126.2791 46.6836 31.4893 -0.0418 -10.0979 25.1128
# 2 46.6836 155.4577 53.4682 -2.2600 -4.1256 15.9440
# 3 31.4893 53.4682 120.9363 4.8523 14.2391 9.9182
# 4 -0.0418 -2.2600 4.8523 37.4639 3.3496 15.6264
# 5 -10.0979 -4.1256 14.2391 3.3496 38.7253 0.5622
# 6 25.1128 15.9440 9.9182 15.6264 0.5622 48.9899
#
#
#
# Elastic Compliance Matrix: (Units=1/GPa)
#
#
# Indices 1 2 3 4 5 6 
#
# 1 0.010303 -0.001816 -0.001916 0.001940 0.003102 -0.004957
# 2 -0.001816 0.008348 -0.003326 0.001461 0.001536 -0.001596
# 3 -0.001916 -0.003326 0.010819 -0.001329 -0.004722 0.000353
# 4 0.001940 0.001461 -0.001329 0.031809 -0.001437 -0.011331
# 5 0.003102 0.001536 -0.004722 -0.001437 0.028671 -0.001005
# 6 -0.004957 -0.001596 0.000353 -0.011331 -0.001005 0.027027
#
#
# Mechanical properties :
#
#
# Convention : Reuss Voigt Hill
#
# Bulk Modulus (GPa) = 65.13808 73.99505 69.56657
# Shear Modulus (GPa) = 36.70793 43.10462 39.90628
#
# Velocity S-wave (km/s) = 3.82566 4.14561 3.98884
# Velocity P-wave (km/s) = 6.74427 7.23996 6.99651
#
# Compressibility (1/GPa) = 0.01535200
#
# Stress axis : x y z
#
# Youngs Moduli (GPa) = 97.06370 119.79369 92.43134
#
# Poissons Ratio (x) = 0.21753 0.17712
# Poissons Ratio (y) = 0.17625 0.30746
# Poissons Ratio (z) = 0.18600 0.39848
#
# Static dielectric constant tensor:
#      x y z
#    x 2.087530 0.045680 0.026150 
#    y 0.045680 2.092680 -0.024140 
#    z 0.026150 -0.024140 1.940250 
# 
# From -- ./inp_files/199905.got.cif
#   From: 2010.05.17/outbox.cif.g08.bks.cpg/sg2_100_cif.got.tgz:199905.got - 2010.06.03 11:33:40.
