data_PCOD9044676
_publ_section_title
;
Structure prediction by ZEFSAII (Michael W. Deem and Ramdas Pophale) SiO2 
 PCOD9044676
Probable space group: P -1
;
_chemical_formula_sum "Si O2"
_cell_formula_units_Z 13
_cell_length_a 7.149000
_cell_length_b 11.679742
_cell_length_c 9.131559
_cell_angle_alpha 116.862266
_cell_angle_beta 56.235717
_cell_angle_gamma 111.289066
_cell_volume 558.989645
_symmetry_space_group_name_H-M "P -1"
_symmetry_group_IT_number 2
_symmetry_cell_setting 'triclinic'
loop_
_space_group_symop_operation_xyz
x,y,z
-x,-y,-z
loop_
_atom_site_type_symbol
_atom_site_label
_atom_site_fract_x
_atom_site_fract_y
_atom_site_fract_z
Si Si1 0.390420 0.089611 0.214218
Si Si2 0.500000 0.500000 0.000000
Si Si3 0.041102 0.843228 0.303342
Si Si4 0.986269 0.595845 0.777360
Si Si5 0.366846 0.670452 0.894348
Si Si6 0.536359 0.861112 0.466790
Si Si7 0.901788 0.303263 0.522705
O O1 0.420084 0.227555 0.197975
O O2 0.523658 0.128258 0.329467
O O3 0.175418 0.987861 0.305712
O O4 0.500000 0.000000 0.000000
O O5 0.747112 0.599586 0.961032
O O6 0.450177 0.563884 0.898783
O O7 0.795735 0.837655 0.333784
O O8 0.007531 0.791292 0.454618
O O9 0.202354 0.749114 0.106909
O O10 0.950509 0.447322 0.648643
O O11 0.204638 0.615566 0.798916
O O12 0.022207 0.688360 0.673647
O O13 0.368540 0.748040 0.395139
O O14 0.500000 0.000000 0.500000
#
# Coordination Sequence:
#
# PCOD9044676 Si02
#       7
#     2   1   2   2   2   2   2
#     4  10  23  47  71 101 140 180 232 291 352 416
#     4  12  26  42  76  98 142 186 238 284 344 416
#     4  11  25  45  73 103 146 178 235 293 348 422
#     4  11  26  45  70 101 145 186 238 285 348 418
#     4  11  25  48  69 106 143 187 233 291 351 415
#     4  12  25  44  73 102 139 187 230 291 357 413
#     4  11  25  45  68 107 139 187 235 287 352 420
#
# _framework density 23.256246999999998
#
# number of rings (size 3 to 8) (size 9 to 14) (size 15 to 20)
#    0.000    0.923    4.615    0.923    4.308    0.000 
#    0.000    4.615    0.000    0.000    0.000    0.000 
#    0.000    0.000    0.000    0.000    0.000    0.000 
#
# Total GULP energy -72397.253584 kJ/mol
# GULP energy per Si atom -5569.019506 kJ/mol
# Density = 2.320331 g / cm^3
# Si number density = 23.256247 Si / 1000 Ang^3
#
#
#
# Elastic Constant Matrix: (Units=GPa)
#
#
# Indices 1 2 3 4 5 6 
#
# 1 141.7007 78.7090 22.3418 -33.0945 18.1943 0.3320
# 2 78.7090 154.2177 59.0527 -53.6241 14.6244 4.4064
# 3 22.3418 59.0527 84.5900 -33.8745 14.9788 -10.6792
# 4 -33.0945 -53.6241 -33.8745 54.1900 3.7495 7.5067
# 5 18.1943 14.6244 14.9788 3.7495 34.4316 -9.9527
# 6 0.3320 4.4064 -10.6792 7.5067 -9.9527 49.6634
#
#
#
# Elastic Compliance Matrix: (Units=1/GPa)
#
#
# Indices 1 2 3 4 5 6 
#
# 1 0.010962 -0.004578 0.003101 0.004640 -0.005962 -0.000896
# 2 -0.004578 0.014471 -0.005088 0.009232 -0.003822 -0.004509
# 3 0.003101 -0.005088 0.020330 0.009981 -0.008977 0.001495
# 4 0.004640 0.009232 0.009981 0.038975 -0.017289 -0.008060
# 5 -0.005962 -0.003822 -0.008977 -0.017289 0.042366 0.009552
# 6 -0.000896 -0.004509 0.001495 -0.008060 0.009552 0.023996
#
#
# Mechanical properties :
#
#
# Convention : Reuss Voigt Hill
#
# Bulk Modulus (GPa) = 30.64432 77.85727 54.25079
# Shear Modulus (GPa) = 28.55392 42.35065 35.45229
#
# Velocity S-wave (km/s) = 3.50779 4.27200 3.90862
# Velocity P-wave (km/s) = 5.44165 7.60815 6.61421
#
# Compressibility (1/GPa) = 0.03263248
#
# Stress axis : x y z
#
# Youngs Moduli (GPa) = 91.22148 69.10501 49.18809
#
# Poissons Ratio (x) = 0.31637 -0.15254
# Poissons Ratio (y) = 0.41763 0.25029
# Poissons Ratio (z) = -0.28289 0.35163
#
# Static dielectric constant tensor:
#      x y z
#    x 1.890890 -0.024860 -0.102570 
#    y -0.024860 1.884300 0.057810 
#    z -0.102570 0.057810 2.043240 
# 
# From -- ./inp_files/25326.got.cif
#   From: 2010.05.17/outbox.cif.g08.bks.cpg/sg2_13_cif.got.tgz:25326.got - 2010.06.03 11:33:40.
