data_PCOD9044690
_publ_section_title
;
Structure prediction by ZEFSAII (Michael W. Deem and Ramdas Pophale) SiO2 
 PCOD9044690
Probable space group: P -1
;
_chemical_formula_sum "Si O2"
_cell_formula_units_Z 16
_cell_length_a 16.240554
_cell_length_b 24.967123
_cell_length_c 5.254484
_cell_angle_alpha 71.268369
_cell_angle_beta 72.078443
_cell_angle_gamma 18.147264
_cell_volume 628.421722
_symmetry_space_group_name_H-M "P -1"
_symmetry_group_IT_number 2
_symmetry_cell_setting 'triclinic'
loop_
_space_group_symop_operation_xyz
x,y,z
-x,-y,-z
loop_
_atom_site_type_symbol
_atom_site_label
_atom_site_fract_x
_atom_site_fract_y
_atom_site_fract_z
Si Si1 0.795030 0.992757 0.176038
Si Si2 0.721720 0.325369 0.191795
Si Si3 0.496029 0.907662 0.342404
Si Si4 0.147057 0.931455 0.717793
Si Si5 0.621576 0.565191 0.695360
Si Si6 0.113334 0.285532 0.390126
Si Si7 0.000915 0.742993 0.829557
Si Si8 0.737578 0.691637 0.057212
O O1 0.693987 0.998643 0.399629
O O2 0.845799 0.006057 0.335055
O O3 0.529288 0.173453 0.996139
O O4 0.046210 0.832867 0.992084
O O5 0.572237 0.360994 0.367391
O O6 0.837541 0.299299 0.319542
O O7 0.500000 0.500000 0.000000
O O8 0.690389 0.835191 0.372571
O O9 0.677340 0.742991 0.330816
O O10 0.284213 0.058783 0.103796
O O11 0.433644 0.725561 0.766155
O O12 0.000000 0.000000 0.500000
O O13 0.000000 0.000000 0.000000
O O14 0.814520 0.481454 0.461733
O O15 0.815830 0.408108 0.930028
O O16 0.220250 0.270113 0.141351
O O17 0.083336 0.245683 0.334690
O O18 0.000000 0.500000 0.000000
#
# Coordination Sequence:
#
# PCOD9044690 Si02
#       8
#     2   2   2   2   2   2   2   2
#     4  11  26  47  76 110 148 204 258 319 405 460
#     4  10  23  47  71 107 149 196 252 312 390 469
#     4  11  26  47  75 108 150 202 256 324 396 467
#     4  12  30  50  80 113 162 204 266 328 396 480
#     4  11  27  47  73 113 152 200 259 321 398 466
#     4  11  27  44  73 112 146 202 254 322 401 461
#     4  11  25  46  76 104 154 193 261 319 382 479
#     4  11  27  48  76 104 150 197 262 323 391 475
#
# _framework density 25.460608000000001
#
# number of rings (size 3 to 8) (size 9 to 14) (size 15 to 20)
#    0.000    1.000    2.500    1.125   14.000    3.500 
#    0.000    0.000    0.000    0.000    0.000    0.000 
#    0.000    0.000    0.000    0.000    0.000    0.000 
#
# Total GULP energy -89463.756184 kJ/mol
# GULP energy per Si atom -5591.484761 kJ/mol
# Density = 2.540266 g / cm^3
# Si number density = 25.460608 Si / 1000 Ang^3
#
#
#
# Elastic Constant Matrix: (Units=GPa)
#
#
# Indices 1 2 3 4 5 6 
#
# 1 156.6104 40.9571 24.6497 -11.6567 30.1928 -28.8580
# 2 40.9571 179.1280 24.9030 16.1604 14.8877 -9.0724
# 3 24.6497 24.9030 56.9985 10.8529 12.3767 -12.1439
# 4 -11.6567 16.1604 10.8529 34.5020 -9.1724 -4.1150
# 5 30.1928 14.8877 12.3767 -9.1724 45.6236 -2.7855
# 6 -28.8580 -9.0724 -12.1439 -4.1150 -2.7855 49.6991
#
#
#
# Elastic Compliance Matrix: (Units=1/GPa)
#
#
# Indices 1 2 3 4 5 6 
#
# 1 0.008998 -0.001572 -0.002184 0.004001 -0.003769 0.004524
# 2 -0.001572 0.006551 -0.001242 -0.003662 -0.001522 -0.000409
# 3 -0.002184 -0.001242 0.022524 -0.008419 -0.005770 0.002988
# 4 0.004001 -0.003662 -0.008419 0.037346 0.008532 0.003168
# 5 -0.003769 -0.001522 -0.005770 0.008532 0.028092 -0.001595
# 6 0.004524 -0.000409 0.002988 0.003168 -0.001595 0.023577
#
#
# Mechanical properties :
#
#
# Convention : Reuss Voigt Hill
#
# Bulk Modulus (GPa) = 35.61636 63.75072 49.68354
# Shear Modulus (GPa) = 34.14307 46.11342 40.12824
#
# Velocity S-wave (km/s) = 3.66596 4.26040 3.97431
# Velocity P-wave (km/s) = 5.65139 7.02101 6.37310
#
# Compressibility (1/GPa) = 0.02807698
#
# Stress axis : x y z
#
# Youngs Moduli (GPa) = 111.13202 152.65121 44.39738
#
# Poissons Ratio (x) = 0.24003 0.09697
# Poissons Ratio (y) = 0.17475 0.05512
# Poissons Ratio (z) = 0.24272 0.18952
#
# Static dielectric constant tensor:
#      x y z
#    x 2.072030 0.115600 0.069870 
#    y 0.115600 2.129660 -0.034120 
#    z 0.069870 -0.034120 2.078760 
# 
# From -- ./inp_files/101058.got.cif
#   From: 2010.05.17/outbox.cif.g08.bks.cpg/sg2_51_cif.got.tgz:101058.got - 2010.06.03 11:33:40.
