data_PCOD9044860
_publ_section_title
;
Structure prediction by ZEFSAII (Michael W. Deem and Ramdas Pophale) SiO2 
 PCOD9044860
Probable space group: P -1
;
_chemical_formula_sum "Si O2"
_cell_formula_units_Z 16
_cell_length_a 5.563734
_cell_length_b 9.398507
_cell_length_c 18.846344
_cell_angle_alpha 48.823051
_cell_angle_beta 84.340396
_cell_angle_gamma 77.828048
_cell_volume 724.000262
_symmetry_space_group_name_H-M "P -1"
_symmetry_group_IT_number 2
_symmetry_cell_setting 'triclinic'
loop_
_space_group_symop_operation_xyz
x,y,z
-x,-y,-z
loop_
_atom_site_type_symbol
_atom_site_label
_atom_site_fract_x
_atom_site_fract_y
_atom_site_fract_z
Si Si1 0.861022 0.201241 0.405398
Si Si2 0.414612 0.091004 0.075768
Si Si3 0.607440 0.294813 0.526993
Si Si4 0.841175 0.933654 0.366991
Si Si5 0.826310 0.505083 0.070410
Si Si6 0.857762 0.599431 0.770310
Si Si7 0.775199 0.173380 0.936111
Si Si8 0.544057 0.181511 0.191716
O O1 0.676320 0.301404 0.438705
O O2 0.043094 0.336996 0.327761
O O3 0.776161 0.113254 0.364567
O O4 0.000000 0.000000 0.500000
O O5 0.412679 0.094356 0.159177
O O6 0.388178 0.900761 0.097090
O O7 0.225097 0.267395 0.990035
O O8 0.653603 0.169121 0.018095
O O9 0.500000 0.500000 0.500000
O O10 0.375417 0.187382 0.575312
O O11 0.875487 0.183871 0.589554
O O12 0.783155 0.028089 0.260045
O O13 0.616787 0.382886 0.100614
O O14 0.939182 0.413655 0.169834
O O15 0.000000 0.500000 0.000000
O O16 0.800433 0.385608 0.842621
O O17 0.639839 0.759389 0.756567
O O18 0.000000 0.000000 0.000000
#
# Coordination Sequence:
#
# PCOD9044860 Si02
#       8
#     2   2   2   2   2   2   2   2
#     4  10  23  47  76 106 144 191 243 311 382 448
#     4  11  24  42  63  98 138 198 234 304 372 436
#     4  11  25  50  78 110 149 194 240 312 389 458
#     4  11  24  47  77 110 146 192 248 310 377 461
#     4  12  22  38  68  99 136 181 246 300 365 425
#     4  12  23  43  70 105 136 192 252 312 371 448
#     4  11  24  43  64  90 147 190 245 295 372 451
#     4  12  24  41  69 102 139 182 254 308 363 445
#
# _framework density 22.099440999999999
#
# number of rings (size 3 to 8) (size 9 to 14) (size 15 to 20)
#    0.000    0.750    5.000    3.375    0.000    1.000 
#    2.250    2.500    0.000    0.000    0.000    0.000 
#    0.000    0.000    0.000    0.000    0.000    0.000 
#
# Total GULP energy -89122.194432 kJ/mol
# GULP energy per Si atom -5570.137152 kJ/mol
# Density = 2.204914 g / cm^3
# Si number density = 22.099441 Si / 1000 Ang^3
#
#
#
# Elastic Constant Matrix: (Units=GPa)
#
#
# Indices 1 2 3 4 5 6 
#
# 1 85.0412 39.5554 38.0074 -6.7567 1.1096 -1.6620
# 2 39.5554 128.6716 36.5040 -8.7833 -12.8397 -6.7236
# 3 38.0074 36.5040 107.8140 -4.2416 -7.1016 -2.7181
# 4 -6.7567 -8.7833 -4.2416 19.6463 9.6331 -2.5397
# 5 1.1096 -12.8397 -7.1016 9.6331 50.1641 -1.1227
# 6 -1.6620 -6.7236 -2.7181 -2.5397 -1.1227 36.1462
#
#
#
# Elastic Compliance Matrix: (Units=1/GPa)
#
#
# Indices 1 2 3 4 5 6 
#
# 1 0.015737 -0.003591 -0.004346 0.004178 -0.002686 -0.000061
# 2 -0.003591 0.009813 -0.001803 0.002011 0.001988 0.001728
# 3 -0.004346 -0.001803 0.011498 -0.000438 0.001354 0.000341
# 4 0.004178 0.002011 -0.000438 0.059037 -0.010880 0.004343
# 5 -0.002686 0.001988 0.001354 -0.010880 0.022790 0.000292
# 6 -0.000061 0.001728 0.000341 0.004343 0.000292 0.028324
#
#
# Mechanical properties :
#
#
# Convention : Reuss Voigt Hill
#
# Bulk Modulus (GPa) = 56.91922 61.07339 58.99630
# Shear Modulus (GPa) = 28.97927 35.02200 32.00063
#
# Velocity S-wave (km/s) = 3.62513 3.98521 3.80943
# Velocity P-wave (km/s) = 6.58286 6.99082 6.78990
#
# Compressibility (1/GPa) = 0.01756876
#
# Stress axis : x y z
#
# Youngs Moduli (GPa) = 63.54252 101.90431 86.96873
#
# Poissons Ratio (x) = 0.36594 0.37798
# Poissons Ratio (y) = 0.22818 0.15680
# Poissons Ratio (z) = 0.27617 0.18373
#
# Static dielectric constant tensor:
#      x y z
#    x 1.790580 0.116110 -0.029900 
#    y 0.116110 1.739800 0.020810 
#    z -0.029900 0.020810 1.816190 
# 
# From -- ./inp_files/90107.got.cif
#   From: 2010.05.17/outbox.cif.g08.bks.cpg/sg2_46_cif.got.tgz:90107.got - 2010.06.03 11:33:40.
