data_PCOD9044574
_publ_section_title
;
Structure prediction by ZEFSAII (Michael W. Deem and Ramdas Pophale) SiO2 
 PCOD9044574
Probable space group: P -1
;
_chemical_formula_sum "Si O2"
_cell_formula_units_Z 16
_cell_length_a 11.578805
_cell_length_b 13.282562
_cell_length_c 11.384621
_cell_angle_alpha 117.069272
_cell_angle_beta 126.434378
_cell_angle_gamma 32.518383
_cell_volume 753.017717
_symmetry_space_group_name_H-M "P -1"
_symmetry_group_IT_number 2
_symmetry_cell_setting 'triclinic'
loop_
_space_group_symop_operation_xyz
x,y,z
-x,-y,-z
loop_
_atom_site_type_symbol
_atom_site_label
_atom_site_fract_x
_atom_site_fract_y
_atom_site_fract_z
Si Si1 0.725459 0.602306 0.324605
Si Si2 0.722442 0.001845 0.089474
Si Si3 0.776766 0.321261 0.252497
Si Si4 0.562394 0.547196 0.462222
Si Si5 0.766737 0.708991 0.915927
Si Si6 0.272168 0.840298 0.039508
Si Si7 0.870459 0.551411 0.643292
Si Si8 0.072643 0.957719 0.385523
O O1 0.853227 0.397922 0.298142
O O2 0.454600 0.745666 0.204357
O O3 0.754479 0.640406 0.490258
O O4 0.855117 0.592607 0.296666
O O5 0.947421 0.925450 0.239563
O O6 0.484236 0.173732 0.115411
O O7 0.771943 0.838453 0.018074
O O8 0.691947 0.079527 0.986161
O O9 0.576767 0.472267 0.309335
O O10 0.680145 0.304182 0.081338
O O11 0.972394 0.125566 0.338763
O O12 0.500000 0.500000 0.500000
O O13 0.809110 0.459109 0.584485
O O14 0.355677 0.769920 0.450596
O O15 0.777723 0.679555 0.766790
O O16 0.000000 0.500000 0.000000
O O17 0.000000 0.000000 0.000000
O O18 0.000000 0.000000 0.500000
#
# Coordination Sequence:
#
# PCOD9044574 Si02
#       8
#     2   2   2   2   2   2   2   2
#     4  10  23  47  67  99 139 180 238 279 336 430
#     4  10  26  42  64 107 129 173 239 277 342 417
#     4  10  24  40  69 100 131 182 229 279 351 401
#     4  11  23  41  68  99 137 179 223 281 355 407
#     4  11  24  45  71  95 140 179 222 283 353 411
#     4  11  25  45  70  99 139 179 237 289 344 406
#     4  10  24  42  70  99 133 183 229 275 352 410
#     4  11  22  40  66 103 142 169 227 286 336 415
#
# _framework density 21.247841000000001
#
# number of rings (size 3 to 8) (size 9 to 14) (size 15 to 20)
#    0.000    1.500    1.250    1.875   12.250    1.000 
#    0.000    3.750    0.000    0.000    0.000    0.000 
#    0.000    0.000    0.000    0.000    0.000    0.000 
#
# Total GULP energy -89356.193407 kJ/mol
# GULP energy per Si atom -5584.762088 kJ/mol
# Density = 2.119948 g / cm^3
# Si number density = 21.247841 Si / 1000 Ang^3
#
#
#
# Elastic Constant Matrix: (Units=GPa)
#
#
# Indices 1 2 3 4 5 6 
#
# 1 131.8394 38.4088 22.7733 -3.6074 6.6504 -14.7362
# 2 38.4088 96.1368 37.5231 2.7121 -2.1091 -11.2841
# 3 22.7733 37.5231 104.2676 2.8604 -3.7456 -6.2846
# 4 -3.6074 2.7121 2.8604 31.3671 -6.2646 -6.2572
# 5 6.6504 -2.1091 -3.7456 -6.2646 33.3823 2.7715
# 6 -14.7362 -11.2841 -6.2846 -6.2572 2.7715 35.1445
#
#
#
# Elastic Compliance Matrix: (Units=1/GPa)
#
#
# Indices 1 2 3 4 5 6 
#
# 1 0.009112 -0.003040 -0.000825 0.001602 -0.002060 0.003145
# 2 -0.003040 0.013469 -0.004011 -0.000571 0.000719 0.002174
# 3 -0.000825 -0.004011 0.011279 -0.000523 0.001061 0.000207
# 4 0.001602 -0.000571 -0.000523 0.034487 0.005552 0.006097
# 5 -0.002060 0.000719 0.001061 0.005552 0.031735 -0.001958
# 6 0.003145 0.002174 0.000207 0.006097 -0.001958 0.031748
#
#
# Mechanical properties :
#
#
# Convention : Reuss Voigt Hill
#
# Bulk Modulus (GPa) = 55.21849 58.85048 57.03449
# Shear Modulus (GPa) = 32.54845 35.54801 34.04823
#
# Velocity S-wave (km/s) = 3.91813 4.09469 4.00738
# Velocity P-wave (km/s) = 6.82006 7.07903 6.95075
#
# Compressibility (1/GPa) = 0.01810987
#
# Stress axis : x y z
#
# Youngs Moduli (GPa) = 109.74103 74.24545 88.66003
#
# Poissons Ratio (x) = 0.22570 0.07311
# Poissons Ratio (y) = 0.33361 0.35558
# Poissons Ratio (z) = 0.09050 0.29777
#
# Static dielectric constant tensor:
#      x y z
#    x 1.761990 -0.009020 0.030020 
#    y -0.009020 1.777210 -0.011000 
#    z 0.030020 -0.011000 1.733060 
# 
# From -- ./inp_files/433129.got.cif
#   From: 2010.05.17/outbox.cif.g08.bks.cpg/sg2_217_cif.got.tgz:433129.got - 2010.06.03 11:33:40.
