data_PCOD9044283
_publ_section_title
;
Structure prediction by ZEFSAII (Michael W. Deem and Ramdas Pophale) SiO2 
 PCOD9044283
Probable space group: P -1
;
_chemical_formula_sum "Si O2"
_cell_formula_units_Z 16
_cell_length_a 12.206447
_cell_length_b 18.118938
_cell_length_c 8.631425
_cell_angle_alpha 59.485821
_cell_angle_beta 48.993748
_cell_angle_gamma 28.435339
_cell_volume 673.113985
_symmetry_space_group_name_H-M "P -1"
_symmetry_group_IT_number 2
_symmetry_cell_setting 'triclinic'
loop_
_space_group_symop_operation_xyz
x,y,z
-x,-y,-z
loop_
_atom_site_type_symbol
_atom_site_label
_atom_site_fract_x
_atom_site_fract_y
_atom_site_fract_z
Si Si1 0.258534 0.171022 0.464537
Si Si2 0.605269 0.227224 0.228523
Si Si3 0.005963 0.116493 0.762208
Si Si4 0.353392 0.152958 0.049621
Si Si5 0.188311 0.637128 0.808958
Si Si6 0.651019 0.301405 0.616813
Si Si7 0.051391 0.579303 0.251725
Si Si8 0.619114 0.698170 0.321616
O O1 0.366179 0.153362 0.221235
O O2 0.056231 0.191379 0.603931
O O3 0.121650 0.308308 0.557304
O O4 0.500000 0.000000 0.500000
O O5 0.323557 0.396111 0.237227
O O6 0.563070 0.244945 0.431352
O O7 0.816085 0.190162 0.004522
O O8 0.728945 0.071349 0.249684
O O9 0.854139 0.158416 0.702932
O O10 0.039565 0.295850 0.153340
O O11 0.471008 0.174132 0.824838
O O12 0.500000 0.000000 0.000000
O O13 0.487896 0.454345 0.699464
O O14 0.197338 0.728385 0.635263
O O15 0.108692 0.642146 0.046967
O O16 0.412283 0.359747 0.714286
O O17 0.885172 0.599897 0.267707
#
# Coordination Sequence:
#
# PCOD9044283 Si02
#       8
#     2   2   2   2   2   2   2   2
#     4  12  26  47  78 108 146 198 249 303 376 443
#     4  11  25  47  69 109 155 187 244 304 379 438
#     4  11  25  48  73 105 148 199 243 307 366 450
#     4  11  24  47  74 103 149 189 250 298 364 449
#     4  10  23  46  72 105 143 193 249 300 368 437
#     4  11  24  46  75 105 145 192 252 306 364 442
#     4  11  25  46  76 110 150 193 247 309 372 446
#     4  11  27  44  74 107 145 195 241 310 365 436
#
# _framework density 23.770119000000001
#
# number of rings (size 3 to 8) (size 9 to 14) (size 15 to 20)
#    0.000    1.000    2.500    3.375    3.500    6.000 
#    0.000    0.000    0.000    0.000    0.000    0.000 
#    0.000    0.000    0.000    0.000    0.000    0.000 
#
# Total GULP energy -89354.580397 kJ/mol
# GULP energy per Si atom -5584.661275 kJ/mol
# Density = 2.371602 g / cm^3
# Si number density = 23.770119 Si / 1000 Ang^3
#
#
#
# Elastic Constant Matrix: (Units=GPa)
#
#
# Indices 1 2 3 4 5 6 
#
# 1 83.2800 36.4259 26.2414 2.4005 3.1587 -14.7584
# 2 36.4259 120.4257 32.6840 4.3266 21.4138 -22.6503
# 3 26.2414 32.6840 136.1439 -25.8902 31.7710 -7.1743
# 4 2.4005 4.3266 -25.8902 36.3537 -6.8312 -6.3678
# 5 3.1587 21.4138 31.7710 -6.8312 20.0088 -17.9278
# 6 -14.7584 -22.6503 -7.1743 -6.3678 -17.9278 8.8842
#
#
#
# Elastic Compliance Matrix: (Units=1/GPa)
#
#
# Indices 1 2 3 4 5 6 
#
# 1 0.012308 -0.004049 -0.000844 -0.004855 -0.009175 -0.012554
# 2 -0.004049 0.012045 -0.000248 -0.002288 -0.008911 0.004162
# 3 -0.000844 -0.000248 0.010065 0.009849 0.000539 0.014241
# 4 -0.004855 -0.002288 0.009849 0.029975 -0.014521 -0.013763
# 5 -0.009175 -0.008911 0.000539 -0.014521 -0.015100 -0.078405
# 6 -0.012554 0.004162 0.014241 -0.013763 -0.078405 -0.054266
#
#
# Mechanical properties :
#
#
# Convention : Reuss Voigt Hill
#
# Bulk Modulus (GPa) = 41.42981 58.95024 50.19002
# Shear Modulus (GPa) = 374.44377 29.34922 201.89650
#
# Velocity S-wave (km/s) = 12.56460 3.51766 9.22613
# Velocity P-wave (km/s) = 15.09832 6.43059 11.60413
#
# Compressibility (1/GPa) = 0.02413721
#
# Stress axis : x y z
#
# Youngs Moduli (GPa) = 81.24924 83.01982 99.35494
#
# Poissons Ratio (x) = 0.33615 0.08384
# Poissons Ratio (y) = 0.32898 0.02460
# Poissons Ratio (z) = 0.06856 0.02055
#
# Static dielectric constant tensor:
#      x y z
#    x 1.958950 -0.012070 -0.025580 
#    y -0.012070 1.866720 -0.022070 
#    z -0.025580 -0.022070 1.918440 
# 
# From -- ./inp_files/279188.got.cif
#   From: 2010.05.17/outbox.cif.g08.bks.cpg/sg2_140_cif.got.tgz:279188.got - 2010.06.03 11:33:40.
