data_PCOD9044930
_publ_section_title
;
Structure prediction by ZEFSAII (Michael W. Deem and Ramdas Pophale) SiO2 
 PCOD9044930
Probable space group: P -1
;
_chemical_formula_sum "Si O2"
_cell_formula_units_Z 13
_cell_length_a 9.149158
_cell_length_b 8.972789
_cell_length_c 9.781826
_cell_angle_alpha 69.921723
_cell_angle_beta 71.558774
_cell_angle_gamma 51.550398
_cell_volume 584.867893
_symmetry_space_group_name_H-M "P -1"
_symmetry_group_IT_number 2
_symmetry_cell_setting 'triclinic'
loop_
_space_group_symop_operation_xyz
x,y,z
-x,-y,-z
loop_
_atom_site_type_symbol
_atom_site_label
_atom_site_fract_x
_atom_site_fract_y
_atom_site_fract_z
Si Si1 0.500000 0.000000 0.500000
Si Si2 0.183968 0.440250 0.378535
Si Si3 0.771371 0.131266 0.383837
Si Si4 0.854482 0.502262 0.943427
Si Si5 0.791608 0.212123 0.652394
Si Si6 0.546562 0.157215 0.943760
Si Si7 0.316453 0.701277 0.932486
O O1 0.363030 0.236091 0.440885
O O2 0.681775 0.011382 0.466523
O O3 0.152041 0.426888 0.230468
O O4 0.219351 0.607191 0.336096
O O5 0.000000 0.500000 0.500000
O O6 0.748484 0.242557 0.494657
O O7 0.678407 0.269544 0.237777
O O8 0.994479 0.978118 0.337077
O O9 0.657874 0.647937 0.032332
O O10 0.862049 0.306861 0.986678
O O11 0.000000 0.500000 0.000000
O O12 0.650674 0.172304 0.779374
O O13 0.674089 0.137473 0.041163
O O14 0.500000 0.000000 0.000000
O O15 0.500000 0.500000 0.000000
#
# Coordination Sequence:
#
# PCOD9044930 Si02
#       7
#     1   2   2   2   2   2   2
#     4  12  26  46  80 112 148 200 258 312 382 462
#     4  12  27  52  77 112 157 199 255 321 392 457
#     4  11  27  45  78 112 152 200 258 318 379 469
#     4  11  27  47  75 108 150 198 256 320 384 464
#     4  11  27  50  72 114 156 202 256 321 391 456
#     4  11  26  46  73 106 152 202 257 312 385 460
#     4  10  23  48  68 101 150 197 244 313 379 449
#
# _framework density 22.227245
#
# number of rings (size 3 to 8) (size 9 to 14) (size 15 to 20)
#    0.000    0.923    3.077    1.846   10.769    3.692 
#    0.000    0.000    0.000    0.000    0.000    0.000 
#    0.000    0.000    0.000    0.000    0.000    0.000 
#
# Total GULP energy -72426.630482 kJ/mol
# GULP energy per Si atom -5571.279268 kJ/mol
# Density = 2.217665 g / cm^3
# Si number density = 22.227245 Si / 1000 Ang^3
#
#
#
# Elastic Constant Matrix: (Units=GPa)
#
#
# Indices 1 2 3 4 5 6 
#
# 1 161.3928 62.2998 58.9320 5.2513 -9.6620 16.1240
# 2 62.2998 91.7625 64.0022 2.8715 2.9474 4.3217
# 3 58.9320 64.0022 131.5194 12.8378 15.9690 -1.6409
# 4 5.2513 2.8715 12.8378 21.8891 -0.2972 -11.7458
# 5 -9.6620 2.9474 15.9690 -0.2972 40.9665 3.7337
# 6 16.1240 4.3217 -1.6409 -11.7458 3.7337 43.5445
#
#
#
# Elastic Compliance Matrix: (Units=1/GPa)
#
#
# Indices 1 2 3 4 5 6 
#
# 1 0.009596 -0.004806 -0.002230 -0.002554 0.003841 -0.004179
# 2 -0.004806 0.019346 -0.007634 0.003330 0.000435 0.000433
# 3 -0.002230 -0.007634 0.013569 -0.005990 -0.005395 0.000942
# 4 -0.002554 0.003330 -0.005990 0.057956 0.000457 0.015984
# 5 0.003841 0.000435 -0.005395 0.000457 0.027749 -0.003925
# 6 -0.004179 0.000433 0.000942 0.015984 -0.003925 0.029153
#
#
# Mechanical properties :
#
#
# Convention : Reuss Voigt Hill
#
# Bulk Modulus (GPa) = 75.92068 83.90474 79.91271
# Shear Modulus (GPa) = 26.16429 34.57608 30.37019
#
# Velocity S-wave (km/s) = 3.43465 3.94835 3.70043
# Velocity P-wave (km/s) = 7.06823 7.65614 7.36805
#
# Compressibility (1/GPa) = 0.01317164
#
# Stress axis : x y z
#
# Youngs Moduli (GPa) = 104.20837 51.68926 73.69712
#
# Poissons Ratio (x) = 0.24843 0.16436
# Poissons Ratio (y) = 0.50084 0.56257
# Poissons Ratio (z) = 0.23241 0.39457
#
# Static dielectric constant tensor:
#      x y z
#    x 1.875310 0.063230 -0.022490 
#    y 0.063230 1.839370 0.008530 
#    z -0.022490 0.008530 1.815220 
# 
# From -- ./inp_files/157311.got.cif
#   From: 2010.05.17/outbox.cif.g08.bks.cpg/sg2_79_cif.got.tgz:157311.got - 2010.06.03 11:33:40.
