data_PCOD9044723
_publ_section_title
;
Structure prediction by ZEFSAII (Michael W. Deem and Ramdas Pophale) SiO2 
 PCOD9044723
Probable space group: P -1
;
_chemical_formula_sum "Si O2"
_cell_formula_units_Z 13
_cell_length_a 11.620842
_cell_length_b 12.431836
_cell_length_c 6.556337
_cell_angle_alpha 105.500600
_cell_angle_beta 101.549526
_cell_angle_gamma 39.054149
_cell_volume 575.029359
_symmetry_space_group_name_H-M "P -1"
_symmetry_group_IT_number 2
_symmetry_cell_setting 'triclinic'
loop_
_space_group_symop_operation_xyz
x,y,z
-x,-y,-z
loop_
_atom_site_type_symbol
_atom_site_label
_atom_site_fract_x
_atom_site_fract_y
_atom_site_fract_z
Si Si1 0.724099 0.962784 0.011925
Si Si2 0.563498 0.885268 0.662008
Si Si3 0.000000 0.000000 0.500000
Si Si4 0.864758 0.497944 0.494753
Si Si5 0.302807 0.796983 0.140639
Si Si6 0.294821 0.568221 0.871557
Si Si7 0.094232 0.697235 0.248778
O O1 0.923781 0.837716 0.108755
O O2 0.595374 0.035379 0.199222
O O3 0.699435 0.869327 0.823064
O O4 0.674050 0.105773 0.928460
O O5 0.668357 0.698575 0.540678
O O6 0.500000 0.000000 0.500000
O O7 0.850669 0.080258 0.677626
O O8 0.912904 0.189196 0.555662
O O9 0.842039 0.413828 0.285364
O O10 0.924570 0.399466 0.677020
O O11 0.000000 0.500000 0.500000
O O12 0.498516 0.613893 0.206090
O O13 0.253729 0.730533 0.933910
O O14 0.271021 0.560332 0.100477
#
# Coordination Sequence:
#
# PCOD9044723 Si02
#       7
#     2   2   1   2   2   2   2
#     4  11  25  42  73 100 144 183 235 298 347 422
#     4  11  25  45  69 107 138 190 238 290 352 426
#     4  10  26  42  74 102 138 186 242 286 348 432
#     4  12  26  42  70 101 144 188 232 288 354 429
#     4  10  23  47  72 102 139 185 240 297 357 412
#     4  10  24  46  68 101 141 182 231 300 351 422
#     4  11  26  43  67 104 138 187 230 288 354 416
#
# _framework density 22.607541000000001
#
# number of rings (size 3 to 8) (size 9 to 14) (size 15 to 20)
#    0.000    1.231    0.000    3.692   10.769    6.154 
#    0.000    3.077    0.000    0.000    0.000    0.000 
#    0.000    0.000    0.000    0.000    0.000    0.000 
#
# Total GULP energy -72422.536296 kJ/mol
# GULP energy per Si atom -5570.964330 kJ/mol
# Density = 2.255609 g / cm^3
# Si number density = 22.607541 Si / 1000 Ang^3
#
#
#
# Elastic Constant Matrix: (Units=GPa)
#
#
# Indices 1 2 3 4 5 6 
#
# 1 120.4822 7.7049 31.2188 6.1582 -12.0277 18.8393
# 2 7.7049 43.9933 9.2161 8.8078 -22.6050 13.9142
# 3 31.2188 9.2161 79.3080 24.8650 -14.0698 -3.0796
# 4 6.1582 8.8078 24.8650 31.6547 1.5354 -1.4150
# 5 -12.0277 -22.6050 -14.0698 1.5354 42.1228 -2.6680
# 6 18.8393 13.9142 -3.0796 -1.4150 -2.6680 43.0983
#
#
#
# Elastic Compliance Matrix: (Units=1/GPa)
#
#
# Indices 1 2 3 4 5 6 
#
# 1 0.010285 0.001696 -0.004244 0.000527 0.002081 -0.005201
# 2 0.001696 0.041004 0.003216 -0.015971 0.023333 -0.012830
# 3 -0.004244 0.003216 0.020636 -0.016574 0.008154 0.002252
# 4 0.000527 -0.015971 -0.016574 0.049900 -0.015495 0.004420
# 5 0.002081 0.023333 0.008154 -0.015495 0.039770 -0.005907
# 6 -0.005201 -0.012830 0.002252 0.004420 -0.005907 0.029559
#
#
# Mechanical properties :
#
#
# Convention : Reuss Voigt Hill
#
# Bulk Modulus (GPa) = 13.64965 37.78477 25.71721
# Shear Modulus (GPa) = 23.33845 36.41806 29.87826
#
# Velocity S-wave (km/s) = 3.21648 4.01793 3.63933
# Velocity P-wave (km/s) = 4.45478 6.18665 5.39072
#
# Compressibility (1/GPa) = 0.07326198
#
# Stress axis : x y z
#
# Youngs Moduli (GPa) = 97.22763 24.38766 48.45851
#
# Poissons Ratio (x) = -0.04137 0.20565
# Poissons Ratio (y) = -0.16492 -0.15583
# Poissons Ratio (z) = 0.41262 -0.07842
#
# Static dielectric constant tensor:
#      x y z
#    x 1.851180 -0.044470 0.058190 
#    y -0.044470 1.800330 -0.018570 
#    z 0.058190 -0.018570 1.770820 
# 
# From -- ./inp_files/23862.got.cif
#   From: 2010.05.17/outbox.cif.g08.bks.cpg/sg2_12_cif.got.tgz:23862.got - 2010.06.03 11:33:40.
