data_PCOD9044515
_publ_section_title
;
Structure prediction by ZEFSAII (Michael W. Deem and Ramdas Pophale) SiO2 
 PCOD9044515
Probable space group: P -1
;
_chemical_formula_sum "Si O2"
_cell_formula_units_Z 11
_cell_length_a 9.857987
_cell_length_b 8.216202
_cell_length_c 8.859206
_cell_angle_alpha 56.733311
_cell_angle_beta 114.850702
_cell_angle_gamma 75.261846
_cell_volume 418.697266
_symmetry_space_group_name_H-M "P -1"
_symmetry_group_IT_number 2
_symmetry_cell_setting 'triclinic'
loop_
_space_group_symop_operation_xyz
x,y,z
-x,-y,-z
loop_
_atom_site_type_symbol
_atom_site_label
_atom_site_fract_x
_atom_site_fract_y
_atom_site_fract_z
Si Si1 0.687922 0.782440 0.292759
Si Si2 0.257617 0.593045 0.269941
Si Si3 0.160935 0.002369 0.236754
Si Si4 0.500000 0.000000 0.500000
Si Si5 0.358248 0.481110 0.036115
Si Si6 0.949534 0.268652 0.476587
O O1 0.655504 0.676718 0.481118
O O2 0.817819 0.530430 0.377134
O O3 0.829532 0.844491 0.362985
O O4 0.500000 0.000000 0.000000
O O5 0.275579 0.769915 0.288934
O O6 0.345078 0.554327 0.166752
O O7 0.025724 0.751410 0.060116
O O8 0.298279 0.041752 0.358275
O O9 0.079752 0.909716 0.361787
O O10 0.562604 0.801661 0.770148
O O11 0.500000 0.500000 0.000000
O O12 0.150237 0.653921 0.771476
#
# Coordination Sequence:
#
# PCOD9044515 Si02
#       6
#     2   2   2   1   2   2
#     4  10  23  46  79 116 155 214 270 330 403 478
#     4  10  25  50  80 111 160 209 266 328 406 473
#     4  10  23  51  79 115 158 210 264 333 399 477
#     4  12  26  46  80 114 162 206 262 324 398 476
#     4  12  27  50  77 117 162 207 269 328 398 482
#     4  10  23  47  73 114 167 202 268 338 393 479
#
# _framework density 26.271963
#
# number of rings (size 3 to 8) (size 9 to 14) (size 15 to 20)
#    0.000    1.455    1.818    1.091    2.545    7.273 
#    0.000    0.909    0.000    0.000    0.000    0.000 
#    0.000    0.000    0.000    0.000    0.000    0.000 
#
# Total GULP energy -61572.939068 kJ/mol
# GULP energy per Si atom -5597.539915 kJ/mol
# Density = 2.621217 g / cm^3
# Si number density = 26.271963 Si / 1000 Ang^3
#
#
#
# Elastic Constant Matrix: (Units=GPa)
#
#
# Indices 1 2 3 4 5 6 
#
# 1 228.8054 59.6555 119.0056 11.1126 -4.7483 36.7233
# 2 59.6555 82.4411 49.5231 1.0274 -3.7613 -0.9997
# 3 119.0056 49.5231 245.7771 9.5621 0.7860 27.3082
# 4 11.1126 1.0274 9.5621 47.9136 4.7473 2.2042
# 5 -4.7483 -3.7613 0.7860 4.7473 63.3740 18.8998
# 6 36.7233 -0.9997 27.3082 2.2042 18.8998 39.0937
#
#
#
# Elastic Compliance Matrix: (Units=1/GPa)
#
#
# Indices 1 2 3 4 5 6 
#
# 1 0.007881 -0.004405 -0.002082 -0.001243 0.002611 -0.007253
# 2 -0.004405 0.016492 -0.001944 0.000889 -0.001336 0.006514
# 3 -0.002082 -0.001944 0.005739 -0.000554 0.000370 -0.002250
# 4 -0.001243 0.000889 -0.000554 0.021390 -0.002041 0.001358
# 5 0.002611 -0.001336 0.000370 -0.002041 0.019663 -0.012137
# 6 -0.007253 0.006514 -0.002250 0.001358 -0.012137 0.039922
#
#
# Mechanical properties :
#
#
# Convention : Reuss Voigt Hill
#
# Bulk Modulus (GPa) = 75.47809 112.59911 94.03860
# Shear Modulus (GPa) = 37.77342 51.99887 44.88615
#
# Velocity S-wave (km/s) = 3.79593 4.45371 4.13791
# Velocity P-wave (km/s) = 6.92849 8.33063 7.66170
#
# Compressibility (1/GPa) = 0.01324888
#
# Stress axis : x y z
#
# Youngs Moduli (GPa) = 126.89003 60.63418 174.24141
#
# Poissons Ratio (x) = 0.26710 0.36284
# Poissons Ratio (y) = 0.55897 0.33877
# Poissons Ratio (z) = 0.26423 0.11789
#
# Static dielectric constant tensor:
#      x y z
#    x 1.969180 -0.082950 0.006920 
#    y -0.082950 2.310460 -0.016910 
#    z 0.006920 -0.016910 2.037830 
# 
# From -- ./inp_files/152711.got.cif
#   From: 2010.05.17/outbox.cif.g08.bks.cpg/sg2_77_cif.got.tgz:152711.got - 2010.06.03 11:33:40.
