data_PCOD9044208
_publ_section_title
;
Structure prediction by ZEFSAII (Michael W. Deem and Ramdas Pophale) SiO2 
 PCOD9044208
Probable space group: P -1
;
_chemical_formula_sum "Si O2"
_cell_formula_units_Z 16
_cell_length_a 10.674215
_cell_length_b 13.703423
_cell_length_c 8.463665
_cell_angle_alpha 112.434781
_cell_angle_beta 102.243120
_cell_angle_gamma 32.686118
_cell_volume 603.017193
_symmetry_space_group_name_H-M "P -1"
_symmetry_group_IT_number 2
_symmetry_cell_setting 'triclinic'
loop_
_space_group_symop_operation_xyz
x,y,z
-x,-y,-z
loop_
_atom_site_type_symbol
_atom_site_label
_atom_site_fract_x
_atom_site_fract_y
_atom_site_fract_z
Si Si1 0.678174 0.922233 0.629212
Si Si2 0.430370 0.378920 0.734631
Si Si3 0.693866 0.685742 0.637161
Si Si4 0.951458 0.282698 0.950458
Si Si5 0.959219 0.035315 0.701280
Si Si6 0.943826 0.352623 0.674438
Si Si7 0.588276 0.050668 0.992693
Si Si8 0.428363 0.604617 0.706521
O O1 0.743572 0.768817 0.645025
O O2 0.905230 0.809532 0.522943
O O3 0.500000 0.000000 0.500000
O O4 0.534790 0.094840 0.820779
O O5 0.366650 0.350219 0.547723
O O6 0.253709 0.499609 0.908358
O O7 0.405993 0.521067 0.767341
O O8 0.696537 0.170077 0.732484
O O9 0.910863 0.490339 0.677451
O O10 0.487753 0.825270 0.802577
O O11 0.074341 0.252508 0.813291
O O12 0.915474 0.187941 0.827340
O O13 0.128655 0.147260 0.059220
O O14 0.179126 0.837270 0.742648
O O15 0.000000 0.000000 0.500000
O O16 0.677240 0.495534 0.733632
O O17 0.500000 0.000000 0.000000
O O18 0.500000 0.500000 0.500000
#
# Coordination Sequence:
#
# PCOD9044208 Si02
#       8
#     2   2   2   2   2   2   2   2
#     4  11  26  48  79 106 142 193 248 312 377 446
#     4  12  26  49  72 112 159 195 256 304 370 451
#     4  11  24  47  73 108 148 194 245 312 377 436
#     4  12  26  45  73 111 153 200 247 312 369 445
#     4  12  24  45  74 104 152 203 249 303 372 438
#     4  12  23  44  73 103 150 192 248 308 367 443
#     4  10  23  46  71 104 143 185 249 304 368 445
#     4  12  24  43  74 107 148 204 247 307 371 436
#
# _framework density 26.533239999999999
#
# number of rings (size 3 to 8) (size 9 to 14) (size 15 to 20)
#    0.000    0.500    3.750    4.500    0.000    3.500 
#    2.250    3.750    0.000    0.750    0.000    0.000 
#    0.000    0.000    0.000    0.000    0.000    0.000 
#
# Total GULP energy -89369.484435 kJ/mol
# GULP energy per Si atom -5585.592777 kJ/mol
# Density = 2.647285 g / cm^3
# Si number density = 26.533240 Si / 1000 Ang^3
#
#
#
# Elastic Constant Matrix: (Units=GPa)
#
#
# Indices 1 2 3 4 5 6 
#
# 1 82.8569 21.1858 48.3597 4.4026 4.6938 10.5514
# 2 21.1858 127.5703 40.1730 18.2684 11.2031 10.8104
# 3 48.3597 40.1730 202.5543 15.1647 -5.6988 -11.9493
# 4 4.4026 18.2684 15.1647 42.9557 -6.4762 -1.0435
# 5 4.6938 11.2031 -5.6988 -6.4762 38.6233 2.0704
# 6 10.5514 10.8104 -11.9493 -1.0435 2.0704 46.6336
#
#
#
# Elastic Compliance Matrix: (Units=1/GPa)
#
#
# Indices 1 2 3 4 5 6 
#
# 1 0.015093 -0.000766 -0.003727 -0.000306 -0.001993 -0.004111
# 2 -0.000766 0.009566 -0.001655 -0.003986 -0.003466 -0.002404
# 3 -0.003727 -0.001655 0.006430 -0.000877 0.001585 0.002785
# 4 -0.000306 -0.003986 -0.000877 0.026156 0.005390 0.001114
# 5 -0.001993 -0.003466 0.001585 0.005390 0.028248 0.000527
# 6 -0.004111 -0.002404 0.002785 0.001114 0.000527 0.023646
#
#
# Mechanical properties :
#
#
# Convention : Reuss Voigt Hill
#
# Bulk Modulus (GPa) = 53.21330 70.26873 61.74101
# Shear Modulus (GPa) = 39.15451 45.86004 42.50728
#
# Velocity S-wave (km/s) = 3.84562 4.16191 4.00689
# Velocity P-wave (km/s) = 6.31009 7.04529 6.68780
#
# Compressibility (1/GPa) = 0.01879229
#
# Stress axis : x y z
#
# Youngs Moduli (GPa) = 66.25658 104.53537 155.52852
#
# Poissons Ratio (x) = 0.08003 0.57970
# Poissons Ratio (y) = 0.05072 0.25746
# Poissons Ratio (z) = 0.24696 0.17304
#
# Static dielectric constant tensor:
#      x y z
#    x -28.619520 7.173710 10.252410 
#    y 7.173710 0.508880 -2.411130 
#    z 10.252410 -2.411130 -1.234480 
# 
# From -- ./inp_files/273756.got.cif
#   From: 2010.05.17/outbox.cif.g08.bks.cpg/sg2_137_cif.got.tgz:273756.got - 2010.06.03 11:33:40.
