data_PCOD9044548
_publ_section_title
;
Structure prediction by ZEFSAII (Michael W. Deem and Ramdas Pophale) SiO2 
 PCOD9044548
Probable space group: P -1
;
_chemical_formula_sum "Si O2"
_cell_formula_units_Z 16
_cell_length_a 11.162579
_cell_length_b 19.924760
_cell_length_c 9.754043
_cell_angle_alpha 37.326386
_cell_angle_beta 107.398011
_cell_angle_gamma 135.145047
_cell_volume 728.727425
_symmetry_space_group_name_H-M "P -1"
_symmetry_group_IT_number 2
_symmetry_cell_setting 'triclinic'
loop_
_space_group_symop_operation_xyz
x,y,z
-x,-y,-z
loop_
_atom_site_type_symbol
_atom_site_label
_atom_site_fract_x
_atom_site_fract_y
_atom_site_fract_z
Si Si1 0.375099 0.321844 0.338797
Si Si2 0.267714 0.958495 0.441066
Si Si3 0.220485 0.456556 0.715018
Si Si4 0.997836 0.880019 0.265952
Si Si5 0.880490 0.022881 0.367888
Si Si6 0.931807 0.524848 0.103031
Si Si7 0.664225 0.517208 0.571115
Si Si8 0.687849 0.340798 0.046315
O O1 0.547729 0.415918 0.358736
O O2 0.167879 0.230082 0.484543
O O3 0.293439 0.152690 0.510452
O O4 0.500000 0.500000 0.000000
O O5 0.217200 0.989463 0.512632
O O6 0.099318 0.735956 0.753547
O O7 0.525109 0.133946 0.261715
O O8 0.210800 0.984914 0.239720
O O9 0.275147 0.519446 0.474425
O O10 0.137302 0.484528 0.754345
O O11 0.051428 0.232576 0.023627
O O12 0.887993 0.727013 0.362169
O O13 0.000000 0.000000 0.000000
O O14 0.000000 0.000000 0.500000
O O15 0.734873 0.374523 0.170855
O O16 0.073636 0.515400 0.165186
O O17 0.500000 0.500000 0.500000
O O18 0.591915 0.388402 0.882324
#
# Coordination Sequence:
#
# PCOD9044548 Si02
#       8
#     2   2   2   2   2   2   2   2
#     4  12  22  36  61  91 128 175 218 266 322 393
#     4  11  22  39  64  92 128 168 215 268 323 383
#     4  11  24  40  62  88 134 167 214 271 318 390
#     4  12  24  38  59  94 142 173 209 262 338 408
#     4  11  21  34  57  91 125 166 209 262 320 385
#     4  10  23  47  66  96 121 173 226 268 316 374
#     4  12  25  40  62  98 131 169 209 261 337 393
#     4  11  24  42  72  93 128 167 221 271 315 391
#
# _framework density 21.956083
#
# number of rings (size 3 to 8) (size 9 to 14) (size 15 to 20)
#    0.000    0.750    5.000    3.375    3.500    0.500 
#    0.000    0.000    0.000    0.750    0.000    0.000 
#    0.000    0.000    0.000    0.000    0.000    0.000 
#
# Total GULP energy -89308.869878 kJ/mol
# GULP energy per Si atom -5581.804367 kJ/mol
# Density = 2.190611 g / cm^3
# Si number density = 21.956083 Si / 1000 Ang^3
#
#
#
# Elastic Constant Matrix: (Units=GPa)
#
#
# Indices 1 2 3 4 5 6 
#
# 1 67.0482 26.3011 -0.4498 8.9692 -8.0071 -1.8057
# 2 26.3011 177.0811 30.3712 -10.7755 0.3956 -4.8873
# 3 -0.4498 30.3712 52.9950 -3.4893 5.0371 4.8158
# 4 8.9692 -10.7755 -3.4893 34.4570 -4.7364 -0.8460
# 5 -8.0071 0.3956 5.0371 -4.7364 34.0777 0.8862
# 6 -1.8057 -4.8873 4.8158 -0.8460 0.8862 37.3463
#
#
#
# Elastic Compliance Matrix: (Units=1/GPa)
#
#
# Indices 1 2 3 4 5 6 
#
# 1 0.017161 -0.003067 0.001272 -0.004855 0.003203 0.000078
# 2 -0.003067 0.006983 -0.003988 0.002627 0.000118 0.001336
# 3 0.001272 -0.003988 0.021729 0.000164 -0.002761 -0.003193
# 4 -0.004855 0.002627 0.000164 0.031578 0.003174 0.000728
# 5 0.003203 0.000118 -0.002761 0.003174 0.030949 -0.000136
# 6 0.000078 0.001336 -0.003193 0.000728 -0.000136 0.027387
#
#
# Mechanical properties :
#
#
# Convention : Reuss Voigt Hill
#
# Bulk Modulus (GPa) = 29.14827 45.50770 37.32799
# Shear Modulus (GPa) = 31.48860 37.23631 34.36246
#
# Velocity S-wave (km/s) = 3.79114 4.12265 3.96037
# Velocity P-wave (km/s) = 5.69809 6.59040 6.16042
#
# Compressibility (1/GPa) = 0.03430736
#
# Stress axis : x y z
#
# Youngs Moduli (GPa) = 58.27319 143.20150 46.02096
#
# Poissons Ratio (x) = 0.43926 -0.05856
# Poissons Ratio (y) = 0.17875 0.18352
# Poissons Ratio (z) = -0.07415 0.57105
#
# Static dielectric constant tensor:
#      x y z
#    x 1.852670 -0.042300 0.030230 
#    y -0.042300 1.829200 -0.043480 
#    z 0.030230 -0.043480 1.880810 
# 
# From -- ./inp_files/282762.got.cif
#   From: 2010.05.17/outbox.cif.g08.bks.cpg/sg2_142_cif.got.tgz:282762.got - 2010.06.03 11:33:40.
