data_PCOD9044809
_publ_section_title
;
Structure prediction by ZEFSAII (Michael W. Deem and Ramdas Pophale) SiO2 
 PCOD9044809
Probable space group: P -1
;
_chemical_formula_sum "Si O2"
_cell_formula_units_Z 12
_cell_length_a 11.303817
_cell_length_b 8.575252
_cell_length_c 11.923094
_cell_angle_alpha 86.146830
_cell_angle_beta 145.111293
_cell_angle_gamma 114.303138
_cell_volume 515.099620
_symmetry_space_group_name_H-M "P -1"
_symmetry_group_IT_number 2
_symmetry_cell_setting 'triclinic'
loop_
_space_group_symop_operation_xyz
x,y,z
-x,-y,-z
loop_
_atom_site_type_symbol
_atom_site_label
_atom_site_fract_x
_atom_site_fract_y
_atom_site_fract_z
Si Si1 0.889069 0.374235 0.065692
Si Si2 0.648066 0.732294 0.347996
Si Si3 0.580961 0.209210 0.514778
Si Si4 0.518948 0.702519 0.793989
Si Si5 0.938609 0.894108 0.786704
Si Si6 0.550884 0.207389 0.017334
O O1 0.139464 0.601034 0.229273
O O2 0.952570 0.225907 0.093438
O O3 0.818357 0.350291 0.145371
O O4 0.613055 0.303729 0.804543
O O5 0.578273 0.517078 0.296670
O O6 0.880358 0.868146 0.609621
O O7 0.662597 0.811197 0.230828
O O8 0.595974 0.233361 0.390724
O O9 0.337670 0.205731 0.362057
O O10 0.500000 0.000000 0.500000
O O11 0.442376 0.713192 0.859907
O O12 0.837502 0.872883 0.024784
O O13 0.500000 0.000000 0.000000
#
# Coordination Sequence:
#
# PCOD9044809 Si02
#       6
#     2   2   2   2   2   2
#     4  10  24  48  70 106 141 188 235 298 353 419
#     4  10  25  46  73 109 141 189 234 295 364 420
#     4  12  28  46  73 107 144 196 240 293 356 426
#     4  12  24  48  73 108 145 187 244 292 361 428
#     4  12  25  47  74 103 146 190 236 293 357 427
#     4  10  23  47  74 107 144 184 240 297 360 426
#
# _framework density 23.296462999999999
#
# number of rings (size 3 to 8) (size 9 to 14) (size 15 to 20)
#    1.000    0.000    3.333    2.500    4.667    2.000 
#    0.000    0.000    0.000    0.000    0.000    0.000 
#    0.000    0.000    0.000    0.000    0.000    0.000 
#
# Total GULP energy -67152.235815 kJ/mol
# GULP energy per Si atom -5596.019651 kJ/mol
# Density = 2.324344 g / cm^3
# Si number density = 23.296463 Si / 1000 Ang^3
#
#
#
# Elastic Constant Matrix: (Units=GPa)
#
#
# Indices 1 2 3 4 5 6 
#
# 1 72.8349 1.9530 -13.7841 -10.9034 -0.8512 5.9615
# 2 1.9530 121.3460 35.7532 -19.1578 -7.9901 10.4956
# 3 -13.7841 35.7532 87.8579 -4.1321 -15.7304 -2.6068
# 4 -10.9034 -19.1578 -4.1321 34.6862 11.8909 5.6325
# 5 -0.8512 -7.9901 -15.7304 11.8909 43.1885 -7.5424
# 6 5.9615 10.4956 -2.6068 5.6325 -7.5424 36.1652
#
#
#
# Elastic Compliance Matrix: (Units=1/GPa)
#
#
# Indices 1 2 3 4 5 6 
#
# 1 0.015378 0.000322 0.002254 0.006289 -0.001193 -0.003694
# 2 0.000322 0.011094 -0.004746 0.007436 -0.002647 -0.005325
# 3 0.002254 -0.004746 0.014712 -0.002809 0.005952 0.003745
# 4 0.006289 0.007436 -0.002809 0.041072 -0.013016 -0.012509
# 5 -0.001193 -0.002647 0.005952 -0.013016 0.030086 0.009696
# 6 -0.003694 -0.005325 0.003745 -0.012509 0.009696 0.034045
#
#
# Mechanical properties :
#
#
# Convention : Reuss Voigt Hill
#
# Bulk Modulus (GPa) = 27.14180 36.65365 31.89772
# Shear Modulus (GPa) = 30.67309 40.01578 35.34443
#
# Velocity S-wave (km/s) = 3.63249 4.14898 3.89930
# Velocity P-wave (km/s) = 5.41010 6.22252 5.83048
#
# Compressibility (1/GPa) = 0.03684355
#
# Stress axis : x y z
#
# Youngs Moduli (GPa) = 65.02991 90.13539 67.97211
#
# Poissons Ratio (x) = -0.02905 -0.15321
# Poissons Ratio (y) = -0.02096 0.32263
# Poissons Ratio (z) = -0.14658 0.42783
#
# Static dielectric constant tensor:
#      x y z
#    x 1.915950 0.038540 -0.020990 
#    y 0.038540 1.811090 -0.032870 
#    z -0.020990 -0.032870 1.895170 
# 
# From -- ./inp_files/417465.got.cif
#   From: 2010.05.17/outbox.cif.g08.bks.cpg/sg2_209_cif.got.tgz:417465.got - 2010.06.03 11:33:40.
