data_PCOD9044096
_publ_section_title
;
Structure prediction by ZEFSAII (Michael W. Deem and Ramdas Pophale) SiO2 
 PCOD9044096
Probable space group: P -1
;
_chemical_formula_sum "Si O2"
_cell_formula_units_Z 16
_cell_length_a 20.282856
_cell_length_b 8.993366
_cell_length_c 6.821881
_cell_angle_alpha 80.697576
_cell_angle_beta 127.317783
_cell_angle_gamma 132.869862
_cell_volume 654.732691
_symmetry_space_group_name_H-M "P -1"
_symmetry_group_IT_number 2
_symmetry_cell_setting 'triclinic'
loop_
_space_group_symop_operation_xyz
x,y,z
-x,-y,-z
loop_
_atom_site_type_symbol
_atom_site_label
_atom_site_fract_x
_atom_site_fract_y
_atom_site_fract_z
Si Si1 0.323108 0.342359 0.878473
Si Si2 0.994898 0.169827 0.983152
Si Si3 0.095840 0.715692 0.982248
Si Si4 0.475139 0.626802 0.745595
Si Si5 0.119317 0.810799 0.576824
Si Si6 0.353750 0.629229 0.193067
Si Si7 0.758396 0.363132 0.650637
Si Si8 0.344279 0.898100 0.851605
O O1 0.348933 0.429485 0.682152
O O2 0.214255 0.074460 0.742716
O O3 0.449597 0.424510 0.141547
O O4 0.303630 0.448633 0.976152
O O5 0.976242 0.238726 0.733586
O O6 0.885706 0.093832 0.934665
O O7 0.118814 0.393610 0.268275
O O8 0.000000 0.000000 0.000000
O O9 0.057778 0.678715 0.697567
O O10 0.213000 0.765229 0.188836
O O11 0.000000 0.500000 0.000000
O O12 0.459438 0.689281 0.497245
O O13 0.557291 0.837578 0.997522
O O14 0.210049 0.800498 0.659292
O O15 0.266909 0.564183 0.228109
O O16 0.378689 0.819507 0.090051
O O17 0.660193 0.197594 0.340639
#
# Coordination Sequence:
#
# PCOD9044096 Si02
#       8
#     2   2   2   2   2   2   2   2
#     4  10  25  45  70 101 142 182 228 287 345 416
#     4  11  27  44  71 101 141 183 229 282 346 415
#     4  10  23  46  69  99 136 179 231 284 339 407
#     4  10  24  47  68 101 138 185 231 289 344 403
#     4  11  24  46  72 101 136 188 230 278 353 411
#     4  12  24  41  71 102 139 177 234 286 346 406
#     4  11  25  44  67 104 139 179 227 289 344 404
#     4  11  24  44  72  99 136 184 233 284 344 411
#
# _framework density 24.437455
#
# number of rings (size 3 to 8) (size 9 to 14) (size 15 to 20)
#    0.000    1.250    2.500    1.500    5.250    7.500 
#    2.250    0.000    0.000    0.000    0.000    0.000 
#    0.000    0.000    0.000    0.000    0.000    0.000 
#
# Total GULP energy -89419.142854 kJ/mol
# GULP energy per Si atom -5588.696428 kJ/mol
# Density = 2.438183 g / cm^3
# Si number density = 24.437455 Si / 1000 Ang^3
#
#
#
# Elastic Constant Matrix: (Units=GPa)
#
#
# Indices 1 2 3 4 5 6 
#
# 1 121.2268 40.0221 19.6483 -8.4694 -14.6227 -32.6586
# 2 40.0221 89.9081 33.9751 -8.4918 -5.7391 -20.3081
# 3 19.6483 33.9751 115.7137 -32.6810 -9.3028 -4.5998
# 4 -8.4694 -8.4918 -32.6810 39.8968 -12.8643 0.9560
# 5 -14.6227 -5.7391 -9.3028 -12.8643 36.7666 -0.4491
# 6 -32.6586 -20.3081 -4.5998 0.9560 -0.4491 44.0869
#
#
#
# Elastic Compliance Matrix: (Units=1/GPa)
#
#
# Indices 1 2 3 4 5 6 
#
# 1 0.012330 -0.003285 0.000979 0.004578 0.006335 0.007688
# 2 -0.003285 0.014876 -0.003934 -0.000933 -0.000257 0.004026
# 3 0.000979 -0.003934 0.014108 0.013528 0.008080 0.000174
# 4 0.004578 -0.000933 0.013528 0.043385 0.020323 0.003639
# 5 0.006335 -0.000257 0.008080 0.020323 0.038899 0.005373
# 6 0.007688 0.004026 0.000174 0.003639 0.005373 0.030226
#
#
# Mechanical properties :
#
#
# Convention : Reuss Voigt Hill
#
# Bulk Modulus (GPa) = 34.68198 57.12659 45.90429
# Shear Modulus (GPa) = 28.42248 39.69695 34.05972
#
# Velocity S-wave (km/s) = 3.41408 4.03480 3.73735
# Velocity P-wave (km/s) = 5.45566 6.71815 6.11955
#
# Compressibility (1/GPa) = 0.02883341
#
# Stress axis : x y z
#
# Youngs Moduli (GPa) = 81.10289 67.22028 70.88018
#
# Poissons Ratio (x) = 0.22084 -0.06938
# Poissons Ratio (y) = 0.26644 0.27886
# Poissons Ratio (z) = -0.07939 0.26446
#
# Static dielectric constant tensor:
#      x y z
#    x 2.062770 0.028000 0.037210 
#    y 0.028000 1.955870 0.010560 
#    z 0.037210 0.010560 1.962960 
# 
# From -- ./inp_files/116970.got.cif
#   From: 2010.05.17/outbox.cif.g08.bks.cpg/sg2_59_cif.got.tgz:116970.got - 2010.06.03 11:33:40.
