data_PCOD9044643
_publ_section_title
;
Structure prediction by ZEFSAII (Michael W. Deem and Ramdas Pophale) SiO2 
 PCOD9044643
Probable space group: P -1
;
_chemical_formula_sum "Si O2"
_cell_formula_units_Z 16
_cell_length_a 8.637239
_cell_length_b 14.176862
_cell_length_c 10.891722
_cell_angle_alpha 75.248183
_cell_angle_beta 32.531230
_cell_angle_gamma 87.793631
_cell_volume 652.542957
_symmetry_space_group_name_H-M "P -1"
_symmetry_group_IT_number 2
_symmetry_cell_setting 'triclinic'
loop_
_space_group_symop_operation_xyz
x,y,z
-x,-y,-z
loop_
_atom_site_type_symbol
_atom_site_label
_atom_site_fract_x
_atom_site_fract_y
_atom_site_fract_z
Si Si1 0.234685 0.484683 0.515314
Si Si2 0.916043 0.586856 0.102822
Si Si3 0.810796 0.777351 0.113242
Si Si4 0.160150 0.978683 0.693442
Si Si5 0.243900 0.777348 0.332070
Si Si6 0.757669 0.586857 0.723465
Si Si7 0.702781 0.021318 0.650812
Si Si8 0.910946 0.160947 0.839050
O O1 0.550764 0.554065 0.340686
O O2 0.027702 0.423370 0.786888
O O3 0.319038 0.423369 0.366372
O O4 0.057375 0.554069 0.551174
O O5 0.013074 0.706697 0.957238
O O6 0.000000 0.500000 0.000000
O O7 0.498199 0.748205 0.251808
O O8 0.853415 0.774182 0.234508
O O9 0.947247 0.899721 0.957274
O O10 0.169815 0.919809 0.580187
O O11 0.500000 0.000000 0.500000
O O12 0.071380 0.081453 0.702956
O O13 0.352188 0.899719 0.243288
O O14 0.194952 0.774178 0.217136
O O15 0.900311 0.706696 0.629380
O O16 0.500000 0.500000 0.000000
O O17 0.000000 0.000000 0.500000
O O18 0.408473 0.918549 0.865870
#
# Coordination Sequence:
#
# PCOD9044643 Si02
#       8
#     2   2   2   2   2   2   2   2
#     4  10  23  47  70 100 146 182 245 313 380 436
#     4  11  24  47  74 104 145 192 248 318 376 445
#     4  12  25  47  78 107 147 203 251 303 382 451
#     4  12  24  45  71 108 152 196 244 301 369 449
#     4  12  25  47  78 107 147 203 251 303 382 451
#     4  11  24  47  74 104 145 192 248 318 376 445
#     4  12  24  45  71 108 152 196 244 301 369 449
#     4  12  25  49  74 108 162 192 243 321 366 444
#
# _framework density 24.519456999999999
#
# number of rings (size 3 to 8) (size 9 to 14) (size 15 to 20)
#    0.000    0.500    5.000    3.750    0.000    2.000 
#   18.000    0.000    0.000    0.000    0.000    0.000 
#    0.000    0.000    0.000    0.000    0.000    0.000 
#
# Total GULP energy -89101.677519 kJ/mol
# GULP energy per Si atom -5568.854845 kJ/mol
# Density = 2.446365 g / cm^3
# Si number density = 24.519457 Si / 1000 Ang^3
#
#
#
# Elastic Constant Matrix: (Units=GPa)
#
#
# Indices 1 2 3 4 5 6 
#
# 1 187.6408 30.9034 25.8060 -3.1827 3.2311 -4.4974
# 2 30.9034 79.2786 12.1895 -9.8008 -1.7990 -2.2400
# 3 25.8060 12.1895 53.8653 -3.0094 -4.9348 -0.4466
# 4 -3.1827 -9.8008 -3.0094 27.6495 -1.1321 -3.1878
# 5 3.2311 -1.7990 -4.9348 -1.1321 37.8166 8.4533
# 6 -4.4974 -2.2400 -0.4466 -3.1878 8.4533 21.4497
#
#
#
# Elastic Compliance Matrix: (Units=1/GPa)
#
#
# Indices 1 2 3 4 5 6 
#
# 1 0.006064 -0.001975 -0.002573 -0.000163 -0.001287 0.001494
# 2 -0.001975 0.014341 -0.001981 0.004842 0.000377 0.001613
# 3 -0.002573 -0.001981 0.020591 0.001213 0.003158 -0.001382
# 4 -0.000163 0.004842 0.001213 0.038716 0.000180 0.006180
# 5 -0.001287 0.000377 0.003158 0.000180 0.029630 -0.011815
# 6 0.001494 0.001613 -0.001382 0.006180 -0.011815 0.052649
#
#
# Mechanical properties :
#
#
# Convention : Reuss Voigt Hill
#
# Bulk Modulus (GPa) = 35.79235 50.95361 43.37298
# Shear Modulus (GPa) = 27.12082 34.17555 30.64819
#
# Velocity S-wave (km/s) = 3.32941 3.73743 3.53930
# Velocity P-wave (km/s) = 5.42302 6.28097 5.86769
#
# Compressibility (1/GPa) = 0.02793893
#
# Stress axis : x y z
#
# Youngs Moduli (GPa) = 164.91709 69.73059 48.56463
#
# Poissons Ratio (x) = 0.13773 0.12494
# Poissons Ratio (y) = 0.32574 0.09619
# Poissons Ratio (z) = 0.42426 0.13811
#
# Static dielectric constant tensor:
#      x y z
#    x 1.839240 0.035640 0.063890 
#    y 0.035640 1.961800 -0.080870 
#    z 0.063890 -0.080870 1.820200 
# 
# From -- ./inp_files/398867.got.cif
#   From: 2010.05.17/outbox.cif.g08.bks.cpg/sg2_200_cif.got.tgz:398867.got - 2010.06.03 11:33:40.
