data_PCOD9044458
_publ_section_title
;
Structure prediction by ZEFSAII (Michael W. Deem and Ramdas Pophale) SiO2 
 PCOD9044458
Probable space group: P -1
;
_chemical_formula_sum "Si O2"
_cell_formula_units_Z 11
_cell_length_a 9.505999
_cell_length_b 5.955354
_cell_length_c 14.785376
_cell_angle_alpha 110.106302
_cell_angle_beta 146.567101
_cell_angle_gamma 63.752246
_cell_volume 413.072741
_symmetry_space_group_name_H-M "P -1"
_symmetry_group_IT_number 2
_symmetry_cell_setting 'triclinic'
loop_
_space_group_symop_operation_xyz
x,y,z
-x,-y,-z
loop_
_atom_site_type_symbol
_atom_site_label
_atom_site_fract_x
_atom_site_fract_y
_atom_site_fract_z
Si Si1 0.912616 0.778396 0.531052
Si Si2 0.290378 0.754549 0.033799
Si Si3 0.142979 0.702634 0.134341
Si Si4 0.795925 0.881852 0.285250
Si Si5 0.500000 0.000000 0.500000
Si Si6 0.855177 0.507442 0.707473
O O1 0.784971 0.930705 0.393576
O O2 0.000000 0.500000 0.500000
O O3 0.721929 0.845663 0.523054
O O4 0.176514 0.864012 0.708541
O O5 0.350262 0.700860 0.165624
O O6 0.543806 0.781880 0.120259
O O7 0.129882 0.565933 0.890938
O O8 0.073704 0.027547 0.946635
O O9 0.233562 0.645557 0.278622
O O10 0.000000 0.500000 0.000000
O O11 0.055903 0.673737 0.355788
O O12 0.361640 0.225658 0.382830
#
# Coordination Sequence:
#
# PCOD9044458 Si02
#       6
#     2   2   2   2   1   2
#     4  11  27  52  74 111 151 207 257 314 384 456
#     4  10  23  46  75 111 152 192 252 327 379 459
#     4   9  22  42  69 114 146 198 254 300 395 446
#     4  11  26  48  75 112 151 196 258 320 389 453
#     4  12  28  52  76 106 164 204 264 310 370 468
#     4  11  25  47  75 115 148 207 253 313 384 453
#
# _framework density 26.629691000000001
#
# number of rings (size 3 to 8) (size 9 to 14) (size 15 to 20)
#    0.000    1.455    1.818    0.545   10.182    4.364 
#    3.273    0.000    0.000    0.000    0.000    0.000 
#    0.000    0.000    0.000    0.000    0.000    0.000 
#
# Total GULP energy -61343.585520 kJ/mol
# GULP energy per Si atom -5576.689593 kJ/mol
# Density = 2.656908 g / cm^3
# Si number density = 26.629691 Si / 1000 Ang^3
#
#
#
# Elastic Constant Matrix: (Units=GPa)
#
#
# Indices 1 2 3 4 5 6 
#
# 1 208.6367 94.6326 49.3693 -1.2877 13.2512 -12.0690
# 2 94.6326 103.1518 8.3765 -9.3391 6.8690 -10.2996
# 3 49.3693 8.3765 76.5786 16.5496 10.0962 5.7330
# 4 -1.2877 -9.3391 16.5496 45.2761 10.6101 -0.5055
# 5 13.2512 6.8690 10.0962 10.6101 48.4579 3.2070
# 6 -12.0690 -10.2996 5.7330 -0.5055 3.2070 35.9078
#
#
#
# Elastic Compliance Matrix: (Units=1/GPa)
#
#
# Indices 1 2 3 4 5 6 
#
# 1 0.010265 -0.008615 -0.005922 0.000860 -0.000672 0.001997
# 2 -0.008615 0.017887 0.003072 0.002704 -0.001539 0.001920
# 3 -0.005922 0.003072 0.018279 -0.006017 -0.001041 -0.004020
# 4 0.000860 0.002704 -0.006017 0.026137 -0.005277 0.002864
# 5 -0.000672 -0.001539 -0.001041 -0.005277 0.022582 -0.002592
# 6 0.001997 0.001920 -0.004020 0.002864 -0.002592 0.029985
#
#
# Mechanical properties :
#
#
# Convention : Reuss Voigt Hill
#
# Bulk Modulus (GPa) = 42.55015 77.01377 59.78196
# Shear Modulus (GPa) = 32.07207 41.66093 36.86650
#
# Velocity S-wave (km/s) = 3.47417 3.95961 3.72481
# Velocity P-wave (km/s) = 5.66624 7.06312 6.40289
#
# Compressibility (1/GPa) = 0.02350168
#
# Stress axis : x y z
#
# Youngs Moduli (GPa) = 97.41587 55.90633 54.70763
#
# Poissons Ratio (x) = 0.48161 0.32399
# Poissons Ratio (y) = 0.83919 -0.16806
# Poissons Ratio (z) = 0.57692 -0.17174
#
# Static dielectric constant tensor:
#      x y z
#    x 2.207400 0.257210 0.071980 
#    y 0.257210 2.273570 0.211990 
#    z 0.071980 0.211990 2.285150 
# 
# From -- ./inp_files/58223.got.cif
#   From: 2010.05.17/outbox.cif.g08.bks.cpg/sg2_30_cif.got.tgz:58223.got - 2010.06.03 11:33:40.
