data_PCOD9044424
_publ_section_title
;
Structure prediction by ZEFSAII (Michael W. Deem and Ramdas Pophale) SiO2 
 PCOD9044424
Probable space group: P -1
;
_chemical_formula_sum "Si O2"
_cell_formula_units_Z 14
_cell_length_a 9.795473
_cell_length_b 9.844556
_cell_length_c 13.137192
_cell_angle_alpha 54.351563
_cell_angle_beta 54.503484
_cell_angle_gamma 30.157361
_cell_volume 507.955161
_symmetry_space_group_name_H-M "P -1"
_symmetry_group_IT_number 2
_symmetry_cell_setting 'triclinic'
loop_
_space_group_symop_operation_xyz
x,y,z
-x,-y,-z
loop_
_atom_site_type_symbol
_atom_site_label
_atom_site_fract_x
_atom_site_fract_y
_atom_site_fract_z
Si Si1 0.272591 0.293941 0.833605
Si Si2 0.212325 0.561809 0.064389
Si Si3 0.891290 0.767706 0.459171
Si Si4 0.709143 0.308230 0.836102
Si Si5 0.786804 0.371546 0.433418
Si Si6 0.480610 0.186109 0.299359
Si Si7 0.113382 0.118705 0.205382
O O1 0.073003 0.294955 0.908464
O O2 0.271499 0.392016 0.682982
O O3 0.586968 0.031740 0.847054
O O4 0.109953 0.558736 0.857642
O O5 0.153277 0.752176 0.089768
O O6 0.397740 0.285562 0.174576
O O7 0.411326 0.474465 0.930139
O O8 0.922783 0.276995 0.525105
O O9 0.636720 0.902395 0.581272
O O10 0.000000 0.500000 0.500000
O O11 0.778823 0.944743 0.328924
O O12 0.646630 0.542137 0.714291
O O13 0.846372 0.061126 0.813739
O O14 0.500000 0.500000 0.500000
O O15 0.997725 0.859614 0.646218
#
# Coordination Sequence:
#
# PCOD9044424 Si02
#       7
#     2   2   2   2   2   2   2
#     4  10  23  46  74 108 157 207 257 323 390 484
#     4   9  19  45  81 114 157 207 263 327 385 471
#     4  11  23  43  77 108 148 207 255 325 389 469
#     4   9  20  45  78 117 155 207 259 329 392 462
#     4  10  24  48  72 111 155 207 265 324 398 469
#     4   9  20  45  73 112 153 195 265 318 387 467
#     4  10  24  48  74 110 162 204 258 330 396 479
#
# _framework density 27.561487
#
# number of rings (size 3 to 8) (size 9 to 14) (size 15 to 20)
#    1.714    0.571    1.429    0.000    0.000    6.286 
#    5.143    5.000    0.000    6.000    0.000    1.000 
#    0.000    0.000    0.000    0.000    0.000    0.000 
#
# Total GULP energy -78338.556202 kJ/mol
# GULP energy per Si atom -5595.611157 kJ/mol
# Density = 2.749876 g / cm^3
# Si number density = 27.561487 Si / 1000 Ang^3
#
#
#
# Elastic Constant Matrix: (Units=GPa)
#
#
# Indices 1 2 3 4 5 6 
#
# 1 221.0327 86.1014 51.4518 34.9226 -28.1523 6.4681
# 2 86.1014 158.2657 43.4437 19.3295 9.6934 16.6793
# 3 51.4518 43.4437 116.5169 26.0763 -21.3003 -13.3931
# 4 34.9226 19.3295 26.0763 48.4730 -11.2491 10.4154
# 5 -28.1523 9.6934 -21.3003 -11.2491 43.8268 4.5668
# 6 6.4681 16.6793 -13.3931 10.4154 4.5668 56.5943
#
#
#
# Elastic Compliance Matrix: (Units=1/GPa)
#
#
# Indices 1 2 3 4 5 6 
#
# 1 0.006999 -0.003744 -0.000291 -0.002408 0.004532 0.000312
# 2 -0.003744 0.009999 -0.003452 -0.000237 -0.006063 -0.002803
# 3 -0.000291 -0.003452 0.012536 -0.004992 0.004915 0.004539
# 4 -0.002408 -0.000237 -0.004992 0.027338 0.003739 -0.006169
# 5 0.004532 -0.006063 0.004915 0.003739 0.030492 -0.000717
# 6 0.000312 -0.002803 0.004539 -0.006169 -0.000717 0.020727
#
#
# Mechanical properties :
#
#
# Convention : Reuss Voigt Hill
#
# Bulk Modulus (GPa) = 68.69018 95.31211 82.00115
# Shear Modulus (GPa) = 39.08710 50.76673 44.92691
#
# Velocity S-wave (km/s) = 3.76996 4.29644 4.04178
# Velocity P-wave (km/s) = 6.62772 7.69865 7.18317
#
# Compressibility (1/GPa) = 0.01455812
#
# Stress axis : x y z
#
# Youngs Moduli (GPa) = 142.87670 100.01282 79.77208
#
# Poissons Ratio (x) = 0.37445 0.02325
# Poissons Ratio (y) = 0.53493 0.27539
# Poissons Ratio (z) = 0.04164 0.34526
#
# Static dielectric constant tensor:
#      x y z
#    x 2.082040 -0.023500 0.013520 
#    y -0.023500 2.220820 0.079870 
#    z 0.013520 0.079870 2.306740 
# 
# From -- ./inp_files/567860.got.cif
#   From: 2010.05.17/outbox.cif.g08.bks.cpg/sg2_284_cif.got.tgz:567860.got - 2010.06.03 11:33:40.
