data_PCOD9044427
_publ_section_title
;
Structure prediction by ZEFSAII (Michael W. Deem and Ramdas Pophale) SiO2 
 PCOD9044427
Probable space group: P -1
;
_chemical_formula_sum "Si O2"
_cell_formula_units_Z 10
_cell_length_a 12.410001
_cell_length_b 6.928636
_cell_length_c 5.039761
_cell_angle_alpha 116.722273
_cell_angle_beta 97.178366
_cell_angle_gamma 68.239717
_cell_volume 359.022453
_symmetry_space_group_name_H-M "P -1"
_symmetry_group_IT_number 2
_symmetry_cell_setting 'triclinic'
loop_
_space_group_symop_operation_xyz
x,y,z
-x,-y,-z
loop_
_atom_site_type_symbol
_atom_site_label
_atom_site_fract_x
_atom_site_fract_y
_atom_site_fract_z
Si Si1 0.670679 0.429725 0.604952
Si Si2 0.727721 0.836759 0.578405
Si Si3 0.074204 0.513909 0.783896
Si Si4 0.895643 0.077067 0.732620
Si Si5 0.537998 0.205716 0.017472
O O1 0.698957 0.636601 0.597297
O O2 0.788196 0.250331 0.639695
O O3 0.615214 0.294758 0.299567
O O4 0.578572 0.567657 0.891023
O O5 0.799325 0.687886 0.260822
O O6 0.832562 0.918156 0.754957
O O7 0.614185 0.068958 0.705073
O O8 0.000000 0.500000 0.500000
O O9 0.082770 0.763769 0.936003
O O10 0.000000 0.500000 0.000000
O O11 0.000000 0.000000 0.500000
O O12 0.500000 0.000000 0.000000
#
# Coordination Sequence:
#
# PCOD9044427 Si02
#       5
#     2   2   2   2   2
#     4  10  23  46  74 111 158 196 273 322 395 477
#     4  11  24  43  75 107 152 203 259 320 403 452
#     4  12  27  48  73 112 159 208 266 327 391 483
#     4  12  27  45  73 115 154 212 262 321 397 480
#     4   9  21  45  76 109 148 210 254 334 398 470
#
# _framework density 27.853411999999999
#
# number of rings (size 3 to 8) (size 9 to 14) (size 15 to 20)
#    0.000    1.200    2.000    2.400    2.800    4.800 
#    0.000   10.000    0.000    0.000    0.000    0.000 
#    0.000    0.000    0.000    0.000    0.000    0.000 
#
# Total GULP energy -55933.828743 kJ/mol
# GULP energy per Si atom -5593.382874 kJ/mol
# Density = 2.779002 g / cm^3
# Si number density = 27.853412 Si / 1000 Ang^3
#
#
#
# Elastic Constant Matrix: (Units=GPa)
#
#
# Indices 1 2 3 4 5 6 
#
# 1 200.6393 60.6965 89.4359 22.5600 -17.8361 -0.7110
# 2 60.6965 120.4786 59.7665 36.8774 -8.3842 -10.9945
# 3 89.4359 59.7665 152.9280 22.6717 -3.1382 -4.3718
# 4 22.5600 36.8774 22.6717 63.9816 -4.1452 -6.7515
# 5 -17.8361 -8.3842 -3.1382 -4.1452 104.8319 32.1324
# 6 -0.7110 -10.9945 -4.3718 -6.7515 32.1324 77.8764
#
#
#
# Elastic Compliance Matrix: (Units=1/GPa)
#
#
# Indices 1 2 3 4 5 6 
#
# 1 0.007223 -0.001830 -0.003468 -0.000280 0.001252 -0.000928
# 2 -0.001830 0.012433 -0.002963 -0.005353 0.000049 0.001088
# 3 -0.003468 -0.002963 0.009803 -0.000551 -0.000654 0.000323
# 4 -0.000280 -0.005353 -0.000551 0.019100 -0.000003 0.000868
# 5 0.001252 0.000049 -0.000654 -0.000003 0.011153 -0.004620
# 6 -0.000928 0.001088 0.000323 0.000868 -0.004620 0.014986
#
#
# Mechanical properties :
#
#
# Convention : Reuss Voigt Hill
#
# Bulk Modulus (GPa) = 77.30313 99.31596 88.30954
# Shear Modulus (GPa) = 52.33754 66.94779 59.64266
#
# Velocity S-wave (km/s) = 4.33949 4.90795 4.63244
# Velocity P-wave (km/s) = 7.27475 8.23719 7.77089
#
# Compressibility (1/GPa) = 0.01293609
#
# Stress axis : x y z
#
# Youngs Moduli (GPa) = 138.44045 80.42808 102.01045
#
# Poissons Ratio (x) = 0.14722 0.35381
# Poissons Ratio (y) = 0.25340 0.30226
# Poissons Ratio (z) = 0.48016 0.23831
#
# Static dielectric constant tensor:
#      x y z
#    x 2.187530 0.005560 0.000140 
#    y 0.005560 2.308090 0.091810 
#    z 0.000140 0.091810 2.285290 
# 
# From -- ./inp_files/60101.got.cif
#   From: 2010.05.17/outbox.cif.g08.bks.cpg/sg2_31_cif.got.tgz:60101.got - 2010.06.03 11:33:40.
