data_PCOD9044262
_publ_section_title
;
Structure prediction by ZEFSAII (Michael W. Deem and Ramdas Pophale) SiO2 
 PCOD9044262
Probable space group: P -1
;
_chemical_formula_sum "Si O2"
_cell_formula_units_Z 16
_cell_length_a 9.819956
_cell_length_b 12.743629
_cell_length_c 14.469698
_cell_angle_alpha 149.750085
_cell_angle_beta 77.333954
_cell_angle_gamma 81.531336
_cell_volume 648.425112
_symmetry_space_group_name_H-M "P -1"
_symmetry_group_IT_number 2
_symmetry_cell_setting 'triclinic'
loop_
_space_group_symop_operation_xyz
x,y,z
-x,-y,-z
loop_
_atom_site_type_symbol
_atom_site_label
_atom_site_fract_x
_atom_site_fract_y
_atom_site_fract_z
Si Si1 0.111070 0.107256 0.567418
Si Si2 0.586222 0.642408 0.855833
Si Si3 0.463417 0.257707 0.254426
Si Si4 0.542089 0.750741 0.244353
Si Si5 0.153943 0.967172 0.646554
Si Si6 0.780885 0.705616 0.008542
Si Si7 0.759378 0.245134 0.977462
Si Si8 0.217370 0.726317 0.789712
O O1 0.096965 0.179391 0.732866
O O2 0.994647 0.393992 0.743103
O O3 0.336459 0.874448 0.333750
O O4 0.000000 0.000000 0.500000
O O5 0.637447 0.532091 0.659455
O O6 0.675033 0.761094 0.971258
O O7 0.362721 0.840951 0.058684
O O8 0.691518 0.340271 0.657514
O O9 0.319128 0.436364 0.496461
O O10 0.653865 0.200163 0.195826
O O11 0.500000 0.000000 0.000000
O O12 0.658841 0.487074 0.097808
O O13 0.500000 0.000000 0.500000
O O14 0.664791 0.694873 0.095281
O O15 0.221909 0.051118 0.780013
O O16 0.976738 0.007819 0.733432
O O17 0.763096 0.333803 0.148686
O O18 0.000000 0.000000 0.000000
#
# Coordination Sequence:
#
# PCOD9044262 Si02
#       8
#     2   2   2   2   2   2   2   2
#     4  12  23  39  61  89 131 175 218 264 317 374
#     4  11  25  43  65  97 125 174 217 269 332 394
#     4  10  24  46  72  99 135 168 223 283 343 411
#     4  12  23  39  59  92 132 174 217 262 310 383
#     4  12  23  42  63  92 134 170 223 267 317 389
#     4  12  25  40  63  92 132 178 218 263 321 380
#     4  11  23  40  66  93 130 171 217 269 327 394
#     4  10  23  46  72 101 132 174 218 282 352 399
#
# _framework density 24.675170999999999
#
# number of rings (size 3 to 8) (size 9 to 14) (size 15 to 20)
#    0.000    0.750    5.000    1.875    1.750    6.500 
#    0.000    2.500    0.000    0.000    0.000    0.000 
#    0.000    0.000    0.000    0.000    0.000    0.000 
#
# Total GULP energy -89456.647947 kJ/mol
# GULP energy per Si atom -5591.040497 kJ/mol
# Density = 2.461901 g / cm^3
# Si number density = 24.675171 Si / 1000 Ang^3
#
#
#
# Elastic Constant Matrix: (Units=GPa)
#
#
# Indices 1 2 3 4 5 6 
#
# 1 128.0965 18.7523 65.1011 13.1514 -3.4137 -30.8496
# 2 18.7523 64.1174 23.2059 -18.8621 -7.5529 -17.0865
# 3 65.1011 23.2059 118.9625 0.9546 -6.0208 -10.5036
# 4 13.1514 -18.8621 0.9546 33.3372 -0.7721 4.3673
# 5 -3.4137 -7.5529 -6.0208 -0.7721 58.4956 -1.8981
# 6 -30.8496 -17.0865 -10.5036 4.3673 -1.8981 39.2804
#
#
#
# Elastic Compliance Matrix: (Units=1/GPa)
#
#
# Indices 1 2 3 4 5 6 
#
# 1 0.014655 -0.001416 -0.006795 -0.007686 0.000194 0.009941
# 2 -0.001416 0.023081 -0.003079 0.012882 0.002972 0.006816
# 3 -0.006795 -0.003079 0.012432 0.001043 0.000387 -0.003448
# 4 -0.007686 0.012882 0.001043 0.040932 0.001712 -0.004622
# 5 0.000194 0.002972 0.000387 0.001712 0.017625 0.002210
# 6 0.009941 0.006816 -0.003448 -0.004622 0.002210 0.035929
#
#
# Mechanical properties :
#
#
# Convention : Reuss Voigt Hill
#
# Bulk Modulus (GPa) = 36.24603 58.36610 47.30606
# Shear Modulus (GPa) = 28.34012 39.83043 34.08527
#
# Velocity S-wave (km/s) = 3.39267 4.02206 3.72070
# Velocity P-wave (km/s) = 5.48344 6.72863 6.13769
#
# Compressibility (1/GPa) = 0.02758923
#
# Stress axis : x y z
#
# Youngs Moduli (GPa) = 68.23407 43.32615 80.44042
#
# Poissons Ratio (x) = 0.06136 0.54656
# Poissons Ratio (y) = 0.09663 0.24764
# Poissons Ratio (z) = 0.46362 0.13338
#
# Static dielectric constant tensor:
#      x y z
#    x 1.965240 -0.024800 0.009260 
#    y -0.024800 2.289050 0.101130 
#    z 0.009260 0.101130 1.934900 
# 
# From -- ./inp_files/505812.got.cif
#   From: 2010.05.17/outbox.cif.g08.bks.cpg/sg2_253_cif.got.tgz:505812.got - 2010.06.03 11:33:40.
