data_PCOD9044175
_publ_section_title
;
Structure prediction by ZEFSAII (Michael W. Deem and Ramdas Pophale) SiO2 
 PCOD9044175
Probable space group: P -1
;
_chemical_formula_sum "Si O2"
_cell_formula_units_Z 16
_cell_length_a 10.693989
_cell_length_b 11.074880
_cell_length_c 5.569363
_cell_angle_alpha 79.224557
_cell_angle_beta 100.424795
_cell_angle_gamma 81.703487
_cell_volume 626.354614
_symmetry_space_group_name_H-M "P -1"
_symmetry_group_IT_number 2
_symmetry_cell_setting 'triclinic'
loop_
_space_group_symop_operation_xyz
x,y,z
-x,-y,-z
loop_
_atom_site_type_symbol
_atom_site_label
_atom_site_fract_x
_atom_site_fract_y
_atom_site_fract_z
Si Si1 0.381304 0.342397 0.431978
Si Si2 0.774406 0.765119 0.226217
Si Si3 0.199220 0.720722 0.723039
Si Si4 0.302384 0.937028 0.450052
Si Si5 0.417018 0.586341 0.142507
Si Si6 0.063441 0.117529 0.428292
Si Si7 0.539100 0.894454 0.807210
Si Si8 0.081855 0.483710 0.784895
O O1 0.256621 0.304423 0.518044
O O2 0.344976 0.483060 0.270709
O O3 0.490233 0.360662 0.659271
O O4 0.438341 0.228753 0.316023
O O5 0.882233 0.840931 0.317395
O O6 0.834522 0.655477 0.111525
O O7 0.635949 0.839465 0.071031
O O8 0.241031 0.810832 0.494352
O O9 0.179532 0.579607 0.727573
O O10 0.056334 0.782355 0.744228
O O11 0.315762 0.699572 0.958804
O O12 0.384076 0.933589 0.728731
O O13 0.188954 0.058702 0.341549
O O14 0.408162 0.978772 0.295377
O O15 0.500000 0.500000 0.000000
O O16 0.000000 0.000000 0.500000
O O17 0.000000 0.500000 0.500000
O O18 0.000000 0.500000 0.000000
#
# Coordination Sequence:
#
# PCOD9044175 Si02
#       8
#     2   2   2   2   2   2   2   2
#     4  11  23  43  74 106 146 187 250 324 384 469
#     4  12  25  46  77 105 149 200 256 322 394 466
#     4  11  23  46  73 106 155 196 254 314 394 468
#     4  10  23  47  71 104 150 190 256 320 386 459
#     4  11  24  44  72 108 145 193 246 320 396 457
#     4  10  23  46  70  99 150 198 252 313 369 475
#     4  11  24  44  76 107 143 194 256 325 387 465
#     4  12  29  49  79 115 157 211 262 324 400 476
#
# _framework density 25.544635
#
# number of rings (size 3 to 8) (size 9 to 14) (size 15 to 20)
#    0.000    1.000    2.500    3.750    5.250    1.500 
#    9.000    2.500    0.000    0.000    0.000    0.000 
#    0.000    0.000    0.000    0.000    0.000    0.000 
#
# Total GULP energy -89299.313864 kJ/mol
# GULP energy per Si atom -5581.207117 kJ/mol
# Density = 2.548649 g / cm^3
# Si number density = 25.544635 Si / 1000 Ang^3
#
#
#
# Elastic Constant Matrix: (Units=GPa)
#
#
# Indices 1 2 3 4 5 6 
#
# 1 86.2690 20.5347 20.4353 1.0308 16.5206 6.7364
# 2 20.5347 129.9120 34.6644 4.8423 -5.7958 33.1158
# 3 20.4353 34.6644 93.5853 -13.2005 17.3450 2.1648
# 4 1.0308 4.8423 -13.2005 44.7433 -8.2739 -3.9800
# 5 16.5206 -5.7958 17.3450 -8.2739 38.9885 -14.4583
# 6 6.7364 33.1158 2.1648 -3.9800 -14.4583 58.8529
#
#
#
# Elastic Compliance Matrix: (Units=1/GPa)
#
#
# Indices 1 2 3 4 5 6 
#
# 1 0.013790 -0.001351 -0.001490 -0.002093 -0.006779 -0.002570
# 2 -0.001351 0.010558 -0.004109 -0.002550 0.001403 -0.005463
# 3 -0.001490 -0.004109 0.013973 0.003759 -0.005032 0.000987
# 4 -0.002093 -0.002550 0.003759 0.025302 0.005952 0.004709
# 5 -0.006779 0.001403 -0.005032 0.005952 0.035696 0.009343
# 6 -0.002570 -0.005463 0.000987 0.004709 0.009343 0.022937
#
#
# Mechanical properties :
#
#
# Convention : Reuss Voigt Hill
#
# Bulk Modulus (GPa) = 40.95063 51.22609 46.08836
# Shear Modulus (GPa) = 34.65092 44.12573 39.38832
#
# Velocity S-wave (km/s) = 3.68704 4.16071 3.93102
# Velocity P-wave (km/s) = 5.84735 6.57108 6.21975
#
# Compressibility (1/GPa) = 0.02441965
#
# Stress axis : x y z
#
# Youngs Moduli (GPa) = 72.51581 94.71839 71.56790
#
# Poissons Ratio (x) = 0.12800 0.10664
# Poissons Ratio (y) = 0.09800 0.29406
# Poissons Ratio (z) = 0.10806 0.38919
#
# Static dielectric constant tensor:
#      x y z
#    x 1.782910 0.033560 -0.179200 
#    y 0.033560 2.027600 0.029360 
#    z -0.179200 0.029360 2.088100 
# 
# From -- ./inp_files/69336.got.cif
#   From: 2010.05.17/outbox.cif.g08.bks.cpg/sg2_35_cif.got.tgz:69336.got - 2010.06.03 11:33:40.
