data_PCOD9044519
_publ_section_title
;
Structure prediction by ZEFSAII (Michael W. Deem and Ramdas Pophale) SiO2 
 PCOD9044519
Probable space group: P -1
;
_chemical_formula_sum "Si O2"
_cell_formula_units_Z 10
_cell_length_a 4.749291
_cell_length_b 8.747472
_cell_length_c 14.857212
_cell_angle_alpha 38.056561
_cell_angle_beta 84.858041
_cell_angle_gamma 94.591900
_cell_volume 367.373067
_symmetry_space_group_name_H-M "P -1"
_symmetry_group_IT_number 2
_symmetry_cell_setting 'triclinic'
loop_
_space_group_symop_operation_xyz
x,y,z
-x,-y,-z
loop_
_atom_site_type_symbol
_atom_site_label
_atom_site_fract_x
_atom_site_fract_y
_atom_site_fract_z
Si Si1 0.218063 0.092807 0.203655
Si Si2 0.000019 0.388077 0.768244
Si Si3 0.267240 0.347983 0.506538
Si Si4 0.778251 0.084028 0.081188
Si Si5 0.882776 0.134256 0.358072
O O1 0.146615 0.224780 0.236009
O O2 0.027895 0.803905 0.363798
O O3 0.525636 0.086851 0.157469
O O4 0.068426 0.205354 0.073338
O O5 0.831471 0.497453 0.643861
O O6 0.183824 0.197115 0.814760
O O7 0.198329 0.622522 0.709908
O O8 0.774125 0.227436 0.921417
O O9 0.500000 0.500000 0.500000
O O10 0.351624 0.094646 0.578310
O O11 0.000000 0.000000 0.500000
#
# Coordination Sequence:
#
# PCOD9044519 Si02
#       5
#     2   2   2   2   2
#     4  10  25  48  76 114 148 201 265 300 388 455
#     4  10  23  46  80 112 162 194 256 313 389 452
#     4   9  21  47  82 110 145 207 258 314 376 455
#     4  11  26  47  76 118 151 207 243 319 387 463
#     4   8  19  47  77 111 146 203 250 323 369 451
#
# _framework density 27.220289999999999
#
# number of rings (size 3 to 8) (size 9 to 14) (size 15 to 20)
#    1.200    1.200    0.000    0.000    2.800    6.400 
#    0.000    3.000    0.000   10.800    0.000    0.000 
#    0.000    0.000    0.000    0.000    0.000    0.000 
#
# Total GULP energy -55979.730716 kJ/mol
# GULP energy per Si atom -5597.973072 kJ/mol
# Density = 2.715834 g / cm^3
# Si number density = 27.220290 Si / 1000 Ang^3
#
#
#
# Elastic Constant Matrix: (Units=GPa)
#
#
# Indices 1 2 3 4 5 6 
#
# 1 84.7873 33.6971 21.2484 8.6129 -0.6469 -0.9380
# 2 33.6971 186.5540 28.6140 1.8768 7.2263 6.2545
# 3 21.2484 28.6140 170.0594 35.7775 14.4516 3.4783
# 4 8.6129 1.8768 35.7775 46.8887 -0.9903 -6.9699
# 5 -0.6469 7.2263 14.4516 -0.9903 29.8798 11.0029
# 6 -0.9380 6.2545 3.4783 -6.9699 11.0029 49.2771
#
#
#
# Elastic Compliance Matrix: (Units=1/GPa)
#
#
# Indices 1 2 3 4 5 6 
#
# 1 0.013111 -0.002243 -0.001061 -0.001464 0.001245 0.000124
# 2 -0.002243 0.005928 -0.000773 0.000680 -0.000925 -0.000438
# 3 -0.001061 -0.000773 0.007670 -0.005774 -0.003558 -0.000486
# 4 -0.001464 0.000680 -0.005774 0.026550 0.002163 0.003566
# 5 0.001245 -0.000925 -0.003558 0.002163 0.038412 -0.007879
# 6 0.000124 -0.000438 -0.000486 0.003566 -0.007879 0.022649
#
#
# Mechanical properties :
#
#
# Convention : Reuss Voigt Hill
#
# Bulk Modulus (GPa) = 53.89326 67.61331 60.75328
# Shear Modulus (GPa) = 38.86240 49.06519 43.96379
#
# Velocity S-wave (km/s) = 3.78259 4.25022 4.02320
# Velocity P-wave (km/s) = 6.23853 6.99850 6.62941
#
# Compressibility (1/GPa) = 0.01855520
#
# Stress axis : x y z
#
# Youngs Moduli (GPa) = 76.27024 168.69877 130.37967
#
# Poissons Ratio (x) = 0.37842 0.13835
# Poissons Ratio (y) = 0.17109 0.10073
# Poissons Ratio (z) = 0.08093 0.13033
#
# Static dielectric constant tensor:
#      x y z
#    x 2.122780 -0.009040 -0.031450 
#    y -0.009040 2.193980 -0.078110 
#    z -0.031450 -0.078110 2.137290 
# 
# From -- ./inp_files/480163.got.cif
#   From: 2010.05.17/outbox.cif.g08.bks.cpg/sg2_241_cif.got.tgz:480163.got - 2010.06.03 11:33:40.
