data_PCOD9044271
_publ_section_title
;
Structure prediction by ZEFSAII (Michael W. Deem and Ramdas Pophale) SiO2 
 PCOD9044271
Probable space group: P -1
;
_chemical_formula_sum "Si O2"
_cell_formula_units_Z 16
_cell_length_a 12.172557
_cell_length_b 24.303517
_cell_length_c 10.988734
_cell_angle_alpha 39.057950
_cell_angle_beta 39.723787
_cell_angle_gamma 19.875057
_cell_volume 684.826551
_symmetry_space_group_name_H-M "P -1"
_symmetry_group_IT_number 2
_symmetry_cell_setting 'triclinic'
loop_
_space_group_symop_operation_xyz
x,y,z
-x,-y,-z
loop_
_atom_site_type_symbol
_atom_site_label
_atom_site_fract_x
_atom_site_fract_y
_atom_site_fract_z
Si Si1 0.846268 0.284844 0.376610
Si Si2 0.637495 0.845708 0.183147
Si Si3 0.601878 0.180996 0.031879
Si Si4 0.505368 0.319783 0.093516
Si Si5 0.193120 0.308630 0.929955
Si Si6 0.869132 0.014982 0.457533
Si Si7 0.206461 0.190880 0.460742
Si Si8 0.832685 0.359184 0.741565
O O1 0.467285 0.454931 0.371849
O O2 0.050178 0.273617 0.149629
O O3 0.918629 0.284269 0.453865
O O4 0.945863 0.142945 0.500555
O O5 0.441326 0.901741 0.370318
O O6 0.006357 0.679921 0.202836
O O7 0.603916 0.795607 0.185433
O O8 0.500000 0.000000 0.000000
O O9 0.523564 0.303369 0.959751
O O10 0.438814 0.239663 0.939465
O O11 0.379741 0.208386 0.253061
O O12 0.000000 0.000000 0.000000
O O13 0.730248 0.148834 0.256661
O O14 0.679392 0.333652 0.952690
O O15 0.123489 0.492280 0.158330
O O16 0.000000 0.000000 0.500000
O O17 0.080736 0.239359 0.622181
O O18 0.500000 0.000000 0.500000
#
# Coordination Sequence:
#
# PCOD9044271 Si02
#       8
#     2   2   2   2   2   2   2   2
#     4  10  23  46  72 103 138 185 233 285 342 417
#     4  12  25  46  72  98 138 188 237 276 345 424
#     4  11  24  42  72 105 141 177 229 292 349 401
#     4  11  25  45  69 106 141 178 229 292 351 398
#     4  10  25  45  73 101 139 188 230 281 345 423
#     4  12  27  45  67 102 142 180 233 291 344 406
#     4  11  22  43  72 105 137 183 237 278 344 419
#     4  11  25  44  76 101 138 187 232 282 343 419
#
# _framework density 23.363582000000001
#
# number of rings (size 3 to 8) (size 9 to 14) (size 15 to 20)
#    0.000    1.000    1.250    4.500    7.000    1.500 
#    2.250    0.000    0.000    0.000    0.000    0.875 
#    0.000    0.000    0.000    0.000    0.000    0.000 
#
# Total GULP energy -89395.663057 kJ/mol
# GULP energy per Si atom -5587.228941 kJ/mol
# Density = 2.331041 g / cm^3
# Si number density = 23.363582 Si / 1000 Ang^3
#
#
#
# Elastic Constant Matrix: (Units=GPa)
#
#
# Indices 1 2 3 4 5 6 
#
# 1 131.1509 28.9664 6.8506 -18.9142 11.5906 -25.8910
# 2 28.9664 112.7862 27.3596 -17.5603 7.5882 -3.9114
# 3 6.8506 27.3596 38.9984 -8.9434 4.0270 -9.3296
# 4 -18.9142 -17.5603 -8.9434 34.3297 2.9605 1.4441
# 5 11.5906 7.5882 4.0270 2.9605 30.5298 1.4918
# 6 -25.8910 -3.9114 -9.3296 1.4441 1.4918 40.8290
#
#
#
# Elastic Compliance Matrix: (Units=1/GPa)
#
#
# Indices 1 2 3 4 5 6 
#
# 1 0.010577 -0.001997 0.003075 0.005721 -0.004831 0.007193
# 2 -0.001997 0.011703 -0.007453 0.003144 -0.001379 -0.001909
# 3 0.003075 -0.007453 0.034613 0.006948 -0.004998 0.009082
# 4 0.005721 0.003144 0.006948 0.036165 -0.007597 0.004515
# 5 -0.004831 -0.001379 -0.004998 -0.007597 0.036592 -0.005406
# 6 0.007193 -0.001909 0.009082 0.004515 -0.005406 0.030984
#
#
# Mechanical properties :
#
#
# Convention : Reuss Voigt Hill
#
# Bulk Modulus (GPa) = 22.65404 45.47651 34.06528
# Shear Modulus (GPa) = 26.58178 35.78828 31.18503
#
# Velocity S-wave (km/s) = 3.37671 3.91806 3.65742
# Velocity P-wave (km/s) = 4.99201 6.32260 5.69629
#
# Compressibility (1/GPa) = 0.04414224
#
# Stress axis : x y z
#
# Youngs Moduli (GPa) = 94.54220 85.44649 28.89108
#
# Poissons Ratio (x) = 0.17065 -0.08883
# Poissons Ratio (y) = 0.18881 0.21533
# Poissons Ratio (z) = -0.29069 0.63684
#
# Static dielectric constant tensor:
#      x y z
#    x 1.949190 -0.020250 -0.128100 
#    y -0.020250 1.811530 0.050610 
#    z -0.128100 0.050610 1.890170 
# 
# From -- ./inp_files/439243.got.cif
#   From: 2010.05.17/outbox.cif.g08.bks.cpg/sg2_220_cif.got.tgz:439243.got - 2010.06.03 11:33:40.
