data_PCOD9044976
_publ_section_title
;
Structure prediction by ZEFSAII (Michael W. Deem and Ramdas Pophale) SiO2 
 PCOD9044976
Probable space group: P -1
;
_chemical_formula_sum "Si O2"
_cell_formula_units_Z 15
_cell_length_a 18.691946
_cell_length_b 6.878420
_cell_length_c 18.979813
_cell_angle_alpha 43.795622
_cell_angle_beta 27.036541
_cell_angle_gamma 43.567067
_cell_volume 741.392371
_symmetry_space_group_name_H-M "P -1"
_symmetry_group_IT_number 2
_symmetry_cell_setting 'triclinic'
loop_
_space_group_symop_operation_xyz
x,y,z
-x,-y,-z
loop_
_atom_site_type_symbol
_atom_site_label
_atom_site_fract_x
_atom_site_fract_y
_atom_site_fract_z
Si Si1 0.567396 0.654079 0.537036
Si Si2 0.581953 0.245608 0.894803
Si Si3 0.150029 0.467986 0.784520
Si Si4 0.000000 0.000000 0.000000
Si Si5 0.294826 0.801031 0.048588
Si Si6 0.969646 0.880627 0.226050
Si Si7 0.674845 0.637836 0.596975
Si Si8 0.409712 0.191921 0.740439
O O1 0.744427 0.550278 0.374060
O O2 0.577947 0.573830 0.630287
O O3 0.453933 0.492618 0.637146
O O4 0.500000 0.000000 0.500000
O O5 0.696674 0.158235 0.885671
O O6 0.678246 0.383333 0.715949
O O7 0.432492 0.511850 0.981717
O O8 0.500000 0.000000 0.000000
O O9 0.274615 0.245275 0.784712
O O10 0.105799 0.785711 0.771498
O O11 0.002066 0.326213 0.939616
O O12 0.001190 0.110439 0.885653
O O13 0.130267 0.778885 0.160267
O O14 0.343379 0.071551 0.899017
O O15 0.842423 0.695572 0.407611
O O16 0.567860 0.943570 0.642606
#
# Coordination Sequence:
#
# PCOD9044976 Si02
#       8
#     2   2   2   1   2   2   2   2
#     4  12  22  35  62  96 132 175 222 261 308 386
#     4  10  23  48  70  95 121 162 226 285 332 388
#     4  12  24  39  61  94 137 180 212 262 316 394
#     4  12  26  40  58  92 144 176 212 254 322 390
#     4  10  24  43  69  92 124 171 216 276 335 386
#     4  12  25  44  63  99 137 175 217 262 331 394
#     4  11  23  41  67  95 129 173 222 270 326 388
#     4  11  22  40  63  93 130 179 221 261 319 387
#
# _framework density 20.232201
#
# number of rings (size 3 to 8) (size 9 to 14) (size 15 to 20)
#    0.000    0.800    5.333    2.400    0.000    1.600 
#    0.000    0.667    0.000    0.000    0.000    0.000 
#    0.000    0.000    0.000    0.000    0.000    0.000 
#
# Total GULP energy -83528.617073 kJ/mol
# GULP energy per Si atom -5568.574472 kJ/mol
# Density = 2.018615 g / cm^3
# Si number density = 20.232201 Si / 1000 Ang^3
#
#
#
# Elastic Constant Matrix: (Units=GPa)
#
#
# Indices 1 2 3 4 5 6 
#
# 1 128.6558 23.3913 64.6038 0.2361 30.8349 7.8786
# 2 23.3913 54.9558 27.4842 -18.6383 1.1790 12.8973
# 3 64.6038 27.4842 88.4798 -12.7417 16.2311 1.0865
# 4 0.2361 -18.6383 -12.7417 26.6087 -1.8512 -7.4313
# 5 30.8349 1.1790 16.2311 -1.8512 39.1102 -1.6579
# 6 7.8786 12.8973 1.0865 -7.4313 -1.6579 29.1464
#
#
#
# Elastic Compliance Matrix: (Units=1/GPa)
#
#
# Indices 1 2 3 4 5 6 
#
# 1 0.016113 -0.003505 -0.010357 -0.009691 -0.008988 -0.005401
# 2 -0.003505 0.029383 -0.004904 0.016498 0.004380 -0.007416
# 3 -0.010357 -0.004904 0.021563 0.008775 0.000051 0.006406
# 4 -0.009691 0.016498 0.008775 0.056623 0.006597 0.009804
# 5 -0.008988 0.004380 0.000051 0.006597 0.032985 0.004048
# 6 -0.005401 -0.007416 0.006406 0.009804 0.004048 0.041542
#
#
# Mechanical properties :
#
#
# Convention : Reuss Voigt Hill
#
# Bulk Modulus (GPa) = 33.86816 55.89444 44.88130
# Shear Modulus (GPa) = 20.35964 29.41385 24.88674
#
# Velocity S-wave (km/s) = 3.17566 3.81703 3.51102
# Velocity P-wave (km/s) = 5.49750 6.86387 6.21833
#
# Compressibility (1/GPa) = 0.02952625
#
# Stress axis : x y z
#
# Youngs Moduli (GPa) = 62.06120 34.03348 46.37578
#
# Poissons Ratio (x) = 0.11930 0.48030
# Poissons Ratio (y) = 0.21755 0.22744
# Poissons Ratio (z) = 0.64275 0.16691
#
# Static dielectric constant tensor:
#      x y z
#    x 1.733490 -0.003970 -0.005870 
#    y -0.003970 1.680250 0.010160 
#    z -0.005870 0.010160 1.789660 
# 
# From -- ./inp_files/98440.got.cif
#   From: 2010.05.17/outbox.cif.g08.bks.cpg/sg2_50_cif.got.tgz:98440.got - 2010.06.03 11:33:40.
