data_PCOD9044483
_publ_section_title
;
Structure prediction by ZEFSAII (Michael W. Deem and Ramdas Pophale) SiO2 
 PCOD9044483
Probable space group: P -1
;
_chemical_formula_sum "Si O2"
_cell_formula_units_Z 14
_cell_length_a 8.459782
_cell_length_b 8.956042
_cell_length_c 10.591474
_cell_angle_alpha 60.026515
_cell_angle_beta 124.355125
_cell_angle_gamma 116.198393
_cell_volume 559.420673
_symmetry_space_group_name_H-M "P -1"
_symmetry_group_IT_number 2
_symmetry_cell_setting 'triclinic'
loop_
_space_group_symop_operation_xyz
x,y,z
-x,-y,-z
loop_
_atom_site_type_symbol
_atom_site_label
_atom_site_fract_x
_atom_site_fract_y
_atom_site_fract_z
Si Si1 0.703131 0.443387 0.100198
Si Si2 0.778905 0.090164 0.335364
Si Si3 0.045289 0.911999 0.838634
Si Si4 0.273308 0.921228 0.398636
Si Si5 0.743282 0.387257 0.871296
Si Si6 0.710488 0.750746 0.300988
Si Si7 0.882584 0.457151 0.635538
O O1 0.651057 0.230022 0.183019
O O2 0.882599 0.513968 0.248184
O O3 0.500000 0.500000 0.000000
O O4 0.798298 0.489184 0.984675
O O5 0.950852 0.141134 0.286583
O O6 0.825434 0.114816 0.491815
O O7 0.691854 0.886639 0.349872
O O8 0.178246 0.112164 0.811645
O O9 0.158677 0.782951 0.013614
O O10 0.831694 0.934013 0.772747
O O11 0.221082 0.738268 0.377196
O O12 0.500000 0.000000 0.500000
O O13 0.509451 0.332209 0.801580
O O14 0.794593 0.483058 0.722450
O O15 0.821503 0.601756 0.456775
#
# Coordination Sequence:
#
# PCOD9044483 Si02
#       7
#     2   2   2   2   2   2   2
#     4  11  27  45  73 108 145 186 243 300 356 419
#     4   9  23  45  72  99 141 195 236 287 355 427
#     4   9  23  43  76  94 143 190 240 282 355 427
#     4  12  26  44  70 110 148 184 239 301 360 421
#     4  11  24  47  71 105 144 193 234 295 363 424
#     4  10  23  46  77 104 137 194 247 279 358 435
#     4  12  28  45  72 109 147 186 235 303 360 423
#
# _framework density 25.025893
#
# number of rings (size 3 to 8) (size 9 to 14) (size 15 to 20)
#    0.857    0.571    0.000    3.429    8.000    2.857 
#    0.000    0.000    0.000    0.000    0.000    0.000 
#    0.000    0.000    0.000    0.000    0.000    0.000 
#
# Total GULP energy -78281.582935 kJ/mol
# GULP energy per Si atom -5591.541638 kJ/mol
# Density = 2.496893 g / cm^3
# Si number density = 25.025893 Si / 1000 Ang^3
#
#
#
# Elastic Constant Matrix: (Units=GPa)
#
#
# Indices 1 2 3 4 5 6 
#
# 1 65.6633 38.0366 44.2745 -4.0564 27.3791 0.3040
# 2 38.0366 135.8689 65.3681 6.8827 26.1608 -7.2470
# 3 44.2745 65.3681 130.5455 -9.5311 40.8764 2.0171
# 4 -4.0564 6.8827 -9.5311 42.4532 -11.6992 8.6860
# 5 27.3791 26.1608 40.8764 -11.6992 69.8934 11.5117
# 6 0.3040 -7.2470 2.0171 8.6860 11.5117 38.1105
#
#
#
# Elastic Compliance Matrix: (Units=1/GPa)
#
#
# Indices 1 2 3 4 5 6 
#
# 1 0.022067 -0.003030 -0.004381 -0.000004 -0.005118 0.001027
# 2 -0.003030 0.011063 -0.004329 -0.004343 -0.001790 0.003887
# 3 -0.004381 -0.004329 0.012588 0.002342 -0.003480 -0.000937
# 4 -0.000004 -0.004343 0.002342 0.028533 0.006589 -0.009443
# 5 -0.005118 -0.001790 -0.003480 0.006589 0.021454 -0.008097
# 6 0.001027 0.003887 -0.000937 -0.009443 -0.008097 0.031618
#
#
# Mechanical properties :
#
#
# Convention : Reuss Voigt Hill
#
# Bulk Modulus (GPa) = 44.96392 69.71513 57.33952
# Shear Modulus (GPa) = 31.60271 42.38465 36.99368
#
# Velocity S-wave (km/s) = 3.55745 4.11984 3.84893
# Velocity P-wave (km/s) = 5.90592 7.10974 6.53561
#
# Compressibility (1/GPa) = 0.02224005
#
# Stress axis : x y z
#
# Youngs Moduli (GPa) = 45.31682 90.39316 79.43843
#
# Poissons Ratio (x) = 0.27386 0.34798
# Poissons Ratio (y) = 0.13730 0.34387
# Poissons Ratio (z) = 0.19851 0.39129
#
# Static dielectric constant tensor:
#      x y z
#    x 2.020600 0.005500 -0.003030 
#    y 0.005500 1.990460 -0.002200 
#    z -0.003030 -0.002200 2.005190 
# 
# From -- ./inp_files/381534.got.cif
#   From: 2010.05.17/outbox.cif.g08.bks.cpg/sg2_191_cif.got.tgz:381534.got - 2010.06.03 11:33:40.
