data_PCOD9044751
_publ_section_title
;
Structure prediction by ZEFSAII (Michael W. Deem and Ramdas Pophale) SiO2 
 PCOD9044751
Probable space group: P -1
;
_chemical_formula_sum "Si O2"
_cell_formula_units_Z 14
_cell_length_a 14.164067
_cell_length_b 6.871405
_cell_length_c 22.504014
_cell_angle_alpha 105.132948
_cell_angle_beta 160.698931
_cell_angle_gamma 64.515330
_cell_volume 571.116796
_symmetry_space_group_name_H-M "P -1"
_symmetry_group_IT_number 2
_symmetry_cell_setting 'triclinic'
loop_
_space_group_symop_operation_xyz
x,y,z
-x,-y,-z
loop_
_atom_site_type_symbol
_atom_site_label
_atom_site_fract_x
_atom_site_fract_y
_atom_site_fract_z
Si Si1 0.177891 0.263005 0.356789
Si Si2 0.258546 0.860693 0.968544
Si Si3 0.680641 0.076790 0.742442
Si Si4 0.233505 0.559692 0.682373
Si Si5 0.887487 0.800773 0.188564
Si Si6 0.325007 0.502871 0.169467
Si Si7 0.269651 0.889217 0.524618
O O1 0.331317 0.262643 0.510927
O O2 0.852715 0.244923 0.158868
O O3 0.047420 0.512646 0.264633
O O4 0.500000 0.000000 0.500000
O O5 0.167396 0.110795 0.905103
O O6 0.616160 0.640934 0.191269
O O7 0.997545 0.941639 0.874627
O O8 0.739012 0.237298 0.833277
O O9 0.607634 0.889007 0.711245
O O10 0.527017 0.546610 0.813639
O O11 0.000000 0.500000 0.500000
O O12 0.012501 0.833358 0.599240
O O13 0.144689 0.826589 0.385892
O O14 0.500000 0.000000 0.000000
O O15 0.638175 0.296759 0.381847
O O16 0.000000 0.500000 0.000000
#
# Coordination Sequence:
#
# PCOD9044751 Si02
#       7
#     2   2   2   2   2   2   2
#     4  10  23  47  72 110 151 189 247 311 383 445
#     4  11  27  46  74 108 152 191 251 309 387 445
#     4  11  24  47  76 109 146 195 247 319 378 448
#     4  12  28  49  75 106 156 203 249 317 376 453
#     4  12  27  43  78 114 152 196 252 316 385 456
#     4  12  28  49  77 108 149 200 261 307 379 454
#     4  12  26  47  78 108 149 198 259 309 384 448
#
# _framework density 24.513373000000001
#
# number of rings (size 3 to 8) (size 9 to 14) (size 15 to 20)
#    0.000    0.571    4.286    2.143    6.000    9.143 
#    0.000    0.000    0.000    0.000    0.000    0.000 
#    0.000    0.000    0.000    0.000    0.000    0.000 
#
# Total GULP energy -78298.829333 kJ/mol
# GULP energy per Si atom -5592.773524 kJ/mol
# Density = 2.445758 g / cm^3
# Si number density = 24.513373 Si / 1000 Ang^3
#
#
#
# Elastic Constant Matrix: (Units=GPa)
#
#
# Indices 1 2 3 4 5 6 
#
# 1 91.4120 23.5855 16.7352 -25.2481 13.6406 22.7055
# 2 23.5855 127.6577 34.9585 -30.7251 -9.0061 19.2577
# 3 16.7352 34.9585 101.4952 -26.4346 -18.8885 12.2340
# 4 -25.2481 -30.7251 -26.4346 55.2621 17.2953 -14.1631
# 5 13.6406 -9.0061 -18.8885 17.2953 51.8119 -14.7060
# 6 22.7055 19.2577 12.2340 -14.1631 -14.7060 44.3270
#
#
#
# Elastic Compliance Matrix: (Units=1/GPa)
#
#
# Indices 1 2 3 4 5 6 
#
# 1 0.017344 -0.000200 -0.001542 0.007966 -0.010461 -0.009297
# 2 -0.000200 0.009738 -0.002182 0.003954 -0.001117 -0.002633
# 3 -0.001542 -0.002182 0.012239 0.002922 0.003657 0.000507
# 4 0.007966 0.003954 0.002922 0.028237 -0.010029 -0.000910
# 5 -0.010461 -0.001117 0.003657 -0.010029 0.029811 0.011520
# 6 -0.009297 -0.002633 0.000507 -0.000910 0.011520 0.031857
#
#
# Mechanical properties :
#
#
# Convention : Reuss Voigt Hill
#
# Bulk Modulus (GPa) = 31.77380 52.34703 42.06041
# Shear Modulus (GPa) = 33.88324 46.63259 40.25791
#
# Velocity S-wave (km/s) = 3.72188 4.36631 4.05691
# Velocity P-wave (km/s) = 5.60890 6.84254 6.25620
#
# Compressibility (1/GPa) = 0.03147247
#
# Stress axis : x y z
#
# Youngs Moduli (GPa) = 57.65670 102.69093 81.70567
#
# Poissons Ratio (x) = 0.02057 0.12601
# Poissons Ratio (y) = 0.01155 0.17827
# Poissons Ratio (z) = 0.08892 0.22405
#
# Static dielectric constant tensor:
#      x y z
#    x 1.999020 0.018280 -0.006330 
#    y 0.018280 2.059180 -0.012660 
#    z -0.006330 -0.012660 2.047570 
# 
# From -- ./inp_files/611307.got.cif
#   From: 2010.05.17/outbox.cif.g08.bks.cpg/sg2_306_cif.got.tgz:611307.got - 2010.06.03 11:33:40.
