data_PCOD9044353
_publ_section_title
;
Structure prediction by ZEFSAII (Michael W. Deem and Ramdas Pophale) SiO2 
 PCOD9044353
Probable space group: P -1
;
_chemical_formula_sum "Si O2"
_cell_formula_units_Z 14
_cell_length_a 8.434840
_cell_length_b 9.499647
_cell_length_c 18.643163
_cell_angle_alpha 28.660783
_cell_angle_beta 44.609322
_cell_angle_gamma 47.579816
_cell_volume 497.614060
_symmetry_space_group_name_H-M "P -1"
_symmetry_group_IT_number 2
_symmetry_cell_setting 'triclinic'
loop_
_space_group_symop_operation_xyz
x,y,z
-x,-y,-z
loop_
_atom_site_type_symbol
_atom_site_label
_atom_site_fract_x
_atom_site_fract_y
_atom_site_fract_z
Si Si1 0.393343 0.435963 0.641900
Si Si2 0.824906 0.443804 0.022423
Si Si3 0.686794 0.212633 0.353659
Si Si4 0.413982 0.650455 0.134585
Si Si5 0.719148 0.629935 0.834317
Si Si6 0.070989 0.183789 0.762161
Si Si7 0.856766 0.190332 0.605670
O O1 0.500000 0.500000 0.500000
O O2 0.289860 0.699997 0.609305
O O3 0.203402 0.232428 0.772264
O O4 0.621051 0.302043 0.671831
O O5 0.615026 0.703549 0.991959
O O6 0.778804 0.102798 0.194237
O O7 0.902808 0.465019 0.905507
O O8 0.000000 0.500000 0.000000
O O9 0.569390 0.487877 0.219953
O O10 0.500000 0.000000 0.500000
O O11 0.924740 0.014992 0.340894
O O12 0.286439 0.443991 0.213978
O O13 0.192046 0.877723 0.125005
O O14 0.759402 0.967403 0.679737
O O15 0.500000 0.500000 0.000000
O O16 0.063418 0.500876 0.583171
#
# Coordination Sequence:
#
# PCOD9044353 Si02
#       7
#     2   2   2   2   2   2   2
#     4  10  25  43  69 106 151 195 241 301 383 452
#     4  11  26  49  73 106 149 204 253 308 380 454
#     4  12  26  41  70 114 158 191 244 316 386 433
#     4  11  25  45  73 105 155 192 253 307 373 450
#     4  10  23  46  73 104 149 205 244 304 375 450
#     4  11  25  44  77 109 143 193 254 313 386 442
#     4  11  24  46  76 107 153 194 253 310 378 445
#
# _framework density 28.134253000000001
#
# number of rings (size 3 to 8) (size 9 to 14) (size 15 to 20)
#    0.000    1.143    1.429    3.429    8.000    6.857 
#    0.000    4.286    0.000    0.000    0.000    0.000 
#    0.000    0.000    0.000    0.000    0.000    0.000 
#
# Total GULP energy -78015.384797 kJ/mol
# GULP energy per Si atom -5572.527485 kJ/mol
# Density = 2.807022 g / cm^3
# Si number density = 28.134253 Si / 1000 Ang^3
#
#
#
# Elastic Constant Matrix: (Units=GPa)
#
#
# Indices 1 2 3 4 5 6 
#
# 1 162.0745 51.6240 31.7689 10.1106 0.4959 -27.4983
# 2 51.6240 104.5998 53.1723 -1.2370 6.8222 -1.9385
# 3 31.7689 53.1723 109.2567 -16.1018 11.2744 3.1597
# 4 10.1106 -1.2370 -16.1018 38.5840 1.5379 -12.9590
# 5 0.4959 6.8222 11.2744 1.5379 48.8213 5.8582
# 6 -27.4983 -1.9385 3.1597 -12.9590 5.8582 77.2974
#
#
#
# Elastic Compliance Matrix: (Units=1/GPa)
#
#
# Indices 1 2 3 4 5 6 
#
# 1 0.007994 -0.003417 -0.001043 -0.001828 0.000399 0.002464
# 2 -0.003417 0.014366 -0.006149 -0.001469 -0.000408 -0.000819
# 3 -0.001043 -0.006149 0.013564 0.005865 -0.002458 0.000090
# 4 -0.001828 -0.001469 0.005865 0.030366 -0.002611 0.004362
# 5 0.000399 -0.000408 -0.002458 -0.002611 0.021405 -0.001828
# 6 0.002464 -0.000819 0.000090 0.004362 -0.001828 0.014659
#
#
# Mechanical properties :
#
#
# Convention : Reuss Voigt Hill
#
# Bulk Modulus (GPa) = 67.99922 72.11794 70.05858
# Shear Modulus (GPa) = 38.91827 48.89826 43.90827
#
# Velocity S-wave (km/s) = 3.72332 4.17350 3.95482
# Velocity P-wave (km/s) = 6.53499 6.99380 6.76829
#
# Compressibility (1/GPa) = 0.01470605
#
# Stress axis : x y z
#
# Youngs Moduli (GPa) = 125.09854 69.60694 73.72446
#
# Poissons Ratio (x) = 0.23783 0.07692
# Poissons Ratio (y) = 0.42744 0.45332
# Poissons Ratio (z) = 0.13052 0.42800
#
# Static dielectric constant tensor:
#      x y z
#    x 2.432710 -0.007940 -0.024450 
#    y -0.007940 2.193310 0.055200 
#    z -0.024450 0.055200 2.256070 
# 
# From -- ./inp_files/554860.got.cif
#   From: 2010.05.17/outbox.cif.g08.bks.cpg/sg2_278_cif.got.tgz:554860.got - 2010.06.03 11:33:40.
