data_PCOD9044170
_publ_section_title
;
Structure prediction by ZEFSAII (Michael W. Deem and Ramdas Pophale) SiO2 
 PCOD9044170
Probable space group: P -1
;
_chemical_formula_sum "Si O2"
_cell_formula_units_Z 16
_cell_length_a 8.272581
_cell_length_b 7.796266
_cell_length_c 11.430131
_cell_angle_alpha 85.049881
_cell_angle_beta 89.072383
_cell_angle_gamma 55.931158
_cell_volume 607.922258
_symmetry_space_group_name_H-M "P -1"
_symmetry_group_IT_number 2
_symmetry_cell_setting 'triclinic'
loop_
_space_group_symop_operation_xyz
x,y,z
-x,-y,-z
loop_
_atom_site_type_symbol
_atom_site_label
_atom_site_fract_x
_atom_site_fract_y
_atom_site_fract_z
Si Si1 0.706736 0.833934 0.794754
Si Si2 0.857949 0.829490 0.296569
Si Si3 0.934577 0.839073 0.022690
Si Si4 0.451984 0.270886 0.828782
Si Si5 0.330526 0.768983 0.566994
Si Si6 0.899045 0.417970 0.330003
Si Si7 0.303990 0.662884 0.335594
Si Si8 0.361516 0.429090 0.050274
O O1 0.878484 0.732179 0.703522
O O2 0.517193 0.065672 0.767728
O O3 0.811941 0.852128 0.909412
O O4 0.634538 0.682676 0.825302
O O5 0.840711 0.858466 0.151837
O O6 0.855657 0.637095 0.361510
O O7 0.083615 0.746002 0.317466
O O8 0.734862 0.037200 0.361901
O O9 0.136392 0.613069 0.030616
O O10 0.000000 0.000000 0.000000
O O11 0.250021 0.484234 0.784406
O O12 0.616300 0.310323 0.788558
O O13 0.432821 0.245712 0.965440
O O14 0.180672 0.697017 0.591896
O O15 0.321904 0.800536 0.426474
O O16 0.545125 0.570735 0.607551
O O17 0.500000 0.500000 0.000000
#
# Coordination Sequence:
#
# PCOD9044170 Si02
#       8
#     2   2   2   2   2   2   2   2
#     4  12  24  46  63  95 145 178 224 282 327 399
#     4  12  24  42  70  99 133 176 229 272 339 405
#     4  12  24  41  66  98 138 180 226 275 334 402
#     4  11  24  43  68  93 133 183 220 270 342 391
#     4  10  24  47  71  97 137 174 220 288 346 393
#     4  11  24  44  69 101 135 177 227 280 334 405
#     4  10  23  46  70  99 134 173 224 283 336 405
#     4  12  24  40  62  95 134 175 225 270 329 402
#
# _framework density 26.319154999999999
#
# number of rings (size 3 to 8) (size 9 to 14) (size 15 to 20)
#    0.000    0.750    2.500    5.625    1.750    2.500 
#    2.250    5.625    0.000    0.000    0.000    0.000 
#    0.000    0.000    0.000    0.000    0.000    0.000 
#
# Total GULP energy -89543.467116 kJ/mol
# GULP energy per Si atom -5596.466695 kJ/mol
# Density = 2.625925 g / cm^3
# Si number density = 26.319155 Si / 1000 Ang^3
#
#
#
# Elastic Constant Matrix: (Units=GPa)
#
#
# Indices 1 2 3 4 5 6 
#
# 1 71.8362 14.0625 27.7977 7.8196 1.3335 15.1397
# 2 14.0625 138.0245 36.0512 33.1608 -16.4395 3.4214
# 3 27.7977 36.0512 117.2477 23.7740 -1.5673 1.5484
# 4 7.8196 33.1608 23.7740 43.3293 1.8559 -6.5125
# 5 1.3335 -16.4395 -1.5673 1.8559 31.4179 1.1311
# 6 15.1397 3.4214 1.5484 -6.5125 1.1311 51.1525
#
#
#
# Elastic Compliance Matrix: (Units=1/GPa)
#
#
# Indices 1 2 3 4 5 6 
#
# 1 0.016551 -0.000402 -0.003442 -0.001498 -0.000818 -0.004940
# 2 -0.000402 0.010165 -0.001430 -0.007407 0.005759 -0.001588
# 3 -0.003442 -0.001430 0.010609 -0.004071 0.000158 0.000272
# 4 -0.001498 -0.007407 -0.004071 0.032312 -0.006115 0.005311
# 5 -0.000818 0.005759 0.000158 -0.006115 0.035308 -0.001707
# 6 -0.004940 -0.001588 0.000272 0.005311 -0.001707 0.021823
#
#
# Mechanical properties :
#
#
# Convention : Reuss Voigt Hill
#
# Bulk Modulus (GPa) = 37.34881 53.65904 45.50393
# Shear Modulus (GPa) = 34.19002 41.79305 37.99153
#
# Velocity S-wave (km/s) = 3.60815 3.98921 3.80346
# Velocity P-wave (km/s) = 5.61960 6.45372 6.05105
#
# Compressibility (1/GPa) = 0.02677461
#
# Stress axis : x y z
#
# Youngs Moduli (GPa) = 60.42051 98.38162 94.26145
#
# Poissons Ratio (x) = 0.03958 0.32447
# Poissons Ratio (y) = 0.02431 0.13480
# Poissons Ratio (z) = 0.20798 0.14070
#
# Static dielectric constant tensor:
#      x y z
#    x 2.178800 0.076280 0.086510 
#    y 0.076280 2.054650 -0.012230 
#    z 0.086510 -0.012230 2.066110 
# 
# From -- ./inp_files/350062.got.cif
#   From: 2010.05.17/outbox.cif.g08.bks.cpg/sg2_176_cif.got.tgz:350062.got - 2010.06.03 11:33:40.
