data_PCOD9044916
_publ_section_title
;
Structure prediction by ZEFSAII (Michael W. Deem and Ramdas Pophale) SiO2 
 PCOD9044916
Probable space group: P -1
;
_chemical_formula_sum "Si O2"
_cell_formula_units_Z 13
_cell_length_a 5.076924
_cell_length_b 5.313852
_cell_length_c 24.307823
_cell_angle_alpha 68.014422
_cell_angle_beta 117.508189
_cell_angle_gamma 89.995934
_cell_volume 527.275414
_symmetry_space_group_name_H-M "P -1"
_symmetry_group_IT_number 2
_symmetry_cell_setting 'triclinic'
loop_
_space_group_symop_operation_xyz
x,y,z
-x,-y,-z
loop_
_atom_site_type_symbol
_atom_site_label
_atom_site_fract_x
_atom_site_fract_y
_atom_site_fract_z
Si Si1 0.000000 0.000000 0.000000
Si Si2 0.771507 0.145933 0.176482
Si Si3 0.621393 0.748318 0.601607
Si Si4 0.795863 0.745433 0.112502
Si Si5 0.292802 0.502810 0.035677
Si Si6 0.960400 0.150985 0.668024
Si Si7 0.025129 0.583081 0.558136
O O1 0.056655 0.303722 0.002724
O O2 0.429341 0.779498 0.058213
O O3 0.918244 0.413643 0.155862
O O4 0.431168 0.287540 0.114838
O O5 0.845594 0.891648 0.162238
O O6 0.834666 0.042616 0.252502
O O7 0.267195 0.773952 0.572970
O O8 0.774680 0.427039 0.658653
O O9 0.718464 0.729385 0.547949
O O10 0.756873 0.971094 0.630442
O O11 0.945805 0.897973 0.068479
O O12 0.500000 0.500000 0.000000
O O13 0.129292 0.297368 0.626128
O O14 0.000000 0.500000 0.500000
#
# Coordination Sequence:
#
# PCOD9044916 Si02
#       7
#     1   2   2   2   2   2   2
#     4  12  24  42  66 100 126 174 218 304 350 426
#     4  10  23  48  66 100 134 186 234 289 362 431
#     4  10  24  42  74 105 151 194 247 302 357 426
#     4  10  25  42  70  93 134 168 236 284 363 421
#     4  10  24  41  69  95 131 170 228 289 353 424
#     4  10  24  45  71 100 147 194 249 300 364 435
#     4  10  24  44  75 114 151 198 245 301 358 428
#
# _framework density 24.655049000000002
#
# number of rings (size 3 to 8) (size 9 to 14) (size 15 to 20)
#    1.846    0.000    0.000    2.769    4.308    2.462 
#    2.769    4.615    0.000    0.000    0.000    0.000 
#    0.000    0.000    0.000    0.000    0.000    0.000 
#
# Total GULP energy -72526.208313 kJ/mol
# GULP energy per Si atom -5578.939101 kJ/mol
# Density = 2.459893 g / cm^3
# Si number density = 24.655049 Si / 1000 Ang^3
#
#
#
# Elastic Constant Matrix: (Units=GPa)
#
#
# Indices 1 2 3 4 5 6 
#
# 1 133.5388 54.9605 53.9450 1.3140 -13.6616 31.3754
# 2 54.9605 210.5755 34.3518 22.9565 -15.0087 2.9245
# 3 53.9450 34.3518 154.4231 -2.0531 -36.1375 13.9999
# 4 1.3140 22.9565 -2.0531 39.3217 -5.9644 -2.5721
# 5 -13.6616 -15.0087 -36.1375 -5.9644 28.2488 -3.5582
# 6 31.3754 2.9245 13.9999 -2.5721 -3.5582 56.1817
#
#
#
# Elastic Compliance Matrix: (Units=1/GPa)
#
#
# Indices 1 2 3 4 5 6 
#
# 1 0.010788 -0.002352 -0.002809 0.000500 -0.000174 -0.005190
# 2 -0.002352 0.005820 -0.000392 -0.003133 0.000921 0.001023
# 3 -0.002809 -0.000392 0.010500 0.002749 0.012432 -0.000114
# 4 0.000500 -0.003133 0.002749 0.028712 0.008287 0.001038
# 5 -0.000174 0.000921 0.012432 0.008287 0.053549 0.000722
# 6 -0.005190 0.001023 -0.000114 0.001038 0.000722 0.020767
#
#
# Mechanical properties :
#
#
# Convention : Reuss Voigt Hill
#
# Bulk Modulus (GPa) = 62.49184 87.22800 74.85992
# Shear Modulus (GPa) = 34.11198 48.43579 41.27389
#
# Velocity S-wave (km/s) = 3.72367 4.43712 4.09596
# Velocity P-wave (km/s) = 6.62489 7.85537 7.26622
#
# Compressibility (1/GPa) = 0.01600209
#
# Stress axis : x y z
#
# Youngs Moduli (GPa) = 92.69489 171.82939 95.23525
#
# Poissons Ratio (x) = 0.40420 0.26750
# Poissons Ratio (y) = 0.21805 0.03732
# Poissons Ratio (z) = 0.26036 0.06733
#
# Static dielectric constant tensor:
#      x y z
#    x 4.175260 -1.190230 1.182490 
#    y -1.190230 2.622880 -0.607620 
#    z 1.182490 -0.607620 2.473060 
# 
# From -- ./inp_files/614591.got.cif
#   From: 2010.05.17/outbox.cif.g08.bks.cpg/sg2_308_cif.got.tgz:614591.got - 2010.06.03 11:33:40.
