data_PCOD9044799
_publ_section_title
;
Structure prediction by ZEFSAII (Michael W. Deem and Ramdas Pophale) SiO2 
 PCOD9044799
Probable space group: P -1
;
_chemical_formula_sum "Si O2"
_cell_formula_units_Z 16
_cell_length_a 22.310811
_cell_length_b 7.204260
_cell_length_c 17.465876
_cell_angle_alpha 53.606106
_cell_angle_beta 157.182317
_cell_angle_gamma 137.100751
_cell_volume 704.520095
_symmetry_space_group_name_H-M "P -1"
_symmetry_group_IT_number 2
_symmetry_cell_setting 'triclinic'
loop_
_space_group_symop_operation_xyz
x,y,z
-x,-y,-z
loop_
_atom_site_type_symbol
_atom_site_label
_atom_site_fract_x
_atom_site_fract_y
_atom_site_fract_z
Si Si1 0.857469 0.224781 0.123580
Si Si2 0.782142 0.807846 0.261847
Si Si3 0.741204 0.648697 0.655052
Si Si4 0.819608 0.990787 0.863244
Si Si5 0.387384 0.624178 0.284553
Si Si6 0.457564 0.689053 0.017003
Si Si7 0.247801 0.622811 0.415057
Si Si8 0.627954 0.755925 0.854973
O O1 0.082796 0.471396 0.321870
O O2 0.775378 0.035593 0.148292
O O3 0.731857 0.328488 0.925367
O O4 0.814380 0.004178 0.059712
O O5 0.638628 0.715939 0.185875
O O6 0.711025 0.538085 0.187075
O O7 0.000000 0.000000 0.500000
O O8 0.598700 0.741383 0.476131
O O9 0.639863 0.357266 0.660521
O O10 0.743108 0.581474 0.584187
O O11 0.965353 0.855957 0.890626
O O12 0.801014 0.208671 0.740141
O O13 0.742977 0.723391 0.784213
O O14 0.681214 0.833508 0.811113
O O15 0.421238 0.533253 0.094324
O O16 0.500000 0.000000 0.000000
O O17 0.455499 0.786962 0.659155
#
# Coordination Sequence:
#
# PCOD9044799 Si02
#       8
#     2   2   2   2   2   2   2   2
#     4  11  24  42  66  92 132 167 217 274 331 399
#     4  10  23  47  74 103 135 175 227 290 352 413
#     4  11  23  39  58  84 131 173 215 262 314 379
#     4  12  23  38  61  91 131 173 216 265 313 387
#     4  11  25  38  57  92 128 172 214 267 320 377
#     4  10  24  46  73 100 139 176 224 291 351 409
#     4  12  23  39  63  91 127 180 215 257 320 398
#     4  11  24  40  66  95 125 171 224 263 328 406
#
# _framework density 22.710494000000001
#
# number of rings (size 3 to 8) (size 9 to 14) (size 15 to 20)
#    0.000    1.000    3.750    2.625    5.250    0.500 
#    0.000    1.250    0.000    0.000    0.000    0.000 
#    0.000    0.000    0.000    0.000    0.000    0.000 
#
# Total GULP energy -89289.524265 kJ/mol
# GULP energy per Si atom -5580.595267 kJ/mol
# Density = 2.265880 g / cm^3
# Si number density = 22.710494 Si / 1000 Ang^3
#
#
#
# Elastic Constant Matrix: (Units=GPa)
#
#
# Indices 1 2 3 4 5 6 
#
# 1 44.1548 19.4141 0.6651 2.4985 8.5420 0.8421
# 2 19.4141 92.8701 18.2632 -9.7685 17.3565 7.9463
# 3 0.6651 18.2632 114.7012 23.5265 18.3065 -8.0304
# 4 2.4985 -9.7685 23.5265 40.2344 0.6660 -0.8380
# 5 8.5420 17.3565 18.3065 0.6660 24.1316 2.3290
# 6 0.8421 7.9463 -8.0304 -0.8380 2.3290 24.7841
#
#
#
# Elastic Compliance Matrix: (Units=1/GPa)
#
#
# Indices 1 2 3 4 5 6 
#
# 1 0.026740 -0.005386 0.003100 -0.004597 -0.008050 0.002424
# 2 -0.005386 0.014562 -0.002747 0.005482 -0.006190 -0.004609
# 3 0.003100 -0.002747 0.012581 -0.007954 -0.008970 0.005426
# 4 -0.004597 0.005482 -0.007954 0.030998 0.003194 -0.003431
# 5 -0.008050 -0.006190 -0.008970 0.003194 0.056017 -0.005804
# 6 0.002424 -0.004609 0.005426 -0.003431 -0.005804 0.043931
#
#
# Mechanical properties :
#
#
# Convention : Reuss Voigt Hill
#
# Bulk Modulus (GPa) = 22.82207 36.49010 29.65608
# Shear Modulus (GPa) = 23.86642 32.05561 27.96101
#
# Velocity S-wave (km/s) = 3.24527 3.76105 3.51264
# Velocity P-wave (km/s) = 4.91053 5.91296 5.43491
#
# Compressibility (1/GPa) = 0.04381724
#
# Stress axis : x y z
#
# Youngs Moduli (GPa) = 37.39677 68.67405 79.48768
#
# Poissons Ratio (x) = 0.36988 -0.24641
# Poissons Ratio (y) = 0.20142 0.21832
# Poissons Ratio (z) = -0.11593 0.18862
#
# Static dielectric constant tensor:
#      x y z
#    x 1.996990 -0.057690 -0.066030 
#    y -0.057690 1.940010 0.025270 
#    z -0.066030 0.025270 1.900730 
# 
# From -- ./inp_files/529620.got.cif
#   From: 2010.05.17/outbox.cif.g08.bks.cpg/sg2_265_cif.got.tgz:529620.got - 2010.06.03 11:33:40.
