data_PCOD9044671
_publ_section_title
;
Structure prediction by ZEFSAII (Michael W. Deem and Ramdas Pophale) SiO2 
 PCOD9044671
Probable space group: P -1
;
_chemical_formula_sum "Si O2"
_cell_formula_units_Z 16
_cell_length_a 16.206862
_cell_length_b 7.806902
_cell_length_c 7.032416
_cell_angle_alpha 96.597341
_cell_angle_beta 86.847957
_cell_angle_gamma 124.444102
_cell_volume 728.868312
_symmetry_space_group_name_H-M "P -1"
_symmetry_group_IT_number 2
_symmetry_cell_setting 'triclinic'
loop_
_space_group_symop_operation_xyz
x,y,z
-x,-y,-z
loop_
_atom_site_type_symbol
_atom_site_label
_atom_site_fract_x
_atom_site_fract_y
_atom_site_fract_z
Si Si1 0.062929 0.234150 0.939707
Si Si2 0.290089 0.174707 0.425443
Si Si3 0.069713 0.790648 0.377781
Si Si4 0.424073 0.771681 0.891090
Si Si5 0.427085 0.507437 0.159088
Si Si6 0.464023 0.153486 0.481600
Si Si7 0.892260 0.566622 0.638608
Si Si8 0.246802 0.458804 0.665442
O O1 0.106192 0.379662 0.136832
O O2 0.156464 0.307161 0.799306
O O3 0.987612 0.257250 0.821106
O O4 0.000000 0.000000 0.000000
O O5 0.341111 0.292772 0.236994
O O6 0.347855 0.070988 0.474192
O O7 0.303686 0.348469 0.593444
O O8 0.172336 0.014694 0.394890
O O9 0.098351 0.627802 0.396951
O O10 0.991525 0.757602 0.545294
O O11 0.491616 0.757553 0.721501
O O12 0.322588 0.688347 0.775607
O O13 0.384916 0.612402 0.049908
O O14 0.500000 0.000000 0.000000
O O15 0.488175 0.667156 0.343277
O O16 0.500000 0.500000 0.000000
O O17 0.500000 0.000000 0.500000
O O18 0.799421 0.524219 0.522127
#
# Coordination Sequence:
#
# PCOD9044671 Si02
#       8
#     2   2   2   2   2   2   2   2
#     4  11  23  43  72 103 143 183 233 292 360 434
#     4  12  25  44  71 103 141 186 243 294 363 428
#     4  10  24  43  69 105 139 183 235 291 363 427
#     4  12  26  45  70 103 139 186 243 294 361 431
#     4  12  25  45  69  97 144 184 238 306 355 424
#     4  12  26  48  71  99 144 188 237 304 361 428
#     4  10  23  47  70  99 148 181 229 302 358 429
#     4  11  26  43  70 104 138 189 239 294 361 430
#
# _framework density 21.951839
#
# number of rings (size 3 to 8) (size 9 to 14) (size 15 to 20)
#    0.000    0.750    3.750    3.000    5.250    3.000 
#    2.250    0.000    0.000    0.000    0.000    0.000 
#    0.000    0.000    0.000    0.000    0.000    0.000 
#
# Total GULP energy -89404.463926 kJ/mol
# GULP energy per Si atom -5587.778995 kJ/mol
# Density = 2.190188 g / cm^3
# Si number density = 21.951839 Si / 1000 Ang^3
#
#
#
# Elastic Constant Matrix: (Units=GPa)
#
#
# Indices 1 2 3 4 5 6 
#
# 1 107.8973 38.4800 41.2189 4.0539 14.4306 4.5416
# 2 38.4800 98.3154 32.9236 -0.8416 3.8683 16.0655
# 3 41.2189 32.9236 143.4441 5.7567 0.8107 8.8537
# 4 4.0539 -0.8416 5.7567 38.5054 -1.7844 6.9305
# 5 14.4306 3.8683 0.8107 -1.7844 36.4882 1.2299
# 6 4.5416 16.0655 8.8537 6.9305 1.2299 32.2047
#
#
#
# Elastic Compliance Matrix: (Units=1/GPa)
#
#
# Indices 1 2 3 4 5 6 
#
# 1 0.012294 -0.004011 -0.002619 -0.001464 -0.004500 0.001474
# 2 -0.004011 0.013269 -0.001604 0.002070 0.000521 -0.006078
# 3 -0.002619 -0.001604 0.008176 -0.000763 0.001019 -0.000953
# 4 -0.001464 0.002070 -0.000763 0.027566 0.001948 -0.006623
# 5 -0.004500 0.000521 0.001019 0.001948 0.029252 -0.001442
# 6 0.001474 -0.006078 -0.000953 -0.006623 -0.001442 0.035618
#
#
# Mechanical properties :
#
#
# Convention : Reuss Voigt Hill
#
# Bulk Modulus (GPa) = 57.90094 63.87798 60.88946
# Shear Modulus (GPa) = 33.69309 37.24195 35.46752
#
# Velocity S-wave (km/s) = 3.92198 4.12336 4.02393
# Velocity P-wave (km/s) = 6.85149 7.19943 7.02761
#
# Compressibility (1/GPa) = 0.01727088
#
# Stress axis : x y z
#
# Youngs Moduli (GPa) = 81.34176 75.36507 122.31446
#
# Poissons Ratio (x) = 0.30230 0.32032
# Poissons Ratio (y) = 0.32627 0.19616
# Poissons Ratio (z) = 0.21302 0.12087
#
# Static dielectric constant tensor:
#      x y z
#    x 1.843420 -0.027460 0.024990 
#    y -0.027460 1.835270 0.000490 
#    z 0.024990 0.000490 1.786700 
# 
# From -- ./inp_files/107190.got.cif
#   From: 2010.05.17/outbox.cif.g08.bks.cpg/sg2_54_cif.got.tgz:107190.got - 2010.06.03 11:33:40.
