data_PCOD9044337
_publ_section_title
;
Structure prediction by ZEFSAII (Michael W. Deem and Ramdas Pophale) SiO2 
 PCOD9044337
Probable space group: P -1
;
_chemical_formula_sum "Si O2"
_cell_formula_units_Z 14
_cell_length_a 9.076263
_cell_length_b 17.343986
_cell_length_c 5.210866
_cell_angle_alpha 79.174569
_cell_angle_beta 77.991012
_cell_angle_gamma 128.651423
_cell_volume 569.799929
_symmetry_space_group_name_H-M "P -1"
_symmetry_group_IT_number 2
_symmetry_cell_setting 'triclinic'
loop_
_space_group_symop_operation_xyz
x,y,z
-x,-y,-z
loop_
_atom_site_type_symbol
_atom_site_label
_atom_site_fract_x
_atom_site_fract_y
_atom_site_fract_z
Si Si1 0.311144 0.930240 0.828201
Si Si2 0.003658 0.081401 0.794234
Si Si3 0.314418 0.495604 0.628682
Si Si4 0.568002 0.729303 0.253113
Si Si5 0.128926 0.209601 0.222881
Si Si6 0.922885 0.641332 0.687600
Si Si7 0.607762 0.162410 0.708097
O O1 0.492534 0.939987 0.383559
O O2 0.101794 0.853506 0.781832
O O3 0.357074 0.868239 0.011755
O O4 0.212844 0.952095 0.080033
O O5 0.187639 0.193744 0.809308
O O6 0.076094 0.110597 0.458819
O O7 0.000000 0.000000 0.000000
O O8 0.500000 0.500000 0.500000
O O9 0.411114 0.617134 0.524386
O O10 0.159642 0.433652 0.482771
O O11 0.190300 0.428293 0.970866
O O12 0.520541 0.803459 0.239033
O O13 0.619641 0.710946 0.970760
O O14 0.136045 0.288347 0.357600
O O15 0.171589 0.729003 0.547607
#
# Coordination Sequence:
#
# PCOD9044337 Si02
#       7
#     2   2   2   2   2   2   2
#     4  10  23  46  73 102 153 198 246 291 382 449
#     4  11  22  46  69 108 142 187 247 301 355 449
#     4  12  26  48  79 109 140 200 256 315 361 438
#     4  11  26  44  75 111 146 191 251 310 370 432
#     4  11  24  45  77 107 140 202 253 301 358 457
#     4  12  26  48  77 106 149 196 254 300 374 447
#     4  11  24  49  70 110 155 193 236 311 381 445
#
# _framework density 24.570028000000001
#
# number of rings (size 3 to 8) (size 9 to 14) (size 15 to 20)
#    0.000    0.857    4.286    2.143    2.000    4.000 
#    7.714    0.000    0.000    0.000    0.000    0.000 
#    0.000    0.000    0.000    0.000    0.000    0.000 
#
# Total GULP energy -78079.434348 kJ/mol
# GULP energy per Si atom -5577.102453 kJ/mol
# Density = 2.451411 g / cm^3
# Si number density = 24.570028 Si / 1000 Ang^3
#
#
#
# Elastic Constant Matrix: (Units=GPa)
#
#
# Indices 1 2 3 4 5 6 
#
# 1 198.8809 41.5958 154.4497 -22.8377 -52.0425 -28.5654
# 2 41.5958 151.8731 6.4652 3.7960 77.6129 22.7446
# 3 154.4497 6.4652 292.7842 -46.7189 -73.4336 -19.2959
# 4 -22.8377 3.7960 -46.7189 64.0416 50.4940 14.3315
# 5 -52.0425 77.6129 -73.4336 50.4940 167.6619 27.1893
# 6 -28.5654 22.7446 -19.2959 14.3315 27.1893 46.8614
#
#
#
# Elastic Compliance Matrix: (Units=1/GPa)
#
#
# Indices 1 2 3 4 5 6 
#
# 1 0.012308 -0.006440 -0.005433 -0.004402 0.004601 0.007068
# 2 -0.006440 0.013352 0.001558 0.006055 -0.008210 -0.006853
# 3 -0.005433 0.001558 0.006600 0.003441 -0.000181 -0.002298
# 4 -0.004402 0.006055 0.003441 0.024814 -0.009077 -0.006528
# 5 0.004601 -0.008210 -0.000181 -0.009077 0.013587 0.001608
# 6 0.007068 -0.006853 -0.002298 -0.006528 0.001608 0.029091
#
#
# Mechanical properties :
#
#
# Convention : Reuss Voigt Hill
#
# Bulk Modulus (GPa) = 85.98688 116.50664 101.24676
# Shear Modulus (GPa) = 40.23862 85.11480 62.67671
#
# Velocity S-wave (km/s) = 4.05126 5.89211 5.05616
# Velocity P-wave (km/s) = 7.54693 9.68558 8.68235
#
# Compressibility (1/GPa) = 0.01162968
#
# Stress axis : x y z
#
# Youngs Moduli (GPa) = 81.24815 74.89276 151.52653
#
# Poissons Ratio (x) = 0.48228 0.82326
# Poissons Ratio (y) = 0.52321 -0.23602
# Poissons Ratio (z) = 0.44143 -0.11665
#
# Static dielectric constant tensor:
#      x y z
#    x 1.891960 -0.123780 -0.238780 
#    y -0.123780 2.034820 0.021840 
#    z -0.238780 0.021840 2.194230 
# 
# From -- ./inp_files/43694.got.cif
#   From: 2010.05.17/outbox.cif.g08.bks.cpg/sg2_22_cif.got.tgz:43694.got - 2010.06.03 11:33:40.
