data_PCOD9044783
_publ_section_title
;
Structure prediction by ZEFSAII (Michael W. Deem and Ramdas Pophale) SiO2 
 PCOD9044783
Probable space group: P -1
;
_chemical_formula_sum "Si O2"
_cell_formula_units_Z 14
_cell_length_a 5.301352
_cell_length_b 17.993535
_cell_length_c 12.782496
_cell_angle_alpha 24.683642
_cell_angle_beta 77.627334
_cell_angle_gamma 85.387696
_cell_volume 477.454812
_symmetry_space_group_name_H-M "P -1"
_symmetry_group_IT_number 2
_symmetry_cell_setting 'triclinic'
loop_
_space_group_symop_operation_xyz
x,y,z
-x,-y,-z
loop_
_atom_site_type_symbol
_atom_site_label
_atom_site_fract_x
_atom_site_fract_y
_atom_site_fract_z
Si Si1 0.746402 0.528297 0.362323
Si Si2 0.905736 0.519047 0.103693
Si Si3 0.976352 0.203603 0.719347
Si Si4 0.870351 0.881160 0.565098
Si Si5 0.336260 0.859351 0.390076
Si Si6 0.733336 0.157302 0.077846
Si Si7 0.447892 0.528205 0.184017
O O1 0.500000 0.500000 0.500000
O O2 0.845635 0.346596 0.608591
O O3 0.751796 0.532870 0.226094
O O4 0.042006 0.271644 0.889228
O O5 0.198100 0.535192 0.112258
O O6 0.617255 0.343056 0.337036
O O7 0.000000 0.500000 0.000000
O O8 0.730884 0.678004 0.886783
O O9 0.811127 0.164644 0.675520
O O10 0.272200 0.340294 0.504115
O O11 0.000000 0.000000 0.000000
O O12 0.112102 0.876935 0.471375
O O13 0.697350 0.991978 0.378406
O O14 0.000000 0.000000 0.500000
O O15 0.588027 0.034261 0.151962
O O16 0.592500 0.303174 0.948685
#
# Coordination Sequence:
#
# PCOD9044783 Si02
#       7
#     2   2   2   2   2   2   2
#     4  11  26  53  80 112 160 214 270 336 411 485
#     4  10  23  47  73 111 157 204 257 324 394 462
#     4  11  28  52  84 119 158 212 275 339 415 475
#     4  11  25  44  76 118 157 210 270 318 396 490
#     4  11  25  48  77 116 161 206 263 340 398 479
#     4  11  26  47  80 114 160 210 268 326 405 482
#     4  11  25  50  78 107 164 208 261 334 396 488
#
# _framework density 29.322146
#
# number of rings (size 3 to 8) (size 9 to 14) (size 15 to 20)
#    0.000    1.143    1.429    2.571    4.000    9.143 
#    7.714    2.857    0.000    0.000    0.000    0.000 
#    0.000    0.000    0.000    0.000    0.000    0.000 
#
# Total GULP energy -78176.477237 kJ/mol
# GULP energy per Si atom -5584.034088 kJ/mol
# Density = 2.925541 g / cm^3
# Si number density = 29.322146 Si / 1000 Ang^3
#
#
#
# Elastic Constant Matrix: (Units=GPa)
#
#
# Indices 1 2 3 4 5 6 
#
# 1 248.3637 86.0708 95.2134 -7.4597 -20.2380 -27.1112
# 2 86.0708 150.4124 47.5669 -7.2352 -19.9276 13.6191
# 3 95.2134 47.5669 281.0659 -27.9318 -19.2152 8.4703
# 4 -7.4597 -7.2352 -27.9318 54.0095 17.7192 -10.5417
# 5 -20.2380 -19.9276 -19.2152 17.7192 41.6490 -3.7065
# 6 -27.1112 13.6191 8.4703 -10.5417 -3.7065 72.2013
#
#
#
# Elastic Compliance Matrix: (Units=1/GPa)
#
#
# Indices 1 2 3 4 5 6 
#
# 1 0.006158 -0.003170 -0.001584 -0.000137 0.001082 0.003131
# 2 -0.003170 0.009141 -0.000278 -0.000836 0.002806 -0.002860
# 3 -0.001584 -0.000278 0.004359 0.001749 0.000295 -0.000783
# 4 -0.000137 -0.000836 0.001749 0.022821 -0.009123 0.002765
# 5 0.001082 0.002806 0.000295 -0.009123 0.029900 0.000045
# 6 0.003131 -0.002860 -0.000783 0.002765 0.000045 0.016063
#
#
# Mechanical properties :
#
#
# Convention : Reuss Voigt Hill
#
# Bulk Modulus (GPa) = 104.22730 126.39381 115.31056
# Shear Modulus (GPa) = 49.16286 63.63803 56.40044
#
# Velocity S-wave (km/s) = 4.09913 4.66371 4.39050
# Velocity P-wave (km/s) = 7.61752 8.49700 8.06925
#
# Compressibility (1/GPa) = 0.00959442
#
# Stress axis : x y z
#
# Youngs Moduli (GPa) = 162.39680 109.40135 229.41250
#
# Poissons Ratio (x) = 0.34676 0.36329
# Poissons Ratio (y) = 0.51474 0.06383
# Poissons Ratio (z) = 0.25717 0.03044
#
# Static dielectric constant tensor:
#      x y z
#    x 2.321130 -0.080690 0.095430 
#    y -0.080690 2.299430 0.047460 
#    z 0.095430 0.047460 2.438770 
# 
# From -- ./inp_files/323709.got.cif
#   From: 2010.05.17/outbox.cif.g08.bks.cpg/sg2_162_cif.got.tgz:323709.got - 2010.06.03 11:33:40.
