data_PCOD9044105
_publ_section_title
;
Structure prediction by ZEFSAII (Michael W. Deem and Ramdas Pophale) SiO2 
 PCOD9044105
Probable space group: P -1
;
_chemical_formula_sum "Si O2"
_cell_formula_units_Z 14
_cell_length_a 19.715976
_cell_length_b 6.065041
_cell_length_c 9.338534
_cell_angle_alpha 101.705363
_cell_angle_beta 138.807447
_cell_angle_gamma 59.007819
_cell_volume 595.792887
_symmetry_space_group_name_H-M "P -1"
_symmetry_group_IT_number 2
_symmetry_cell_setting 'triclinic'
loop_
_space_group_symop_operation_xyz
x,y,z
-x,-y,-z
loop_
_atom_site_type_symbol
_atom_site_label
_atom_site_fract_x
_atom_site_fract_y
_atom_site_fract_z
Si Si1 0.546974 0.160221 0.181300
Si Si2 0.195441 0.713340 0.177210
Si Si3 0.563318 0.862604 0.431624
Si Si4 0.066185 0.573211 0.496799
Si Si5 0.634313 0.214741 0.045435
Si Si6 0.047035 0.282417 0.174311
Si Si7 0.829534 0.146238 0.153281
O O1 0.429935 0.468479 0.047984
O O2 0.593217 0.032983 0.394460
O O3 0.637931 0.172841 0.215418
O O4 0.500000 0.000000 0.000000
O O5 0.312055 0.436127 0.389278
O O6 0.139876 0.978660 0.222622
O O7 0.232940 0.764478 0.088602
O O8 0.077903 0.688986 0.962951
O O9 0.458372 0.849705 0.180577
O O10 0.500000 0.000000 0.500000
O O11 0.104796 0.368224 0.400290
O O12 0.164929 0.612834 0.736222
O O13 0.000000 0.500000 0.500000
O O14 0.966851 0.875139 0.314745
O O15 0.762846 0.062422 0.147007
O O16 0.000000 0.500000 0.000000
#
# Coordination Sequence:
#
# PCOD9044105 Si02
#       7
#     2   2   2   2   2   2   2
#     4   9  21  46  65  98 139 177 231 278 345 414
#     4  11  25  44  70 109 139 183 243 286 353 431
#     4  11  25  43  74 106 141 188 233 280 352 422
#     4  11  24  46  70 101 133 182 242 289 354 414
#     4  10  23  46  70 100 142 179 230 293 339 422
#     4  11  24  48  71  96 145 184 231 302 352 408
#     4  11  24  43  72 104 136 181 240 290 352 428
#
# _framework density 23.498100000000001
#
# number of rings (size 3 to 8) (size 9 to 14) (size 15 to 20)
#    0.000    1.429    2.857    0.857    2.000    5.714 
#   20.571    0.000    0.000    0.000    0.000    0.000 
#    0.000    0.000    0.000    0.000    0.000    0.000 
#
# Total GULP energy -78367.388567 kJ/mol
# GULP energy per Si atom -5597.670612 kJ/mol
# Density = 2.344462 g / cm^3
# Si number density = 23.498100 Si / 1000 Ang^3
#
#
#
# Elastic Constant Matrix: (Units=GPa)
#
#
# Indices 1 2 3 4 5 6 
#
# 1 120.5988 34.1605 44.5124 -20.5235 -23.7694 -8.0033
# 2 34.1605 124.2125 51.4718 -4.6990 -14.8630 -16.1163
# 3 44.5124 51.4718 86.0337 -2.4642 -18.9870 -12.3763
# 4 -20.5235 -4.6990 -2.4642 40.2082 8.2547 -6.0141
# 5 -23.7694 -14.8630 -18.9870 8.2547 47.1426 -1.8294
# 6 -8.0033 -16.1163 -12.3763 -6.0141 -1.8294 35.5653
#
#
#
# Elastic Compliance Matrix: (Units=1/GPa)
#
#
# Indices 1 2 3 4 5 6 
#
# 1 0.011802 -0.000481 -0.004730 0.005332 0.003032 0.001849
# 2 -0.000481 0.011105 -0.005714 0.000987 0.000907 0.003149
# 3 -0.004730 -0.005714 0.018648 -0.002332 0.003835 0.002639
# 4 0.005332 0.000987 -0.002332 0.028975 -0.002796 0.005591
# 5 0.003032 0.000907 0.003835 -0.002796 0.025187 0.003250
# 6 0.001849 0.003149 0.002639 0.005591 0.003250 0.031991
#
#
# Mechanical properties :
#
#
# Convention : Reuss Voigt Hill
#
# Bulk Modulus (GPa) = 50.74845 65.68163 58.21504
# Shear Modulus (GPa) = 32.02514 37.96324 34.99419
#
# Velocity S-wave (km/s) = 3.69573 4.02380 3.86325
# Velocity P-wave (km/s) = 6.31308 7.04276 6.68788
#
# Compressibility (1/GPa) = 0.01970504
#
# Stress axis : x y z
#
# Youngs Moduli (GPa) = 84.73222 90.04864 53.62438
#
# Poissons Ratio (x) = 0.04332 0.25367
# Poissons Ratio (y) = 0.04076 0.30639
# Poissons Ratio (z) = 0.40082 0.51450
#
# Static dielectric constant tensor:
#      x y z
#    x 1.915250 0.023110 0.003200 
#    y 0.023110 1.828440 -0.026910 
#    z 0.003200 -0.026910 1.882490 
# 
# From -- ./inp_files/47530.got.cif
#   From: 2010.05.17/outbox.cif.g08.bks.cpg/sg2_24_cif.got.tgz:47530.got - 2010.06.03 11:33:40.
