data_PCOD9044153
_publ_section_title
;
Structure prediction by ZEFSAII (Michael W. Deem and Ramdas Pophale) SiO2 
 PCOD9044153
Probable space group: P -1
;
_chemical_formula_sum "Si O2"
_cell_formula_units_Z 14
_cell_length_a 9.946872
_cell_length_b 13.834062
_cell_length_c 9.256699
_cell_angle_alpha 46.193737
_cell_angle_beta 93.592539
_cell_angle_gamma 64.871221
_cell_volume 697.363401
_symmetry_space_group_name_H-M "P -1"
_symmetry_group_IT_number 2
_symmetry_cell_setting 'triclinic'
loop_
_space_group_symop_operation_xyz
x,y,z
-x,-y,-z
loop_
_atom_site_type_symbol
_atom_site_label
_atom_site_fract_x
_atom_site_fract_y
_atom_site_fract_z
Si Si1 0.789944 0.613937 0.395022
Si Si2 0.734484 0.375611 0.776727
Si Si3 0.351725 0.999727 0.548671
Si Si4 0.110411 0.825803 0.285234
Si Si5 0.066641 0.035113 0.324801
Si Si6 0.234094 0.104531 0.742175
Si Si7 0.510240 0.283959 0.927672
O O1 0.748879 0.526276 0.603990
O O2 0.717798 0.804052 0.246884
O O3 0.682007 0.634715 0.225296
O O4 0.000000 0.500000 0.500000
O O5 0.749720 0.318909 0.669261
O O6 0.568922 0.399999 0.803233
O O7 0.901735 0.210341 0.049791
O O8 0.207135 0.053228 0.366793
O O9 0.260673 0.122457 0.557366
O O10 0.500000 0.000000 0.500000
O O11 0.443278 0.806237 0.819471
O O12 0.968614 0.803726 0.339151
O O13 0.156003 0.873966 0.384766
O O14 0.000000 0.000000 0.000000
O O15 0.000000 0.000000 0.500000
O O16 0.354332 0.892385 0.982461
#
# Coordination Sequence:
#
# PCOD9044153 Si02
#       7
#     2   2   2   2   2   2   2
#     4  12  25  37  61  93 131 160 194 260 327 349
#     4  11  22  38  64  93 123 162 203 256 311 360
#     4  10  22  36  64  91 119 158 215 256 294 353
#     4  10  17  33  63  92 114 155 210 249 290 366
#     4  11  18  37  64  88 117 162 209 247 299 367
#     4  10  20  39  60  92 119 159 210 252 296 367
#     4  10  22  41  62  87 125 159 218 248 290 373
#
# _framework density 20.075616
#
# number of rings (size 3 to 8) (size 9 to 14) (size 15 to 20)
#    0.857    0.571    7.143    0.857    2.000    1.143 
#    0.000    0.714    3.143    1.714    0.000    0.000 
#    0.000    0.000    0.000    0.000    0.000    0.000 
#
# Total GULP energy -77989.635107 kJ/mol
# GULP energy per Si atom -5570.688222 kJ/mol
# Density = 2.002992 g / cm^3
# Si number density = 20.075616 Si / 1000 Ang^3
#
#
#
# Elastic Constant Matrix: (Units=GPa)
#
#
# Indices 1 2 3 4 5 6 
#
# 1 143.8638 10.3732 32.4483 10.9567 6.0198 0.0064
# 2 10.3732 26.2894 4.6183 16.0138 -5.1379 3.9710
# 3 32.4483 4.6183 85.7708 5.0540 17.1642 -3.5777
# 4 10.9567 16.0138 5.0540 30.0571 5.2899 -5.7607
# 5 6.0198 -5.1379 17.1642 5.2899 43.8013 7.9771
# 6 0.0064 3.9710 -3.5777 -5.7607 7.9771 22.7888
#
#
#
# Elastic Compliance Matrix: (Units=1/GPa)
#
#
# Indices 1 2 3 4 5 6 
#
# 1 0.007822 -0.001230 -0.002872 -0.001922 0.000289 -0.000826
# 2 -0.001230 0.085661 -0.007988 -0.056349 0.027443 -0.040031
# 3 -0.002872 -0.007988 0.014890 0.005886 -0.008586 0.008224
# 4 -0.001922 -0.056349 0.005886 0.074667 -0.024634 0.038242
# 5 0.000289 0.027443 -0.008586 -0.024634 0.036956 -0.025293
# 6 -0.000826 -0.040031 0.008224 0.038242 -0.025293 0.070669
#
#
# Mechanical properties :
#
#
# Convention : Reuss Voigt Hill
#
# Bulk Modulus (GPa) = 11.87754 38.97816 25.42785
# Shear Modulus (GPa) = 14.58116 33.22838 23.90477
#
# Velocity S-wave (km/s) = 2.69794 4.07278 3.45445
# Velocity P-wave (km/s) = 3.95404 6.44783 5.34832
#
# Compressibility (1/GPa) = 0.08419255
#
# Stress axis : x y z
#
# Youngs Moduli (GPa) = 127.84808 11.67397 67.15969
#
# Poissons Ratio (x) = 0.01436 0.19287
# Poissons Ratio (y) = 0.15722 0.53649
# Poissons Ratio (z) = 0.36716 0.09326
#
# Static dielectric constant tensor:
#      x y z
#    x 1.722670 -0.004290 0.003030 
#    y -0.004290 1.747390 -0.055950 
#    z 0.003030 -0.055950 1.726400 
# 
# From -- ./inp_files/199649.got.cif
#   From: 2010.05.17/outbox.cif.g08.bks.cpg/sg2_100_cif.got.tgz:199649.got - 2010.06.03 11:33:40.
