data_PCOD9044244
_publ_section_title
;
Structure prediction by ZEFSAII (Michael W. Deem and Ramdas Pophale) SiO2 
 PCOD9044244
Probable space group: P -1
;
_chemical_formula_sum "Si O2"
_cell_formula_units_Z 16
_cell_length_a 10.232462
_cell_length_b 21.718925
_cell_length_c 6.511651
_cell_angle_alpha 125.287509
_cell_angle_beta 113.818742
_cell_angle_gamma 36.670589
_cell_volume 700.180609
_symmetry_space_group_name_H-M "P -1"
_symmetry_group_IT_number 2
_symmetry_cell_setting 'triclinic'
loop_
_space_group_symop_operation_xyz
x,y,z
-x,-y,-z
loop_
_atom_site_type_symbol
_atom_site_label
_atom_site_fract_x
_atom_site_fract_y
_atom_site_fract_z
Si Si1 0.084938 0.049895 0.184267
Si Si2 0.867894 0.625080 0.572526
Si Si3 0.009158 0.729660 0.970501
Si Si4 0.441237 0.875752 0.747806
Si Si5 0.377322 0.615601 0.259458
Si Si6 0.364271 0.016336 0.628861
Si Si7 0.492856 0.290591 0.736886
Si Si8 0.300258 0.702756 0.777974
O O1 0.191387 0.030290 0.430103
O O2 0.875536 0.184893 0.260917
O O3 0.272192 0.982648 0.998565
O O4 0.000000 0.000000 0.000000
O O5 0.635166 0.753912 0.762317
O O6 0.754976 0.642231 0.320852
O O7 0.000000 0.500000 0.500000
O O8 0.008366 0.644434 0.723785
O O9 0.159464 0.716737 0.886204
O O10 0.125565 0.694872 0.197574
O O11 0.772915 0.864439 0.107733
O O12 0.350444 0.840747 0.491139
O O13 0.502162 0.911089 0.676148
O O14 0.462119 0.658976 0.294079
O O15 0.424277 0.599860 0.499169
O O16 0.500000 0.500000 0.000000
O O17 0.500000 0.000000 0.500000
O O18 0.546187 0.299952 0.012112
#
# Coordination Sequence:
#
# PCOD9044244 Si02
#       8
#     2   2   2   2   2   2   2   2
#     4  12  24  39  71 104 146 188 229 291 364 426
#     4  10  23  46  71  97 138 191 233 294 354 413
#     4  11  24  43  70 101 140 185 239 289 353 421
#     4  10  24  43  70 102 144 185 238 293 348 421
#     4  11  23  44  72 100 139 181 237 289 354 429
#     4  12  26  42  68 106 145 191 238 293 355 425
#     4   9  23  42  68 101 140 177 239 289 349 415
#     4  11  23  42  70 104 139 184 230 292 360 415
#
# _framework density 22.851244999999999
#
# number of rings (size 3 to 8) (size 9 to 14) (size 15 to 20)
#    0.750    0.500    2.500    3.000    3.500    4.000 
#    0.000    0.000    0.000    7.500    0.000    0.000 
#    0.000    0.000    0.000    0.000    0.000    0.000 
#
# Total GULP energy -89213.801590 kJ/mol
# GULP energy per Si atom -5575.862599 kJ/mol
# Density = 2.279923 g / cm^3
# Si number density = 22.851245 Si / 1000 Ang^3
#
#
#
# Elastic Constant Matrix: (Units=GPa)
#
#
# Indices 1 2 3 4 5 6 
#
# 1 63.7323 21.0300 33.6613 4.2036 21.4203 12.9011
# 2 21.0300 104.3321 46.6219 4.1117 12.9896 9.9637
# 3 33.6613 46.6219 165.9969 -9.8539 25.0387 -2.4518
# 4 4.2036 4.1117 -9.8539 40.9379 -7.3274 12.3051
# 5 21.4203 12.9896 25.0387 -7.3274 48.3101 0.1869
# 6 12.9011 9.9637 -2.4518 12.3051 0.1869 27.5635
#
#
#
# Elastic Compliance Matrix: (Units=1/GPa)
#
#
# Indices 1 2 3 4 5 6 
#
# 1 0.022621 -0.001078 -0.003278 -0.001550 -0.008239 -0.009742
# 2 -0.001078 0.011663 -0.002978 -0.000932 -0.001243 -0.003552
# 3 -0.003278 -0.002978 0.007896 0.001438 -0.001631 0.002682
# 4 -0.001550 -0.000932 0.001438 0.029476 0.004710 -0.012001
# 5 -0.008239 -0.001243 -0.001631 0.004710 0.026239 0.001880
# 6 -0.009742 -0.003552 0.002682 -0.012001 0.001880 0.047707
#
#
# Mechanical properties :
#
#
# Convention : Reuss Voigt Hill
#
# Bulk Modulus (GPa) = 36.34510 59.63197 47.98853
# Shear Modulus (GPa) = 29.50917 38.87884 34.19400
#
# Velocity S-wave (km/s) = 3.59745 4.12926 3.87250
# Velocity P-wave (km/s) = 5.76152 6.99191 6.40632
#
# Compressibility (1/GPa) = 0.02751403
#
# Stress axis : x y z
#
# Youngs Moduli (GPa) = 44.20764 85.73963 126.64495
#
# Poissons Ratio (x) = 0.09241 0.41508
# Poissons Ratio (y) = 0.04765 0.37709
# Poissons Ratio (z) = 0.14489 0.25529
#
# Static dielectric constant tensor:
#      x y z
#    x 1.804440 0.003420 0.043440 
#    y 0.003420 1.878520 -0.021220 
#    z 0.043440 -0.021220 1.892630 
# 
# From -- ./inp_files/84580.got.cif
#   From: 2010.05.17/outbox.cif.g08.bks.cpg/sg2_43_cif.got.tgz:84580.got - 2010.06.03 11:33:40.
