data_PCOD9044701
_publ_section_title
;
Structure prediction by ZEFSAII (Michael W. Deem and Ramdas Pophale) SiO2 
 PCOD9044701
Probable space group: P -1
;
_chemical_formula_sum "Si O2"
_cell_formula_units_Z 16
_cell_length_a 9.010494
_cell_length_b 18.091949
_cell_length_c 11.767116
_cell_angle_alpha 30.775442
_cell_angle_beta 53.760740
_cell_angle_gamma 50.061254
_cell_volume 748.717664
_symmetry_space_group_name_H-M "P -1"
_symmetry_group_IT_number 2
_symmetry_cell_setting 'triclinic'
loop_
_space_group_symop_operation_xyz
x,y,z
-x,-y,-z
loop_
_atom_site_type_symbol
_atom_site_label
_atom_site_fract_x
_atom_site_fract_y
_atom_site_fract_z
Si Si1 0.627885 0.290407 0.499737
Si Si2 0.789252 0.487517 0.607182
Si Si3 0.478980 0.104666 0.191809
Si Si4 0.576982 0.792945 0.656469
Si Si5 0.160325 0.525671 0.978925
Si Si6 0.346010 0.667004 0.320120
Si Si7 0.178979 0.722658 0.920235
Si Si8 0.155501 0.023151 0.308886
O O1 0.393389 0.356158 0.528850
O O2 0.690312 0.423860 0.234776
O O3 0.721966 0.265451 0.615138
O O4 0.715624 0.134242 0.597879
O O5 0.793951 0.377547 0.644015
O O6 0.000000 0.500000 0.500000
O O7 0.754780 0.406096 0.844760
O O8 0.423340 0.164631 0.265952
O O9 0.296746 0.096968 0.211601
O O10 0.607733 0.927659 0.389240
O O11 0.568877 0.217750 0.937643
O O12 0.365550 0.778347 0.741652
O O13 0.737142 0.628713 0.794272
O O14 0.108640 0.655434 0.928094
O O15 0.000000 0.500000 0.000000
O O16 0.500000 0.500000 0.500000
O O17 0.990662 0.859308 0.866592
O O18 0.000000 0.000000 0.500000
#
# Coordination Sequence:
#
# PCOD9044701 Si02
#       8
#     2   2   2   2   2   2   2   2
#     4  11  25  47  70 102 146 187 238 288 359 430
#     4  11  26  47  73 102 138 190 243 294 348 423
#     4  11  23  41  68 100 144 184 231 299 362 415
#     4  11  22  41  69 103 140 186 236 301 361 409
#     4  12  25  41  72 106 140 185 240 295 361 426
#     4  10  23  47  71  97 141 187 238 287 350 429
#     4  12  24  43  69 102 146 179 241 301 352 417
#     4  12  25  43  68 107 144 183 232 295 362 428
#
# _framework density 21.369872000000001
#
# number of rings (size 3 to 8) (size 9 to 14) (size 15 to 20)
#    0.000    0.750    5.000    1.875    7.000    0.500 
#    0.000    1.875    0.000    0.000    0.000    0.000 
#    0.000    0.000    0.000    0.000    0.000    0.000 
#
# Total GULP energy -89378.579916 kJ/mol
# GULP energy per Si atom -5586.161245 kJ/mol
# Density = 2.132123 g / cm^3
# Si number density = 21.369872 Si / 1000 Ang^3
#
#
#
# Elastic Constant Matrix: (Units=GPa)
#
#
# Indices 1 2 3 4 5 6 
#
# 1 159.7353 57.4116 42.6543 -12.9299 -20.5687 9.9556
# 2 57.4116 99.4231 27.3060 -18.7665 -7.1883 4.1621
# 3 42.6543 27.3060 122.0335 -15.1596 0.6094 -3.4997
# 4 -12.9299 -18.7665 -15.1596 32.4472 3.2165 9.7610
# 5 -20.5687 -7.1883 0.6094 3.2165 39.5585 -1.3461
# 6 9.9556 4.1621 -3.4997 9.7610 -1.3461 37.9562
#
#
#
# Elastic Compliance Matrix: (Units=1/GPa)
#
#
# Indices 1 2 3 4 5 6 
#
# 1 0.009010 -0.004146 -0.002253 0.000382 0.003864 -0.002078
# 2 -0.004146 0.014061 -0.000922 0.006758 -0.000214 -0.002285
# 3 -0.002253 -0.000922 0.009590 0.002994 -0.001705 0.000746
# 4 0.000382 0.006758 0.002994 0.039770 -0.002223 -0.010871
# 5 0.003864 -0.000214 -0.001705 -0.002223 0.027470 0.000399
# 6 -0.002078 -0.002285 0.000746 -0.010871 0.000399 0.030020
#
#
# Mechanical properties :
#
#
# Convention : Reuss Voigt Hill
#
# Bulk Modulus (GPa) = 55.49537 70.65953 63.07745
# Shear Modulus (GPa) = 33.20718 38.91370 36.06044
#
# Velocity S-wave (km/s) = 3.94626 4.27190 4.11231
# Velocity P-wave (km/s) = 6.84027 7.58083 7.22005
#
# Compressibility (1/GPa) = 0.01801952
#
# Stress axis : x y z
#
# Youngs Moduli (GPa) = 110.98771 71.11874 104.27332
#
# Poissons Ratio (x) = 0.29482 0.23494
# Poissons Ratio (y) = 0.46010 0.09616
# Poissons Ratio (z) = 0.25007 0.06559
#
# Static dielectric constant tensor:
#      x y z
#    x 1.791540 -0.001760 0.011780 
#    y -0.001760 1.828380 -0.023700 
#    z 0.011780 -0.023700 1.835050 
# 
# From -- ./inp_files/402621.got.cif
#   From: 2010.05.17/outbox.cif.g08.bks.cpg/sg2_202_cif.got.tgz:402621.got - 2010.06.03 11:33:40.
