data_PCOD9044348
_publ_section_title
;
Structure prediction by ZEFSAII (Michael W. Deem and Ramdas Pophale) SiO2 
 PCOD9044348
Probable space group: P -1
;
_chemical_formula_sum "Si O2"
_cell_formula_units_Z 14
_cell_length_a 19.089966
_cell_length_b 9.589607
_cell_length_c 10.608269
_cell_angle_alpha 138.315211
_cell_angle_beta 150.826533
_cell_angle_gamma 41.930343
_cell_volume 603.732261
_symmetry_space_group_name_H-M "P -1"
_symmetry_group_IT_number 2
_symmetry_cell_setting 'triclinic'
loop_
_space_group_symop_operation_xyz
x,y,z
-x,-y,-z
loop_
_atom_site_type_symbol
_atom_site_label
_atom_site_fract_x
_atom_site_fract_y
_atom_site_fract_z
Si Si1 0.675313 0.895654 0.217657
Si Si2 0.930428 0.229235 0.981063
Si Si3 0.622025 0.272541 0.575149
Si Si4 0.839858 0.157708 0.305630
Si Si5 0.338470 0.166483 0.137032
Si Si6 0.875830 0.514911 0.421610
Si Si7 0.142190 0.585026 0.255703
O O1 0.728192 0.686281 0.249258
O O2 0.700580 0.096665 0.472521
O O3 0.720950 0.841741 0.107050
O O4 0.500000 0.000000 0.000000
O O5 0.775686 0.331837 0.887693
O O6 0.916091 0.218300 0.800737
O O7 0.049226 0.370096 0.276085
O O8 0.000000 0.000000 0.000000
O O9 0.500000 0.500000 0.500000
O O10 0.515973 0.152772 0.403781
O O11 0.856655 0.292569 0.298537
O O12 0.792303 0.335216 0.463543
O O13 0.000000 0.000000 0.500000
O O14 0.719791 0.020039 0.012864
O O15 0.258925 0.395292 0.233434
O O16 0.000000 0.500000 0.500000
O O17 0.000000 0.500000 0.000000
#
# Coordination Sequence:
#
# PCOD9044348 Si02
#       7
#     2   2   2   2   2   2   2
#     4  10  23  46  73 104 147 189 244 301 370 433
#     4  12  24  42  73 107 142 184 252 302 356 433
#     4  11  23  43  73 106 146 194 241 304 365 432
#     4  12  25  43  70 108 152 192 243 306 372 439
#     4  11  24  45  74 105 142 198 241 292 373 439
#     4  12  26  43  72 110 142 187 253 307 361 438
#     4  12  23  43  67 108 149 192 240 297 371 435
#
# _framework density 23.189088000000002
#
# number of rings (size 3 to 8) (size 9 to 14) (size 15 to 20)
#    0.000    0.571    5.714    2.571    4.000    0.000 
#    0.000    2.857    0.000   10.286    0.000    0.000 
#    0.000    0.000    0.000    0.000    0.000    0.000 
#
# Total GULP energy -78052.680729 kJ/mol
# GULP energy per Si atom -5575.191481 kJ/mol
# Density = 2.313631 g / cm^3
# Si number density = 23.189088 Si / 1000 Ang^3
#
#
#
# Elastic Constant Matrix: (Units=GPa)
#
#
# Indices 1 2 3 4 5 6 
#
# 1 114.5441 58.4132 24.7594 2.8365 8.8066 12.2141
# 2 58.4132 147.8310 30.9334 -0.0327 18.2135 17.9558
# 3 24.7594 30.9334 70.2249 4.1089 34.5218 8.4868
# 4 2.8365 -0.0327 4.1089 44.9885 -6.6303 2.8622
# 5 8.8066 18.2135 34.5218 -6.6303 59.6249 18.5191
# 6 12.2141 17.9558 8.4868 2.8622 18.5191 52.4604
#
#
#
# Elastic Compliance Matrix: (Units=1/GPa)
#
#
# Indices 1 2 3 4 5 6 
#
# 1 0.011386 -0.003920 -0.002908 -0.000127 0.001621 -0.001404
# 2 -0.003920 0.009037 -0.002297 0.000538 -0.000248 -0.001751
# 3 -0.002908 -0.002297 0.022733 -0.004030 -0.013320 0.002707
# 4 -0.000127 0.000538 -0.004030 0.023620 0.005683 -0.002798
# 5 0.001621 -0.000248 -0.013320 0.005683 0.027483 -0.008150
# 6 -0.001404 -0.001751 0.002707 -0.002798 -0.008150 0.022580
#
#
# Mechanical properties :
#
#
# Convention : Reuss Voigt Hill
#
# Bulk Modulus (GPa) = 40.14669 62.31245 51.22957
# Shear Modulus (GPa) = 34.86983 45.98103 40.42543
#
# Velocity S-wave (km/s) = 3.88199 4.45778 4.17981
# Velocity P-wave (km/s) = 6.11910 7.30927 6.74051
#
# Compressibility (1/GPa) = 0.02490866
#
# Stress axis : x y z
#
# Youngs Moduli (GPa) = 87.82773 110.65308 43.98803
#
# Poissons Ratio (x) = 0.43373 0.12790
# Poissons Ratio (y) = 0.34426 0.10103
# Poissons Ratio (z) = 0.25536 0.25414
#
# Static dielectric constant tensor:
#      x y z
#    x 1.958840 -0.028560 -0.070590 
#    y -0.028560 1.908290 0.000870 
#    z -0.070590 0.000870 1.972330 
# 
# From -- ./inp_files/469689.got.cif
#   From: 2010.05.17/outbox.cif.g08.bks.cpg/sg2_235_cif.got.tgz:469689.got - 2010.06.03 11:33:40.
