data_PCOD9044362
_publ_section_title
;
Structure prediction by ZEFSAII (Michael W. Deem and Ramdas Pophale) SiO2 
 PCOD9044362
Probable space group: P -1
;
_chemical_formula_sum "Si O2"
_cell_formula_units_Z 12
_cell_length_a 10.685503
_cell_length_b 10.140961
_cell_length_c 8.138382
_cell_angle_alpha 100.577831
_cell_angle_beta 35.812925
_cell_angle_gamma 91.823722
_cell_volume 496.645936
_symmetry_space_group_name_H-M "P -1"
_symmetry_group_IT_number 2
_symmetry_cell_setting 'triclinic'
loop_
_space_group_symop_operation_xyz
x,y,z
-x,-y,-z
loop_
_atom_site_type_symbol
_atom_site_label
_atom_site_fract_x
_atom_site_fract_y
_atom_site_fract_z
Si Si1 0.693153 0.388374 0.356371
Si Si2 0.110532 0.227499 0.308196
Si Si3 0.241656 0.772157 0.050909
Si Si4 0.352352 0.425976 0.256257
Si Si5 0.159345 0.885294 0.695860
Si Si6 0.473625 0.006515 0.729848
O O1 0.500000 0.500000 0.500000
O O2 0.759287 0.477158 0.454484
O O3 0.665986 0.243663 0.438223
O O4 0.832185 0.322281 0.035916
O O5 0.173597 0.368178 0.329887
O O6 0.957280 0.187386 0.604223
O O7 0.983530 0.201910 0.273238
O O8 0.341884 0.134455 0.999378
O O9 0.458916 0.689417 0.890191
O O10 0.337064 0.894135 0.897888
O O11 0.500000 0.500000 0.000000
O O12 0.281367 0.982743 0.480300
O O13 0.000000 0.000000 0.000000
O O14 0.500000 0.000000 0.500000
#
# Coordination Sequence:
#
# PCOD9044362 Si02
#       6
#     2   2   2   2   2   2
#     4  10  23  46  73 106 150 196 249 307 373 442
#     4  12  26  45  73 111 153 191 255 313 380 452
#     4  11  25  45  74 109 145 198 256 311 380 448
#     4  11  26  47  73 104 152 200 251 313 377 452
#     4  12  25  46  78 113 146 200 257 311 381 449
#     4  12  24  46  75 107 152 197 251 317 376 448
#
# _framework density 24.162082999999999
#
# number of rings (size 3 to 8) (size 9 to 14) (size 15 to 20)
#    0.000    0.667    3.333    3.500    0.000    8.667 
#    0.000    1.667    0.000    0.000    0.000    0.000 
#    0.000    0.000    0.000    0.000    0.000    0.000 
#
# Total GULP energy -66812.135778 kJ/mol
# GULP energy per Si atom -5567.677982 kJ/mol
# Density = 2.410709 g / cm^3
# Si number density = 24.162083 Si / 1000 Ang^3
#
#
#
# Elastic Constant Matrix: (Units=GPa)
#
#
# Indices 1 2 3 4 5 6 
#
# 1 91.5401 75.8732 36.5535 17.3403 18.8310 44.4027
# 2 75.8732 142.5075 66.9834 3.1645 12.0321 28.1715
# 3 36.5535 66.9834 176.3016 2.2484 13.2420 8.0316
# 4 17.3403 3.1645 2.2484 43.9463 17.2009 0.8958
# 5 18.8310 12.0321 13.2420 17.2009 31.4064 4.5779
# 6 44.4027 28.1715 8.0316 0.8958 4.5779 52.7622
#
#
#
# Elastic Compliance Matrix: (Units=1/GPa)
#
#
# Indices 1 2 3 4 5 6 
#
# 1 0.038117 -0.014485 -0.000604 -0.010374 -0.007960 -0.023385
# 2 -0.014485 0.015108 -0.003086 0.004206 0.001251 0.004413
# 3 -0.000604 -0.003086 0.007060 0.000898 -0.002106 0.001249
# 4 -0.010374 0.004206 0.000898 0.031952 -0.014297 0.007046
# 5 -0.007960 0.001251 -0.002106 -0.014297 0.044453 0.002737
# 6 -0.023385 0.004413 0.001249 0.007046 0.002737 0.035730
#
#
# Mechanical properties :
#
#
# Convention : Reuss Voigt Hill
#
# Bulk Modulus (GPa) = 41.77868 85.46327 63.62097
# Shear Modulus (GPa) = 23.06838 41.01893 32.04366
#
# Velocity S-wave (km/s) = 3.09323 4.12473 3.64565
# Velocity P-wave (km/s) = 5.48507 7.62445 6.64147
#
# Compressibility (1/GPa) = 0.02393566
#
# Stress axis : x y z
#
# Youngs Moduli (GPa) = 26.23490 66.19000 141.65271
#
# Poissons Ratio (x) = 0.95875 0.08558
# Poissons Ratio (y) = 0.38001 0.43707
# Poissons Ratio (z) = 0.01585 0.20423
#
# Static dielectric constant tensor:
#      x y z
#    x 2.145040 -0.053530 -0.015170 
#    y -0.053530 2.012120 0.025390 
#    z -0.015170 0.025390 1.844920 
# 
# From -- ./inp_files/190465.got.cif
#   From: 2010.05.17/outbox.cif.g08.bks.cpg/sg2_96_cif.got.tgz:190465.got - 2010.06.03 11:33:40.
