data_PCOD9044998
_publ_section_title
;
Structure prediction by ZEFSAII (Michael W. Deem and Ramdas Pophale) SiO2 
 PCOD9044998
Probable space group: P -1
;
_chemical_formula_sum "Si O2"
_cell_formula_units_Z 14
_cell_length_a 12.110516
_cell_length_b 10.186509
_cell_length_c 8.595728
_cell_angle_alpha 28.529505
_cell_angle_beta 88.776279
_cell_angle_gamma 83.279533
_cell_volume 495.507494
_symmetry_space_group_name_H-M "P -1"
_symmetry_group_IT_number 2
_symmetry_cell_setting 'triclinic'
loop_
_space_group_symop_operation_xyz
x,y,z
-x,-y,-z
loop_
_atom_site_type_symbol
_atom_site_label
_atom_site_fract_x
_atom_site_fract_y
_atom_site_fract_z
Si Si1 0.580705 0.660861 0.439501
Si Si2 0.042813 0.728352 0.152847
Si Si3 0.709220 0.657323 0.140056
Si Si4 0.531184 0.208768 0.091427
Si Si5 0.283906 0.925092 0.567165
Si Si6 0.131172 0.214899 0.532049
Si Si7 0.108502 0.807063 0.507493
O O1 0.500000 0.500000 0.500000
O O2 0.670360 0.730964 0.240499
O O3 0.535548 0.942199 0.251021
O O4 0.614291 0.407790 0.821095
O O5 0.000000 0.500000 0.500000
O O6 0.139057 0.512708 0.286184
O O7 0.939595 0.884018 0.885178
O O8 0.102139 0.997974 0.892786
O O9 0.813234 0.395131 0.407407
O O10 0.595511 0.604419 0.110283
O O11 0.729413 0.907392 0.769872
O O12 0.584058 0.152434 0.319419
O O13 0.234027 0.098933 0.538831
O O14 0.188576 0.748264 0.716570
O O15 0.013132 0.269860 0.381676
#
# Coordination Sequence:
#
# PCOD9044998 Si02
#       7
#     2   2   2   2   2   2   2
#     4  10  24  50  74 104 148 193 248 307 363 433
#     4  10  23  48  72 105 144 189 249 303 366 433
#     4  11  25  45  77 106 148 192 249 300 373 434
#     4  11  27  48  75 110 148 195 247 305 369 438
#     4  12  27  46  72 111 152 198 242 306 365 446
#     4  10  25  47  70 105 142 196 242 298 365 428
#     4  10  26  42  76 105 147 194 247 298 368 431
#
# _framework density 28.253862999999999
#
# number of rings (size 3 to 8) (size 9 to 14) (size 15 to 20)
#    0.857    0.571    0.000    3.857   10.000    2.857 
#    5.143    0.000    0.000    0.000    0.000    0.000 
#    0.000    0.000    0.000    0.000    0.000    0.000 
#
# Total GULP energy -78049.697511 kJ/mol
# GULP energy per Si atom -5574.978394 kJ/mol
# Density = 2.818956 g / cm^3
# Si number density = 28.253863 Si / 1000 Ang^3
#
#
#
# Elastic Constant Matrix: (Units=GPa)
#
#
# Indices 1 2 3 4 5 6 
#
# 1 136.2369 -2.2305 20.4077 0.7008 23.0427 11.3754
# 2 -2.2305 66.7373 22.8413 -24.4445 -8.4678 2.9118
# 3 20.4077 22.8413 128.3227 -16.2068 -20.5262 8.7866
# 4 0.7008 -24.4445 -16.2068 44.3735 4.7822 -7.1997
# 5 23.0427 -8.4678 -20.5262 4.7822 40.0099 7.2885
# 6 11.3754 2.9118 8.7866 -7.1997 7.2885 35.5047
#
#
#
# Elastic Compliance Matrix: (Units=1/GPa)
#
#
# Indices 1 2 3 4 5 6 
#
# 1 0.008808 0.000248 -0.002379 -0.000405 -0.005991 -0.001106
# 2 0.000248 0.019503 -0.002026 0.009898 0.001673 0.000486
# 3 -0.002379 -0.002026 0.009896 0.001447 0.006304 -0.002521
# 4 -0.000405 0.009898 0.001447 0.029526 -0.001413 0.005237
# 5 -0.005991 0.001673 0.006304 -0.001413 0.033464 -0.006934
# 6 -0.001106 0.000486 -0.002521 0.005237 -0.006934 0.031589
#
#
# Mechanical properties :
#
#
# Convention : Reuss Voigt Hill
#
# Bulk Modulus (GPa) = 33.45287 45.92601 39.68944
# Shear Modulus (GPa) = 33.09866 43.32951 38.21409
#
# Velocity S-wave (km/s) = 3.42639 3.92034 3.68166
# Velocity P-wave (km/s) = 5.24589 6.06483 5.67016
#
# Compressibility (1/GPa) = 0.02989280
#
# Stress axis : x y z
#
# Youngs Moduli (GPa) = 113.53005 51.27529 101.05453
#
# Poissons Ratio (x) = -0.01273 0.24038
# Poissons Ratio (y) = -0.02819 0.20478
# Poissons Ratio (z) = 0.27005 0.10391
#
# Static dielectric constant tensor:
#      x y z
#    x 2.353100 -0.008550 -0.108830 
#    y -0.008550 2.375070 0.116910 
#    z -0.108830 0.116910 2.356730 
# 
# From -- ./inp_files/306071.got.cif
#   From: 2010.05.17/outbox.cif.g08.bks.cpg/sg2_154_cif.got.tgz:306071.got - 2010.06.03 11:33:40.
