data_PCOD9044914
_publ_section_title
;
Structure prediction by ZEFSAII (Michael W. Deem and Ramdas Pophale) SiO2 
 PCOD9044914
Probable space group: P -1
;
_chemical_formula_sum "Si O2"
_cell_formula_units_Z 16
_cell_length_a 5.045423
_cell_length_b 9.183470
_cell_length_c 16.313386
_cell_angle_alpha 110.641518
_cell_angle_beta 113.880334
_cell_angle_gamma 74.503296
_cell_volume 639.915002
_symmetry_space_group_name_H-M "P -1"
_symmetry_group_IT_number 2
_symmetry_cell_setting 'triclinic'
loop_
_space_group_symop_operation_xyz
x,y,z
-x,-y,-z
loop_
_atom_site_type_symbol
_atom_site_label
_atom_site_fract_x
_atom_site_fract_y
_atom_site_fract_z
Si Si1 0.094610 0.960572 0.369210
Si Si2 0.334502 0.488243 0.561373
Si Si3 0.640985 0.345183 0.242004
Si Si4 0.501664 0.731184 0.010848
Si Si5 0.908009 0.820431 0.851532
Si Si6 0.041821 0.105395 0.838147
Si Si7 0.747389 0.826440 0.429245
Si Si8 0.647580 0.425854 0.873704
O O1 0.932029 0.970645 0.263847
O O2 0.442918 0.934877 0.388956
O O3 0.962428 0.826077 0.378536
O O4 0.077238 0.104321 0.460122
O O5 0.500000 0.500000 0.500000
O O6 0.374586 0.621908 0.657788
O O7 0.379470 0.324380 0.582942
O O8 0.000000 0.500000 0.500000
O O9 0.953118 0.272921 0.230481
O O10 0.553546 0.508725 0.214298
O O11 0.391952 0.236125 0.171094
O O12 0.489610 0.656655 0.084439
O O13 0.665333 0.880001 0.072230
O O14 0.177526 0.773898 0.940008
O O15 0.694733 0.592431 0.954284
O O16 0.867589 0.000423 0.853673
O O17 0.888638 0.286015 0.844602
#
# Coordination Sequence:
#
# PCOD9044914 Si02
#       8
#     2   2   2   2   2   2   2   2
#     4  10  24  41  74  96 144 174 233 289 350 403
#     4  12  26  43  73 101 138 186 233 283 349 423
#     4  11  27  48  71 103 146 188 237 290 355 425
#     4  10  25  46  72 105 142 189 235 298 357 414
#     4  11  28  47  70 105 151 185 230 298 359 421
#     4  12  26  41  76 106 139 190 244 289 354 428
#     4  10  23  48  63 105 136 184 226 294 342 415
#     4  10  25  45  74  99 141 186 242 291 349 423
#
# _framework density 25.003319999999999
#
# number of rings (size 3 to 8) (size 9 to 14) (size 15 to 20)
#    0.000    1.250    0.000    3.000   17.500    0.500 
#    0.000    0.000    0.000    0.000    0.000    0.000 
#    0.000    0.000    0.000    0.000    0.000    0.000 
#
# Total GULP energy -89438.422269 kJ/mol
# GULP energy per Si atom -5589.901392 kJ/mol
# Density = 2.494641 g / cm^3
# Si number density = 25.003320 Si / 1000 Ang^3
#
#
#
# Elastic Constant Matrix: (Units=GPa)
#
#
# Indices 1 2 3 4 5 6 
#
# 1 87.5254 17.0784 18.8284 0.6490 -10.9244 11.8210
# 2 17.0784 85.7434 29.2843 -4.8308 -0.6559 10.6934
# 3 18.8284 29.2843 111.3036 -1.1546 -10.3046 4.5702
# 4 0.6490 -4.8308 -1.1546 25.4876 7.9037 0.5888
# 5 -10.9244 -0.6559 -10.3046 7.9037 35.4247 -5.9261
# 6 11.8210 10.6934 4.5702 0.5888 -5.9261 42.0367
#
#
#
# Elastic Compliance Matrix: (Units=1/GPa)
#
#
# Indices 1 2 3 4 5 6 
#
# 1 0.012857 -0.001894 -0.001265 -0.001786 0.003547 -0.002471
# 2 -0.001894 0.013736 -0.003373 0.003363 -0.002564 -0.003004
# 3 -0.001265 -0.003373 0.010320 -0.001040 0.002867 0.000511
# 4 -0.001786 0.003363 -0.001040 0.043289 -0.010847 -0.002376
# 5 0.003547 -0.002564 0.002867 -0.010847 0.033228 0.004179
# 6 -0.002471 -0.003004 0.000511 -0.002376 0.004179 0.025815
#
#
# Mechanical properties :
#
#
# Convention : Reuss Voigt Hill
#
# Bulk Modulus (GPa) = 41.93155 46.10607 44.01881
# Shear Modulus (GPa) = 31.19961 35.21521 33.20741
#
# Velocity S-wave (km/s) = 3.53628 3.75697 3.64829
# Velocity P-wave (km/s) = 5.78623 6.10735 5.94896
#
# Compressibility (1/GPa) = 0.02384839
#
# Stress axis : x y z
#
# Youngs Moduli (GPa) = 77.78056 72.79947 96.90377
#
# Poissons Ratio (x) = 0.13788 0.12261
# Poissons Ratio (y) = 0.14732 0.32684
# Poissons Ratio (z) = 0.09841 0.24554
#
# Static dielectric constant tensor:
#      x y z
#    x 1.911060 0.002040 0.018350 
#    y 0.002040 1.747340 0.004990 
#    z 0.018350 0.004990 1.999930 
# 
# From -- ./inp_files/480680.got.cif
#   From: 2010.05.17/outbox.cif.g08.bks.cpg/sg2_241_cif.got.tgz:480680.got - 2010.06.03 11:33:40.
