data_PCOD9044249
_publ_section_title
;
Structure prediction by ZEFSAII (Michael W. Deem and Ramdas Pophale) SiO2 
 PCOD9044249
Probable space group: P -1
;
_chemical_formula_sum "Si O2"
_cell_formula_units_Z 12
_cell_length_a 13.101448
_cell_length_b 6.241431
_cell_length_c 7.485378
_cell_angle_alpha 117.275793
_cell_angle_beta 99.425195
_cell_angle_gamma 74.231081
_cell_volume 523.009589
_symmetry_space_group_name_H-M "P -1"
_symmetry_group_IT_number 2
_symmetry_cell_setting 'triclinic'
loop_
_space_group_symop_operation_xyz
x,y,z
-x,-y,-z
loop_
_atom_site_type_symbol
_atom_site_label
_atom_site_fract_x
_atom_site_fract_y
_atom_site_fract_z
Si Si1 0.782324 0.101009 0.216964
Si Si2 0.606666 0.534451 0.447317
Si Si3 0.664243 0.830855 0.867003
Si Si4 0.072580 0.200190 0.583386
Si Si5 0.537414 0.750968 0.145237
Si Si6 0.014312 0.747261 0.792427
O O1 0.668576 0.277198 0.285140
O O2 0.869433 0.259279 0.263669
O O3 0.821764 0.925997 0.329614
O O4 0.765526 0.940734 0.978889
O O5 0.500000 0.500000 0.500000
O O6 0.681238 0.608335 0.648619
O O7 0.580900 0.726024 0.349449
O O8 0.564179 0.025857 0.828026
O O9 0.623676 0.764129 0.023418
O O10 0.025732 0.468575 0.762723
O O11 0.072220 0.233515 0.383010
O O12 0.000000 0.000000 0.500000
O O13 0.500000 0.500000 0.000000
O O14 0.000000 0.000000 0.000000
#
# Coordination Sequence:
#
# PCOD9044249 Si02
#       6
#     2   2   2   2   2   2
#     4  11  25  41  64 105 133 169 239 281 336 432
#     4  12  24  44  67  96 141 191 227 282 351 398
#     4  11  24  40  65  96 133 188 229 287 345 396
#     4   9  22  44  70  98 136 171 224 287 342 426
#     4  11  21  44  64  89 139 181 241 284 331 411
#     4  10  23  46  71  98 135 179 219 288 364 410
#
# _framework density 22.944129
#
# number of rings (size 3 to 8) (size 9 to 14) (size 15 to 20)
#    0.000    1.333    3.333    1.500    2.333    8.000 
#    3.000    0.000    0.000    0.000    0.000    0.000 
#    0.000    0.000    0.000    0.000    0.000    0.000 
#
# Total GULP energy -67025.496225 kJ/mol
# GULP energy per Si atom -5585.458019 kJ/mol
# Density = 2.289191 g / cm^3
# Si number density = 22.944129 Si / 1000 Ang^3
#
#
#
# Elastic Constant Matrix: (Units=GPa)
#
#
# Indices 1 2 3 4 5 6 
#
# 1 53.8241 24.0833 23.9620 -7.0367 7.2190 3.0845
# 2 24.0833 116.3263 33.5987 -5.2645 -2.5444 0.6761
# 3 23.9620 33.5987 147.5541 0.5767 19.1368 4.2315
# 4 -7.0367 -5.2645 0.5767 52.5114 -1.0377 8.9155
# 5 7.2190 -2.5444 19.1368 -1.0377 38.5831 2.0126
# 6 3.0845 0.6761 4.2315 8.9155 2.0126 26.6439
#
#
#
# Elastic Compliance Matrix: (Units=1/GPa)
#
#
# Indices 1 2 3 4 5 6 
#
# 1 0.022301 -0.003873 -0.002270 0.003059 -0.003068 -0.002915
# 2 -0.003873 0.010043 -0.001972 0.000531 0.002371 0.000150
# 3 -0.002270 -0.001972 0.008092 -0.000579 -0.003709 -0.000498
# 4 0.003059 0.000531 -0.000579 0.020762 0.000688 -0.007275
# 5 -0.003068 0.002371 -0.003709 0.000688 0.028585 -0.001505
# 6 -0.002915 0.000150 -0.000498 -0.007275 -0.001505 0.040493
#
#
# Mechanical properties :
#
#
# Convention : Reuss Voigt Hill
#
# Bulk Modulus (GPa) = 41.31144 53.44360 47.37752
# Shear Modulus (GPa) = 32.34683 39.28504 35.81594
#
# Velocity S-wave (km/s) = 3.75882 4.14237 3.95524
# Velocity P-wave (km/s) = 6.07310 6.79871 6.44612
#
# Compressibility (1/GPa) = 0.02420637
#
# Stress axis : x y z
#
# Youngs Moduli (GPa) = 44.84078 99.57296 123.57337
#
# Poissons Ratio (x) = 0.38565 0.28053
# Poissons Ratio (y) = 0.17367 0.24366
# Poissons Ratio (z) = 0.10180 0.19634
#
# Static dielectric constant tensor:
#      x y z
#    x 1.864390 0.025280 -0.000230 
#    y 0.025280 1.897190 0.010250 
#    z -0.000230 0.010250 1.895570 
# 
# From -- ./inp_files/287504.got.cif
#   From: 2010.05.17/outbox.cif.g08.bks.cpg/sg2_144_cif.got.tgz:287504.got - 2010.06.03 11:33:40.
