data_PCOD9044586
_publ_section_title
;
Structure prediction by ZEFSAII (Michael W. Deem and Ramdas Pophale) SiO2 
 PCOD9044586
Probable space group: P -1
;
_chemical_formula_sum "Si O2"
_cell_formula_units_Z 16
_cell_length_a 13.598614
_cell_length_b 9.530449
_cell_length_c 18.325284
_cell_angle_alpha 40.915617
_cell_angle_beta 27.999984
_cell_angle_gamma 41.981070
_cell_volume 707.507733
_symmetry_space_group_name_H-M "P -1"
_symmetry_group_IT_number 2
_symmetry_cell_setting 'triclinic'
loop_
_space_group_symop_operation_xyz
x,y,z
-x,-y,-z
loop_
_atom_site_type_symbol
_atom_site_label
_atom_site_fract_x
_atom_site_fract_y
_atom_site_fract_z
Si Si1 0.463090 0.919796 0.910179
Si Si2 0.150389 0.317687 0.024462
Si Si3 0.541221 0.014567 0.381148
Si Si4 0.130446 0.392615 0.642623
Si Si5 0.224676 0.590103 0.237874
Si Si6 0.729220 0.932287 0.594948
Si Si7 0.925258 0.799709 0.720681
Si Si8 0.432411 0.512156 0.279056
O O1 0.533891 0.993239 0.756918
O O2 0.672628 0.909321 0.827784
O O3 0.413378 0.679327 0.041048
O O4 0.242316 0.083818 0.016751
O O5 0.042690 0.285495 0.184155
O O6 0.372478 0.382377 0.873582
O O7 0.000000 0.500000 0.000000
O O8 0.751002 0.819694 0.304716
O O9 0.500000 0.000000 0.500000
O O10 0.351609 0.980524 0.466270
O O11 0.543116 0.269038 0.268810
O O12 0.995129 0.590759 0.702586
O O13 0.307944 0.483488 0.445674
O O14 0.993287 0.306361 0.703789
O O15 0.223524 0.332788 0.334031
O O16 0.260353 0.632376 0.283443
O O17 0.925424 0.029546 0.454343
#
# Coordination Sequence:
#
# PCOD9044586 Si02
#       8
#     2   2   2   2   2   2   2   2
#     4  12  26  49  71 104 142 185 232 295 349 418
#     4  12  30  46  71 101 144 188 232 290 359 419
#     4   9  23  43  67 102 142 182 227 288 341 414
#     4  11  24  41  75 105 139 181 241 288 345 416
#     4  11  24  44  74 104 142 178 235 286 352 407
#     4  11  25  45  76 104 140 184 236 288 350 415
#     4  12  27  47  73 105 140 184 239 292 349 417
#     4  10  23  47  68 103 144 186 233 284 349 420
#
# _framework density 22.614592999999999
#
# number of rings (size 3 to 8) (size 9 to 14) (size 15 to 20)
#    0.000    1.000    2.500    2.250    8.750    2.500 
#    0.000    1.250    0.000    0.000    0.000    0.000 
#    0.000    0.000    0.000    0.000    0.000    0.000 
#
# Total GULP energy -89437.012016 kJ/mol
# GULP energy per Si atom -5589.813251 kJ/mol
# Density = 2.256312 g / cm^3
# Si number density = 22.614593 Si / 1000 Ang^3
#
#
#
# Elastic Constant Matrix: (Units=GPa)
#
#
# Indices 1 2 3 4 5 6 
#
# 1 120.9579 41.2996 31.8734 0.7158 0.0027 -12.1486
# 2 41.2996 96.0141 22.0403 12.1758 -6.1175 -10.7451
# 3 31.8734 22.0403 103.8794 -16.3878 0.6341 2.2408
# 4 0.7158 12.1758 -16.3878 26.8156 9.3278 -1.6463
# 5 0.0027 -6.1175 0.6341 9.3278 39.3858 4.7406
# 6 -12.1486 -10.7451 2.2408 -1.6463 4.7406 26.0094
#
#
#
# Elastic Compliance Matrix: (Units=1/GPa)
#
#
# Indices 1 2 3 4 5 6 
#
# 1 0.010555 -0.003683 -0.002452 0.000519 -0.001120 0.003857
# 2 -0.003683 0.014793 -0.003717 -0.010214 0.004384 0.003266
# 3 -0.002452 -0.003717 0.012899 0.010508 -0.002962 -0.002587
# 4 0.000519 -0.010214 0.010508 0.053473 -0.014559 0.001155
# 5 -0.001120 0.004384 -0.002962 -0.014559 0.030153 -0.004874
# 6 0.003857 0.003266 -0.002587 0.001155 -0.004874 0.042783
#
#
# Mechanical properties :
#
#
# Convention : Reuss Voigt Hill
#
# Bulk Modulus (GPa) = 53.92807 56.80865 55.36836
# Shear Modulus (GPa) = 26.24114 33.48470 29.86292
#
# Velocity S-wave (km/s) = 3.41011 3.85212 3.63783
# Velocity P-wave (km/s) = 6.27722 6.70522 6.49474
#
# Compressibility (1/GPa) = 0.01854322
#
# Stress axis : x y z
#
# Youngs Moduli (GPa) = 94.73966 67.60088 77.52475
#
# Poissons Ratio (x) = 0.24897 0.19008
# Poissons Ratio (y) = 0.34892 0.28817
# Poissons Ratio (z) = 0.23228 0.25128
#
# Static dielectric constant tensor:
#      x y z
#    x 1.854430 0.009220 0.014300 
#    y 0.009220 1.908860 -0.003410 
#    z 0.014300 -0.003410 1.825960 
# 
# From -- ./inp_files/566489.got.cif
#   From: 2010.05.17/outbox.cif.g08.bks.cpg/sg2_284_cif.got.tgz:566489.got - 2010.06.03 11:33:40.
