data_PCOD9044386
_publ_section_title
;
Structure prediction by ZEFSAII (Michael W. Deem and Ramdas Pophale) SiO2 
 PCOD9044386
Probable space group: P -1
;
_chemical_formula_sum "Si O2"
_cell_formula_units_Z 14
_cell_length_a 10.284554
_cell_length_b 16.651610
_cell_length_c 13.949047
_cell_angle_alpha 155.938864
_cell_angle_beta 46.113441
_cell_angle_gamma 118.864224
_cell_volume 603.221571
_symmetry_space_group_name_H-M "P -1"
_symmetry_group_IT_number 2
_symmetry_cell_setting 'triclinic'
loop_
_space_group_symop_operation_xyz
x,y,z
-x,-y,-z
loop_
_atom_site_type_symbol
_atom_site_label
_atom_site_fract_x
_atom_site_fract_y
_atom_site_fract_z
Si Si1 0.408465 0.080314 0.901252
Si Si2 0.864173 0.664334 0.162418
Si Si3 0.635724 0.095209 0.079966
Si Si4 0.415171 0.537914 0.371566
Si Si5 0.007925 0.119325 0.824226
Si Si6 0.659870 0.411034 0.909530
Si Si7 0.962795 0.723828 0.819755
O O1 0.643311 0.868993 0.539376
O O2 0.288083 0.058779 0.030636
O O3 0.421746 0.308515 0.151133
O O4 0.270062 0.091477 0.892941
O O5 0.978780 0.776747 0.169861
O O6 0.808012 0.520412 0.959735
O O7 0.000000 0.500000 0.000000
O O8 0.507677 0.353809 0.469209
O O9 0.500000 0.000000 0.000000
O O10 0.806725 0.094351 0.921446
O O11 0.169205 0.729248 0.689673
O O12 0.534440 0.487223 0.156498
O O13 0.203514 0.863214 0.457782
O O14 0.021073 0.272573 0.070178
O O15 0.500000 0.500000 0.000000
O O16 0.000000 0.500000 0.500000
#
# Coordination Sequence:
#
# PCOD9044386 Si02
#       7
#     2   2   2   2   2   2   2
#     4  11  23  47  76 107 155 198 247 318 385 451
#     4  12  29  50  76 110 156 207 261 318 387 456
#     4  11  27  48  72 109 146 205 255 303 377 468
#     4  10  23  46  73 113 150 196 243 322 379 453
#     4  11  27  48  78 112 149 199 256 319 379 459
#     4  12  27  43  79 117 154 199 260 313 389 461
#     4   9  22  43  76 109 150 189 243 310 389 449
#
# _framework density 23.208718999999999
#
# number of rings (size 3 to 8) (size 9 to 14) (size 15 to 20)
#    0.000    1.143    2.857    0.857    8.000    6.857 
#    0.000    0.000    0.000    0.000    0.000    0.000 
#    0.000    0.000    0.000    0.000    0.000    0.000 
#
# Total GULP energy -78259.014143 kJ/mol
# GULP energy per Si atom -5589.929582 kJ/mol
# Density = 2.315589 g / cm^3
# Si number density = 23.208719 Si / 1000 Ang^3
#
#
#
# Elastic Constant Matrix: (Units=GPa)
#
#
# Indices 1 2 3 4 5 6 
#
# 1 135.8871 59.5933 60.5520 12.7889 4.7921 9.5783
# 2 59.5933 197.7428 57.3058 7.0277 -4.1029 12.9967
# 3 60.5520 57.3058 131.1245 2.6434 -0.3991 3.1884
# 4 12.7889 7.0277 2.6434 43.9612 10.5176 2.9825
# 5 4.7921 -4.1029 -0.3991 10.5176 42.6129 10.8077
# 6 9.5783 12.9967 3.1884 2.9825 10.8077 21.5472
#
#
#
# Elastic Compliance Matrix: (Units=1/GPa)
#
#
# Indices 1 2 3 4 5 6 
#
# 1 0.010234 -0.001718 -0.003868 -0.002262 -0.000147 -0.002554
# 2 -0.001718 0.006432 -0.001910 -0.000613 0.001883 -0.003693
# 3 -0.003868 -0.001910 0.010198 0.000770 -0.000186 0.001349
# 4 -0.002262 -0.000613 0.000770 0.024871 -0.006167 0.000912
# 5 -0.000147 0.001883 -0.000186 -0.006167 0.028911 -0.014691
# 6 -0.002554 -0.003693 0.001349 0.000912 -0.014691 0.056815
#
#
# Mechanical properties :
#
#
# Convention : Reuss Voigt Hill
#
# Bulk Modulus (GPa) = 84.22570 91.07296 87.64933
# Shear Modulus (GPa) = 31.96729 40.77783 36.37256
#
# Velocity S-wave (km/s) = 3.71534 4.19621 3.96307
# Velocity P-wave (km/s) = 7.40097 7.92487 7.66740
#
# Compressibility (1/GPa) = 0.01187286
#
# Stress axis : x y z
#
# Youngs Moduli (GPa) = 97.71217 155.47699 98.05669
#
# Poissons Ratio (x) = 0.26713 0.37927
# Poissons Ratio (y) = 0.16788 0.18725
# Poissons Ratio (z) = 0.37794 0.29690
#
# Static dielectric constant tensor:
#      x y z
#    x 2.001040 -0.008850 0.017340 
#    y -0.008850 1.880540 0.012490 
#    z 0.017340 0.012490 1.923990 
# 
# From -- ./inp_files/508173.got.cif
#   From: 2010.05.17/outbox.cif.g08.bks.cpg/sg2_255_cif.got.tgz:508173.got - 2010.06.03 11:33:40.
