data_PCOD9044702
_publ_section_title
;
Structure prediction by ZEFSAII (Michael W. Deem and Ramdas Pophale) SiO2 
 PCOD9044702
Probable space group: P -1
;
_chemical_formula_sum "Si O2"
_cell_formula_units_Z 16
_cell_length_a 17.448574
_cell_length_b 17.447890
_cell_length_c 6.961865
_cell_angle_alpha 136.623067
_cell_angle_beta 50.619736
_cell_angle_gamma 151.689923
_cell_volume 690.232951
_symmetry_space_group_name_H-M "P -1"
_symmetry_group_IT_number 2
_symmetry_cell_setting 'triclinic'
loop_
_space_group_symop_operation_xyz
x,y,z
-x,-y,-z
loop_
_atom_site_type_symbol
_atom_site_label
_atom_site_fract_x
_atom_site_fract_y
_atom_site_fract_z
Si Si1 0.918272 0.723304 0.891599
Si Si2 0.232423 0.639344 0.376075
Si Si3 0.477637 0.742552 0.915847
Si Si4 0.874075 0.988045 0.179823
Si Si5 0.155796 0.935652 0.233806
Si Si6 0.949545 0.404990 0.112338
Si Si7 0.387599 0.538080 0.341339
Si Si8 0.447788 0.357696 0.082586
O O1 0.839279 0.542827 0.773571
O O2 0.767595 0.640548 0.859790
O O3 0.049129 0.833238 0.713415
O O4 0.022611 0.862329 0.158383
O O5 0.211634 0.689731 0.697791
O O6 0.103217 0.572380 0.307585
O O7 0.397053 0.762632 0.220573
O O8 0.371714 0.621728 0.673884
O O9 0.467451 0.617593 0.824791
O O10 0.665745 0.926159 0.891878
O O11 0.825085 0.966549 0.436794
O O12 0.740828 0.829271 0.951998
O O13 0.000000 0.000000 0.000000
O O14 0.081382 0.754792 0.108914
O O15 0.000000 0.500000 0.000000
O O16 0.468710 0.503867 0.254766
O O17 0.502649 0.675965 0.237109
#
# Coordination Sequence:
#
# PCOD9044702 Si02
#       8
#     2   2   2   2   2   2   2   2
#     4  11  23  41  68  96 133 176 228 272 325 400
#     4  10  24  41  69 102 126 173 221 277 336 407
#     4  12  24  43  68  99 142 172 223 280 339 392
#     4  12  24  42  64  99 139 180 229 274 327 391
#     4  11  26  44  69 101 134 179 218 284 342 389
#     4  10  23  47  71  98 130 170 224 275 339 413
#     4  11  24  41  64  95 138 188 228 265 327 394
#     4  11  23  42  61  96 140 184 227 275 319 396
#
# _framework density 23.180581
#
# number of rings (size 3 to 8) (size 9 to 14) (size 15 to 20)
#    0.000    1.000    5.000    1.125    5.250    1.000 
#    6.750    0.625    0.000    0.000    0.000    0.000 
#    0.000    0.000    0.000    0.000    0.000    0.000 
#
# Total GULP energy -89085.297355 kJ/mol
# GULP energy per Si atom -5567.831085 kJ/mol
# Density = 2.312782 g / cm^3
# Si number density = 23.180581 Si / 1000 Ang^3
#
#
#
# Elastic Constant Matrix: (Units=GPa)
#
#
# Indices 1 2 3 4 5 6 
#
# 1 86.9934 18.4380 40.1145 -12.9815 26.9522 0.3680
# 2 18.4380 53.6361 11.3314 -11.7488 6.7672 -3.5323
# 3 40.1145 11.3314 116.7384 -22.5538 15.9974 5.1017
# 4 -12.9815 -11.7488 -22.5538 30.3560 1.4105 5.9019
# 5 26.9522 6.7672 15.9974 1.4105 30.4287 -5.4189
# 6 0.3680 -3.5323 5.1017 5.9019 -5.4189 34.6601
#
#
#
# Elastic Compliance Matrix: (Units=1/GPa)
#
#
# Indices 1 2 3 4 5 6 
#
# 1 0.019318 -0.002843 -0.002731 0.006599 -0.016012 -0.003720
# 2 -0.002843 0.021561 0.000786 0.007790 -0.002994 0.000317
# 3 -0.002731 0.000786 0.012095 0.009155 -0.005261 -0.004053
# 4 0.006599 0.007790 0.009155 0.048595 -0.016693 -0.011508
# 5 -0.016012 -0.002994 -0.005261 -0.016693 0.053357 0.011824
# 6 -0.003720 0.000317 -0.004053 -0.011508 0.011824 0.033328
#
#
# Mechanical properties :
#
#
# Convention : Reuss Voigt Hill
#
# Bulk Modulus (GPa) = 23.04278 44.12619 33.58449
# Shear Modulus (GPa) = 23.55205 31.58786 27.56995
#
# Velocity S-wave (km/s) = 3.19097 3.69546 3.45244
# Velocity P-wave (km/s) = 4.85165 6.10621 5.51472
#
# Compressibility (1/GPa) = 0.04339754
#
# Stress axis : x y z
#
# Youngs Moduli (GPa) = 51.76513 46.38091 82.67872
#
# Poissons Ratio (x) = 0.13187 0.22575
# Poissons Ratio (y) = 0.14718 -0.06496
# Poissons Ratio (z) = 0.14134 -0.03644
#
# Static dielectric constant tensor:
#      x y z
#    x 1.947730 0.000680 -0.011930 
#    y 0.000680 1.955930 -0.016110 
#    z -0.011930 -0.016110 1.933730 
# 
# From -- ./inp_files/107305.got.cif
#   From: 2010.05.17/outbox.cif.g08.bks.cpg/sg2_54_cif.got.tgz:107305.got - 2010.06.03 11:33:40.
