data_PCOD9044823
_publ_section_title
;
Structure prediction by ZEFSAII (Michael W. Deem and Ramdas Pophale) SiO2 
 PCOD9044823
Probable space group: P -1
;
_chemical_formula_sum "Si O2"
_cell_formula_units_Z 12
_cell_length_a 15.635372
_cell_length_b 5.322210
_cell_length_c 21.395642
_cell_angle_alpha 125.994357
_cell_angle_beta 23.235734
_cell_angle_gamma 119.557917
_cell_volume 562.176161
_symmetry_space_group_name_H-M "P -1"
_symmetry_group_IT_number 2
_symmetry_cell_setting 'triclinic'
loop_
_space_group_symop_operation_xyz
x,y,z
-x,-y,-z
loop_
_atom_site_type_symbol
_atom_site_label
_atom_site_fract_x
_atom_site_fract_y
_atom_site_fract_z
Si Si1 0.564313 0.341633 0.000490
Si Si2 0.624428 0.307701 0.140152
Si Si3 0.183458 0.680965 0.376083
Si Si4 0.148276 0.342450 0.511543
Si Si5 0.067761 0.299939 0.185053
Si Si6 0.857634 0.888488 0.024125
O O1 0.426984 0.527762 0.175278
O O2 0.500000 0.500000 0.000000
O O3 0.812481 0.391155 0.851133
O O4 0.500000 0.000000 0.000000
O O5 0.359719 0.362081 0.328379
O O6 0.728754 0.613365 0.095607
O O7 0.743323 0.005032 0.976008
O O8 0.699938 0.180130 0.140618
O O9 0.000000 0.500000 0.500000
O O10 0.075465 0.703488 0.381763
O O11 0.199974 0.988083 0.450252
O O12 0.102060 0.620395 0.633077
O O13 0.996079 0.242599 0.154056
O O14 0.000000 0.000000 0.000000
#
# Coordination Sequence:
#
# PCOD9044823 Si02
#       6
#     2   2   2   2   2   2
#     4  12  25  41  61  94 133 177 222 259 313 378
#     4  10  24  42  69  94 131 164 215 270 329 386
#     4  11  24  36  62  86 139 176 225 262 307 377
#     4  11  23  42  57 100 127 178 216 267 317 381
#     4  10  24  40  68  91 134 170 219 263 323 379
#     4  10  23  47  74  95 126 168 214 274 338 390
#
# _framework density 21.345624000000001
#
# number of rings (size 3 to 8) (size 9 to 14) (size 15 to 20)
#    1.000    0.333    3.333    1.500    9.333    1.333 
#    0.000    1.667    0.000    0.000    0.000    0.000 
#    0.000    0.000    0.000    0.000    0.000    0.000 
#
# Total GULP energy -66817.343177 kJ/mol
# GULP energy per Si atom -5568.111931 kJ/mol
# Density = 2.129704 g / cm^3
# Si number density = 21.345624 Si / 1000 Ang^3
#
#
#
# Elastic Constant Matrix: (Units=GPa)
#
#
# Indices 1 2 3 4 5 6 
#
# 1 94.8972 30.4181 16.8494 6.9885 9.6753 15.8735
# 2 30.4181 105.8165 37.6483 -9.0100 9.8478 -1.2457
# 3 16.8494 37.6483 127.0138 14.7049 26.3640 5.7847
# 4 6.9885 -9.0100 14.7049 28.8811 4.7347 8.9551
# 5 9.6753 9.8478 26.3640 4.7347 31.1560 0.8704
# 6 15.8735 -1.2457 5.7847 8.9551 0.8704 36.7135
#
#
#
# Elastic Compliance Matrix: (Units=1/GPa)
#
#
# Indices 1 2 3 4 5 6 
#
# 1 0.013049 -0.003980 0.000553 -0.002636 -0.002717 -0.005157
# 2 -0.003980 0.012614 -0.003935 0.006615 -0.000460 0.001166
# 3 0.000553 -0.003935 0.011212 -0.005654 -0.007540 -0.000581
# 4 -0.002636 0.006615 -0.005654 0.043217 -0.002826 -0.008219
# 5 -0.002717 -0.000460 -0.007540 -0.002826 0.039837 0.002092
# 6 -0.005157 0.001166 -0.000581 -0.008219 0.002092 0.031554
#
#
# Mechanical properties :
#
#
# Convention : Reuss Voigt Hill
#
# Bulk Modulus (GPa) = 45.14333 55.28434 50.21384
# Shear Modulus (GPa) = 28.80337 35.53758 32.17047
#
# Velocity S-wave (km/s) = 3.67738 4.08470 3.88638
# Velocity P-wave (km/s) = 6.26302 6.94278 6.61164
#
# Compressibility (1/GPa) = 0.02215166
#
# Stress axis : x y z
#
# Youngs Moduli (GPa) = 76.63387 79.27651 89.18831
#
# Poissons Ratio (x) = 0.31552 -0.04930
# Poissons Ratio (y) = 0.30501 0.35092
# Poissons Ratio (z) = -0.04236 0.31192
#
# Static dielectric constant tensor:
#      x y z
#    x 1.740880 0.204140 0.187190 
#    y 0.204140 1.389180 -0.249100 
#    z 0.187190 -0.249100 1.621960 
# 
# From -- ./inp_files/42885.got.cif
#   From: 2010.05.17/outbox.cif.g08.bks.cpg/sg2_22_cif.got.tgz:42885.got - 2010.06.03 11:33:40.
