data_PCOD9044250
_publ_section_title
;
Structure prediction by ZEFSAII (Michael W. Deem and Ramdas Pophale) SiO2 
 PCOD9044250
Probable space group: P -1
;
_chemical_formula_sum "Si O2"
_cell_formula_units_Z 12
_cell_length_a 9.486315
_cell_length_b 8.185122
_cell_length_c 15.174534
_cell_angle_alpha 50.650321
_cell_angle_beta 37.793726
_cell_angle_gamma 70.723192
_cell_volume 520.782269
_symmetry_space_group_name_H-M "P -1"
_symmetry_group_IT_number 2
_symmetry_cell_setting 'triclinic'
loop_
_space_group_symop_operation_xyz
x,y,z
-x,-y,-z
loop_
_atom_site_type_symbol
_atom_site_label
_atom_site_fract_x
_atom_site_fract_y
_atom_site_fract_z
Si Si1 0.445353 0.028739 0.118111
Si Si2 0.473197 0.472329 0.884818
Si Si3 0.242494 0.852716 0.912271
Si Si4 0.796264 0.547517 0.144509
Si Si5 0.969588 0.235420 0.461260
Si Si6 0.587422 0.297606 0.496744
O O1 0.677924 0.073224 0.052554
O O2 0.218867 0.829549 0.341252
O O3 0.380621 0.257656 0.068209
O O4 0.500000 0.000000 0.000000
O O5 0.360941 0.660640 0.902231
O O6 0.383116 0.400676 0.853798
O O7 0.766999 0.582007 0.708294
O O8 0.383825 0.060067 0.706983
O O9 0.956408 0.743356 0.065412
O O10 0.648324 0.334352 0.350974
O O11 0.000000 0.500000 0.000000
O O12 0.832786 0.312991 0.423677
O O13 0.000000 0.000000 0.500000
O O14 0.500000 0.500000 0.500000
#
# Coordination Sequence:
#
# PCOD9044250 Si02
#       6
#     2   2   2   2   2   2
#     4  11  25  42  71 106 139 173 236 298 350 398
#     4  11  23  43  74 103 137 178 244 283 341 418
#     4  10  23  46  71  98 139 189 232 281 347 424
#     4  10  25  42  71 100 137 184 235 278 347 418
#     4  11  24  46  76 100 135 189 237 283 345 419
#     4  11  25  45  69 101 144 181 228 291 360 402
#
# _framework density 23.042261
#
# number of rings (size 3 to 8) (size 9 to 14) (size 15 to 20)
#    0.000    1.333    3.333    1.500    9.333    5.333 
#    6.000    0.000    0.000    0.000    0.000    0.000 
#    0.000    0.000    0.000    0.000    0.000    0.000 
#
# Total GULP energy -67185.957700 kJ/mol
# GULP energy per Si atom -5598.829808 kJ/mol
# Density = 2.298982 g / cm^3
# Si number density = 23.042261 Si / 1000 Ang^3
#
#
#
# Elastic Constant Matrix: (Units=GPa)
#
#
# Indices 1 2 3 4 5 6 
#
# 1 169.5312 7.0862 49.8278 -3.7923 0.4645 -3.5948
# 2 7.0862 80.2876 0.1436 3.8360 9.9799 -16.8883
# 3 49.8278 0.1436 77.5756 -4.7573 17.2188 6.3627
# 4 -3.7923 3.8360 -4.7573 37.5092 2.1408 8.5123
# 5 0.4645 9.9799 17.2188 2.1408 55.6047 -1.7910
# 6 -3.5948 -16.8883 6.3627 8.5123 -1.7910 47.0660
#
#
#
# Elastic Compliance Matrix: (Units=1/GPa)
#
#
# Indices 1 2 3 4 5 6 
#
# 1 0.007501 -0.000610 -0.005313 -0.000220 0.001738 0.001178
# 2 -0.000610 0.014039 0.000293 -0.002535 -0.002336 0.005321
# 3 -0.005313 0.000293 0.018054 0.002844 -0.005820 -0.003477
# 4 -0.000220 -0.002535 0.002844 0.028854 -0.001747 -0.006596
# 5 0.001738 -0.002336 -0.005820 -0.001747 0.020296 0.001170
# 6 0.001178 0.005321 -0.003477 -0.006596 0.001170 0.024954
#
#
# Mechanical properties :
#
#
# Convention : Reuss Voigt Hill
#
# Bulk Modulus (GPa) = 35.29368 49.05662 42.17515
# Shear Modulus (GPa) = 37.20133 46.05842 41.62988
#
# Velocity S-wave (km/s) = 4.02242 4.47572 4.25511
# Velocity P-wave (km/s) = 6.07646 6.93149 6.51801
#
# Compressibility (1/GPa) = 0.02833368
#
# Stress axis : x y z
#
# Youngs Moduli (GPa) = 133.31649 71.22845 55.38906
#
# Poissons Ratio (x) = 0.04347 0.29427
# Poissons Ratio (y) = 0.08137 -0.01622
# Poissons Ratio (z) = 0.70828 -0.02085
#
# Static dielectric constant tensor:
#      x y z
#    x 1.846360 0.037080 -0.008380 
#    y 0.037080 1.975530 0.005840 
#    z -0.008380 0.005840 1.818800 
# 
# From -- ./inp_files/199103.got.cif
#   From: 2010.05.17/outbox.cif.g08.bks.cpg/sg2_100_cif.got.tgz:199103.got - 2010.06.03 11:33:40.
