data_PCOD9044849
_publ_section_title
;
Structure prediction by ZEFSAII (Michael W. Deem and Ramdas Pophale) SiO2 
 PCOD9044849
Probable space group: P -1
;
_chemical_formula_sum "Si O2"
_cell_formula_units_Z 10
_cell_length_a 8.971764
_cell_length_b 6.286920
_cell_length_c 8.396502
_cell_angle_alpha 88.201671
_cell_angle_beta 107.717282
_cell_angle_gamma 70.985023
_cell_volume 422.018427
_symmetry_space_group_name_H-M "P -1"
_symmetry_group_IT_number 2
_symmetry_cell_setting 'triclinic'
loop_
_space_group_symop_operation_xyz
x,y,z
-x,-y,-z
loop_
_atom_site_type_symbol
_atom_site_label
_atom_site_fract_x
_atom_site_fract_y
_atom_site_fract_z
Si Si1 0.617485 0.852103 0.179764
Si Si2 0.348906 0.213359 0.376190
Si Si3 0.191830 0.433416 0.022394
Si Si4 0.640282 0.324253 0.715153
Si Si5 0.176119 0.009790 0.506463
O O1 0.510473 0.739822 0.256828
O O2 0.287795 0.218113 0.175064
O O3 0.758252 0.647943 0.137879
O O4 0.500000 0.000000 0.000000
O O5 0.406516 0.426369 0.382939
O O6 0.702028 0.007691 0.301634
O O7 0.500000 0.000000 0.500000
O O8 0.187346 0.243509 0.431083
O O9 0.252448 0.635883 0.099669
O O10 0.000000 0.500000 0.000000
O O11 0.752490 0.154521 0.620095
O O12 0.000000 0.000000 0.500000
#
# Coordination Sequence:
#
# PCOD9044849 Si02
#       5
#     2   2   2   2   2
#     4  12  25  47  78 113 148 196 250 307 375 450
#     4  10  24  48  73 103 149 197 252 292 371 452
#     4  10  23  47  75 111 150 187 244 316 377 425
#     4  10  25  47  75 106 147 201 249 304 363 461
#     4  12  26  46  72 111 148 195 248 313 372 441
#
# _framework density 23.695647999999998
#
# number of rings (size 3 to 8) (size 9 to 14) (size 15 to 20)
#    1.200    0.000    0.000    6.000    0.000    5.600 
#    7.200    4.000    0.000    0.000    0.000    0.000 
#    0.000    0.000    0.000    0.000    0.000    0.000 
#
# Total GULP energy -55694.292315 kJ/mol
# GULP energy per Si atom -5569.429231 kJ/mol
# Density = 2.364172 g / cm^3
# Si number density = 23.695648 Si / 1000 Ang^3
#
#
#
# Elastic Constant Matrix: (Units=GPa)
#
#
# Indices 1 2 3 4 5 6 
#
# 1 254.7229 85.0251 72.8710 19.5659 -26.2780 6.9279
# 2 85.0251 106.6277 51.5570 28.4986 -6.8964 -3.7967
# 3 72.8710 51.5570 114.4533 16.4111 -16.9169 -2.6462
# 4 19.5659 28.4986 16.4111 57.6441 3.4744 -13.9331
# 5 -26.2780 -6.8964 -16.9169 3.4744 41.6174 10.2443
# 6 6.9279 -3.7967 -2.6462 -13.9331 10.2443 40.5029
#
#
#
# Elastic Compliance Matrix: (Units=1/GPa)
#
#
# Indices 1 2 3 4 5 6 
#
# 1 0.006118 -0.003806 -0.001692 -0.000510 0.003202 -0.002499
# 2 -0.003806 0.015698 -0.004065 -0.005157 -0.001113 0.000365
# 3 -0.001692 -0.004065 0.012339 -0.001293 0.003535 -0.000624
# 4 -0.000510 -0.005157 -0.001293 0.022934 -0.005802 0.008876
# 5 0.003202 -0.001113 0.003535 -0.005802 0.030267 -0.010072
# 6 -0.002499 0.000365 -0.000624 0.008876 -0.010072 0.030711
#
#
# Mechanical properties :
#
#
# Convention : Reuss Voigt Hill
#
# Bulk Modulus (GPa) = 66.53705 99.41223 82.97464
# Shear Modulus (GPa) = 35.16143 45.70962 40.43552
#
# Velocity S-wave (km/s) = 3.85629 4.39684 4.13541
# Velocity P-wave (km/s) = 6.92595 8.23536 7.60887
#
# Compressibility (1/GPa) = 0.01502922
#
# Stress axis : x y z
#
# Youngs Moduli (GPa) = 163.45964 63.70357 81.04294
#
# Poissons Ratio (x) = 0.24243 0.13713
# Poissons Ratio (y) = 0.62206 0.32944
# Poissons Ratio (z) = 0.27659 0.25896
#
# Static dielectric constant tensor:
#      x y z
#    x 1.984740 -0.011840 0.030340 
#    y -0.011840 2.118020 0.025170 
#    z 0.030340 0.025170 2.068570 
# 
# From -- ./inp_files/372496.got.cif
#   From: 2010.05.17/outbox.cif.g08.bks.cpg/sg2_187_cif.got.tgz:372496.got - 2010.06.03 11:33:40.
