data_PCOD9044206
_publ_section_title
;
Structure prediction by ZEFSAII (Michael W. Deem and Ramdas Pophale) SiO2 
 PCOD9044206
Probable space group: P -1
;
_chemical_formula_sum "Si O2"
_cell_formula_units_Z 16
_cell_length_a 10.923986
_cell_length_b 9.670447
_cell_length_c 17.679414
_cell_angle_alpha 132.062013
_cell_angle_beta 27.525948
_cell_angle_gamma 132.587535
_cell_volume 621.954803
_symmetry_space_group_name_H-M "P -1"
_symmetry_group_IT_number 2
_symmetry_cell_setting 'triclinic'
loop_
_space_group_symop_operation_xyz
x,y,z
-x,-y,-z
loop_
_atom_site_type_symbol
_atom_site_label
_atom_site_fract_x
_atom_site_fract_y
_atom_site_fract_z
Si Si1 0.073793 0.433634 0.677089
Si Si2 0.849213 0.409990 0.475372
Si Si3 0.230875 0.987103 0.590722
Si Si4 0.114246 0.223806 0.038998
Si Si5 0.503360 0.129732 0.895726
Si Si6 0.724284 0.921967 0.571871
Si Si7 0.691340 0.588555 0.142676
Si Si8 0.812418 0.196805 0.954537
O O1 0.086493 0.632377 0.787489
O O2 0.784651 0.289260 0.804135
O O3 0.087513 0.481483 0.597826
O O4 0.287571 0.300409 0.520928
O O5 0.936437 0.210449 0.354953
O O6 0.531266 0.388019 0.664945
O O7 0.000000 0.500000 0.500000
O O8 0.500000 0.000000 0.500000
O O9 0.285222 0.980108 0.468835
O O10 0.041198 0.135344 0.756223
O O11 0.269188 0.230620 0.035865
O O12 0.336097 0.318687 0.888921
O O13 0.000000 0.000000 0.000000
O O14 0.517999 0.983146 0.764684
O O15 0.413821 0.987485 0.962231
O O16 0.000000 0.000000 0.500000
O O17 0.994464 0.703827 0.044732
O O18 0.685856 0.365852 0.056104
#
# Coordination Sequence:
#
# PCOD9044206 Si02
#       8
#     2   2   2   2   2   2   2   2
#     4  11  25  45  69 105 145 193 248 299 371 450
#     4  12  25  45  74 106 150 194 247 308 373 449
#     4  12  25  46  74 107 146 191 252 308 371 445
#     4  12  24  43  68 102 144 191 239 304 369 441
#     4  11  23  44  72 102 144 191 241 303 372 445
#     4  10  23  46  71 103 149 194 244 305 374 453
#     4  11  24  45  68 104 145 190 243 302 377 439
#     4  11  24  44  71 105 145 188 242 311 371 441
#
# _framework density 25.725342999999999
#
# number of rings (size 3 to 8) (size 9 to 14) (size 15 to 20)
#    0.000    0.750    2.500    5.625    0.000    2.000 
#    0.000    5.000    0.000    0.000    0.000    0.000 
#    0.000    0.000    0.000    0.000    0.000    0.000 
#
# Total GULP energy -89474.294605 kJ/mol
# GULP energy per Si atom -5592.143413 kJ/mol
# Density = 2.566679 g / cm^3
# Si number density = 25.725343 Si / 1000 Ang^3
#
#
#
# Elastic Constant Matrix: (Units=GPa)
#
#
# Indices 1 2 3 4 5 6 
#
# 1 105.7595 44.5909 42.1268 -22.5244 14.2311 -25.1009
# 2 44.5909 153.4780 55.7664 5.4417 5.3604 -16.4786
# 3 42.1268 55.7664 150.4211 13.8614 13.1635 -7.1686
# 4 -22.5244 5.4417 13.8614 49.8023 -13.5886 5.5888
# 5 14.2311 5.3604 13.1635 -13.5886 46.1296 -7.8746
# 6 -25.1009 -16.4786 -7.1686 5.5888 -7.8746 42.4714
#
#
#
# Elastic Compliance Matrix: (Units=1/GPa)
#
#
# Indices 1 2 3 4 5 6 
#
# 1 0.015095 -0.002655 -0.003620 0.007402 -0.000060 0.006295
# 2 -0.002655 0.008272 -0.002123 -0.001619 0.000250 0.001542
# 3 -0.003620 -0.002123 0.009045 -0.004530 -0.002784 -0.001356
# 4 0.007402 -0.001619 -0.004530 0.026743 0.007212 0.000800
# 5 -0.000060 0.000250 -0.002784 0.007212 0.025151 0.003306
# 6 0.006295 0.001542 -0.001356 0.000800 0.003306 0.028143
#
#
# Mechanical properties :
#
#
# Convention : Reuss Voigt Hill
#
# Bulk Modulus (GPa) = 64.02930 77.18075 70.60502
# Shear Modulus (GPa) = 37.18845 45.49230 41.34038
#
# Velocity S-wave (km/s) = 3.80622 4.20978 4.01308
# Velocity P-wave (km/s) = 6.65282 7.32780 6.99845
#
# Compressibility (1/GPa) = 0.01561785
#
# Stress axis : x y z
#
# Youngs Moduli (GPa) = 66.24496 120.88483 110.55567
#
# Poissons Ratio (x) = 0.32093 0.40024
# Poissons Ratio (y) = 0.17587 0.23466
# Poissons Ratio (z) = 0.23982 0.25659
#
# Static dielectric constant tensor:
#      x y z
#    x 2.196600 0.117780 -0.137320 
#    y 0.117780 2.015160 -0.029810 
#    z -0.137320 -0.029810 2.054010 
# 
# From -- ./inp_files/566896.got.cif
#   From: 2010.05.17/outbox.cif.g08.bks.cpg/sg2_284_cif.got.tgz:566896.got - 2010.06.03 11:33:40.
