data_PCOD9044461
_publ_section_title
;
Structure prediction by ZEFSAII (Michael W. Deem and Ramdas Pophale) SiO2 
 PCOD9044461
Probable space group: P -1
;
_chemical_formula_sum "Si O2"
_cell_formula_units_Z 14
_cell_length_a 17.528124
_cell_length_b 7.025960
_cell_length_c 7.181744
_cell_angle_alpha 94.387828
_cell_angle_beta 108.754441
_cell_angle_gamma 41.848351
_cell_volume 539.821306
_symmetry_space_group_name_H-M "P -1"
_symmetry_group_IT_number 2
_symmetry_cell_setting 'triclinic'
loop_
_space_group_symop_operation_xyz
x,y,z
-x,-y,-z
loop_
_atom_site_type_symbol
_atom_site_label
_atom_site_fract_x
_atom_site_fract_y
_atom_site_fract_z
Si Si1 0.686204 0.686560 0.783703
Si Si2 0.157583 0.836913 0.660411
Si Si3 0.374403 0.674795 0.809251
Si Si4 0.048978 0.695675 0.183801
Si Si5 0.765767 0.704594 0.240300
Si Si6 0.961103 0.708825 0.726228
Si Si7 0.524582 0.674841 0.492757
O O1 0.601250 0.981644 0.615901
O O2 0.612441 0.621730 0.704497
O O3 0.825699 0.430924 0.795762
O O4 0.696689 0.752674 0.003756
O O5 0.263677 0.771320 0.841434
O O6 0.205152 0.537659 0.639351
O O7 0.120123 0.026761 0.464559
O O8 0.040515 0.033590 0.723068
O O9 0.317710 0.977694 0.717149
O O10 0.403918 0.467517 0.658390
O O11 0.500000 0.500000 0.000000
O O12 0.972075 0.785804 0.942551
O O13 0.080602 0.433269 0.282211
O O14 0.898395 0.549424 0.265237
O O15 0.500000 0.500000 0.500000
#
# Coordination Sequence:
#
# PCOD9044461 Si02
#       7
#     2   2   2   2   2   2   2
#     4  10  25  49  76 115 146 204 261 312 386 459
#     4  12  27  45  78 117 155 200 255 318 387 468
#     4  12  28  50  75 110 151 208 255 313 386 452
#     4  10  23  47  80 108 160 198 251 324 386 461
#     4  11  25  47  78 112 157 197 257 316 386 459
#     4  10  23  46  75 115 155 205 249 310 396 461
#     4  11  27  48  77 107 152 202 261 318 376 457
#
# _framework density 25.934507
#
# number of rings (size 3 to 8) (size 9 to 14) (size 15 to 20)
#    0.000    1.143    2.857    0.857    4.000    8.571 
#    0.000    0.000    0.000    0.000    0.000    0.000 
#    0.000    0.000    0.000    0.000    0.000    0.000 
#
# Total GULP energy -78583.160937 kJ/mol
# GULP energy per Si atom -5613.082924 kJ/mol
# Density = 2.587548 g / cm^3
# Si number density = 25.934507 Si / 1000 Ang^3
#
#
#
# Elastic Constant Matrix: (Units=GPa)
#
#
# Indices 1 2 3 4 5 6 
#
# 1 143.9394 44.0709 11.6781 -27.5538 9.7020 10.5206
# 2 44.0709 116.4676 25.4468 -14.2166 5.2787 22.7873
# 3 11.6781 25.4468 101.0639 -10.7150 3.7724 1.8901
# 4 -27.5538 -14.2166 -10.7150 44.2133 -2.9702 5.7245
# 5 9.7020 5.2787 3.7724 -2.9702 47.6180 -9.2720
# 6 10.5206 22.7873 1.8901 5.7245 -9.2720 42.8123
#
#
#
# Elastic Compliance Matrix: (Units=1/GPa)
#
#
# Indices 1 2 3 4 5 6 
#
# 1 0.008846 -0.002326 0.000186 0.004954 -0.001632 -0.001960
# 2 -0.002326 0.011519 -0.002199 0.002405 -0.001676 -0.006147
# 3 0.000186 -0.002199 0.010642 0.001918 -0.000459 0.000299
# 4 0.004954 0.002405 0.001918 0.027720 -0.000964 -0.006497
# 5 -0.001632 -0.001676 -0.000459 -0.000964 0.022734 0.006366
# 6 -0.001960 -0.006147 0.000299 -0.006497 0.006366 0.029345
#
#
# Mechanical properties :
#
#
# Convention : Reuss Voigt Hill
#
# Bulk Modulus (GPa) = 44.78408 58.20692 51.49550
# Shear Modulus (GPa) = 39.39284 45.61372 42.50328
#
# Velocity S-wave (km/s) = 3.90158 4.19836 4.05269
# Velocity P-wave (km/s) = 6.13205 6.78190 6.46515
#
# Compressibility (1/GPa) = 0.02232936
#
# Stress axis : x y z
#
# Youngs Moduli (GPa) = 113.04553 86.81494 93.96839
#
# Poissons Ratio (x) = 0.20192 -0.01750
# Poissons Ratio (y) = 0.26292 0.20665
# Poissons Ratio (z) = -0.02106 0.19091
#
# Static dielectric constant tensor:
#      x y z
#    x 2.035200 -0.045190 -0.009380 
#    y -0.045190 2.031630 0.017300 
#    z -0.009380 0.017300 2.066670 
# 
# From -- ./inp_files/123886.got.cif
#   From: 2010.05.17/outbox.cif.g08.bks.cpg/sg2_62_cif.got.tgz:123886.got - 2010.06.03 11:33:40.
