data_PCOD9044764
_publ_section_title
;
Structure prediction by ZEFSAII (Michael W. Deem and Ramdas Pophale) SiO2 
 PCOD9044764
Probable space group: P -1
;
_chemical_formula_sum "Si O2"
_cell_formula_units_Z 16
_cell_length_a 12.234248
_cell_length_b 14.957028
_cell_length_c 8.837342
_cell_angle_alpha 71.761757
_cell_angle_beta 95.255872
_cell_angle_gamma 151.040903
_cell_volume 682.771434
_symmetry_space_group_name_H-M "P -1"
_symmetry_group_IT_number 2
_symmetry_cell_setting 'triclinic'
loop_
_space_group_symop_operation_xyz
x,y,z
-x,-y,-z
loop_
_atom_site_type_symbol
_atom_site_label
_atom_site_fract_x
_atom_site_fract_y
_atom_site_fract_z
Si Si1 0.583003 0.306700 0.080384
Si Si2 0.168589 0.191105 0.814191
Si Si3 0.188159 0.221822 0.464687
Si Si4 0.997089 0.756339 0.760074
Si Si5 0.805006 0.436005 0.503986
Si Si6 0.573360 0.950243 0.559037
Si Si7 0.665200 0.494279 0.270966
Si Si8 0.391534 0.167974 0.809626
O O1 0.531878 0.168762 0.232519
O O2 0.539152 0.346576 0.190698
O O3 0.844264 0.551281 0.921525
O O4 0.401541 0.159761 0.994366
O O5 0.103290 0.182525 0.644677
O O6 0.215873 0.316658 0.859999
O O7 0.357191 0.254008 0.753431
O O8 0.000000 0.000000 0.000000
O O9 0.182210 0.300996 0.299247
O O10 0.449685 0.370541 0.413436
O O11 0.000000 0.000000 0.500000
O O12 0.151837 0.848167 0.579087
O O13 0.186629 0.951975 0.801409
O O14 0.583033 0.228696 0.484228
O O15 0.853017 0.569514 0.345291
O O16 0.664034 0.350174 0.686451
O O17 0.000000 0.500000 0.500000
O O18 0.500000 0.000000 0.500000
#
# Coordination Sequence:
#
# PCOD9044764 Si02
#       8
#     2   2   2   2   2   2   2   2
#     4  11  26  47  75 105 151 196 245 310 377 438
#     4  12  26  41  71 107 153 192 245 299 366 448
#     4  12  23  43  71  99 148 197 235 302 370 439
#     4  11  25  47  72 107 153 194 244 305 377 444
#     4  10  23  47  73 102 146 191 249 314 371 437
#     4  10  25  50  72 105 145 189 254 310 368 454
#     4  11  25  46  68 108 145 192 249 297 369 450
#     4  11  24  46  70 113 149 192 256 303 367 458
#
# _framework density 23.433903000000001
#
# number of rings (size 3 to 8) (size 9 to 14) (size 15 to 20)
#    0.000    1.000    2.500    3.375    7.000    1.500 
#    6.750    1.250    0.000    0.000    0.000    0.000 
#    0.000    0.000    0.000    0.000    0.000    0.000 
#
# Total GULP energy -89107.755037 kJ/mol
# GULP energy per Si atom -5569.234690 kJ/mol
# Density = 2.338057 g / cm^3
# Si number density = 23.433903 Si / 1000 Ang^3
#
#
#
# Elastic Constant Matrix: (Units=GPa)
#
#
# Indices 1 2 3 4 5 6 
#
# 1 131.3264 18.7252 59.8484 -10.6834 13.6002 6.6766
# 2 18.7252 89.4583 49.0681 -4.5334 13.4532 -7.1672
# 3 59.8484 49.0681 157.7402 3.3952 20.8316 4.3830
# 4 -10.6834 -4.5334 3.3952 46.2088 -8.2134 -1.8875
# 5 13.6002 13.4532 20.8316 -8.2134 38.5904 -11.2307
# 6 6.6766 -7.1672 4.3830 -1.8875 -11.2307 38.0037
#
#
#
# Elastic Compliance Matrix: (Units=1/GPa)
#
#
# Indices 1 2 3 4 5 6 
#
# 1 0.009599 0.000108 -0.003470 0.002141 -0.001564 -0.001622
# 2 0.000108 0.014053 -0.004331 0.001577 -0.001454 0.002779
# 3 -0.003470 -0.004331 0.009635 -0.002715 -0.003795 -0.002575
# 4 0.002141 0.001577 -0.002715 0.023715 0.006148 0.003229
# 5 -0.001564 -0.001454 -0.003795 0.006148 0.033419 0.010619
# 6 -0.001622 0.002779 -0.002575 0.003229 0.010619 0.030718
#
#
# Mechanical properties :
#
#
# Convention : Reuss Voigt Hill
#
# Bulk Modulus (GPa) = 55.86799 70.42316 63.14558
# Shear Modulus (GPa) = 35.08958 41.28611 38.18784
#
# Velocity S-wave (km/s) = 3.87380 4.20195 4.04121
# Velocity P-wave (km/s) = 6.62578 7.32522 6.98426
#
# Compressibility (1/GPa) = 0.01789934
#
# Stress axis : x y z
#
# Youngs Moduli (GPa) = 104.17576 71.15941 103.79177
#
# Poissons Ratio (x) = -0.00767 0.36016
# Poissons Ratio (y) = -0.01123 0.44957
# Poissons Ratio (z) = 0.36150 0.30822
#
# Static dielectric constant tensor:
#      x y z
#    x 1.858270 0.082550 -0.035690 
#    y 0.082550 1.878010 0.048590 
#    z -0.035690 0.048590 1.883290 
# 
# From -- ./inp_files/272569.got.cif
#   From: 2010.05.17/outbox.cif.g08.bks.cpg/sg2_137_cif.got.tgz:272569.got - 2010.06.03 11:33:40.
