data_PCOD9044958
_publ_section_title
;
Structure prediction by ZEFSAII (Michael W. Deem and Ramdas Pophale) SiO2 
 PCOD9044958
Probable space group: P -1
;
_chemical_formula_sum "Si O2"
_cell_formula_units_Z 15
_cell_length_a 20.886036
_cell_length_b 5.920165
_cell_length_c 6.338201
_cell_angle_alpha 76.647327
_cell_angle_beta 64.496418
_cell_angle_gamma 59.748333
_cell_volume 610.920279
_symmetry_space_group_name_H-M "P -1"
_symmetry_group_IT_number 2
_symmetry_cell_setting 'triclinic'
loop_
_space_group_symop_operation_xyz
x,y,z
-x,-y,-z
loop_
_atom_site_type_symbol
_atom_site_label
_atom_site_fract_x
_atom_site_fract_y
_atom_site_fract_z
Si Si1 0.601444 0.315507 0.221092
Si Si2 0.597519 0.734164 0.828678
Si Si3 0.071826 0.071062 0.435651
Si Si4 0.831598 0.341196 0.939578
Si Si5 0.500000 0.000000 0.500000
Si Si6 0.295416 0.677379 0.558086
Si Si7 0.711295 0.909494 0.843873
Si Si8 0.982453 0.388018 0.839012
O O1 0.628495 0.402101 0.377915
O O2 0.544548 0.188565 0.378178
O O3 0.572463 0.546879 0.040536
O O4 0.683077 0.091954 0.050221
O O5 0.533016 0.921262 0.716182
O O6 0.673206 0.547591 0.613713
O O7 0.634818 0.867804 0.901657
O O8 0.052251 0.349392 0.307057
O O9 0.061079 0.147064 0.680940
O O10 0.146167 0.851409 0.253213
O O11 0.000000 0.000000 0.500000
O O12 0.784293 0.633997 0.853575
O O13 0.912233 0.304969 0.948174
O O14 0.774543 0.308456 0.198021
O O15 0.273946 0.942096 0.404749
O O16 0.000000 0.500000 0.000000
#
# Coordination Sequence:
#
# PCOD9044958 Si02
#       8
#     2   2   2   2   1   2   2   2
#     4  11  25  46  68 100 145 177 236 293 338 419
#     4  11  25  46  67 102 142 181 232 296 336 420
#     4   9  22  46  66 101 141 173 227 283 336 420
#     4  11  24  45  73  99 139 187 227 288 352 404
#     4  12  24  44  74 100 138 194 226 282 366 398
#     4  11  25  47  69 103 142 180 236 287 346 414
#     4  11  25  47  69 102 144 179 233 294 339 414
#     4  10  23  48  70 101 142 178 229 285 343 414
#
# _framework density 24.553122999999999
#
# number of rings (size 3 to 8) (size 9 to 14) (size 15 to 20)
#    0.000    1.333    2.667    1.200    1.867    3.200 
#   19.200    0.000    0.000    0.000    0.000    0.000 
#    0.000    0.000    0.000    0.000    0.000    0.000 
#
# Total GULP energy -83751.245911 kJ/mol
# GULP energy per Si atom -5583.416394 kJ/mol
# Density = 2.449724 g / cm^3
# Si number density = 24.553123 Si / 1000 Ang^3
#
#
#
# Elastic Constant Matrix: (Units=GPa)
#
#
# Indices 1 2 3 4 5 6 
#
# 1 97.5223 3.7592 50.2003 1.4433 -9.0765 10.2099
# 2 3.7592 112.5669 81.1523 9.9258 -8.8284 -12.6368
# 3 50.2003 81.1523 154.0808 -4.3708 -17.3452 -0.9538
# 4 1.4433 9.9258 -4.3708 58.3070 6.2897 3.3460
# 5 -9.0765 -8.8284 -17.3452 6.2897 48.0123 -4.1395
# 6 10.2099 -12.6368 -0.9538 3.3460 -4.1395 37.4978
#
#
#
# Elastic Compliance Matrix: (Units=1/GPa)
#
#
# Indices 1 2 3 4 5 6 
#
# 1 0.013941 0.004415 -0.006813 -0.001587 0.001002 -0.002229
# 2 0.004415 0.017346 -0.010530 -0.004261 0.001200 0.004888
# 3 -0.006813 -0.010530 0.014500 0.002968 0.001503 -0.001423
# 4 -0.001587 -0.004261 0.002968 0.018594 -0.002696 -0.002885
# 5 0.001002 0.001200 0.001503 -0.002696 0.022382 0.002881
# 6 -0.002229 0.004888 -0.001423 -0.002885 0.002881 0.029462
#
#
# Mechanical properties :
#
#
# Convention : Reuss Voigt Hill
#
# Bulk Modulus (GPa) = 50.17417 70.48819 60.33118
# Shear Modulus (GPa) = 33.61874 44.03397 38.82636
#
# Velocity S-wave (km/s) = 3.70432 4.23947 3.98090
# Velocity P-wave (km/s) = 6.22698 7.26188 6.76425
#
# Compressibility (1/GPa) = 0.01993057
#
# Stress axis : x y z
#
# Youngs Moduli (GPa) = 71.72988 57.65024 68.96394
#
# Poissons Ratio (x) = -0.25450 0.46987
# Poissons Ratio (y) = -0.31666 0.72617
# Poissons Ratio (z) = 0.48872 0.60704
#
# Static dielectric constant tensor:
#      x y z
#    x 1.946030 -0.065520 0.042580 
#    y -0.065520 1.918200 0.058770 
#    z 0.042580 0.058770 2.071670 
# 
# From -- ./inp_files/9225.got.cif
#   From: 2010.05.17/outbox.cif.g08.bks.cpg/sg2_5_cif.got.tgz:9225.got - 2010.06.03 11:33:40.
