data_PCOD9044768
_publ_section_title
;
Structure prediction by ZEFSAII (Michael W. Deem and Ramdas Pophale) SiO2 
 PCOD9044768
Probable space group: P -1
;
_chemical_formula_sum "Si O2"
_cell_formula_units_Z 11
_cell_length_a 12.943369
_cell_length_b 7.040162
_cell_length_c 8.943029
_cell_angle_alpha 96.749057
_cell_angle_beta 32.673482
_cell_angle_gamma 95.702010
_cell_volume 436.886132
_symmetry_space_group_name_H-M "P -1"
_symmetry_group_IT_number 2
_symmetry_cell_setting 'triclinic'
loop_
_space_group_symop_operation_xyz
x,y,z
-x,-y,-z
loop_
_atom_site_type_symbol
_atom_site_label
_atom_site_fract_x
_atom_site_fract_y
_atom_site_fract_z
Si Si1 0.050728 0.409415 0.584834
Si Si2 0.828421 0.576628 0.111711
Si Si3 0.000000 0.000000 0.500000
Si Si4 0.363673 0.111068 0.795011
Si Si5 0.423655 0.509724 0.319829
Si Si6 0.355249 0.863756 0.077013
O O1 0.231938 0.508085 0.453629
O O2 0.000000 0.500000 0.500000
O O3 0.092010 0.188204 0.491509
O O4 0.861791 0.437639 0.919555
O O5 0.805552 0.786559 0.084252
O O6 0.645773 0.555957 0.437457
O O7 0.000000 0.500000 0.000000
O O8 0.852207 0.139188 0.598724
O O9 0.476054 0.285733 0.757064
O O10 0.500000 0.000000 0.500000
O O11 0.294798 0.973288 0.002215
O O12 0.551105 0.340464 0.081280
O O13 0.500000 0.000000 0.000000
#
# Coordination Sequence:
#
# PCOD9044768 Si02
#       6
#     2   2   1   2   2   2
#     4  11  25  45  72 108 149 200 248 303 376 442
#     4  10  23  47  73 104 151 193 246 311 369 436
#     4  12  26  44  74 102 152 188 246 302 372 436
#     4  12  26  46  77 108 144 200 251 301 381 443
#     4  11  25  48  72 109 154 194 250 319 367 441
#     4  12  27  48  75 111 151 196 253 307 377 446
#
# _framework density 25.178184999999999
#
# number of rings (size 3 to 8) (size 9 to 14) (size 15 to 20)
#    0.000    0.727    3.636    2.727    5.091    0.727 
#    0.000    1.818    0.000    0.000    0.000    0.000 
#    0.000    0.000    0.000    0.000    0.000    0.000 
#
# Total GULP energy -61293.995518 kJ/mol
# GULP energy per Si atom -5572.181411 kJ/mol
# Density = 2.512088 g / cm^3
# Si number density = 25.178185 Si / 1000 Ang^3
#
#
#
# Elastic Constant Matrix: (Units=GPa)
#
#
# Indices 1 2 3 4 5 6 
#
# 1 161.2809 54.2527 26.2470 7.7655 -17.0433 -0.0726
# 2 54.2527 163.9120 28.8896 29.4817 9.6763 1.7989
# 3 26.2470 28.8896 69.7571 39.7608 7.6339 0.2464
# 4 7.7655 29.4817 39.7608 53.9633 -6.2355 5.9239
# 5 -17.0433 9.6763 7.6339 -6.2355 57.1357 -1.9252
# 6 -0.0726 1.7989 0.2464 5.9239 -1.9252 61.1455
#
#
#
# Elastic Compliance Matrix: (Units=1/GPa)
#
#
# Indices 1 2 3 4 5 6 
#
# 1 0.008182 -0.002893 -0.004887 0.004496 0.004068 -0.000193
# 2 -0.002893 0.007955 0.000943 -0.004973 -0.002874 0.000150
# 3 -0.004887 0.000943 0.029629 -0.022765 -0.008000 0.001801
# 4 0.004496 -0.004973 -0.022765 0.038808 0.009351 -0.003222
# 5 0.004068 -0.002874 -0.008000 0.009351 0.021288 -0.000114
# 6 -0.000193 0.000150 0.001801 -0.003222 -0.000114 0.016651
#
#
# Mechanical properties :
#
#
# Convention : Reuss Voigt Hill
#
# Bulk Modulus (GPa) = 31.16301 68.19206 49.67754
# Shear Modulus (GPa) = 34.03994 53.48627 43.76311
#
# Velocity S-wave (km/s) = 3.68089 4.61402 4.17362
# Velocity P-wave (km/s) = 5.51989 7.45173 6.55734
#
# Compressibility (1/GPa) = 0.03208932
#
# Stress axis : x y z
#
# Youngs Moduli (GPa) = 122.21355 125.71024 33.75106
#
# Poissons Ratio (x) = 0.36374 0.16495
# Poissons Ratio (y) = 0.35362 -0.03181
# Poissons Ratio (z) = 0.59730 -0.11849
#
# Static dielectric constant tensor:
#      x y z
#    x 2.118150 -0.109690 0.221820 
#    y -0.109690 2.141730 -0.392580 
#    z 0.221820 -0.392580 2.577730 
# 
# From -- ./inp_files/36620.got.cif
#   From: 2010.05.17/outbox.cif.g08.bks.cpg/sg2_19_cif.got.tgz:36620.got - 2010.06.03 11:33:40.
