data_PCOD9044919
_publ_section_title
;
Structure prediction by ZEFSAII (Michael W. Deem and Ramdas Pophale) SiO2 
 PCOD9044919
Probable space group: P -1
;
_chemical_formula_sum "Si O2"
_cell_formula_units_Z 16
_cell_length_a 13.413703
_cell_length_b 8.992945
_cell_length_c 6.627381
_cell_angle_alpha 80.004157
_cell_angle_beta 117.995123
_cell_angle_gamma 102.879936
_cell_volume 685.934452
_symmetry_space_group_name_H-M "P -1"
_symmetry_group_IT_number 2
_symmetry_cell_setting 'triclinic'
loop_
_space_group_symop_operation_xyz
x,y,z
-x,-y,-z
loop_
_atom_site_type_symbol
_atom_site_label
_atom_site_fract_x
_atom_site_fract_y
_atom_site_fract_z
Si Si1 0.165557 0.031065 0.804118
Si Si2 0.907023 0.433585 0.091600
Si Si3 0.010358 0.770053 0.459400
Si Si4 0.596800 0.804430 0.074362
Si Si5 0.476328 0.659424 0.351657
Si Si6 0.373080 0.770776 0.621222
Si Si7 0.841027 0.166272 0.792100
Si Si8 0.697278 0.505267 0.096254
O O1 0.114351 0.183511 0.668021
O O2 0.096526 0.905785 0.621064
O O3 0.300590 0.057730 0.894469
O O4 0.139669 0.978713 0.022608
O O5 0.975340 0.371055 0.354416
O O6 0.819603 0.529581 0.093976
O O7 0.833029 0.293601 0.927546
O O8 0.000000 0.500000 0.000000
O O9 0.056653 0.770234 0.276815
O O10 0.477785 0.832664 0.854917
O O11 0.577843 0.759730 0.300651
O O12 0.638217 0.653925 0.047419
O O13 0.500000 0.500000 0.500000
O O14 0.433385 0.749002 0.472560
O O15 0.382709 0.603782 0.107358
O O16 0.271845 0.862642 0.446678
O O17 0.309726 0.604977 0.687024
#
# Coordination Sequence:
#
# PCOD9044919 Si02
#       8
#     2   2   2   2   2   2   2   2
#     4  10  25  44  63  93 120 169 220 257 307 373
#     4  11  25  39  65 105 124 158 214 258 315 381
#     4  10  23  48  66  84 131 166 208 267 316 365
#     4  11  24  37  63  98 127 161 213 259 303 382
#     4  11  19  37  60  91 129 168 201 245 323 376
#     4  11  21  39  64  92 127 166 203 258 322 369
#     4  11  23  43  69  86 126 175 206 256 321 371
#     4  11  21  38  60  94 134 159 200 257 320 376
#
# _framework density 23.325845999999999
#
# number of rings (size 3 to 8) (size 9 to 14) (size 15 to 20)
#    0.000    1.250    5.000    1.125    1.750    4.000 
#    0.000    1.250    0.000    0.000    0.000    0.000 
#    0.000    0.000    0.000    0.000    0.000    0.000 
#
# Total GULP energy -89426.817752 kJ/mol
# GULP energy per Si atom -5589.176109 kJ/mol
# Density = 2.327276 g / cm^3
# Si number density = 23.325846 Si / 1000 Ang^3
#
#
#
# Elastic Constant Matrix: (Units=GPa)
#
#
# Indices 1 2 3 4 5 6 
#
# 1 107.7253 3.8366 32.6972 -6.4804 -13.1835 15.4365
# 2 3.8366 35.4221 19.9340 6.4299 1.2859 14.1549
# 3 32.6972 19.9340 112.0966 -10.0518 -9.4151 3.4890
# 4 -6.4804 6.4299 -10.0518 24.6565 9.1643 -2.6923
# 5 -13.1835 1.2859 -9.4151 9.1643 48.0456 -5.1100
# 6 15.4365 14.1549 3.4890 -2.6923 -5.1100 31.0586
#
#
#
# Elastic Compliance Matrix: (Units=1/GPa)
#
#
# Indices 1 2 3 4 5 6 
#
# 1 0.011393 0.003585 -0.003679 -0.000821 0.001757 -0.006665
# 2 0.003585 0.046100 -0.010184 -0.017248 -0.001442 -0.023380
# 3 -0.003679 -0.010184 0.012331 0.006995 0.000967 0.005850
# 4 -0.000821 -0.017248 0.006995 0.051496 -0.007068 0.010784
# 5 0.001757 -0.001442 0.000967 -0.007068 0.023178 0.002876
# 6 -0.006665 -0.023380 0.005850 0.010784 0.002876 0.046916
#
#
# Mechanical properties :
#
#
# Convention : Reuss Voigt Hill
#
# Bulk Modulus (GPa) = 20.29692 40.90885 30.60289
# Shear Modulus (GPa) = 21.89213 34.00387 27.94800
#
# Velocity S-wave (km/s) = 3.06688 3.82223 3.46519
# Velocity P-wave (km/s) = 4.61100 6.08730 5.39984
#
# Compressibility (1/GPa) = 0.04926856
#
# Stress axis : x y z
#
# Youngs Moduli (GPa) = 87.77606 21.69203 81.09317
#
# Poissons Ratio (x) = -0.07777 0.29837
# Poissons Ratio (y) = -0.31471 0.82584
# Poissons Ratio (z) = 0.32296 0.22091
#
# Static dielectric constant tensor:
#      x y z
#    x 1.879570 -0.004170 0.009970 
#    y -0.004170 1.967380 -0.003400 
#    z 0.009970 -0.003400 1.871380 
# 
# From -- ./inp_files/69396.got.cif
#   From: 2010.05.17/outbox.cif.g08.bks.cpg/sg2_35_cif.got.tgz:69396.got - 2010.06.03 11:33:40.
