data_PCOD9044902
_publ_section_title
;
Structure prediction by ZEFSAII (Michael W. Deem and Ramdas Pophale) SiO2 
 PCOD9044902
Probable space group: P -1
;
_chemical_formula_sum "Si O2"
_cell_formula_units_Z 16
_cell_length_a 16.485067
_cell_length_b 15.309732
_cell_length_c 5.929875
_cell_angle_alpha 102.005903
_cell_angle_beta 68.554894
_cell_angle_gamma 150.799207
_cell_volume 658.929621
_symmetry_space_group_name_H-M "P -1"
_symmetry_group_IT_number 2
_symmetry_cell_setting 'triclinic'
loop_
_space_group_symop_operation_xyz
x,y,z
-x,-y,-z
loop_
_atom_site_type_symbol
_atom_site_label
_atom_site_fract_x
_atom_site_fract_y
_atom_site_fract_z
Si Si1 0.541606 0.431347 0.907874
Si Si2 0.686462 0.026208 0.157719
Si Si3 0.559164 0.224065 0.341330
Si Si4 0.578006 0.669754 0.525985
Si Si5 0.764914 0.971793 0.688742
Si Si6 0.952261 0.352892 0.342699
Si Si7 0.850180 0.592131 0.499508
Si Si8 0.763300 0.263340 0.883576
O O1 0.441721 0.317741 0.708096
O O2 0.736248 0.566886 0.721897
O O3 0.500000 0.500000 0.000000
O O4 0.518432 0.382329 0.170063
O O5 0.866775 0.194849 0.212723
O O6 0.508432 0.878709 0.409356
O O7 0.723176 0.141436 0.012207
O O8 0.679707 0.924855 0.989395
O O9 0.378524 0.110560 0.378342
O O10 0.726820 0.439760 0.344321
O O11 0.621083 0.208810 0.083115
O O12 0.500000 0.500000 0.500000
O O13 0.773632 0.878839 0.531930
O O14 0.957256 0.191606 0.630073
O O15 0.787962 0.247677 0.597314
O O16 0.101893 0.447791 0.408394
O O17 0.046534 0.511996 0.180388
#
# Coordination Sequence:
#
# PCOD9044902 Si02
#       8
#     2   2   2   2   2   2   2   2
#     4  10  23  47  80 111 148 191 244 312 387 466
#     4  12  24  46  68 104 147 196 259 316 367 455
#     4  12  27  44  72 101 146 198 256 309 379 440
#     4  10  23  48  78 111 153 188 243 314 384 471
#     4  12  26  47  72 110 146 191 255 308 377 466
#     4  11  26  45  68 106 147 199 260 312 374 451
#     4  12  25  48  72 108 146 199 246 316 384 450
#     4  11  26  44  69 100 151 201 255 318 374 433
#
# _framework density 24.281801000000002
#
# number of rings (size 3 to 8) (size 9 to 14) (size 15 to 20)
#    0.000    0.750    3.750    2.250    7.000    3.000 
#    0.000    5.000    0.000    0.000    0.000    0.000 
#    0.000    0.000    0.000    0.000    0.000    0.000 
#
# Total GULP energy -89088.579627 kJ/mol
# GULP energy per Si atom -5568.036227 kJ/mol
# Density = 2.422653 g / cm^3
# Si number density = 24.281801 Si / 1000 Ang^3
#
#
#
# Elastic Constant Matrix: (Units=GPa)
#
#
# Indices 1 2 3 4 5 6 
#
# 1 72.3035 32.8294 38.9661 -6.0986 5.0935 -13.0065
# 2 32.8294 161.1966 58.4448 24.7594 7.5827 -9.1244
# 3 38.9661 58.4448 152.8753 4.4990 -1.1602 -6.1861
# 4 -6.0986 24.7594 4.4990 51.9657 -12.9515 4.8070
# 5 5.0935 7.5827 -1.1602 -12.9515 45.5766 -2.1307
# 6 -13.0065 -9.1244 -6.1861 4.8070 -2.1307 33.9054
#
#
#
# Elastic Compliance Matrix: (Units=1/GPa)
#
#
# Indices 1 2 3 4 5 6 
#
# 1 0.018114 -0.002557 -0.003525 0.003026 -0.000588 0.005152
# 2 -0.002557 0.008567 -0.002440 -0.004934 -0.002537 0.001419
# 3 -0.003525 -0.002440 0.008352 0.000340 0.001087 -0.000465
# 4 0.003026 -0.004934 0.000340 0.023989 0.007165 -0.003056
# 5 -0.000588 -0.002537 0.001087 0.007165 0.024484 -0.000187
# 6 0.005152 0.001419 -0.000465 -0.003056 -0.000187 0.032189
#
#
# Mechanical properties :
#
#
# Convention : Reuss Voigt Hill
#
# Bulk Modulus (GPa) = 55.58638 71.87289 63.72964
# Shear Modulus (GPa) = 36.04021 43.36522 39.70272
#
# Velocity S-wave (km/s) = 3.85677 4.23059 4.04800
# Velocity P-wave (km/s) = 6.54025 7.31626 6.93911
#
# Compressibility (1/GPa) = 0.01799002
#
# Stress axis : x y z
#
# Youngs Moduli (GPa) = 55.20446 116.73336 119.73271
#
# Poissons Ratio (x) = 0.29846 0.42203
# Poissons Ratio (y) = 0.14115 0.29214
# Poissons Ratio (z) = 0.19458 0.28482
#
# Static dielectric constant tensor:
#      x y z
#    x 2.044200 -0.096230 0.049710 
#    y -0.096230 2.077910 -0.010360 
#    z 0.049710 -0.010360 2.012190 
# 
# From -- ./inp_files/111491.got.cif
#   From: 2010.05.17/outbox.cif.g08.bks.cpg/sg2_56_cif.got.tgz:111491.got - 2010.06.03 11:33:40.
