data_PCOD9044945
_publ_section_title
;
Structure prediction by ZEFSAII (Michael W. Deem and Ramdas Pophale) SiO2 
 PCOD9044945
Probable space group: P -1
;
_chemical_formula_sum "Si O2"
_cell_formula_units_Z 15
_cell_length_a 14.451243
_cell_length_b 8.446391
_cell_length_c 5.065169
_cell_angle_alpha 62.437372
_cell_angle_beta 106.014124
_cell_angle_gamma 98.866838
_cell_volume 526.566003
_symmetry_space_group_name_H-M "P -1"
_symmetry_group_IT_number 2
_symmetry_cell_setting 'triclinic'
loop_
_space_group_symop_operation_xyz
x,y,z
-x,-y,-z
loop_
_atom_site_type_symbol
_atom_site_label
_atom_site_fract_x
_atom_site_fract_y
_atom_site_fract_z
Si Si1 0.620014 0.311434 0.047118
Si Si2 0.000000 0.000000 0.500000
Si Si3 0.852121 0.917102 0.949983
Si Si4 0.970235 0.386175 0.316228
Si Si5 0.193473 0.755218 0.024521
Si Si6 0.582311 0.752237 0.280516
Si Si7 0.368603 0.016090 0.359686
Si Si8 0.749083 0.550355 0.316093
O O1 0.696936 0.212495 0.999007
O O2 0.677547 0.480579 0.083036
O O3 0.601196 0.179074 0.380283
O O4 0.520616 0.339425 0.799644
O O5 0.927371 0.934825 0.758884
O O6 0.016818 0.195341 0.501710
O O7 0.818899 0.714099 0.153901
O O8 0.868658 0.069307 0.085012
O O9 0.747819 0.989144 0.718158
O O10 0.860115 0.332300 0.201002
O O11 0.000000 0.500000 0.500000
O O12 0.000000 0.500000 0.000000
O O13 0.197348 0.608100 0.369860
O O14 0.592154 0.847642 0.492934
O O15 0.673277 0.628715 0.404909
O O16 0.596545 0.905641 0.950118
#
# Coordination Sequence:
#
# PCOD9044945 Si02
#       8
#     2   1   2   2   2   2   2   2
#     4  12  25  43  71 105 145 193 248 301 363 431
#     4  10  24  46  84 108 154 194 250 316 378 462
#     4  10  23  48  69 109 141 189 241 300 375 436
#     4  11  27  49  78 113 151 195 254 311 384 460
#     4  11  26  45  74 104 145 193 240 304 370 439
#     4  11  27  44  71 105 145 195 247 300 360 434
#     4  11  24  46  72 102 146 191 244 301 362 437
#     4  11  25  43  70 102 145 191 240 304 360 436
#
# _framework density 28.486460000000001
#
# number of rings (size 3 to 8) (size 9 to 14) (size 15 to 20)
#    0.000    1.067    1.333    3.600    9.333    1.067 
#    0.000    1.333    0.000    0.000    0.000    0.000 
#    0.000    0.000    0.000    0.000    0.000    0.000 
#
# Total GULP energy -84102.866724 kJ/mol
# GULP energy per Si atom -5606.857782 kJ/mol
# Density = 2.842162 g / cm^3
# Si number density = 28.486460 Si / 1000 Ang^3
#
#
#
# Elastic Constant Matrix: (Units=GPa)
#
#
# Indices 1 2 3 4 5 6 
#
# 1 182.3936 67.3387 32.6181 -0.3135 -20.6519 17.0705
# 2 67.3387 258.3823 94.1424 15.2756 -18.1890 15.6491
# 3 32.6181 94.1424 102.3805 -16.8024 -29.9152 -0.2357
# 4 -0.3135 15.2756 -16.8024 79.3983 -3.7355 8.4428
# 5 -20.6519 -18.1890 -29.9152 -3.7355 45.3000 14.7241
# 6 17.0705 15.6491 -0.2357 8.4428 14.7241 35.4708
#
#
#
# Elastic Compliance Matrix: (Units=1/GPa)
#
#
# Indices 1 2 3 4 5 6 
#
# 1 0.006905 -0.001525 0.000781 0.001231 0.004749 -0.004909
# 2 -0.001525 0.006865 -0.007087 -0.002895 -0.002683 -0.000539
# 3 0.000781 -0.007087 0.021077 0.006917 0.013404 -0.004320
# 4 0.001231 -0.002895 0.006917 0.015593 0.007192 -0.005966
# 5 0.004749 -0.002683 0.013404 0.007192 0.038717 -0.018796
# 6 -0.004909 -0.000539 -0.004320 -0.005966 -0.018796 0.039986
#
#
# Mechanical properties :
#
#
# Convention : Reuss Voigt Hill
#
# Bulk Modulus (GPa) = 52.12462 103.48389 77.80426
# Shear Modulus (GPa) = 33.06870 55.30430 44.18650
#
# Velocity S-wave (km/s) = 3.41083 4.41094 3.94272
# Velocity P-wave (km/s) = 5.81803 7.89608 6.93533
#
# Compressibility (1/GPa) = 0.01918479
#
# Stress axis : x y z
#
# Youngs Moduli (GPa) = 144.81366 145.67068 47.44551
#
# Poissons Ratio (x) = 0.22220 -0.03705
# Poissons Ratio (y) = 0.22090 0.33623
# Poissons Ratio (z) = -0.11309 1.03232
#
# Static dielectric constant tensor:
#      x y z
#    x 2.271570 -0.063160 0.080950 
#    y -0.063160 2.162770 -0.071310 
#    z 0.080950 -0.071310 2.264090 
# 
# From -- ./inp_files/104622.got.cif
#   From: 2010.05.17/outbox.cif.g08.bks.cpg/sg2_53_cif.got.tgz:104622.got - 2010.06.03 11:33:40.
