data_PCOD9044954
_publ_section_title
;
Structure prediction by ZEFSAII (Michael W. Deem and Ramdas Pophale) SiO2 
 PCOD9044954
Probable space group: P -1
;
_chemical_formula_sum "Si O2"
_cell_formula_units_Z 14
_cell_length_a 8.264999
_cell_length_b 20.260710
_cell_length_c 8.358925
_cell_angle_alpha 34.098537
_cell_angle_beta 128.992092
_cell_angle_gamma 131.279617
_cell_volume 578.186092
_symmetry_space_group_name_H-M "P -1"
_symmetry_group_IT_number 2
_symmetry_cell_setting 'triclinic'
loop_
_space_group_symop_operation_xyz
x,y,z
-x,-y,-z
loop_
_atom_site_type_symbol
_atom_site_label
_atom_site_fract_x
_atom_site_fract_y
_atom_site_fract_z
Si Si1 0.496298 0.650341 0.869901
Si Si2 0.898375 0.290621 0.633753
Si Si3 0.360249 0.892424 0.906236
Si Si4 0.229933 0.507271 0.539785
Si Si5 0.959508 0.911938 0.000982
Si Si6 0.729676 0.899298 0.381864
Si Si7 0.543977 0.247754 0.013621
O O1 0.286704 0.645288 0.642342
O O2 0.696908 0.763501 0.697472
O O3 0.584962 0.534550 0.169131
O O4 0.425265 0.692662 0.911607
O O5 0.836792 0.211687 0.917458
O O6 0.132428 0.395805 0.574507
O O7 0.895999 0.181605 0.727129
O O8 0.573958 0.885424 0.155256
O O9 0.361895 0.857053 0.793103
O O10 0.356846 0.027757 0.681746
O O11 0.350011 0.637320 0.270748
O O12 0.000000 0.500000 0.500000
O O13 0.714404 0.821857 0.020462
O O14 0.000000 0.000000 0.000000
O O15 0.036377 0.008186 0.708819
#
# Coordination Sequence:
#
# PCOD9044954 Si02
#       7
#     2   2   2   2   2   2   2
#     4  11  26  45  72 106 132 184 238 286 342 416
#     4  10  23  48  70 100 141 185 225 285 352 404
#     4   9  18  40  69  97 138 185 219 282 349 407
#     4  12  26  50  71  96 143 187 234 289 347 406
#     4  11  22  42  74 103 145 186 220 287 355 407
#     4   9  20  41  67  98 142 181 224 281 353 407
#     4  12  24  42  69 105 139 182 237 282 339 420
#
# _framework density 24.213657000000001
#
# number of rings (size 3 to 8) (size 9 to 14) (size 15 to 20)
#    0.000    1.429    4.286    1.286    0.000    2.286 
#    2.571    0.000    0.000    0.000    0.000    0.000 
#    0.000    0.000    0.000    0.000    0.000    0.000 
#
# Total GULP energy -78223.676972 kJ/mol
# GULP energy per Si atom -5587.405498 kJ/mol
# Density = 2.415855 g / cm^3
# Si number density = 24.213657 Si / 1000 Ang^3
#
#
#
# Elastic Constant Matrix: (Units=GPa)
#
#
# Indices 1 2 3 4 5 6 
#
# 1 92.1446 16.3068 11.0216 -6.4882 -6.5956 -1.1111
# 2 16.3068 73.3964 6.3727 -10.2034 -3.4544 7.1253
# 3 11.0216 6.3727 50.7665 -8.0831 -5.1125 12.0035
# 4 -6.4882 -10.2034 -8.0831 38.6589 11.8899 -1.1019
# 5 -6.5956 -3.4544 -5.1125 11.8899 33.3845 -15.8871
# 6 -1.1111 7.1253 12.0035 -1.1019 -15.8871 60.1095
#
#
#
# Elastic Compliance Matrix: (Units=1/GPa)
#
#
# Indices 1 2 3 4 5 6 
#
# 1 0.011770 -0.002434 -0.002367 0.000135 0.002436 0.001625
# 2 -0.002434 0.014857 -0.000393 0.003774 -0.001300 -0.002002
# 3 -0.002367 -0.000393 0.021915 0.004196 -0.000791 -0.004505
# 4 0.000135 0.003774 0.004196 0.031324 -0.011934 -0.003863
# 5 0.002436 -0.001300 -0.000791 -0.011934 0.039459 0.010567
# 6 0.001625 -0.002002 -0.004505 -0.003863 0.010567 0.020526
#
#
# Mechanical properties :
#
#
# Convention : Reuss Voigt Hill
#
# Bulk Modulus (GPa) = 26.20991 31.52333 28.86662
# Shear Modulus (GPa) = 30.68297 38.60433 34.64365
#
# Velocity S-wave (km/s) = 3.56360 3.99723 3.78663
# Velocity P-wave (km/s) = 5.27070 5.86096 5.57365
#
# Compressibility (1/GPa) = 0.03815350
#
# Stress axis : x y z
#
# Youngs Moduli (GPa) = 84.96288 67.30714 45.63075
#
# Poissons Ratio (x) = 0.16381 0.10802
# Poissons Ratio (y) = 0.20678 0.01795
# Poissons Ratio (z) = 0.20112 0.02648
#
# Static dielectric constant tensor:
#      x y z
#    x 1.996710 -0.039450 0.046140 
#    y -0.039450 1.967990 0.035340 
#    z 0.046140 0.035340 1.931700 
# 
# From -- ./inp_files/199345.got.cif
#   From: 2010.05.17/outbox.cif.g08.bks.cpg/sg2_100_cif.got.tgz:199345.got - 2010.06.03 11:33:40.
