data_PCOD9044394
_publ_section_title
;
Structure prediction by ZEFSAII (Michael W. Deem and Ramdas Pophale) SiO2 
 PCOD9044394
Probable space group: P -1
;
_chemical_formula_sum "Si O2"
_cell_formula_units_Z 14
_cell_length_a 27.623091
_cell_length_b 19.557868
_cell_length_c 11.858524
_cell_angle_alpha 152.877456
_cell_angle_beta 20.258959
_cell_angle_gamma 164.506322
_cell_volume 585.755799
_symmetry_space_group_name_H-M "P -1"
_symmetry_group_IT_number 2
_symmetry_cell_setting 'triclinic'
loop_
_space_group_symop_operation_xyz
x,y,z
-x,-y,-z
loop_
_atom_site_type_symbol
_atom_site_label
_atom_site_fract_x
_atom_site_fract_y
_atom_site_fract_z
Si Si1 0.463002 0.746521 0.713116
Si Si2 0.629799 0.959650 0.420581
Si Si3 0.991689 0.529769 0.413875
Si Si4 0.947850 0.089138 0.158447
Si Si5 0.310308 0.318870 0.541374
Si Si6 0.842254 0.997274 0.789490
Si Si7 0.917856 0.487540 0.044052
O O1 0.597107 0.842586 0.438798
O O2 0.337257 0.487211 0.649183
O O3 0.715223 0.964707 0.547265
O O4 0.269069 0.709415 0.083961
O O5 0.364509 0.794492 0.752232
O O6 0.691458 0.925417 0.121578
O O7 0.828549 0.263990 0.443404
O O8 0.082103 0.365433 0.245558
O O9 0.944515 0.469954 0.296657
O O10 0.039923 0.083258 0.835839
O O11 0.000000 0.000000 0.000000
O O12 0.500000 0.500000 0.500000
O O13 0.320819 0.194300 0.243185
O O14 0.000000 0.000000 0.500000
O O15 0.024317 0.287208 0.775452
O O16 0.000000 0.500000 0.000000
#
# Coordination Sequence:
#
# PCOD9044394 Si02
#       7
#     2   2   2   2   2   2   2
#     4  11  23  46  71 102 143 188 244 293 359 438
#     4  10  23  46  74 101 135 190 240 298 363 419
#     4  10  24  44  71 102 138 186 247 296 353 440
#     4  12  26  44  67 101 146 193 229 291 371 427
#     4  12  27  44  68 111 150 186 241 300 362 432
#     4  11  24  45  72 104 144 188 245 295 351 439
#     4  10  24  42  70 102 136 183 240 302 359 422
#
# _framework density 23.900745000000001
#
# number of rings (size 3 to 8) (size 9 to 14) (size 15 to 20)
#    0.000    1.143    1.429    4.714    2.000   12.571 
#    0.000    0.000    0.000    0.000    0.000    0.000 
#    0.000    0.000    0.000    0.000    0.000    0.000 
#
# Total GULP energy -77937.677592 kJ/mol
# GULP energy per Si atom -5566.976971 kJ/mol
# Density = 2.384635 g / cm^3
# Si number density = 23.900745 Si / 1000 Ang^3
#
#
#
# Elastic Constant Matrix: (Units=GPa)
#
#
# Indices 1 2 3 4 5 6 
#
# 1 68.5637 43.8835 36.7437 11.9119 29.8626 -26.3205
# 2 43.8835 93.8730 39.2644 -4.3170 11.0561 -23.3515
# 3 36.7437 39.2644 116.7407 -1.0668 26.8354 -13.6948
# 4 11.9119 -4.3170 -1.0668 44.9281 -3.5470 7.0282
# 5 29.8626 11.0561 26.8354 -3.5470 46.9605 -2.1177
# 6 -26.3205 -23.3515 -13.6948 7.0282 -2.1177 46.4533
#
#
#
# Elastic Compliance Matrix: (Units=1/GPa)
#
#
# Indices 1 2 3 4 5 6 
#
# 1 0.047373 -0.013918 -0.001902 -0.019303 -0.026272 0.021007
# 2 -0.013918 0.017851 -0.003210 0.005944 0.006911 -0.000443
# 3 -0.001902 -0.003210 0.011327 0.000042 -0.004484 0.000437
# 4 -0.019303 0.005944 0.000042 0.030826 0.012637 -0.012024
# 5 -0.026272 0.006911 -0.004484 0.012637 0.039311 -0.012853
# 6 0.021007 -0.000443 0.000437 -0.012024 -0.012853 0.034569
#
#
# Mechanical properties :
#
#
# Convention : Reuss Voigt Hill
#
# Bulk Modulus (GPa) = 25.98019 57.66228 41.82124
# Shear Modulus (GPa) = 21.53812 38.28744 29.91278
#
# Velocity S-wave (km/s) = 3.00517 4.00676 3.54155
# Velocity P-wave (km/s) = 4.78905 6.75156 5.85315
#
# Compressibility (1/GPa) = 0.03849087
#
# Stress axis : x y z
#
# Youngs Moduli (GPa) = 21.10917 56.02040 88.28685
#
# Poissons Ratio (x) = 0.77969 0.16794
# Poissons Ratio (y) = 0.29380 0.28336
# Poissons Ratio (z) = 0.04015 0.17980
#
# Static dielectric constant tensor:
#      x y z
#    x 1.839940 -0.098190 0.073580 
#    y -0.098190 1.933950 0.025710 
#    z 0.073580 0.025710 1.824860 
# 
# From -- ./inp_files/476958.got.cif
#   From: 2010.05.17/outbox.cif.g08.bks.cpg/sg2_239_cif.got.tgz:476958.got - 2010.06.03 11:33:40.
