data_PCOD9044070
_publ_section_title
;
Structure prediction by ZEFSAII (Michael W. Deem and Ramdas Pophale) SiO2 
 PCOD9044070
Probable space group: P -1
;
_chemical_formula_sum "Si O2"
_cell_formula_units_Z 12
_cell_length_a 7.557119
_cell_length_b 11.422271
_cell_length_c 6.986526
_cell_angle_alpha 107.258350
_cell_angle_beta 57.197677
_cell_angle_gamma 113.743310
_cell_volume 461.579597
_symmetry_space_group_name_H-M "P -1"
_symmetry_group_IT_number 2
_symmetry_cell_setting 'triclinic'
loop_
_space_group_symop_operation_xyz
x,y,z
-x,-y,-z
loop_
_atom_site_type_symbol
_atom_site_label
_atom_site_fract_x
_atom_site_fract_y
_atom_site_fract_z
Si Si1 0.765002 0.297611 0.095972
Si Si2 0.445238 0.220800 0.729729
Si Si3 0.287611 0.254708 0.263277
Si Si4 0.216979 0.522589 0.512736
Si Si5 0.184167 0.850961 0.346567
Si Si6 0.021727 0.902843 0.101152
O O1 0.502505 0.231219 0.221188
O O2 0.819778 0.434339 0.229857
O O3 0.888960 0.209880 0.090731
O O4 0.834694 0.281546 0.828092
O O5 0.599268 0.351840 0.615995
O O6 0.597636 0.130278 0.648543
O O7 0.181965 0.943518 0.211980
O O8 0.226883 0.156075 0.703709
O O9 0.298084 0.398770 0.388243
O O10 0.038687 0.171278 0.416418
O O11 0.342232 0.249415 0.004547
O O12 0.000000 0.500000 0.500000
O O13 0.000000 0.000000 0.000000
#
# Coordination Sequence:
#
# PCOD9044070 Si02
#       6
#     2   2   2   2   2   2
#     4   9  23  40  61  94 128 162 220 260 306 381
#     4  11  23  42  65  95 134 162 218 260 302 393
#     4  11  21  42  63  96 137 169 203 258 318 379
#     4  12  22  38  66  95 131 176 206 247 322 379
#     4   9  22  41  64  93 131 161 216 263 312 373
#     4  10  23  46  69  89 125 169 215 270 325 363
#
# _framework density 25.997682999999999
#
# number of rings (size 3 to 8) (size 9 to 14) (size 15 to 20)
#    1.000    0.667    1.667    3.000    0.000    1.333 
#    0.000    4.167    0.000    0.000    0.000    0.000 
#    0.000    0.000    0.000    0.000    0.000    0.000 
#
# Total GULP energy -67115.462568 kJ/mol
# GULP energy per Si atom -5592.955214 kJ/mol
# Density = 2.593851 g / cm^3
# Si number density = 25.997683 Si / 1000 Ang^3
#
#
#
# Elastic Constant Matrix: (Units=GPa)
#
#
# Indices 1 2 3 4 5 6 
#
# 1 152.3825 27.9961 30.2684 5.7802 -51.4404 -11.9786
# 2 27.9961 68.8256 14.3034 4.2833 -19.1364 -2.9752
# 3 30.2684 14.3034 145.4102 -0.6270 -15.4939 1.0242
# 4 5.7802 4.2833 -0.6270 29.8691 3.6422 2.2533
# 5 -51.4404 -19.1364 -15.4939 3.6422 54.5445 9.0676
# 6 -11.9786 -2.9752 1.0242 2.2533 9.0676 43.8610
#
#
#
# Elastic Compliance Matrix: (Units=1/GPa)
#
#
# Indices 1 2 3 4 5 6 
#
# 1 0.010205 -0.001217 -0.001074 -0.002989 0.008919 0.001039
# 2 -0.001217 0.016669 -0.000905 -0.002738 0.004625 0.000004
# 3 -0.001074 -0.000905 0.007285 0.000444 0.000828 -0.000719
# 4 -0.002989 -0.002738 0.000444 0.035283 -0.005737 -0.001639
# 5 0.008919 0.004625 0.000828 -0.005737 0.029497 -0.003073
# 6 0.001039 0.000004 -0.000719 -0.001639 -0.003073 0.023820
#
#
# Mechanical properties :
#
#
# Convention : Reuss Voigt Hill
#
# Bulk Modulus (GPa) = 36.01520 56.86157 46.43838
# Shear Modulus (GPa) = 36.12480 45.25827 40.69153
#
# Velocity S-wave (km/s) = 3.73170 4.17689 3.96055
# Velocity P-wave (km/s) = 5.69655 6.72169 6.23024
#
# Compressibility (1/GPa) = 0.02776606
#
# Stress axis : x y z
#
# Youngs Moduli (GPa) = 97.98682 59.99035 137.26737
#
# Poissons Ratio (x) = 0.07301 0.14749
# Poissons Ratio (y) = 0.11926 0.12427
# Poissons Ratio (z) = 0.10528 0.05431
#
# Static dielectric constant tensor:
#      x y z
#    x 2.065880 0.029020 0.049450 
#    y 0.029020 2.076070 0.004470 
#    z 0.049450 0.004470 2.050140 
# 
# From -- ./inp_files/197357.got.cif
#   From: 2010.05.17/outbox.cif.g08.bks.cpg/sg2_99_cif.got.tgz:197357.got - 2010.06.03 11:33:40.
