data_PCOD9044598
_publ_section_title
;
Structure prediction by ZEFSAII (Michael W. Deem and Ramdas Pophale) SiO2 
 PCOD9044598
Probable space group: P -1
;
_chemical_formula_sum "Si O2"
_cell_formula_units_Z 14
_cell_length_a 10.803886
_cell_length_b 8.948917
_cell_length_c 7.769841
_cell_angle_alpha 57.071825
_cell_angle_beta 103.484831
_cell_angle_gamma 84.958411
_cell_volume 591.569390
_symmetry_space_group_name_H-M "P -1"
_symmetry_group_IT_number 2
_symmetry_cell_setting 'triclinic'
loop_
_space_group_symop_operation_xyz
x,y,z
-x,-y,-z
loop_
_atom_site_type_symbol
_atom_site_label
_atom_site_fract_x
_atom_site_fract_y
_atom_site_fract_z
Si Si1 0.473404 0.536118 0.763776
Si Si2 0.713965 0.684356 0.053112
Si Si3 0.122143 0.823844 0.172208
Si Si4 0.847831 0.998057 0.435711
Si Si5 0.067011 0.289386 0.632803
Si Si6 0.662544 0.058942 0.660455
Si Si7 0.238694 0.619555 0.032366
O O1 0.431053 0.750431 0.562435
O O2 0.617493 0.446622 0.791680
O O3 0.500000 0.500000 0.000000
O O4 0.362568 0.423869 0.774957
O O5 0.769282 0.540729 0.004730
O O6 0.621177 0.878291 0.826581
O O7 0.830726 0.741703 0.155180
O O8 0.258736 0.872464 0.203942
O O9 0.132556 0.677209 0.114754
O O10 0.073176 0.764507 0.372584
O O11 0.000000 0.000000 0.000000
O O12 0.770236 0.984435 0.592607
O O13 0.853025 0.819753 0.430765
O O14 0.776668 0.189452 0.196525
O O15 0.000000 0.000000 0.500000
O O16 0.000000 0.500000 0.500000
#
# Coordination Sequence:
#
# PCOD9044598 Si02
#       7
#     2   2   2   2   2   2   2
#     4  10  23  47  68  93 139 176 228 275 334 393
#     4  11  24  43  69 102 130 176 231 274 328 401
#     4  12  23  44  65  97 137 171 218 278 340 396
#     4  12  22  42  68  98 134 183 214 273 350 390
#     4  12  25  41  65 101 140 173 224 278 334 404
#     4  12  23  43  71  99 134 178 225 277 333 396
#     4  11  24  45  68  93 135 180 219 278 337 395
#
# _framework density 23.665866000000001
#
# number of rings (size 3 to 8) (size 9 to 14) (size 15 to 20)
#    0.000    0.571    7.143    1.714    2.000    3.429 
#    0.000    2.857    0.000    0.000    0.000    0.000 
#    0.000    0.000    0.000    0.000    0.000    0.000 
#
# Total GULP energy -78016.845302 kJ/mol
# GULP energy per Si atom -5572.631807 kJ/mol
# Density = 2.361200 g / cm^3
# Si number density = 23.665866 Si / 1000 Ang^3
#
#
#
# Elastic Constant Matrix: (Units=GPa)
#
#
# Indices 1 2 3 4 5 6 
#
# 1 56.7072 28.3971 7.0604 -3.0812 15.3273 -9.2926
# 2 28.3971 163.4849 41.1276 -13.9365 9.2007 -17.0743
# 3 7.0604 41.1276 103.3069 -42.1391 17.5815 -2.2491
# 4 -3.0812 -13.9365 -42.1391 46.9110 -2.7232 1.7363
# 5 15.3273 9.2007 17.5815 -2.7232 30.4688 -0.8618
# 6 -9.2926 -17.0743 -2.2491 1.7363 -0.8618 36.4188
#
#
#
# Elastic Compliance Matrix: (Units=1/GPa)
#
#
# Indices 1 2 3 4 5 6 
#
# 1 0.022973 -0.003415 0.002760 0.002138 -0.011813 0.004050
# 2 -0.003415 0.007677 -0.003417 -0.001031 0.001353 0.002598
# 3 0.002760 -0.003417 0.018865 0.015566 -0.009871 -0.000708
# 4 0.002138 -0.001031 0.015566 0.034776 -0.006661 -0.000792
# 5 -0.011813 0.001353 -0.009871 -0.006661 0.043409 -0.001645
# 6 0.004050 0.002598 -0.000708 -0.000792 -0.001645 0.029665
#
#
# Mechanical properties :
#
#
# Convention : Reuss Voigt Hill
#
# Bulk Modulus (GPa) = 24.17058 52.96322 38.56690
# Shear Modulus (GPa) = 27.88630 39.22065 33.55347
#
# Velocity S-wave (km/s) = 3.43641 4.07537 3.76945
# Velocity P-wave (km/s) = 5.09712 6.67630 5.93943
#
# Compressibility (1/GPa) = 0.04137260
#
# Stress axis : x y z
#
# Youngs Moduli (GPa) = 43.52844 130.26202 53.00710
#
# Poissons Ratio (x) = 0.44481 -0.14630
# Poissons Ratio (y) = 0.14864 0.18112
# Poissons Ratio (z) = -0.12014 0.44509
#
# Static dielectric constant tensor:
#      x y z
#    x 1.938360 -0.201720 0.126330 
#    y -0.201720 -0.164100 1.621090 
#    z 0.126330 1.621090 0.772480 
# 
# From -- ./inp_files/177331.got.cif
#   From: 2010.05.17/outbox.cif.g08.bks.cpg/sg2_89_cif.got.tgz:177331.got - 2010.06.03 11:33:40.
