data_PCOD9044277
_publ_section_title
;
Structure prediction by ZEFSAII (Michael W. Deem and Ramdas Pophale) SiO2 
 PCOD9044277
Probable space group: P -1
;
_chemical_formula_sum "Si O2"
_cell_formula_units_Z 16
_cell_length_a 14.809372
_cell_length_b 6.271130
_cell_length_c 13.882873
_cell_angle_alpha 84.440914
_cell_angle_beta 141.807772
_cell_angle_gamma 71.574157
_cell_volume 611.414762
_symmetry_space_group_name_H-M "P -1"
_symmetry_group_IT_number 2
_symmetry_cell_setting 'triclinic'
loop_
_space_group_symop_operation_xyz
x,y,z
-x,-y,-z
loop_
_atom_site_type_symbol
_atom_site_label
_atom_site_fract_x
_atom_site_fract_y
_atom_site_fract_z
Si Si1 0.819404 0.437759 0.369051
Si Si2 0.936733 0.530023 0.795317
Si Si3 0.543304 0.667467 0.412967
Si Si4 0.351592 0.561858 0.952448
Si Si5 0.428392 0.028199 0.742779
Si Si6 0.902518 0.852699 0.225357
Si Si7 0.139848 0.061588 0.141706
Si Si8 0.233340 0.846990 0.498771
O O1 0.819465 0.370290 0.261505
O O2 0.979885 0.711974 0.402164
O O3 0.744973 0.303716 0.375026
O O4 0.672305 0.761192 0.261018
O O5 0.734693 0.590600 0.623247
O O6 0.893457 0.807385 0.786420
O O7 0.050408 0.378072 0.798969
O O8 0.077950 0.298188 0.002693
O O9 0.361064 0.810064 0.320285
O O10 0.605061 0.388920 0.426713
O O11 0.495990 0.872748 0.275594
O O12 0.290684 0.837638 0.941920
O O13 0.500000 0.500000 0.000000
O O14 0.428987 0.290607 0.090487
O O15 0.263201 0.061238 0.543019
O O16 0.040061 0.916111 0.301435
O O17 0.000000 0.000000 0.000000
#
# Coordination Sequence:
#
# PCOD9044277 Si02
#       8
#     2   2   2   2   2   2   2   2
#     4   9  20  41  60  93 135 182 238 286 341 418
#     4  10  23  48  71 106 145 184 240 289 363 441
#     4  10  23  46  72 103 149 187 236 294 359 435
#     4  12  22  38  66  99 142 183 241 302 349 409
#     4  11  21  39  67 101 134 191 239 287 360 418
#     4   9  21  43  66  93 143 189 229 295 356 428
#     4  11  26  45  75 113 142 176 237 300 360 438
#     4   8  19  38  63  92 132 182 238 279 347 421
#
# _framework density 26.168814999999999
#
# number of rings (size 3 to 8) (size 9 to 14) (size 15 to 20)
#    0.750    1.250    2.500    1.125    1.750    4.500 
#    2.250    3.750    0.000    0.000    0.000    0.000 
#    0.000    0.000    0.000    0.000    0.000    0.000 
#
# Total GULP energy -89490.822595 kJ/mol
# GULP energy per Si atom -5593.176412 kJ/mol
# Density = 2.610925 g / cm^3
# Si number density = 26.168815 Si / 1000 Ang^3
#
#
#
# Elastic Constant Matrix: (Units=GPa)
#
#
# Indices 1 2 3 4 5 6 
#
# 1 90.8477 41.4009 29.4527 -8.2549 8.5746 -11.7086
# 2 41.4009 152.5308 36.4707 -5.3476 11.0466 -31.0037
# 3 29.4527 36.4707 101.1898 -8.9592 0.4452 -13.3297
# 4 -8.2549 -5.3476 -8.9592 61.1715 1.3651 -3.7817
# 5 8.5746 11.0466 0.4452 1.3651 46.0172 -2.5364
# 6 -11.7086 -31.0037 -13.3297 -3.7817 -2.5364 33.2248
#
#
#
# Elastic Compliance Matrix: (Units=1/GPa)
#
#
# Indices 1 2 3 4 5 6 
#
# 1 0.013522 -0.002582 -0.002712 0.001322 -0.001842 0.001277
# 2 -0.002582 0.009175 -0.001567 0.000687 -0.001341 0.006999
# 3 -0.002712 -0.001567 0.011679 0.001342 0.000866 0.002487
# 4 0.001322 0.000687 0.001342 0.017017 -0.000735 0.003526
# 5 -0.001842 -0.001341 0.000866 -0.000735 0.022414 0.000074
# 6 0.001277 0.006999 0.002487 0.003526 0.000074 0.038484
#
#
# Mechanical properties :
#
#
# Convention : Reuss Voigt Hill
#
# Bulk Modulus (GPa) = 48.41436 62.13520 55.27478
# Shear Modulus (GPa) = 37.62293 43.89895 40.76094
#
# Velocity S-wave (km/s) = 3.79582 4.10021 3.95094
# Velocity P-wave (km/s) = 6.14426 6.79788 6.47932
#
# Compressibility (1/GPa) = 0.02065503
#
# Stress axis : x y z
#
# Youngs Moduli (GPa) = 73.95335 108.98627 85.62439
#
# Poissons Ratio (x) = 0.28146 0.23218
# Poissons Ratio (y) = 0.19098 0.13414
# Poissons Ratio (z) = 0.20053 0.17074
#
# Static dielectric constant tensor:
#      x y z
#    x 2.041920 0.048160 -0.015640 
#    y 0.048160 2.044560 0.013610 
#    z -0.015640 0.013610 2.194800 
# 
# From -- ./inp_files/525787.got.cif
#   From: 2010.05.17/outbox.cif.g08.bks.cpg/sg2_263_cif.got.tgz:525787.got - 2010.06.03 11:33:40.
