data_PCOD9044828
_publ_section_title
;
Structure prediction by ZEFSAII (Michael W. Deem and Ramdas Pophale) SiO2 
 PCOD9044828
Probable space group: P -1
;
_chemical_formula_sum "Si O2"
_cell_formula_units_Z 16
_cell_length_a 11.684150
_cell_length_b 15.660385
_cell_length_c 5.294792
_cell_angle_alpha 101.644770
_cell_angle_beta 54.972003
_cell_angle_gamma 119.059940
_cell_volume 689.456895
_symmetry_space_group_name_H-M "P -1"
_symmetry_group_IT_number 2
_symmetry_cell_setting 'triclinic'
loop_
_space_group_symop_operation_xyz
x,y,z
-x,-y,-z
loop_
_atom_site_type_symbol
_atom_site_label
_atom_site_fract_x
_atom_site_fract_y
_atom_site_fract_z
Si Si1 0.678893 0.451241 0.594159
Si Si2 0.567503 0.609406 0.749365
Si Si3 0.428089 0.115839 0.592995
Si Si4 0.946020 0.235937 0.276244
Si Si5 0.278512 0.258347 0.861189
Si Si6 0.277330 0.722090 0.795215
Si Si7 0.997995 0.414341 0.614730
Si Si8 0.370112 0.923804 0.304225
O O1 0.593860 0.513140 0.632864
O O2 0.662094 0.346140 0.470816
O O3 0.859069 0.527501 0.344770
O O4 0.614135 0.431945 0.954731
O O5 0.628911 0.676098 0.461694
O O6 0.662157 0.675867 0.916425
O O7 0.318552 0.167572 0.786809
O O8 0.567580 0.181851 0.259232
O O9 0.538716 0.127551 0.699538
O O10 0.345984 0.000829 0.567578
O O11 0.844394 0.250729 0.188348
O O12 0.808094 0.155579 0.579755
O O13 0.034765 0.340824 0.360386
O O14 0.091541 0.215276 0.019465
O O15 0.172080 0.652877 0.105041
O O16 0.000000 0.500000 0.500000
O O17 0.500000 0.000000 0.000000
#
# Coordination Sequence:
#
# PCOD9044828 Si02
#       8
#     2   2   2   2   2   2   2   2
#     4  11  23  41  61  97 136 193 240 286 341 403
#     4  11  27  43  67  99 145 191 239 287 343 418
#     4  10  24  44  72  99 133 177 233 282 362 413
#     4  11  25  43  66 101 139 179 232 288 355 408
#     4  12  26  47  70 102 144 187 231 289 356 419
#     4  11  23  42  65  97 138 185 236 289 340 414
#     4  12  24  35  62  96 134 183 234 286 339 403
#     4  10  23  47  75 102 130 173 232 295 350 425
#
# _framework density 23.206669999999999
#
# number of rings (size 3 to 8) (size 9 to 14) (size 15 to 20)
#    0.000    1.000    3.750    1.875    5.250    2.500 
#    0.000    0.625    0.000    0.000    0.000    0.000 
#    0.000    0.000    0.000    0.000    0.000    0.000 
#
# Total GULP energy -89287.481064 kJ/mol
# GULP energy per Si atom -5580.467567 kJ/mol
# Density = 2.315385 g / cm^3
# Si number density = 23.206670 Si / 1000 Ang^3
#
#
#
# Elastic Constant Matrix: (Units=GPa)
#
#
# Indices 1 2 3 4 5 6 
#
# 1 98.2985 56.5768 41.0598 10.2107 -16.9158 -26.2046
# 2 56.5768 127.3617 28.9819 2.6717 -14.2865 -18.1535
# 3 41.0598 28.9819 96.3433 -15.1407 -10.5134 -23.6459
# 4 10.2107 2.6717 -15.1407 38.4057 -1.0671 -8.1520
# 5 -16.9158 -14.2865 -10.5134 -1.0671 38.0707 8.8260
# 6 -26.2046 -18.1535 -23.6459 -8.1520 8.8260 46.0900
#
#
#
# Elastic Compliance Matrix: (Units=1/GPa)
#
#
# Indices 1 2 3 4 5 6 
#
# 1 0.017857 -0.005681 -0.005615 -0.005756 0.003306 0.003383
# 2 -0.005681 0.010679 -0.000357 0.000810 0.001246 0.000698
# 3 -0.005615 -0.000357 0.015943 0.009168 0.000556 0.006361
# 4 -0.005756 0.000810 0.009168 0.032734 -0.000578 0.007650
# 5 0.003306 0.001246 0.000556 -0.000578 0.029038 -0.003007
# 6 0.003383 0.000698 0.006361 0.007650 -0.003007 0.029088
#
#
# Mechanical properties :
#
#
# Convention : Reuss Voigt Hill
#
# Bulk Modulus (GPa) = 47.22968 63.91559 55.57264
# Shear Modulus (GPa) = 30.17493 37.53895 33.85694
#
# Velocity S-wave (km/s) = 3.60984 4.02629 3.82374
# Velocity P-wave (km/s) = 6.14577 7.01544 6.59496
#
# Compressibility (1/GPa) = 0.02117313
#
# Stress axis : x y z
#
# Youngs Moduli (GPa) = 56.00093 93.64515 62.72480
#
# Poissons Ratio (x) = 0.53199 0.35218
# Poissons Ratio (y) = 0.31813 0.02238
# Poissons Ratio (z) = 0.31443 0.03342
#
# Static dielectric constant tensor:
#      x y z
#    x 1.948070 0.042390 0.023040 
#    y 0.042390 1.902120 -0.001270 
#    z 0.023040 -0.001270 2.041500 
# 
# From -- ./inp_files/56864.got.cif
#   From: 2010.05.17/outbox.cif.g08.bks.cpg/sg2_29_cif.got.tgz:56864.got - 2010.06.03 11:33:40.
