data_PCOD9044403
_publ_section_title
;
Structure prediction by ZEFSAII (Michael W. Deem and Ramdas Pophale) SiO2 
 PCOD9044403
Probable space group: P -1
;
_chemical_formula_sum "Si O2"
_cell_formula_units_Z 14
_cell_length_a 5.463623
_cell_length_b 15.328816
_cell_length_c 24.844884
_cell_angle_alpha 18.410894
_cell_angle_beta 65.946409
_cell_angle_gamma 64.533711
_cell_volume 593.319438
_symmetry_space_group_name_H-M "P -1"
_symmetry_group_IT_number 2
_symmetry_cell_setting 'triclinic'
loop_
_space_group_symop_operation_xyz
x,y,z
-x,-y,-z
loop_
_atom_site_type_symbol
_atom_site_label
_atom_site_fract_x
_atom_site_fract_y
_atom_site_fract_z
Si Si1 0.513060 0.130736 0.363439
Si Si2 0.978444 0.213034 0.200666
Si Si3 0.482794 0.814914 0.056661
Si Si4 0.345678 0.796291 0.481409
Si Si5 0.075021 0.675181 0.441593
Si Si6 0.973380 0.509708 0.757077
Si Si7 0.458098 0.295443 0.693055
O O1 0.235759 0.344050 0.265669
O O2 0.757206 0.269067 0.235724
O O3 0.500000 0.000000 0.500000
O O4 0.498596 0.885695 0.466465
O O5 0.246188 0.053678 0.300072
O O6 0.920585 0.966640 0.307976
O O7 0.000000 0.500000 0.000000
O O8 0.207073 0.686640 0.144988
O O9 0.757882 0.602618 0.166669
O O10 0.500000 0.000000 0.000000
O O11 0.490865 0.017214 0.886925
O O12 0.521234 0.542180 0.582999
O O13 0.081592 0.697508 0.590795
O O14 0.158761 0.439944 0.617280
O O15 0.359290 0.758565 0.344547
O O16 0.000000 0.500000 0.500000
#
# Coordination Sequence:
#
# PCOD9044403 Si02
#       7
#     2   2   2   2   2   2   2
#     4  12  26  46  76 107 150 204 258 312 387 468
#     4  11  27  47  74 109 153 200 261 319 390 457
#     4  12  27  45  73 114 157 194 255 326 387 461
#     4  11  24  47  74 106 153 198 256 316 389 464
#     4  10  23  46  74 102 145 203 261 317 388 464
#     4  12  27  44  75 113 155 201 249 313 392 457
#     4  10  24  43  71 104 148 197 257 313 394 450
#
# _framework density 23.596059
#
# number of rings (size 3 to 8) (size 9 to 14) (size 15 to 20)
#    0.000    0.857    2.857    2.571    6.000    1.714 
#    0.000    0.000    0.000    0.000    0.000    0.000 
#    0.000    0.000    0.000    0.000    0.000    0.000 
#
# Total GULP energy -78110.160875 kJ/mol
# GULP energy per Si atom -5579.297205 kJ/mol
# Density = 2.354235 g / cm^3
# Si number density = 23.596059 Si / 1000 Ang^3
#
#
#
# Elastic Constant Matrix: (Units=GPa)
#
#
# Indices 1 2 3 4 5 6 
#
# 1 78.5538 21.5744 59.8635 12.6181 4.1211 11.1959
# 2 21.5744 141.5684 39.1887 9.5855 -6.1457 -7.8825
# 3 59.8635 39.1887 153.5246 28.8750 23.8413 1.6496
# 4 12.6181 9.5855 28.8750 37.8678 6.7878 -2.0712
# 5 4.1211 -6.1457 23.8413 6.7878 27.8889 -0.2404
# 6 11.1959 -7.8825 1.6496 -2.0712 -0.2404 56.9592
#
#
#
# Elastic Compliance Matrix: (Units=1/GPa)
#
#
# Indices 1 2 3 4 5 6 
#
# 1 0.019297 -0.000784 -0.007628 -0.001296 0.003780 -0.003712
# 2 -0.000784 0.008109 -0.002271 -0.000709 0.004028 0.001333
# 3 -0.007628 -0.002271 0.012295 -0.004657 -0.008745 0.000623
# 4 -0.001296 -0.000709 -0.004657 0.031290 -0.003587 0.001414
# 5 0.003780 0.004028 -0.008745 -0.003587 0.044535 0.000125
# 6 -0.003712 0.001333 0.000623 0.001414 0.000125 0.018504
#
#
# Mechanical properties :
#
#
# Convention : Reuss Voigt Hill
#
# Bulk Modulus (GPa) = 54.53804 68.32222 61.43013
# Shear Modulus (GPa) = 30.95825 41.41118 36.18472
#
# Velocity S-wave (km/s) = 3.62610 4.19382 3.92025
# Velocity P-wave (km/s) = 6.37925 7.24352 6.82508
#
# Compressibility (1/GPa) = 0.01833583
#
# Stress axis : x y z
#
# Youngs Moduli (GPa) = 51.82080 123.32186 81.33620
#
# Poissons Ratio (x) = 0.09671 0.62041
# Poissons Ratio (y) = 0.04064 0.18468
# Poissons Ratio (z) = 0.39528 0.28001
#
# Static dielectric constant tensor:
#      x y z
#    x 2.180190 -0.005370 -0.020620 
#    y -0.005370 1.951920 -0.072300 
#    z -0.020620 -0.072300 1.960790 
# 
# From -- ./inp_files/604602.got.cif
#   From: 2010.05.17/outbox.cif.g08.bks.cpg/sg2_303_cif.got.tgz:604602.got - 2010.06.03 11:33:40.
