data_PCOD9044356
_publ_section_title
;
Structure prediction by ZEFSAII (Michael W. Deem and Ramdas Pophale) SiO2 
 PCOD9044356
Probable space group: P -1
;
_chemical_formula_sum "Si O2"
_cell_formula_units_Z 16
_cell_length_a 18.316264
_cell_length_b 7.485716
_cell_length_c 20.619798
_cell_angle_alpha 136.811280
_cell_angle_beta 160.040761
_cell_angle_gamma 37.495430
_cell_volume 585.545653
_symmetry_space_group_name_H-M "P -1"
_symmetry_group_IT_number 2
_symmetry_cell_setting 'triclinic'
loop_
_space_group_symop_operation_xyz
x,y,z
-x,-y,-z
loop_
_atom_site_type_symbol
_atom_site_label
_atom_site_fract_x
_atom_site_fract_y
_atom_site_fract_z
Si Si1 0.772656 0.458150 0.526341
Si Si2 0.785583 0.868744 0.193126
Si Si3 0.723973 0.178636 0.739048
Si Si4 0.664710 0.763494 0.381921
Si Si5 0.893822 0.107817 0.723905
Si Si6 0.195311 0.230783 0.178634
Si Si7 0.391570 0.839196 0.017709
Si Si8 0.117257 0.177770 0.578140
O O1 0.547324 0.566326 0.412262
O O2 0.669613 0.580986 0.403005
O O3 0.921216 0.096036 0.552282
O O4 0.018130 0.477434 0.748732
O O5 0.743401 0.980490 0.110175
O O6 0.834133 0.853447 0.312452
O O7 0.500000 0.000000 0.000000
O O8 0.759203 0.082391 0.668905
O O9 0.747644 0.940439 0.750101
O O10 0.929636 0.276199 0.950050
O O11 0.861321 0.466678 0.428298
O O12 0.815534 0.944861 0.561539
O O13 0.390815 0.027723 0.234141
O O14 0.815463 0.451294 0.740801
O O15 0.182408 0.929193 0.919639
O O16 0.500000 0.500000 0.000000
O O17 0.621518 0.875939 0.244568
#
# Coordination Sequence:
#
# PCOD9044356 Si02
#       8
#     2   2   2   2   2   2   2   2
#     4   9  22  43  74 105 147 193 248 316 375 445
#     4  10  25  44  76 110 141 196 249 307 386 454
#     4  10  23  49  74 106 147 203 252 309 380 445
#     4  11  22  42  70 107 147 196 242 314 383 447
#     4  12  26  44  73 105 155 192 251 317 371 462
#     4  10  24  45  72 109 142 201 260 301 376 459
#     4  12  26  46  69 110 149 193 251 307 386 450
#     4  10  23  46  73 105 156 190 251 319 375 452
#
# _framework density 27.324940999999999
#
# number of rings (size 3 to 8) (size 9 to 14) (size 15 to 20)
#    0.750    0.750    1.250    2.625    1.750    6.500 
#    2.250    0.000    0.000    0.000    0.000    0.000 
#    0.000    0.000    0.000    0.000    0.000    0.000 
#
# Total GULP energy -89188.017433 kJ/mol
# GULP energy per Si atom -5574.251090 kJ/mol
# Density = 2.726275 g / cm^3
# Si number density = 27.324941 Si / 1000 Ang^3
#
#
#
# Elastic Constant Matrix: (Units=GPa)
#
#
# Indices 1 2 3 4 5 6 
#
# 1 64.4104 3.1107 14.1617 -25.6383 32.7690 -16.3538
# 2 3.1107 156.7881 39.7203 -34.5803 8.9926 -6.7288
# 3 14.1617 39.7203 145.4246 -31.1902 39.3068 -15.0946
# 4 -25.6383 -34.5803 -31.1902 52.9704 -15.0920 17.2885
# 5 32.7690 8.9926 39.3068 -15.0920 70.0924 -18.9589
# 6 -16.3538 -6.7288 -15.0946 17.2885 -18.9589 28.2032
#
#
#
# Elastic Compliance Matrix: (Units=1/GPa)
#
#
# Indices 1 2 3 4 5 6 
#
# 1 0.025274 0.002057 0.002446 0.011213 -0.010322 0.002643
# 2 0.002057 0.007866 -0.001124 0.005791 -0.000472 -0.001399
# 3 0.002446 -0.001124 0.009324 0.004486 -0.005311 -0.000179
# 4 0.011213 0.005791 0.004486 0.033812 -0.004944 -0.013766
# 5 -0.010322 -0.000472 -0.005311 -0.004944 0.023795 0.010086
# 6 0.002643 -0.001399 -0.000179 -0.013766 0.010086 0.051778
#
#
# Mechanical properties :
#
#
# Convention : Reuss Voigt Hill
#
# Bulk Modulus (GPa) = 20.31584 53.40094 36.85839
# Shear Modulus (GPa) = 30.95998 50.89524 40.92761
#
# Velocity S-wave (km/s) = 3.36970 4.32046 3.87436
# Velocity P-wave (km/s) = 4.75299 6.66887 5.79071
#
# Compressibility (1/GPa) = 0.04922268
#
# Stress axis : x y z
#
# Youngs Moduli (GPa) = 39.56623 127.12286 107.24702
#
# Poissons Ratio (x) = -0.26154 -0.26234
# Poissons Ratio (y) = -0.08140 0.12060
# Poissons Ratio (z) = -0.09678 0.14295
#
# Static dielectric constant tensor:
#      x y z
#    x 2.313020 -0.046450 -0.009990 
#    y -0.046450 2.224720 0.016080 
#    z -0.009990 0.016080 2.207750 
# 
# From -- ./inp_files/613612.got.cif
#   From: 2010.05.17/outbox.cif.g08.bks.cpg/sg2_307_cif.got.tgz:613612.got - 2010.06.03 11:33:40.
