data_PCOD9044371
_publ_section_title
;
Structure prediction by ZEFSAII (Michael W. Deem and Ramdas Pophale) SiO2 
 PCOD9044371
Probable space group: P -1
;
_chemical_formula_sum "Si O2"
_cell_formula_units_Z 14
_cell_length_a 6.862471
_cell_length_b 10.758574
_cell_length_c 8.445303
_cell_angle_alpha 91.645362
_cell_angle_beta 70.332745
_cell_angle_gamma 99.966970
_cell_volume 577.991097
_symmetry_space_group_name_H-M "P -1"
_symmetry_group_IT_number 2
_symmetry_cell_setting 'triclinic'
loop_
_space_group_symop_operation_xyz
x,y,z
-x,-y,-z
loop_
_atom_site_type_symbol
_atom_site_label
_atom_site_fract_x
_atom_site_fract_y
_atom_site_fract_z
Si Si1 0.234659 0.976931 0.917773
Si Si2 0.145195 0.233521 0.309395
Si Si3 0.526703 0.751358 0.247094
Si Si4 0.722699 0.590678 0.419296
Si Si5 0.920907 0.411299 0.165032
Si Si6 0.416256 0.762509 0.950103
Si Si7 0.297615 0.887483 0.559916
O O1 0.303062 0.883114 0.025450
O O2 0.268469 0.891306 0.755161
O O3 0.364769 0.112710 0.844452
O O4 0.000000 0.000000 0.000000
O O5 0.213754 0.322962 0.443386
O O6 0.350760 0.187114 0.182476
O O7 0.064874 0.316607 0.193682
O O8 0.951148 0.125546 0.414965
O O9 0.693380 0.678930 0.280378
O O10 0.370630 0.777157 0.432217
O O11 0.425132 0.689102 0.112059
O O12 0.500000 0.500000 0.500000
O O13 0.882679 0.500284 0.324124
O O14 0.705758 0.334039 0.147326
O O15 0.000000 0.500000 0.000000
O O16 0.500000 0.000000 0.500000
#
# Coordination Sequence:
#
# PCOD9044371 Si02
#       7
#     2   2   2   2   2   2   2
#     4  11  24  48  77 106 148 190 248 314 375 451
#     4  12  25  49  79 104 155 201 246 314 379 437
#     4  11  26  44  74 111 150 192 248 307 375 444
#     4  12  26  47  73 110 152 200 252 305 368 449
#     4  12  28  45  76 110 150 199 256 308 370 444
#     4  12  26  48  76 110 152 196 253 309 380 449
#     4  10  23  46  73 108 145 187 249 305 369 447
#
# _framework density 24.221827000000001
#
# number of rings (size 3 to 8) (size 9 to 14) (size 15 to 20)
#    0.000    0.571    2.857    4.286    6.000    1.143 
#    0.000   10.714    0.000    0.000    0.000    0.000 
#    0.000    0.000    0.000    0.000    0.000    0.000 
#
# Total GULP energy -78129.489598 kJ/mol
# GULP energy per Si atom -5580.677828 kJ/mol
# Density = 2.416670 g / cm^3
# Si number density = 24.221827 Si / 1000 Ang^3
#
#
#
# Elastic Constant Matrix: (Units=GPa)
#
#
# Indices 1 2 3 4 5 6 
#
# 1 129.7684 43.7476 35.0418 -12.7816 -5.1976 -4.9812
# 2 43.7476 76.1233 30.6662 -6.3232 1.9960 4.9050
# 3 35.0418 30.6662 89.1649 5.7134 -0.5034 1.3156
# 4 -12.7816 -6.3232 5.7134 30.0234 0.4911 -1.3116
# 5 -5.1976 1.9960 -0.5034 0.4911 58.8915 6.0057
# 6 -4.9812 4.9050 1.3156 -1.3116 6.0057 47.2194
#
#
#
# Elastic Compliance Matrix: (Units=1/GPa)
#
#
# Indices 1 2 3 4 5 6 
#
# 1 0.010561 -0.004730 -0.002806 0.004093 0.000862 0.001688
# 2 -0.004730 0.018028 -0.004480 0.002560 -0.000878 -0.002064
# 3 -0.002806 -0.004480 0.014176 -0.004854 0.000104 -0.000374
# 4 0.004093 0.002560 -0.004854 0.036575 -0.000209 0.001344
# 5 0.000862 -0.000878 0.000104 -0.000209 0.017295 -0.002026
# 6 0.001688 -0.002064 -0.000374 0.001344 -0.002026 0.021876
#
#
# Mechanical properties :
#
#
# Convention : Reuss Voigt Hill
#
# Bulk Modulus (GPa) = 53.38225 57.10755 55.24490
# Shear Modulus (GPa) = 33.60495 39.60027 36.60261
#
# Velocity S-wave (km/s) = 3.72880 4.04778 3.89156
# Velocity P-wave (km/s) = 6.37380 6.74345 6.56123
#
# Compressibility (1/GPa) = 0.01873282
#
# Stress axis : x y z
#
# Youngs Moduli (GPa) = 94.68919 55.46793 70.54290
#
# Poissons Ratio (x) = 0.26238 0.19793
# Poissons Ratio (y) = 0.44790 0.31603
# Poissons Ratio (z) = 0.26569 0.24850
#
# Static dielectric constant tensor:
#      x y z
#    x 1.457620 0.227780 -0.688600 
#    y 0.227780 1.923360 0.229820 
#    z -0.688600 0.229820 0.997260 
# 
# From -- ./inp_files/130854.got.cif
#   From: 2010.05.17/outbox.cif.g08.bks.cpg/sg2_66_cif.got.tgz:130854.got - 2010.06.03 11:33:40.
