data_PCOD9044500
_publ_section_title
;
Structure prediction by ZEFSAII (Michael W. Deem and Ramdas Pophale) SiO2 
 PCOD9044500
Probable space group: P -1
;
_chemical_formula_sum "Si O2"
_cell_formula_units_Z 12
_cell_length_a 8.089750
_cell_length_b 5.791227
_cell_length_c 15.992825
_cell_angle_alpha 130.617993
_cell_angle_beta 124.127211
_cell_angle_gamma 58.045102
_cell_volume 454.475487
_symmetry_space_group_name_H-M "P -1"
_symmetry_group_IT_number 2
_symmetry_cell_setting 'triclinic'
loop_
_space_group_symop_operation_xyz
x,y,z
-x,-y,-z
loop_
_atom_site_type_symbol
_atom_site_label
_atom_site_fract_x
_atom_site_fract_y
_atom_site_fract_z
Si Si1 0.049008 0.777663 0.313528
Si Si2 0.590364 0.859694 0.730833
Si Si3 0.345407 0.084302 0.555475
Si Si4 0.140626 0.719110 0.060014
Si Si5 0.776760 0.351256 0.114120
Si Si6 0.695141 0.213611 0.226948
O O1 0.244460 0.475526 0.285761
O O2 0.873930 0.605230 0.249246
O O3 0.132339 0.004391 0.451025
O O4 0.929160 0.992536 0.254338
O O5 0.464053 0.921485 0.795829
O O6 0.446024 0.868260 0.611878
O O7 0.693809 0.147296 0.810199
O O8 0.314787 0.449860 0.654209
O O9 0.500000 0.000000 0.500000
O O10 0.263646 0.565255 0.974782
O O11 0.965239 0.046509 0.080044
O O12 0.000000 0.500000 0.000000
O O13 0.640055 0.252497 0.123118
#
# Coordination Sequence:
#
# PCOD9044500 Si02
#       6
#     2   2   2   2   2   2
#     4  11  25  47  73 106 152 198 243 297 368 432
#     4  11  27  48  74 110 147 196 250 305 365 438
#     4  12  27  45  75 109 150 197 247 303 363 438
#     4  10  23  46  78 105 146 194 245 306 371 434
#     4  10  24  43  74 110 142 196 243 300 371 435
#     4  12  26  46  73 113 151 192 247 300 370 443
#
# _framework density 26.404064999999999
#
# number of rings (size 3 to 8) (size 9 to 14) (size 15 to 20)
#    0.000    1.000    1.667    3.000    7.000    4.667 
#    0.000    5.833    0.000    3.000    0.000    0.000 
#    0.000    0.000    0.000    0.000    0.000    0.000 
#
# Total GULP energy -67049.550035 kJ/mol
# GULP energy per Si atom -5587.462503 kJ/mol
# Density = 2.634397 g / cm^3
# Si number density = 26.404065 Si / 1000 Ang^3
#
#
#
# Elastic Constant Matrix: (Units=GPa)
#
#
# Indices 1 2 3 4 5 6 
#
# 1 90.3504 28.2199 34.3941 -13.5326 -17.0394 27.0148
# 2 28.2199 128.9127 30.6624 -9.2713 2.4907 -19.3965
# 3 34.3941 30.6624 99.0331 7.2898 10.6311 22.0620
# 4 -13.5326 -9.2713 7.2898 49.9615 15.6631 -2.6300
# 5 -17.0394 2.4907 10.6311 15.6631 51.4855 6.2232
# 6 27.0148 -19.3965 22.0620 -2.6300 6.2232 50.3090
#
#
#
# Elastic Compliance Matrix: (Units=1/GPa)
#
#
# Indices 1 2 3 4 5 6 
#
# 1 0.019383 -0.005253 -0.003472 0.001539 0.008352 -0.011864
# 2 -0.005253 0.011470 -0.003658 0.002847 -0.003545 0.009434
# 3 -0.003472 -0.003658 0.014177 -0.003292 -0.002214 -0.005661
# 4 0.001539 0.002847 -0.003292 0.023715 -0.006619 0.003773
# 5 0.008352 -0.003545 -0.002214 -0.006619 0.025848 -0.008424
# 6 -0.011864 0.009434 -0.005661 0.003773 -0.008424 0.033607
#
#
# Mechanical properties :
#
#
# Convention : Reuss Voigt Hill
#
# Bulk Modulus (GPa) = 49.34763 56.09432 52.72097
# Shear Modulus (GPa) = 31.30467 45.35253 38.32860
#
# Velocity S-wave (km/s) = 3.44699 4.14893 3.81414
# Velocity P-wave (km/s) = 5.87982 6.65148 6.27752
#
# Compressibility (1/GPa) = 0.02026440
#
# Stress axis : x y z
#
# Youngs Moduli (GPa) = 51.59028 87.18517 70.53606
#
# Poissons Ratio (x) = 0.45798 0.24493
# Poissons Ratio (y) = 0.27100 0.25800
# Poissons Ratio (z) = 0.17914 0.31889
#
# Static dielectric constant tensor:
#      x y z
#    x 2.116800 0.051270 -0.012130 
#    y 0.051270 2.170760 -0.026350 
#    z -0.012130 -0.026350 2.088340 
# 
# From -- ./inp_files/488790.got.cif
#   From: 2010.05.17/outbox.cif.g08.bks.cpg/sg2_245_cif.got.tgz:488790.got - 2010.06.03 11:33:40.
