data_PCOD9044048
_publ_section_title
;
Structure prediction by ZEFSAII (Michael W. Deem and Ramdas Pophale) SiO2 
 PCOD9044048
Probable space group: P -1
;
_chemical_formula_sum "Si O2"
_cell_formula_units_Z 14
_cell_length_a 15.174692
_cell_length_b 7.569460
_cell_length_c 15.304903
_cell_angle_alpha 98.092216
_cell_angle_beta 152.051431
_cell_angle_gamma 64.951587
_cell_volume 623.738902
_symmetry_space_group_name_H-M "P -1"
_symmetry_group_IT_number 2
_symmetry_cell_setting 'triclinic'
loop_
_space_group_symop_operation_xyz
x,y,z
-x,-y,-z
loop_
_atom_site_type_symbol
_atom_site_label
_atom_site_fract_x
_atom_site_fract_y
_atom_site_fract_z
Si Si1 0.483873 0.865022 0.272434
Si Si2 0.218840 0.394142 0.754853
Si Si3 0.696323 0.981987 0.060977
Si Si4 0.682908 0.416916 0.849250
Si Si5 0.030452 0.271639 0.991689
Si Si6 0.998830 0.317714 0.258967
Si Si7 0.848465 0.173250 0.656011
O O1 0.386276 0.722755 0.171149
O O2 0.769729 0.693893 0.532854
O O3 0.431459 0.989885 0.142175
O O4 0.318304 0.054370 0.215951
O O5 0.249479 0.207888 0.835659
O O6 0.000000 0.500000 0.500000
O O7 0.131641 0.606252 0.756289
O O8 0.488010 0.240372 0.936707
O O9 0.960022 0.897184 0.258194
O O10 0.887564 0.262178 0.943998
O O11 0.433044 0.633218 0.602283
O O12 0.797199 0.486676 0.021976
O O13 0.912063 0.265546 0.798533
O O14 0.000000 0.500000 0.000000
O O15 0.105603 0.063362 0.303705
#
# Coordination Sequence:
#
# PCOD9044048 Si02
#       7
#     2   2   2   2   2   2   2
#     4  11  24  46  71 102 146 182 234 295 353 416
#     4  11  24  43  76 104 140 187 241 286 361 423
#     4  10  23  46  69 103 142 180 235 297 341 423
#     4  12  26  46  72 104 145 189 239 288 352 425
#     4  11  25  46  73 104 143 192 236 291 353 416
#     4  12  26  44  74 104 140 192 232 292 361 413
#     4  11  26  46  68 105 147 181 242 292 348 428
#
# _framework density 22.445288999999999
#
# number of rings (size 3 to 8) (size 9 to 14) (size 15 to 20)
#    0.000    0.857    4.286    2.571    8.000    1.143 
#    0.000    1.429    0.000    0.000    0.000    0.000 
#    0.000    0.000    0.000    0.000    0.000    0.000 
#
# Total GULP energy -78233.464708 kJ/mol
# GULP energy per Si atom -5588.104622 kJ/mol
# Density = 2.239420 g / cm^3
# Si number density = 22.445289 Si / 1000 Ang^3
#
#
#
# Elastic Constant Matrix: (Units=GPa)
#
#
# Indices 1 2 3 4 5 6 
#
# 1 118.2043 28.5716 57.1182 2.3165 8.5038 -22.1904
# 2 28.5716 89.4166 56.6903 -13.0971 -6.4324 -22.6646
# 3 57.1182 56.6903 119.3896 8.3315 3.3687 -19.3327
# 4 2.3165 -13.0971 8.3315 25.4235 -2.8175 1.9531
# 5 8.5038 -6.4324 3.3687 -2.8175 37.7904 -8.1193
# 6 -22.1904 -22.6646 -19.3327 1.9531 -8.1193 42.1520
#
#
#
# Elastic Compliance Matrix: (Units=1/GPa)
#
#
# Indices 1 2 3 4 5 6 
#
# 1 0.011632 0.000517 -0.005201 0.000487 -0.001222 0.003758
# 2 0.000517 0.023072 -0.011171 0.015721 0.007767 0.008321
# 3 -0.005201 -0.011171 0.016851 -0.011082 -0.003304 -0.001139
# 4 0.000487 0.015721 -0.011082 0.051694 0.008004 0.002773
# 5 -0.001222 0.007767 -0.003304 0.008004 0.030569 0.007534
# 6 0.003758 0.008321 -0.001139 0.002773 0.007534 0.030977
#
#
# Mechanical properties :
#
#
# Convention : Reuss Voigt Hill
#
# Bulk Modulus (GPa) = 50.39525 67.97453 59.18489
# Shear Modulus (GPa) = 24.61602 33.38188 28.99895
#
# Velocity S-wave (km/s) = 3.31526 3.86068 3.59832
# Velocity P-wave (km/s) = 6.09556 7.08685 6.60981
#
# Compressibility (1/GPa) = 0.01984314
#
# Stress axis : x y z
#
# Youngs Moduli (GPa) = 85.96746 43.34333 59.34405
#
# Poissons Ratio (x) = -0.02239 0.30867
# Poissons Ratio (y) = -0.04442 0.66294
# Poissons Ratio (z) = 0.44715 0.48419
#
# Static dielectric constant tensor:
#      x y z
#    x 1.847730 0.019070 -0.027030 
#    y 0.019070 1.861100 -0.029740 
#    z -0.027030 -0.029740 1.830520 
# 
# From -- ./inp_files/528748.got.cif
#   From: 2010.05.17/outbox.cif.g08.bks.cpg/sg2_265_cif.got.tgz:528748.got - 2010.06.03 11:33:40.
