data_PCOD9044044
_publ_section_title
;
Structure prediction by ZEFSAII (Michael W. Deem and Ramdas Pophale) SiO2 
 PCOD9044044
Probable space group: P -1
;
_chemical_formula_sum "Si O2"
_cell_formula_units_Z 14
_cell_length_a 12.584023
_cell_length_b 7.571015
_cell_length_c 8.988239
_cell_angle_alpha 122.596149
_cell_angle_beta 53.883435
_cell_angle_gamma 115.087298
_cell_volume 575.634323
_symmetry_space_group_name_H-M "P -1"
_symmetry_group_IT_number 2
_symmetry_cell_setting 'triclinic'
loop_
_space_group_symop_operation_xyz
x,y,z
-x,-y,-z
loop_
_atom_site_type_symbol
_atom_site_label
_atom_site_fract_x
_atom_site_fract_y
_atom_site_fract_z
Si Si1 0.624994 0.347138 0.900921
Si Si2 0.559860 0.949175 0.270347
Si Si3 0.795408 0.754528 0.043772
Si Si4 0.531502 0.686389 0.679459
Si Si5 0.186234 0.287811 0.646764
Si Si6 0.127802 0.812718 0.459594
Si Si7 0.060803 0.589741 0.703211
O O1 0.524850 0.272465 0.816283
O O2 0.735476 0.189513 0.743273
O O3 0.722977 0.568983 0.913062
O O4 0.539487 0.346739 0.119876
O O5 0.717295 0.945129 0.152457
O O6 0.500000 0.000000 0.500000
O O7 0.523971 0.115785 0.257358
O O8 0.763988 0.703130 0.219766
O O9 0.950456 0.740489 0.894847
O O10 0.500000 0.500000 0.500000
O O11 0.690929 0.715123 0.567761
O O12 0.125430 0.498432 0.752206
O O13 0.097952 0.052891 0.601482
O O14 0.151990 0.720200 0.562299
O O15 0.012789 0.635160 0.408065
#
# Coordination Sequence:
#
# PCOD9044044 Si02
#       7
#     2   2   2   2   2   2   2
#     4  11  23  45  68 103 142 180 234 294 357 420
#     4  12  23  43  70 101 141 181 233 294 353 421
#     4  11  24  44  66 101 139 184 235 288 351 421
#     4  12  25  44  69 106 141 183 234 289 362 419
#     4  12  23  45  70 100 145 184 234 295 349 422
#     4  10  23  46  69 102 137 185 245 287 351 419
#     4  10  25  45  69 100 137 188 242 291 349 411
#
# _framework density 24.320996000000001
#
# number of rings (size 3 to 8) (size 9 to 14) (size 15 to 20)
#    0.000    0.857    4.286    1.714    0.000    7.429 
#    5.143    0.000    0.000    0.000    0.000    0.000 
#    0.000    0.000    0.000    0.000    0.000    0.000 
#
# Total GULP energy -78259.127452 kJ/mol
# GULP energy per Si atom -5589.937675 kJ/mol
# Density = 2.426564 g / cm^3
# Si number density = 24.320996 Si / 1000 Ang^3
#
#
#
# Elastic Constant Matrix: (Units=GPa)
#
#
# Indices 1 2 3 4 5 6 
#
# 1 79.6092 23.7080 19.1641 7.4556 -11.0238 -18.9441
# 2 23.7080 81.5375 27.2140 4.9123 -4.9787 -13.3118
# 3 19.1641 27.2140 123.7196 -6.4067 -6.0496 5.3251
# 4 7.4556 4.9123 -6.4067 32.5737 -1.3521 -0.9531
# 5 -11.0238 -4.9787 -6.0496 -1.3521 44.6853 10.8910
# 6 -18.9441 -13.3118 5.3251 -0.9531 10.8910 37.9435
#
#
#
# Elastic Compliance Matrix: (Units=1/GPa)
#
#
# Indices 1 2 3 4 5 6 
#
# 1 0.016054 -0.002441 -0.002354 -0.003501 0.001570 0.006951
# 2 -0.002441 0.014900 -0.003238 -0.002215 -0.000561 0.004568
# 3 -0.002354 -0.003238 0.009547 0.002847 0.001408 -0.003984
# 4 -0.003501 -0.002215 0.002847 0.032360 0.000827 -0.002349
# 5 0.001570 -0.000561 0.001408 0.000827 0.024536 -0.006632
# 6 0.006951 0.004568 -0.003984 -0.002349 -0.006632 0.033832
#
#
# Mechanical properties :
#
#
# Convention : Reuss Voigt Hill
#
# Bulk Modulus (GPa) = 40.92282 47.22650 44.07466
# Shear Modulus (GPa) = 32.16680 37.35916 34.76298
#
# Velocity S-wave (km/s) = 3.64069 3.92355 3.78476
# Velocity P-wave (km/s) = 5.87669 6.32343 6.10415
#
# Compressibility (1/GPa) = 0.02443624
#
# Stress axis : x y z
#
# Youngs Moduli (GPa) = 62.28926 67.11507 104.74085
#
# Poissons Ratio (x) = 0.16382 0.24651
# Poissons Ratio (y) = 0.15204 0.33916
# Poissons Ratio (z) = 0.14660 0.21733
#
# Static dielectric constant tensor:
#      x y z
#    x 1.985310 0.025750 -0.017830 
#    y 0.025750 2.003630 0.070950 
#    z -0.017830 0.070950 1.964680 
# 
# From -- ./inp_files/240860.got.cif
#   From: 2010.05.17/outbox.cif.g08.bks.cpg/sg2_121_cif.got.tgz:240860.got - 2010.06.03 11:33:40.
