data_PCOD9044459
_publ_section_title
;
Structure prediction by ZEFSAII (Michael W. Deem and Ramdas Pophale) SiO2 
 PCOD9044459
Probable space group: P -1
;
_chemical_formula_sum "Si O2"
_cell_formula_units_Z 8
_cell_length_a 13.812617
_cell_length_b 7.396227
_cell_length_c 5.819027
_cell_angle_alpha 52.898815
_cell_angle_beta 43.145223
_cell_angle_gamma 48.547592
_cell_volume 296.200423
_symmetry_space_group_name_H-M "P -1"
_symmetry_group_IT_number 2
_symmetry_cell_setting 'triclinic'
loop_
_space_group_symop_operation_xyz
x,y,z
-x,-y,-z
loop_
_atom_site_type_symbol
_atom_site_label
_atom_site_fract_x
_atom_site_fract_y
_atom_site_fract_z
Si Si1 0.652974 0.943710 0.636012
Si Si2 0.969932 0.800025 0.369197
Si Si3 0.844481 0.470978 0.370703
Si Si4 0.464870 0.415920 0.374720
O O1 0.734854 0.685429 0.564363
O O2 0.783999 0.936311 0.595157
O O3 0.590411 0.134717 0.388929
O O4 0.500000 0.000000 0.000000
O O5 0.082629 0.769079 0.412045
O O6 0.000000 0.500000 0.500000
O O7 0.000000 0.000000 0.000000
O O8 0.721676 0.499449 0.362679
O O9 0.000000 0.500000 0.000000
O O10 0.500000 0.500000 0.500000
O O11 0.500000 0.500000 0.000000
#
# Coordination Sequence:
#
# PCOD9044459 Si02
#       4
#     2   2   2   2
#     4  11  24  47  77 113 158 215 274 340 413 499
#     4  10  23  46  75 111 156 210 268 333 408 492
#     4  11  25  47  75 114 159 213 272 341 415 497
#     4  12  27  48  76 116 160 214 274 344 417 498
#
# _framework density 27.008738000000001
#
# number of rings (size 3 to 8) (size 9 to 14) (size 15 to 20)
#    0.000    1.000    0.000    5.250    0.000   12.000 
#    0.000    7.500    0.000    0.000    0.000    0.000 
#    0.000    0.000    0.000    0.000    0.000    0.000 
#
# Total GULP energy -44584.225608 kJ/mol
# GULP energy per Si atom -5573.028201 kJ/mol
# Density = 2.694726 g / cm^3
# Si number density = 27.008738 Si / 1000 Ang^3
#
#
#
# Elastic Constant Matrix: (Units=GPa)
#
#
# Indices 1 2 3 4 5 6 
#
# 1 238.7015 89.9479 64.0017 15.5635 -15.0418 -77.4457
# 2 89.9479 197.7401 73.3096 -4.3248 1.8584 -48.2802
# 3 64.0017 73.3096 183.4212 7.9182 -4.0057 -40.6570
# 4 15.5635 -4.3248 7.9182 59.3088 -22.6858 13.5685
# 5 -15.0418 1.8584 -4.0057 -22.6858 57.4763 11.3713
# 6 -77.4457 -48.2802 -40.6570 13.5685 11.3713 85.6810
#
#
#
# Elastic Compliance Matrix: (Units=1/GPa)
#
#
# Indices 1 2 3 4 5 6 
#
# 1 0.007011 -0.001705 -0.000326 -0.003526 -0.000686 0.005871
# 2 -0.001705 0.006915 -0.001878 0.000517 -0.000893 0.001501
# 3 -0.000326 -0.001878 0.006883 -0.001756 -0.000690 0.002283
# 4 -0.003526 0.000517 -0.001756 0.023973 0.010156 -0.008873
# 5 -0.000686 -0.000893 -0.000690 0.010156 0.022402 -0.006032
# 6 0.005871 0.001501 0.002283 -0.008873 -0.006032 0.021112
#
#
# Mechanical properties :
#
#
# Convention : Reuss Voigt Hill
#
# Bulk Modulus (GPa) = 76.98276 119.37569 98.17923
# Shear Modulus (GPa) = 49.77844 66.66679 58.22261
#
# Velocity S-wave (km/s) = 4.29773 4.97363 4.64798
# Velocity P-wave (km/s) = 7.29329 8.79076 8.07681
#
# Compressibility (1/GPa) = 0.01298992
#
# Stress axis : x y z
#
# Youngs Moduli (GPa) = 142.63706 144.60733 145.28316
#
# Poissons Ratio (x) = 0.24662 0.04738
# Poissons Ratio (y) = 0.24326 0.27285
# Poissons Ratio (z) = 0.04652 0.27158
#
# Static dielectric constant tensor:
#      x y z
#    x 2.687560 -0.205270 0.180640 
#    y -0.205270 2.954220 -0.417650 
#    z 0.180640 -0.417650 2.353610 
# 
# From -- ./inp_files/88326.got.cif
#   From: 2010.05.17/outbox.cif.g08.bks.cpg/sg2_45_cif.got.tgz:88326.got - 2010.06.03 11:33:40.
