data_PCOD9044700
_publ_section_title
;
Structure prediction by ZEFSAII (Michael W. Deem and Ramdas Pophale) SiO2 
 PCOD9044700
Probable space group: P -1
;
_chemical_formula_sum "Si O2"
_cell_formula_units_Z 16
_cell_length_a 10.697986
_cell_length_b 11.643728
_cell_length_c 14.892843
_cell_angle_alpha 29.794731
_cell_angle_beta 57.284339
_cell_angle_gamma 76.408852
_cell_volume 642.656502
_symmetry_space_group_name_H-M "P -1"
_symmetry_group_IT_number 2
_symmetry_cell_setting 'triclinic'
loop_
_space_group_symop_operation_xyz
x,y,z
-x,-y,-z
loop_
_atom_site_type_symbol
_atom_site_label
_atom_site_fract_x
_atom_site_fract_y
_atom_site_fract_z
Si Si1 0.199301 0.677281 0.840618
Si Si2 0.282094 0.682344 0.152947
Si Si3 0.672786 0.981521 0.605012
Si Si4 0.228998 0.165986 0.610123
Si Si5 0.737666 0.533992 0.869399
Si Si6 0.829721 0.019587 0.881731
Si Si7 0.309484 0.857878 0.317456
Si Si8 0.209344 0.254360 0.748545
O O1 0.214397 0.479333 0.037796
O O2 0.322321 0.819256 0.608658
O O3 0.238474 0.934397 0.712578
O O4 0.000000 0.500000 0.000000
O O5 0.323568 0.462165 0.323583
O O6 0.167068 0.738399 0.226673
O O7 0.185989 0.555378 0.180685
O O8 0.475303 0.970644 0.877704
O O9 0.472697 0.718381 0.881476
O O10 0.755002 0.136152 0.561634
O O11 0.769521 0.831418 0.635961
O O12 0.290699 0.202359 0.664769
O O13 0.022188 0.073008 0.753972
O O14 0.741662 0.000563 0.834085
O O15 0.726002 0.762405 0.166400
O O16 0.233243 0.545746 0.529696
O O17 0.000000 0.000000 0.000000
#
# Coordination Sequence:
#
# PCOD9044700 Si02
#       8
#     2   2   2   2   2   2   2   2
#     4  12  27  43  68 102 135 173 226 274 329 397
#     4  11  22  45  69  98 131 173 224 276 332 390
#     4  10  24  45  69  98 133 176 226 268 334 392
#     4  11  24  44  65  97 133 178 218 269 336 400
#     4  10  23  47  71  95 133 180 217 279 333 389
#     4  11  24  42  68  92 134 179 213 271 336 389
#     4  11  25  42  68 100 133 168 224 278 324 395
#     4  10  24  41  64  96 133 170 215 263 332 399
#
# _framework density 24.896657999999999
#
# number of rings (size 3 to 8) (size 9 to 14) (size 15 to 20)
#    0.000    1.250    2.500    1.875    7.000    2.000 
#    4.500    0.000    0.000    0.000    0.000    0.000 
#    0.000    0.000    0.000    0.000    0.000    0.000 
#
# Total GULP energy -89547.418887 kJ/mol
# GULP energy per Si atom -5596.713680 kJ/mol
# Density = 2.483999 g / cm^3
# Si number density = 24.896658 Si / 1000 Ang^3
#
#
#
# Elastic Constant Matrix: (Units=GPa)
#
#
# Indices 1 2 3 4 5 6 
#
# 1 89.2981 15.3274 13.0344 8.7202 17.1502 29.3193
# 2 15.3274 91.8442 -2.4154 23.9295 -7.2245 26.3225
# 3 13.0344 -2.4154 81.3859 3.2570 8.2890 14.0036
# 4 8.7202 23.9295 3.2570 28.7183 13.9863 13.3327
# 5 17.1502 -7.2245 8.2890 13.9863 39.3858 11.5275
# 6 29.3193 26.3225 14.0036 13.3327 11.5275 39.5451
#
#
#
# Elastic Compliance Matrix: (Units=1/GPa)
#
#
# Indices 1 2 3 4 5 6 
#
# 1 0.015446 -0.000834 -0.000330 0.003292 -0.004918 -0.010456
# 2 -0.000834 0.020003 0.002029 -0.017872 0.013245 -0.011250
# 3 -0.000330 0.002029 0.013436 -0.000219 -0.000590 -0.005618
# 4 0.003292 -0.017872 -0.000219 0.063337 -0.025908 -0.004269
# 5 -0.004918 0.013245 -0.000590 -0.025908 0.041742 -0.008394
# 6 -0.010456 -0.011250 -0.005618 -0.004269 -0.008394 0.046404
#
#
# Mechanical properties :
#
#
# Convention : Reuss Voigt Hill
#
# Bulk Modulus (GPa) = 19.75734 34.93567 27.34651
# Shear Modulus (GPa) = 23.20083 37.30194 30.25139
#
# Velocity S-wave (km/s) = 3.05599 3.87495 3.48958
# Velocity P-wave (km/s) = 4.51720 5.83807 5.21958
#
# Compressibility (1/GPa) = 0.05061409
#
# Stress axis : x y z
#
# Youngs Moduli (GPa) = 64.74225 49.99225 74.42846
#
# Poissons Ratio (x) = 0.04171 0.02458
# Poissons Ratio (y) = 0.05401 -0.15104
# Poissons Ratio (z) = 0.02138 -0.10145
#
# Static dielectric constant tensor:
#      x y z
#    x 1.995070 0.008770 0.028410 
#    y 0.008770 1.988650 0.066710 
#    z 0.028410 0.066710 1.986450 
# 
# From -- ./inp_files/519485.got.cif
#   From: 2010.05.17/outbox.cif.g08.bks.cpg/sg2_260_cif.got.tgz:519485.got - 2010.06.03 11:33:40.
