data_PCOD9044398
_publ_section_title
;
Structure prediction by ZEFSAII (Michael W. Deem and Ramdas Pophale) SiO2 
 PCOD9044398
Probable space group: P -1
;
_chemical_formula_sum "Si O2"
_cell_formula_units_Z 15
_cell_length_a 6.355903
_cell_length_b 12.789584
_cell_length_c 19.258215
_cell_angle_alpha 144.004064
_cell_angle_beta 56.744890
_cell_angle_gamma 136.197708
_cell_volume 634.417048
_symmetry_space_group_name_H-M "P -1"
_symmetry_group_IT_number 2
_symmetry_cell_setting 'triclinic'
loop_
_space_group_symop_operation_xyz
x,y,z
-x,-y,-z
loop_
_atom_site_type_symbol
_atom_site_label
_atom_site_fract_x
_atom_site_fract_y
_atom_site_fract_z
Si Si1 0.017300 0.924227 0.360466
Si Si2 0.712841 0.496704 0.274523
Si Si3 0.000000 0.000000 0.000000
Si Si4 0.275383 0.860197 0.645287
Si Si5 0.029196 0.698225 0.454969
Si Si6 0.219511 0.255242 0.843209
Si Si7 0.900784 0.669324 0.948867
Si Si8 0.072853 0.337565 0.260518
O O1 0.864376 0.731755 0.339328
O O2 0.958890 0.823924 0.239679
O O3 0.379840 0.072502 0.389316
O O4 0.879903 0.069300 0.462533
O O5 0.730627 0.530748 0.373010
O O6 0.369096 0.345206 0.231312
O O7 0.892384 0.404192 0.158991
O O8 0.949214 0.879834 0.019030
O O9 0.088017 0.839466 0.864355
O O10 0.060164 0.725502 0.546571
O O11 0.139704 0.730302 0.670959
O O12 0.279985 0.076507 0.760586
O O13 0.200604 0.581759 0.344802
O O14 0.549874 0.476679 0.893363
O O15 0.055837 0.293430 0.956041
#
# Coordination Sequence:
#
# PCOD9044398 Si02
#       8
#     2   2   1   2   2   2   2   2
#     4  11  25  44  74 103 134 185 239 285 344 422
#     4  12  26  44  71 107 137 183 235 285 359 406
#     4  12  24  46  70 102 144 178 226 296 350 402
#     4  11  24  47  71 101 138 187 236 284 347 419
#     4  11  26  46  71 100 144 183 231 295 345 415
#     4  10  23  46  74 101 142 182 238 283 350 416
#     4  11  23  47  72 105 141 186 229 294 345 421
#     4  12  27  45  69 103 144 184 228 291 352 414
#
# _framework density 23.643754000000001
#
# number of rings (size 3 to 8) (size 9 to 14) (size 15 to 20)
#    0.000    0.800    4.000    2.400    0.000    6.400 
#    0.000    0.000    0.000    0.000    0.000    0.000 
#    0.000    0.000    0.000    0.000    0.000    0.000 
#
# Total GULP energy -83573.279130 kJ/mol
# GULP energy per Si atom -5571.551942 kJ/mol
# Density = 2.358994 g / cm^3
# Si number density = 23.643754 Si / 1000 Ang^3
#
#
#
# Elastic Constant Matrix: (Units=GPa)
#
#
# Indices 1 2 3 4 5 6 
#
# 1 10.2385 60.7251 7.1384 -15.1378 -58.3559 -46.2514
# 2 60.7251 77.4540 49.1635 10.8786 16.7883 8.3989
# 3 7.1384 49.1635 142.2312 3.0562 -27.2754 -34.5219
# 4 -15.1378 10.8786 3.0562 20.5524 -31.7882 -6.1070
# 5 -58.3559 16.7883 -27.2754 -31.7882 -26.7819 -36.2548
# 6 -46.2514 8.3989 -34.5219 -6.1070 -36.2548 9.3200
#
#
#
# Elastic Compliance Matrix: (Units=1/GPa)
#
#
# Indices 1 2 3 4 5 6 
#
# 1 0.013991 -0.004444 -0.002289 -0.011161 -0.015277 -0.001784
# 2 -0.004444 0.014452 -0.002380 0.006557 0.010690 0.001989
# 3 -0.002289 -0.002380 0.008415 -0.005978 -0.003575 0.004133
# 4 -0.011161 0.006557 -0.005978 0.045102 0.008607 -0.020405
# 5 -0.015277 0.010690 -0.003575 0.008607 0.019475 -0.017287
# 6 -0.001784 0.001989 0.004133 -0.020405 -0.017287 0.031344
#
#
# Mechanical properties :
#
#
# Convention : Reuss Voigt Hill
#
# Bulk Modulus (GPa) = 53.67364 51.55307 52.61336
# Shear Modulus (GPa) = 31.80355 8.14454 19.97405
#
# Velocity S-wave (km/s) = 3.67156 1.85800 2.90968
# Velocity P-wave (km/s) = 6.38154 5.14338 5.79562
#
# Compressibility (1/GPa) = 0.01863112
#
# Stress axis : x y z
#
# Youngs Moduli (GPa) = 71.47706 69.19481 118.84032
#
# Poissons Ratio (x) = 0.30748 0.27201
# Poissons Ratio (y) = 0.31762 0.28290
# Poissons Ratio (z) = 0.16360 0.16472
#
# Static dielectric constant tensor:
#      x y z
#    x 1.907250 -0.025020 0.027180 
#    y -0.025020 1.857760 0.005550 
#    z 0.027180 0.005550 1.925370 
# 
# From -- ./inp_files/549598.got.cif
#   From: 2010.05.17/outbox.cif.g08.bks.cpg/sg2_275_cif.got.tgz:549598.got - 2010.06.03 11:33:40.
