data_PCOD9044504
_publ_section_title
;
Structure prediction by ZEFSAII (Michael W. Deem and Ramdas Pophale) SiO2 
 PCOD9044504
Probable space group: P -1
;
_chemical_formula_sum "Si O2"
_cell_formula_units_Z 12
_cell_length_a 9.089566
_cell_length_b 10.595521
_cell_length_c 14.102686
_cell_angle_alpha 29.948239
_cell_angle_beta 53.511556
_cell_angle_gamma 69.703705
_cell_volume 494.836163
_symmetry_space_group_name_H-M "P -1"
_symmetry_group_IT_number 2
_symmetry_cell_setting 'triclinic'
loop_
_space_group_symop_operation_xyz
x,y,z
-x,-y,-z
loop_
_atom_site_type_symbol
_atom_site_label
_atom_site_fract_x
_atom_site_fract_y
_atom_site_fract_z
Si Si1 0.133180 0.882522 0.466987
Si Si2 0.504039 0.126064 0.044984
Si Si3 0.642726 0.752140 0.551847
Si Si4 0.848030 0.359557 0.564526
Si Si5 0.773105 0.864367 0.216414
Si Si6 0.796153 0.284121 0.264682
O O1 0.348968 0.112210 0.199357
O O2 0.178202 0.689519 0.649993
O O3 0.000000 0.000000 0.500000
O O4 0.756244 0.977190 0.442172
O O5 0.333797 0.942918 0.152141
O O6 0.639710 0.976753 0.131534
O O7 0.631923 0.442645 0.760356
O O8 0.733839 0.902943 0.318097
O O9 0.407950 0.687478 0.697028
O O10 0.037936 0.704609 0.525852
O O11 0.738074 0.542027 0.444332
O O12 0.000000 0.500000 0.500000
O O13 0.000000 0.000000 0.000000
O O14 0.000000 0.500000 0.000000
#
# Coordination Sequence:
#
# PCOD9044504 Si02
#       6
#     2   2   2   2   2   2
#     4  10  23  46  78 115 158 206 270 331 410 477
#     4  10  25  51  79 113 163 209 272 339 404 486
#     4  11  26  49  80 116 159 210 273 333 411 484
#     4  10  26  50  78 117 158 215 272 337 411 481
#     4  12  28  49  76 114 163 216 273 330 410 483
#     4  11  25  47  78 119 163 208 266 338 407 495
#
# _framework density 24.250451999999999
#
# number of rings (size 3 to 8) (size 9 to 14) (size 15 to 20)
#    1.000    0.333    1.667    1.500    7.000    1.333 
#    3.000    0.000    0.000    0.000    0.000    0.000 
#    0.000    0.000    0.000    0.000    0.000    0.000 
#
# Total GULP energy -66991.466470 kJ/mol
# GULP energy per Si atom -5582.622206 kJ/mol
# Density = 2.419526 g / cm^3
# Si number density = 24.250452 Si / 1000 Ang^3
#
#
#
# Elastic Constant Matrix: (Units=GPa)
#
#
# Indices 1 2 3 4 5 6 
#
# 1 176.8120 77.8851 79.1349 -3.9556 -8.3579 10.8428
# 2 77.8851 144.6465 34.8755 4.3871 -14.6680 -7.4931
# 3 79.1349 34.8755 166.0167 15.5845 -7.7797 6.1894
# 4 -3.9556 4.3871 15.5845 48.5126 -3.3749 7.5028
# 5 -8.3579 -14.6680 -7.7797 -3.3749 36.2759 1.4625
# 6 10.8428 -7.4931 6.1894 7.5028 1.4625 40.1767
#
#
#
# Elastic Compliance Matrix: (Units=1/GPa)
#
#
# Indices 1 2 3 4 5 6 
#
# 1 0.009620 -0.004535 -0.003782 0.002935 -0.000018 -0.003407
# 2 -0.004535 0.009780 0.000268 -0.001651 0.002684 0.003217
# 3 -0.003782 0.000268 0.008064 -0.002930 0.000680 0.000351
# 4 0.002935 -0.001651 -0.002930 0.022831 0.001705 -0.004974
# 5 -0.000018 0.002684 0.000680 0.001705 0.028991 -0.000973
# 6 -0.003407 0.003217 0.000351 -0.004974 -0.000973 0.027320
#
#
# Mechanical properties :
#
#
# Convention : Reuss Voigt Hill
#
# Bulk Modulus (GPa) = 87.98994 96.80735 92.39865
# Shear Modulus (GPa) = 39.52809 44.69836 42.11323
#
# Velocity S-wave (km/s) = 4.04170 4.29790 4.17177
# Velocity P-wave (km/s) = 7.62516 8.03964 7.83514
#
# Compressibility (1/GPa) = 0.01136494
#
# Stress axis : x y z
#
# Youngs Moduli (GPa) = 103.94970 102.25287 124.01080
#
# Poissons Ratio (x) = 0.46375 0.46903
# Poissons Ratio (y) = 0.47145 -0.03326
# Poissons Ratio (z) = 0.39316 -0.02743
#
# Static dielectric constant tensor:
#      x y z
#    x 2.148900 -0.121760 0.010940 
#    y -0.121760 2.117320 0.053730 
#    z 0.010940 0.053730 1.966770 
# 
# From -- ./inp_files/590831.got.cif
#   From: 2010.05.17/outbox.cif.g08.bks.cpg/sg2_296_cif.got.tgz:590831.got - 2010.06.03 11:33:40.
