data_PCOD9044578
_publ_section_title
;
Structure prediction by ZEFSAII (Michael W. Deem and Ramdas Pophale) SiO2 
 PCOD9044578
Probable space group: P -1
;
_chemical_formula_sum "Si O2"
_cell_formula_units_Z 14
_cell_length_a 5.757783
_cell_length_b 10.994953
_cell_length_c 13.920262
_cell_angle_alpha 129.774890
_cell_angle_beta 124.743484
_cell_angle_gamma 62.450490
_cell_volume 549.810474
_symmetry_space_group_name_H-M "P -1"
_symmetry_group_IT_number 2
_symmetry_cell_setting 'triclinic'
loop_
_space_group_symop_operation_xyz
x,y,z
-x,-y,-z
loop_
_atom_site_type_symbol
_atom_site_label
_atom_site_fract_x
_atom_site_fract_y
_atom_site_fract_z
Si Si1 0.803755 0.965959 0.108538
Si Si2 0.031505 0.426720 0.598373
Si Si3 0.550354 0.152867 0.527354
Si Si4 0.645750 0.652486 0.971227
Si Si5 0.012840 0.757053 0.808706
Si Si6 0.028939 0.621649 0.217351
Si Si7 0.600906 0.196172 0.339056
O O1 0.004213 0.061734 0.142326
O O2 0.784752 0.058254 0.251574
O O3 0.500000 0.000000 0.000000
O O4 0.845469 0.778642 0.042110
O O5 0.300031 0.299703 0.566006
O O6 0.041421 0.610158 0.663653
O O7 0.022463 0.437146 0.717724
O O8 0.753510 0.350753 0.466422
O O9 0.846409 0.213294 0.656024
O O10 0.550410 0.133301 0.402317
O O11 0.500000 0.000000 0.500000
O O12 0.310864 0.721014 0.917360
O O13 0.737621 0.496486 0.849260
O O14 0.741881 0.630631 0.092510
O O15 0.690510 0.756496 0.766636
#
# Coordination Sequence:
#
# PCOD9044578 Si02
#       7
#     2   2   2   2   2   2   2
#     4  10  25  44  68 100 144 178 229 280 339 417
#     4  11  25  45  71 104 137 179 235 287 345 413
#     4  11  26  46  73 103 135 181 235 287 353 406
#     4  10  23  47  68 100 142 183 234 283 340 413
#     4  11  24  45  68 102 139 183 230 277 349 407
#     4  10  24  46  71 100 139 183 230 295 339 404
#     4  11  26  43  72 103 137 186 223 295 342 406
#
# _framework density 25.46332
#
# number of rings (size 3 to 8) (size 9 to 14) (size 15 to 20)
#    0.000    1.429    1.429    1.286   10.000    6.286 
#    0.000    0.000    0.000    0.000    0.000    0.000 
#    0.000    0.000    0.000    0.000    0.000    0.000 
#
# Total GULP energy -78363.978200 kJ/mol
# GULP energy per Si atom -5597.427014 kJ/mol
# Density = 2.540536 g / cm^3
# Si number density = 25.463320 Si / 1000 Ang^3
#
#
#
# Elastic Constant Matrix: (Units=GPa)
#
#
# Indices 1 2 3 4 5 6 
#
# 1 62.8017 16.6704 54.3817 -22.1855 -3.1079 9.7890
# 2 16.6704 80.9847 41.6429 1.4506 4.5392 14.3623
# 3 54.3817 41.6429 154.1777 -9.6735 4.2086 13.2445
# 4 -22.1855 1.4506 -9.6735 47.5182 4.0713 9.4744
# 5 -3.1079 4.5392 4.2086 4.0713 54.6812 -1.1979
# 6 9.7890 14.3623 13.2445 9.4744 -1.1979 40.1747
#
#
#
# Elastic Compliance Matrix: (Units=1/GPa)
#
#
# Indices 1 2 3 4 5 6 
#
# 1 0.029701 -0.000570 -0.008895 0.013406 0.001264 -0.007225
# 2 -0.000570 0.015055 -0.003530 -0.000560 -0.001056 -0.003979
# 3 -0.008895 -0.003530 0.010444 -0.001928 -0.000864 0.000415
# 4 0.013406 -0.000560 -0.001928 0.028900 -0.001398 -0.009288
# 5 0.001264 -0.001056 -0.000864 -0.001398 0.018645 0.001240
# 6 -0.007225 -0.003979 0.000415 -0.009288 0.001240 0.030165
#
#
# Mechanical properties :
#
#
# Convention : Reuss Voigt Hill
#
# Bulk Modulus (GPa) = 34.23365 58.15042 46.19204
# Shear Modulus (GPa) = 29.64955 40.82610 35.23782
#
# Velocity S-wave (km/s) = 3.41604 4.00850 3.72407
# Velocity P-wave (km/s) = 5.38819 6.65662 6.05571
#
# Compressibility (1/GPa) = 0.02921102
#
# Stress axis : x y z
#
# Youngs Moduli (GPa) = 33.66849 66.42181 95.74949
#
# Poissons Ratio (x) = 0.03784 0.85171
# Poissons Ratio (y) = 0.01918 0.33799
# Poissons Ratio (z) = 0.29949 0.23447
#
# Static dielectric constant tensor:
#      x y z
#    x 2.008240 0.033520 0.008250 
#    y 0.033520 2.059520 -0.014090 
#    z 0.008250 -0.014090 1.992850 
# 
# From -- ./inp_files/70025.got.cif
#   From: 2010.05.17/outbox.cif.g08.bks.cpg/sg2_36_cif.got.tgz:70025.got - 2010.06.03 11:33:40.
