data_PCOD9044996
_publ_section_title
;
Structure prediction by ZEFSAII (Michael W. Deem and Ramdas Pophale) SiO2 
 PCOD9044996
Probable space group: P -1
;
_chemical_formula_sum "Si O2"
_cell_formula_units_Z 16
_cell_length_a 11.523844
_cell_length_b 14.607577
_cell_length_c 9.875999
_cell_angle_alpha 100.513858
_cell_angle_beta 141.982609
_cell_angle_gamma 104.373178
_cell_volume 767.346684
_symmetry_space_group_name_H-M "P -1"
_symmetry_group_IT_number 2
_symmetry_cell_setting 'triclinic'
loop_
_space_group_symop_operation_xyz
x,y,z
-x,-y,-z
loop_
_atom_site_type_symbol
_atom_site_label
_atom_site_fract_x
_atom_site_fract_y
_atom_site_fract_z
Si Si1 0.792048 0.670958 0.899285
Si Si2 0.571091 0.900101 0.584687
Si Si3 0.051428 0.141303 0.114028
Si Si4 0.705164 0.407741 0.534133
Si Si5 0.549111 0.155867 0.239779
Si Si6 0.029384 0.062750 0.375489
Si Si7 0.145025 0.647363 0.086408
Si Si8 0.924065 0.122700 0.555376
O O1 0.830646 0.729027 0.802397
O O2 0.509343 0.583247 0.662189
O O3 0.921509 0.777987 0.158407
O O4 0.951365 0.630366 0.012013
O O5 0.776522 0.884812 0.796672
O O6 0.445869 0.875393 0.607063
O O7 0.353068 0.786464 0.263261
O O8 0.765625 0.044170 0.772521
O O9 0.062774 0.125074 0.280183
O O10 0.639080 0.292417 0.358957
O O11 0.708738 0.374278 0.685027
O O12 0.972622 0.539473 0.792061
O O13 0.721411 0.133513 0.323857
O O14 0.262911 0.055279 0.910989
O O15 0.081768 0.144202 0.574119
O O16 0.163243 0.005186 0.496827
#
# Coordination Sequence:
#
# PCOD9044996 Si02
#       8
#     2   2   2   2   2   2   2   2
#     4  12  19  34  56  83 110 136 180 218 270 318
#     4   9  16  32  49  75 106 139 166 209 267 313
#     4  10  19  34  53  76 117 145 158 220 277 311
#     4  10  19  34  51  79 113 132 175 237 267 293
#     4  10  17  34  52  76 106 137 175 223 261 306
#     4  10  22  36  49  76 117 141 174 214 259 326
#     4  10  20  32  52  82 105 142 177 221 272 309
#     4  11  20  33  55  77 106 145 182 209 261 324
#
# _framework density 20.851071000000001
#
# number of rings (size 3 to 8) (size 9 to 14) (size 15 to 20)
#    0.000    1.750    6.250    2.250    0.000    0.500 
#    4.500    0.000    0.000    0.000    0.000    9.625 
#    0.000    0.000    0.000    0.000    0.000    0.000 
#
# Total GULP energy -89080.071056 kJ/mol
# GULP energy per Si atom -5567.504441 kJ/mol
# Density = 2.080361 g / cm^3
# Si number density = 20.851071 Si / 1000 Ang^3
#
#
#
# Elastic Constant Matrix: (Units=GPa)
#
#
# Indices 1 2 3 4 5 6 
#
# 1 67.0013 17.0651 10.3903 -1.3927 -11.0558 -9.5907
# 2 17.0651 48.7106 22.2402 7.1424 -2.0545 -6.1492
# 3 10.3903 22.2402 84.0481 11.4568 13.3373 -5.7860
# 4 -1.3927 7.1424 11.4568 26.9048 -0.9477 -1.3448
# 5 -11.0558 -2.0545 13.3373 -0.9477 28.0985 -8.5017
# 6 -9.5907 -6.1492 -5.7860 -1.3448 -8.5017 31.3026
#
#
#
# Elastic Compliance Matrix: (Units=1/GPa)
#
#
# Indices 1 2 3 4 5 6 
#
# 1 0.019672 -0.004669 -0.003054 0.004349 0.011360 0.007818
# 2 -0.004669 0.026202 -0.006156 -0.004266 0.003902 0.003455
# 3 -0.003054 -0.006156 0.016172 -0.005878 -0.010184 -0.002174
# 4 0.004349 -0.004266 -0.005878 0.041404 0.006477 0.002946
# 5 0.011360 0.003902 -0.010184 0.006477 0.050333 0.016313
# 6 0.007818 0.003455 -0.002174 0.002946 0.016313 0.039176
#
#
# Mechanical properties :
#
#
# Convention : Reuss Voigt Hill
#
# Bulk Modulus (GPa) = 29.16460 33.23904 31.20182
# Shear Modulus (GPa) = 21.53816 27.26547 24.40181
#
# Velocity S-wave (km/s) = 3.21744 3.62004 3.42466
# Velocity P-wave (km/s) = 5.27447 5.78348 5.53483
#
# Compressibility (1/GPa) = 0.03428814
#
# Stress axis : x y z
#
# Youngs Moduli (GPa) = 50.83393 38.16464 61.83505
#
# Poissons Ratio (x) = 0.17819 0.18883
# Poissons Ratio (y) = 0.23735 0.38067
# Poissons Ratio (z) = 0.15524 0.23495
#
# Static dielectric constant tensor:
#      x y z
#    x 1.750410 -0.061130 0.003230 
#    y -0.061130 1.838160 0.033340 
#    z 0.003230 0.033340 1.868030 
# 
# From -- ./inp_files/435876.got.cif
#   From: 2010.05.17/outbox.cif.g08.bks.cpg/sg2_218_cif.got.tgz:435876.got - 2010.06.03 11:33:40.
