data_PCOD9044595
_publ_section_title
;
Structure prediction by ZEFSAII (Michael W. Deem and Ramdas Pophale) SiO2 
 PCOD9044595
Probable space group: P -1
;
_chemical_formula_sum "Si O2"
_cell_formula_units_Z 16
_cell_length_a 21.585134
_cell_length_b 6.418636
_cell_length_c 9.681922
_cell_angle_alpha 79.390265
_cell_angle_beta 147.466121
_cell_angle_gamma 100.126989
_cell_volume 708.531838
_symmetry_space_group_name_H-M "P -1"
_symmetry_group_IT_number 2
_symmetry_cell_setting 'triclinic'
loop_
_space_group_symop_operation_xyz
x,y,z
-x,-y,-z
loop_
_atom_site_type_symbol
_atom_site_label
_atom_site_fract_x
_atom_site_fract_y
_atom_site_fract_z
Si Si1 0.814338 0.046215 0.419441
Si Si2 0.017876 0.578356 0.245429
Si Si3 0.175843 0.369270 0.337894
Si Si4 0.608590 0.347358 0.954636
Si Si5 0.608626 0.430734 0.413863
Si Si6 0.724459 0.618251 0.889689
Si Si7 0.432718 0.028082 0.512236
Si Si8 0.915899 0.801055 0.399660
O O1 0.925106 0.208144 0.609650
O O2 0.819881 0.871051 0.570932
O O3 0.819201 0.904948 0.305496
O O4 0.707604 0.199737 0.215183
O O5 0.106160 0.507857 0.298871
O O6 0.017420 0.373518 0.367137
O O7 0.897083 0.620633 0.941303
O O8 0.302815 0.469320 0.541667
O O9 0.520863 0.488704 0.857557
O O10 0.666630 0.498023 0.927513
O O11 0.516503 0.183488 0.735217
O O12 0.670599 0.493232 0.671132
O O13 0.596586 0.179426 0.430385
O O14 0.680642 0.852453 0.754120
O O15 0.855565 0.669197 0.177139
O O16 0.500000 0.000000 0.500000
O O17 0.000000 0.000000 0.500000
#
# Coordination Sequence:
#
# PCOD9044595 Si02
#       8
#     2   2   2   2   2   2   2   2
#     4  11  24  44  69  87 131 173 206 271 318 373
#     4  10  23  47  68  88 129 169 215 265 322 377
#     4  10  25  44  65  94 121 172 223 260 314 375
#     4  11  22  39  63  98 127 169 213 254 329 379
#     4  11  24  39  66  97 130 169 213 265 307 389
#     4  11  22  38  61  97 135 162 206 257 326 384
#     4  11  19  36  61  90 131 170 204 252 318 380
#     4  11  26  40  65 106 127 162 214 262 321 385
#
# _framework density 22.581907000000001
#
# number of rings (size 3 to 8) (size 9 to 14) (size 15 to 20)
#    0.000    1.250    3.750    1.875    3.500    3.000 
#    0.000    1.250    0.000    0.000    0.000    0.000 
#    0.000    0.000    0.000    0.000    0.000    0.000 
#
# Total GULP energy -89401.065829 kJ/mol
# GULP energy per Si atom -5587.566614 kJ/mol
# Density = 2.253051 g / cm^3
# Si number density = 22.581907 Si / 1000 Ang^3
#
#
#
# Elastic Constant Matrix: (Units=GPa)
#
#
# Indices 1 2 3 4 5 6 
#
# 1 41.6488 30.9647 31.2828 -3.3929 6.4061 16.2566
# 2 30.9647 143.5178 45.1346 -15.7035 -4.0437 29.6669
# 3 31.2828 45.1346 134.9754 -12.5704 1.4526 12.3374
# 4 -3.3929 -15.7035 -12.5704 41.4127 -3.5366 -1.4902
# 5 6.4061 -4.0437 1.4526 -3.5366 26.7437 9.7047
# 6 16.2566 29.6669 12.3374 -1.4902 9.7047 39.9648
#
#
#
# Elastic Compliance Matrix: (Units=1/GPa)
#
#
# Indices 1 2 3 4 5 6 
#
# 1 0.035925 -0.004520 -0.006162 -0.001462 -0.006287 -0.007883
# 2 -0.004520 0.010303 -0.001550 0.003303 0.005539 -0.006552
# 3 -0.006162 -0.001550 0.009464 0.001866 0.000748 0.000624
# 4 -0.001462 0.003303 0.001866 0.026193 0.005199 -0.002719
# 5 -0.006287 0.005539 0.000748 0.005199 0.044918 -0.012499
# 6 -0.007883 -0.006552 0.000624 -0.002719 -0.012499 0.035834
#
#
# Mechanical properties :
#
#
# Convention : Reuss Voigt Hill
#
# Bulk Modulus (GPa) = 32.02601 59.43401 45.73001
# Shear Modulus (GPa) = 25.31506 35.80825 30.56166
#
# Velocity S-wave (km/s) = 3.35182 3.98641 3.68281
# Velocity P-wave (km/s) = 5.40301 6.89674 6.19506
#
# Compressibility (1/GPa) = 0.03122462
#
# Stress axis : x y z
#
# Youngs Moduli (GPa) = 27.83599 97.06247 105.66121
#
# Poissons Ratio (x) = 0.43877 0.65114
# Poissons Ratio (y) = 0.12583 0.16383
# Poissons Ratio (z) = 0.17154 0.15049
#
# Static dielectric constant tensor:
#      x y z
#    x 1.869840 -0.023520 0.028160 
#    y -0.023520 1.746220 0.000550 
#    z 0.028160 0.000550 1.820520 
# 
# From -- ./inp_files/473373.got.cif
#   From: 2010.05.17/outbox.cif.g08.bks.cpg/sg2_237_cif.got.tgz:473373.got - 2010.06.03 11:33:40.
