data_PCOD9044960
_publ_section_title
;
Structure prediction by ZEFSAII (Michael W. Deem and Ramdas Pophale) SiO2 
 PCOD9044960
Probable space group: P -1
;
_chemical_formula_sum "Si O2"
_cell_formula_units_Z 14
_cell_length_a 16.131755
_cell_length_b 8.166505
_cell_length_c 11.692048
_cell_angle_alpha 33.633363
_cell_angle_beta 44.384864
_cell_angle_gamma 56.437700
_cell_volume 593.203918
_symmetry_space_group_name_H-M "P -1"
_symmetry_group_IT_number 2
_symmetry_cell_setting 'triclinic'
loop_
_space_group_symop_operation_xyz
x,y,z
-x,-y,-z
loop_
_atom_site_type_symbol
_atom_site_label
_atom_site_fract_x
_atom_site_fract_y
_atom_site_fract_z
Si Si1 0.554341 0.665753 0.961382
Si Si2 0.975862 0.336859 0.817805
Si Si3 0.121732 0.457959 0.973076
Si Si4 0.245764 0.708851 0.065363
Si Si5 0.579346 0.773291 0.484748
Si Si6 0.795469 0.188924 0.698154
Si Si7 0.345316 0.699034 0.460151
O O1 0.685025 0.552415 0.902366
O O2 0.570623 0.018720 0.739977
O O3 0.500000 0.500000 0.000000
O O4 0.469984 0.521745 0.226270
O O5 0.893780 0.365072 0.772334
O O6 0.097147 0.551050 0.574610
O O7 0.896397 0.410493 0.961156
O O8 0.000000 0.000000 0.000000
O O9 0.235871 0.617609 0.701924
O O10 0.000000 0.500000 0.000000
O O11 0.146643 0.117260 0.163258
O O12 0.269046 0.752092 0.152401
O O13 0.296342 0.011309 0.772604
O O14 0.590558 0.596903 0.455841
O O15 0.500000 0.000000 0.500000
O O16 0.714860 0.195491 0.660385
#
# Coordination Sequence:
#
# PCOD9044960 Si02
#       7
#     2   2   2   2   2   2   2
#     4  11  26  45  72 103 142 191 252 316 373 435
#     4  12  26  43  73 109 152 195 242 302 369 455
#     4  12  26  45  71 110 152 193 247 300 370 459
#     4  11  24  44  71 106 146 192 243 308 368 442
#     4  10  23  48  70 103 144 187 254 303 363 437
#     4  12  25  47  73 108 152 194 245 298 378 455
#     4  12  25  47  77 107 148 196 247 310 381 440
#
# _framework density 23.600652
#
# number of rings (size 3 to 8) (size 9 to 14) (size 15 to 20)
#    0.000    0.571    2.857    4.714    6.000    0.000 
#    2.571    3.571    0.000    0.000    0.000    0.000 
#    0.000    0.000    0.000    0.000    0.000    0.000 
#
# Total GULP energy -78175.848592 kJ/mol
# GULP energy per Si atom -5583.989185 kJ/mol
# Density = 2.354694 g / cm^3
# Si number density = 23.600652 Si / 1000 Ang^3
#
#
#
# Elastic Constant Matrix: (Units=GPa)
#
#
# Indices 1 2 3 4 5 6 
#
# 1 91.7569 32.4377 29.3174 -14.4792 -9.0454 -3.4878
# 2 32.4377 164.4710 73.1340 -14.5805 -12.7076 2.4584
# 3 29.3174 73.1340 153.0865 4.3218 -16.7299 3.8382
# 4 -14.4792 -14.5805 4.3218 56.4735 8.1210 5.4330
# 5 -9.0454 -12.7076 -16.7299 8.1210 29.3993 -11.8726
# 6 -3.4878 2.4584 3.8382 5.4330 -11.8726 33.8660
#
#
#
# Elastic Compliance Matrix: (Units=1/GPa)
#
#
# Indices 1 2 3 4 5 6 
#
# 1 0.012614 -0.001400 -0.001590 0.002429 0.002541 0.002082
# 2 -0.001400 0.008195 -0.003666 0.002061 0.000223 -0.000576
# 3 -0.001590 -0.003666 0.009109 -0.002765 0.004283 0.001015
# 4 0.002429 0.002061 -0.002765 0.020771 -0.007982 -0.005717
# 5 0.002541 0.000223 0.004283 -0.007982 0.046545 0.017358
# 6 0.002082 -0.000576 0.001015 -0.005717 0.017358 0.036672
#
#
# Mechanical properties :
#
#
# Convention : Reuss Voigt Hill
#
# Bulk Modulus (GPa) = 60.22120 75.45474 67.83797
# Shear Modulus (GPa) = 32.73237 42.24279 37.48758
#
# Velocity S-wave (km/s) = 3.72819 4.23531 3.98981
# Velocity P-wave (km/s) = 6.64113 7.48051 7.07328
#
# Compressibility (1/GPa) = 0.01660545
#
# Stress axis : x y z
#
# Youngs Moduli (GPa) = 79.27535 122.02506 109.78340
#
# Poissons Ratio (x) = 0.17089 0.17453
# Poissons Ratio (y) = 0.11102 0.40248
# Poissons Ratio (z) = 0.12603 0.44736
#
# Static dielectric constant tensor:
#      x y z
#    x 1.939820 0.001470 0.004880 
#    y 0.001470 1.892260 0.028170 
#    z 0.004880 0.028170 1.801390 
# 
# From -- ./inp_files/379535.got.cif
#   From: 2010.05.17/outbox.cif.g08.bks.cpg/sg2_190_cif.got.tgz:379535.got - 2010.06.03 11:33:40.
