data_PCOD9044558
_publ_section_title
;
Structure prediction by ZEFSAII (Michael W. Deem and Ramdas Pophale) SiO2 
 PCOD9044558
Probable space group: P -1
;
_chemical_formula_sum "Si O2"
_cell_formula_units_Z 16
_cell_length_a 16.950511
_cell_length_b 8.819925
_cell_length_c 16.782603
_cell_angle_alpha 128.450529
_cell_angle_beta 19.918828
_cell_angle_gamma 125.876733
_cell_volume 669.423363
_symmetry_space_group_name_H-M "P -1"
_symmetry_group_IT_number 2
_symmetry_cell_setting 'triclinic'
loop_
_space_group_symop_operation_xyz
x,y,z
-x,-y,-z
loop_
_atom_site_type_symbol
_atom_site_label
_atom_site_fract_x
_atom_site_fract_y
_atom_site_fract_z
Si Si1 0.568318 0.043053 0.255944
Si Si2 0.613901 0.590615 0.090485
Si Si3 0.538679 0.038916 0.841421
Si Si4 0.765319 0.429469 0.245152
Si Si5 0.732426 0.748684 0.687712
Si Si6 0.271375 0.035905 0.674440
Si Si7 0.156594 0.620692 0.331774
Si Si8 0.001780 0.665879 0.860579
O O1 0.601688 0.821210 0.177634
O O2 0.575616 0.054921 0.157891
O O3 0.746993 0.198129 0.171202
O O4 0.333582 0.091173 0.542915
O O5 0.390052 0.459686 0.278187
O O6 0.681184 0.525548 0.916696
O O7 0.822529 0.545382 0.938462
O O8 0.705161 0.205941 0.702664
O O9 0.679699 0.883078 0.707111
O O10 0.379501 0.147455 0.093595
O O11 0.500000 0.500000 0.500000
O O12 0.818172 0.455483 0.297482
O O13 0.000000 0.500000 0.000000
O O14 0.997093 0.719480 0.448636
O O15 0.500000 0.000000 0.500000
O O16 0.131312 0.834275 0.743215
O O17 0.148079 0.210462 0.893590
O O18 0.000000 0.500000 0.500000
#
# Coordination Sequence:
#
# PCOD9044558 Si02
#       8
#     2   2   2   2   2   2   2   2
#     4  12  24  46  74 106 139 194 249 305 376 444
#     4  11  25  40  73 105 133 188 244 294 365 441
#     4  10  24  44  70 101 143 189 237 292 371 445
#     4  12  29  50  71 106 157 197 249 316 379 451
#     4  10  23  47  67 101 148 183 233 304 365 441
#     4  11  21  43  70  98 139 184 245 315 363 435
#     4  11  23  42  68 105 143 180 240 304 360 433
#     4  11  24  43  69 100 140 189 244 303 375 445
#
# _framework density 23.901168999999999
#
# number of rings (size 3 to 8) (size 9 to 14) (size 15 to 20)
#    0.000    1.000    2.500    3.375    5.250    3.000 
#    4.500    0.000    0.000    0.000    0.000    0.000 
#    0.000    0.000    0.000    0.000    0.000    0.000 
#
# Total GULP energy -89493.199016 kJ/mol
# GULP energy per Si atom -5593.324939 kJ/mol
# Density = 2.384677 g / cm^3
# Si number density = 23.901169 Si / 1000 Ang^3
#
#
#
# Elastic Constant Matrix: (Units=GPa)
#
#
# Indices 1 2 3 4 5 6 
#
# 1 112.7345 1.8936 8.2140 5.2541 -9.2380 3.1666
# 2 1.8936 84.2267 25.6028 -3.2841 8.2431 0.5144
# 3 8.2140 25.6028 61.3750 -0.6860 -8.0854 -5.4764
# 4 5.2541 -3.2841 -0.6860 32.9279 -6.4699 -4.6795
# 5 -9.2380 8.2431 -8.0854 -6.4699 44.9542 -4.6748
# 6 3.1666 0.5144 -5.4764 -4.6795 -4.6748 38.3533
#
#
#
# Elastic Compliance Matrix: (Units=1/GPa)
#
#
# Indices 1 2 3 4 5 6 
#
# 1 0.009156 -0.000051 -0.001115 -0.001343 0.001403 -0.000907
# 2 -0.000051 0.014290 -0.006611 0.000297 -0.003941 -0.001575
# 3 -0.001115 -0.006611 0.020257 0.001527 0.005252 0.003900
# 4 -0.001343 0.000297 0.001527 0.032344 0.005108 0.004894
# 5 0.001403 -0.003941 0.005252 0.005108 0.025394 0.004405
# 6 -0.000907 -0.001575 0.003900 0.004894 0.004405 0.027860
#
#
# Mechanical properties :
#
#
# Convention : Reuss Voigt Hill
#
# Bulk Modulus (GPa) = 35.52533 36.63966 36.08250
# Shear Modulus (GPa) = 32.41742 38.08879 35.25310
#
# Velocity S-wave (km/s) = 3.68681 3.99632 3.84468
# Velocity P-wave (km/s) = 5.74623 6.05450 5.90238
#
# Compressibility (1/GPa) = 0.02814893
#
# Stress axis : x y z
#
# Youngs Moduli (GPa) = 109.22385 69.97755 49.36532
#
# Poissons Ratio (x) = 0.00356 0.05506
# Poissons Ratio (y) = 0.00556 0.32635
# Poissons Ratio (z) = 0.12181 0.46261
#
# Static dielectric constant tensor:
#      x y z
#    x 1.902420 -0.058920 -0.009180 
#    y -0.058920 1.910650 0.028520 
#    z -0.009180 0.028520 1.964250 
# 
# From -- ./inp_files/575564.got.cif
#   From: 2010.05.17/outbox.cif.g08.bks.cpg/sg2_288_cif.got.tgz:575564.got - 2010.06.03 11:33:40.
