data_PCOD9044354
_publ_section_title
;
Structure prediction by ZEFSAII (Michael W. Deem and Ramdas Pophale) SiO2 
 PCOD9044354
Probable space group: P -1
;
_chemical_formula_sum "Si O2"
_cell_formula_units_Z 13
_cell_length_a 10.945731
_cell_length_b 9.156915
_cell_length_c 6.951872
_cell_angle_alpha 93.892415
_cell_angle_beta 118.753397
_cell_angle_gamma 108.258157
_cell_volume 559.759517
_symmetry_space_group_name_H-M "P -1"
_symmetry_group_IT_number 2
_symmetry_cell_setting 'triclinic'
loop_
_space_group_symop_operation_xyz
x,y,z
-x,-y,-z
loop_
_atom_site_type_symbol
_atom_site_label
_atom_site_fract_x
_atom_site_fract_y
_atom_site_fract_z
Si Si1 0.460227 0.329645 0.355617
Si Si2 0.108401 0.576634 0.768481
Si Si3 0.339557 0.013653 0.419181
Si Si4 0.049774 0.838657 0.923072
Si Si5 0.371056 0.850543 0.776288
Si Si6 0.000000 0.000000 0.500000
Si Si7 0.172840 0.280480 0.916295
O O1 0.500000 0.500000 0.500000
O O2 0.378528 0.199418 0.447864
O O3 0.574773 0.261063 0.332949
O O4 0.344770 0.315848 0.095815
O O5 0.026122 0.657330 0.848788
O O6 0.256785 0.726979 0.824186
O O7 0.151250 0.444122 0.889376
O O8 0.000000 0.500000 0.500000
O O9 0.500000 0.000000 0.500000
O O10 0.286167 0.932876 0.579076
O O11 0.213333 0.925342 0.158001
O O12 0.036071 0.922412 0.724232
O O13 0.923689 0.819470 0.984828
O O14 0.500000 0.000000 0.000000
O O15 0.889274 0.823126 0.327701
#
# Coordination Sequence:
#
# PCOD9044354 Si02
#       7
#     2   2   2   2   2   1   2
#     4  11  27  45  72 109 151 198 251 319 385 447
#     4  12  26  46  74 108 146 195 255 311 375 457
#     4  10  23  46  73 104 150 202 245 303 385 459
#     4  12  26  48  76 111 151 199 250 313 382 458
#     4  11  27  49  75 108 149 208 256 309 380 467
#     4  12  26  48  72 114 152 200 256 304 386 456
#     4  12  28  47  76 110 154 196 250 319 386 448
#
# _framework density 23.224259
#
# number of rings (size 3 to 8) (size 9 to 14) (size 15 to 20)
#    0.000    0.615    3.077    3.692    8.615    0.615 
#    0.000    0.000    0.000    0.000    0.000    0.000 
#    0.000    0.000    0.000    0.000    0.000    0.000 
#
# Total GULP energy -72472.476248 kJ/mol
# GULP energy per Si atom -5574.805865 kJ/mol
# Density = 2.317140 g / cm^3
# Si number density = 23.224259 Si / 1000 Ang^3
#
#
#
# Elastic Constant Matrix: (Units=GPa)
#
#
# Indices 1 2 3 4 5 6 
#
# 1 40.2493 6.6969 24.2448 6.2919 -6.6885 5.0666
# 2 6.6969 168.2322 69.8948 -0.8702 -1.5029 -7.5252
# 3 24.2448 69.8948 165.5010 3.4087 8.6852 3.1689
# 4 6.2919 -0.8702 3.4087 69.0642 -4.4769 -4.5073
# 5 -6.6885 -1.5029 8.6852 -4.4769 25.4771 3.2176
# 6 5.0666 -7.5252 3.1689 -4.5073 3.2176 35.3355
#
#
#
# Elastic Compliance Matrix: (Units=1/GPa)
#
#
# Indices 1 2 3 4 5 6 
#
# 1 0.030470 0.000802 -0.005191 -0.002179 0.010055 -0.004926
# 2 0.000802 0.007404 -0.003372 0.000403 0.001657 0.001665
# 3 -0.005191 -0.003372 0.008474 -0.000301 -0.004457 -0.000366
# 4 -0.002179 0.000403 -0.000301 0.014963 0.001911 0.002160
# 5 0.010055 0.001657 -0.004457 0.001911 0.044411 -0.004489
# 6 -0.004926 0.001665 -0.000366 0.002160 -0.004489 0.030078
#
#
# Mechanical properties :
#
#
# Convention : Reuss Voigt Hill
#
# Bulk Modulus (GPa) = 32.43891 63.96172 48.20032
# Shear Modulus (GPa) = 30.94122 44.18508 37.56315
#
# Velocity S-wave (km/s) = 3.65400 4.36654 4.02607
# Velocity P-wave (km/s) = 5.63918 7.28169 6.51242
#
# Compressibility (1/GPa) = 0.03082718
#
# Stress axis : x y z
#
# Youngs Moduli (GPa) = 32.81885 135.05469 118.01217
#
# Poissons Ratio (x) = -0.10829 0.61258
# Poissons Ratio (y) = -0.02632 0.39790
# Poissons Ratio (z) = 0.17036 0.45536
#
# Static dielectric constant tensor:
#      x y z
#    x 1.924600 0.191340 0.043390 
#    y 0.191340 2.018120 0.088730 
#    z 0.043390 0.088730 1.908950 
# 
# From -- ./inp_files/61142.got.cif
#   From: 2010.05.17/outbox.cif.g08.bks.cpg/sg2_31_cif.got.tgz:61142.got - 2010.06.03 11:33:40.
