data_PCOD9044831
_publ_section_title
;
Structure prediction by ZEFSAII (Michael W. Deem and Ramdas Pophale) SiO2 
 PCOD9044831
Probable space group: P -1
;
_chemical_formula_sum "Si O2"
_cell_formula_units_Z 12
_cell_length_a 5.476886
_cell_length_b 15.868199
_cell_length_c 9.048449
_cell_angle_alpha 55.396097
_cell_angle_beta 121.513021
_cell_angle_gamma 118.125752
_cell_volume 534.464200
_symmetry_space_group_name_H-M "P -1"
_symmetry_group_IT_number 2
_symmetry_cell_setting 'triclinic'
loop_
_space_group_symop_operation_xyz
x,y,z
-x,-y,-z
loop_
_atom_site_type_symbol
_atom_site_label
_atom_site_fract_x
_atom_site_fract_y
_atom_site_fract_z
Si Si1 0.072964 0.363430 0.306602
Si Si2 0.558794 0.432113 0.945545
Si Si3 0.023723 0.379450 0.623059
Si Si4 0.573852 0.790872 0.390924
Si Si5 0.324704 0.064013 0.985649
Si Si6 0.350993 0.004959 0.605155
O O1 0.262152 0.478253 0.199172
O O2 0.080784 0.360902 0.488298
O O3 0.212696 0.268786 0.397482
O O4 0.754576 0.357150 0.143491
O O5 0.272459 0.371360 0.827157
O O6 0.500000 0.500000 0.000000
O O7 0.000000 0.500000 0.500000
O O8 0.720017 0.297910 0.648872
O O9 0.511390 0.882167 0.384858
O O10 0.705885 0.842723 0.225969
O O11 0.544279 0.082991 0.176087
O O12 0.500000 0.000000 0.000000
O O13 0.000000 0.000000 0.000000
O O14 0.500000 0.000000 0.500000
O O15 0.000000 0.000000 0.500000
#
# Coordination Sequence:
#
# PCOD9044831 Si02
#       6
#     2   2   2   2   2   2
#     4  11  24  43  71 104 150 198 255 301 367 447
#     4  11  23  45  70 102 154 199 249 306 363 439
#     4  12  24  45  70 107 152 199 243 307 372 453
#     4  11  26  45  74 106 143 202 251 300 388 460
#     4  10  23  47  75 102 143 192 246 314 382 448
#     4  11  25  50  76 106 148 189 249 331 382 441
#
# _framework density 22.452393000000001
#
# number of rings (size 3 to 8) (size 9 to 14) (size 15 to 20)
#    0.000    1.000    3.333    2.500    7.000    0.000 
#    9.000    0.000    0.000    0.000    0.000    0.000 
#    0.000    0.000    0.000    0.000    0.000    0.000 
#
# Total GULP energy -67085.279147 kJ/mol
# GULP energy per Si atom -5590.439929 kJ/mol
# Density = 2.240129 g / cm^3
# Si number density = 22.452393 Si / 1000 Ang^3
#
#
#
# Elastic Constant Matrix: (Units=GPa)
#
#
# Indices 1 2 3 4 5 6 
#
# 1 139.6942 47.0876 73.8261 11.8120 1.7387 20.4560
# 2 47.0876 88.2213 60.5805 -4.9433 6.2106 16.9650
# 3 73.8261 60.5805 158.2088 26.9584 22.2972 4.1882
# 4 11.8120 -4.9433 26.9584 31.8392 1.4307 7.6835
# 5 1.7387 6.2106 22.2972 1.4307 57.8835 3.3961
# 6 20.4560 16.9650 4.1882 7.6835 3.3961 37.0080
#
#
#
# Elastic Compliance Matrix: (Units=1/GPa)
#
#
# Indices 1 2 3 4 5 6 
#
# 1 0.010856 -0.001689 -0.004698 0.000818 0.001941 -0.005043
# 2 -0.001689 0.022321 -0.010382 0.015580 0.001947 -0.011537
# 3 -0.004698 -0.010382 0.015485 -0.014971 -0.004877 0.009160
# 4 0.000818 0.015580 -0.014971 0.050044 0.003810 -0.016639
# 5 0.001941 0.001947 -0.004877 0.003810 0.019025 -0.003950
# 6 -0.005043 -0.011537 0.009160 -0.016639 -0.003950 0.037878
#
#
# Mechanical properties :
#
#
# Convention : Reuss Voigt Hill
#
# Bulk Modulus (GPa) = 66.13129 83.23475 74.68302
# Shear Modulus (GPa) = 25.74826 38.98813 32.36819
#
# Velocity S-wave (km/s) = 3.39011 4.17163 3.80101
# Velocity P-wave (km/s) = 6.69640 7.76888 7.25249
#
# Compressibility (1/GPa) = 0.01512144
#
# Stress axis : x y z
#
# Youngs Moduli (GPa) = 92.11539 44.80182 64.57958
#
# Poissons Ratio (x) = 0.07567 0.30343
# Poissons Ratio (y) = 0.15558 0.67049
# Poissons Ratio (z) = 0.43280 0.46515
#
# Static dielectric constant tensor:
#      x y z
#    x 1.883810 -0.032050 0.017070 
#    y -0.032050 1.799040 0.001600 
#    z 0.017070 0.001600 1.917690 
# 
# From -- ./inp_files/134782.got.cif
#   From: 2010.05.17/outbox.cif.g08.bks.cpg/sg2_68_cif.got.tgz:134782.got - 2010.06.03 11:33:40.
