data_PCOD9044775
_publ_section_title
;
Structure prediction by ZEFSAII (Michael W. Deem and Ramdas Pophale) SiO2 
 PCOD9044775
Probable space group: P -1
;
_chemical_formula_sum "Si O2"
_cell_formula_units_Z 14
_cell_length_a 18.044369
_cell_length_b 6.617356
_cell_length_c 7.294457
_cell_angle_alpha 113.623402
_cell_angle_beta 51.049566
_cell_angle_gamma 124.663322
_cell_volume 555.871406
_symmetry_space_group_name_H-M "P -1"
_symmetry_group_IT_number 2
_symmetry_cell_setting 'triclinic'
loop_
_space_group_symop_operation_xyz
x,y,z
-x,-y,-z
loop_
_atom_site_type_symbol
_atom_site_label
_atom_site_fract_x
_atom_site_fract_y
_atom_site_fract_z
Si Si1 0.390531 0.356944 0.226442
Si Si2 0.300281 0.083352 0.594325
Si Si3 0.168117 0.130099 0.283752
Si Si4 0.753582 0.517877 0.022862
Si Si5 0.379674 0.800547 0.626850
Si Si6 0.930624 0.432757 0.898191
Si Si7 0.930749 0.077780 0.273631
O O1 0.385128 0.169957 0.328871
O O2 0.371118 0.558874 0.448137
O O3 0.500000 0.500000 0.000000
O O4 0.712087 0.781842 0.793862
O O5 0.090903 0.072245 0.558279
O O6 0.303613 0.308019 0.790921
O O7 0.313018 0.897630 0.642500
O O8 0.121282 0.859970 0.164158
O O9 0.179563 0.355774 0.216725
O O10 0.658730 0.251450 0.120028
O O11 0.834613 0.512611 0.051531
O O12 0.500000 0.000000 0.500000
O O13 0.012091 0.627296 0.698046
O O14 0.815415 0.016233 0.351053
O O15 0.000000 0.500000 0.000000
O O16 0.000000 0.000000 0.000000
#
# Coordination Sequence:
#
# PCOD9044775 Si02
#       7
#     2   2   2   2   2   2   2
#     4  10  26  46  73 109 153 193 249 327 386 448
#     4  10  23  47  73 106 149 196 256 308 385 461
#     4  11  27  46  72 114 155 195 259 313 383 459
#     4  11  24  45  74 107 154 191 256 319 374 457
#     4  11  26  45  78 106 144 206 256 310 395 451
#     4  12  26  46  78 108 150 204 254 309 384 455
#     4  11  23  49  76 107 153 203 249 318 382 446
#
# _framework density 25.185683999999998
#
# number of rings (size 3 to 8) (size 9 to 14) (size 15 to 20)
#    0.000    1.143    1.429    3.000    6.000    4.571 
#    2.571    0.000    0.000    0.000    0.000    0.000 
#    0.000    0.000    0.000    0.000    0.000    0.000 
#
# Total GULP energy -78214.954675 kJ/mol
# GULP energy per Si atom -5586.782477 kJ/mol
# Density = 2.512836 g / cm^3
# Si number density = 25.185684 Si / 1000 Ang^3
#
#
#
# Elastic Constant Matrix: (Units=GPa)
#
#
# Indices 1 2 3 4 5 6 
#
# 1 91.6050 63.6193 47.8360 -22.7171 17.2107 -4.0138
# 2 63.6193 159.6821 77.1265 -55.6667 11.0786 -14.6744
# 3 47.8360 77.1265 153.0270 -48.5436 10.1685 -15.7576
# 4 -22.7171 -55.6667 -48.5436 66.5757 1.0856 7.4725
# 5 17.2107 11.0786 10.1685 1.0856 28.9827 -5.7999
# 6 -4.0138 -14.6744 -15.7576 7.4725 -5.7999 55.9100
#
#
#
# Elastic Compliance Matrix: (Units=1/GPa)
#
#
# Indices 1 2 3 4 5 6 
#
# 1 0.017229 -0.005344 -0.002346 0.000008 -0.007690 -0.001626
# 2 -0.005344 0.011769 -0.002074 0.006380 -0.000595 0.001207
# 3 -0.002346 -0.002074 0.010002 0.004626 -0.001224 0.001361
# 4 0.000008 0.006380 0.004626 0.023897 -0.005110 -0.000745
# 5 -0.007690 -0.000595 -0.001224 -0.005110 0.040689 0.003851
# 6 -0.001626 0.001207 0.001361 -0.000745 0.003851 0.018969
#
#
# Mechanical properties :
#
#
# Convention : Reuss Voigt Hill
#
# Bulk Modulus (GPa) = 51.35516 86.83087 69.09301
# Shear Modulus (GPa) = 33.65328 44.67583 39.16455
#
# Velocity S-wave (km/s) = 3.65938 4.21629 3.94767
# Velocity P-wave (km/s) = 6.18786 7.63242 6.94779
#
# Compressibility (1/GPa) = 0.01947224
#
# Stress axis : x y z
#
# Youngs Moduli (GPa) = 58.04314 84.96628 99.97687
#
# Poissons Ratio (x) = 0.45407 0.23456
# Poissons Ratio (y) = 0.31019 0.20733
# Poissons Ratio (z) = 0.13618 0.17620
#
# Static dielectric constant tensor:
#      x y z
#    x 1.975050 0.042140 0.114870 
#    y 0.042140 2.053630 -0.094420 
#    z 0.114870 -0.094420 1.950750 
# 
# From -- ./inp_files/322702.got.cif
#   From: 2010.05.17/outbox.cif.g08.bks.cpg/sg2_162_cif.got.tgz:322702.got - 2010.06.03 11:33:40.
