data_PCOD9044460
_publ_section_title
;
Structure prediction by ZEFSAII (Michael W. Deem and Ramdas Pophale) SiO2 
 PCOD9044460
Probable space group: P -1
;
_chemical_formula_sum "Si O2"
_cell_formula_units_Z 16
_cell_length_a 10.170401
_cell_length_b 10.122646
_cell_length_c 9.793362
_cell_angle_alpha 124.138982
_cell_angle_beta 55.911388
_cell_angle_gamma 114.032617
_cell_volume 684.756892
_symmetry_space_group_name_H-M "P -1"
_symmetry_group_IT_number 2
_symmetry_cell_setting 'triclinic'
loop_
_space_group_symop_operation_xyz
x,y,z
-x,-y,-z
loop_
_atom_site_type_symbol
_atom_site_label
_atom_site_fract_x
_atom_site_fract_y
_atom_site_fract_z
Si Si1 0.412776 0.631670 0.758710
Si Si2 0.655021 0.102026 0.533321
Si Si3 0.686389 0.060206 0.949818
Si Si4 0.595660 0.472682 0.794490
Si Si5 0.280868 0.147582 0.423335
Si Si6 0.089135 0.419478 0.775579
Si Si7 0.866082 0.111905 0.155170
Si Si8 0.937946 0.554881 0.710007
O O1 0.504209 0.523030 0.743314
O O2 0.551708 0.733511 0.642710
O O3 0.263085 0.528498 0.710970
O O4 0.318497 0.752586 0.973794
O O5 0.370968 0.711765 0.333875
O O6 0.686426 0.004928 0.594188
O O7 0.500000 0.000000 0.500000
O O8 0.790484 0.094677 0.337748
O O9 0.776265 0.939420 0.737548
O O10 0.741754 0.067692 0.078861
O O11 0.500000 0.000000 0.000000
O O12 0.761634 0.585607 0.791854
O O13 0.500000 0.500000 0.000000
O O14 0.154694 0.245041 0.632384
O O15 0.962749 0.418487 0.725754
O O16 0.000000 0.500000 0.000000
O O17 0.956312 0.292089 0.198041
O O18 0.000000 0.000000 0.000000
O O19 0.000000 0.500000 0.500000
#
# Coordination Sequence:
#
# PCOD9044460 Si02
#       8
#     2   2   2   2   2   2   2   2
#     4  11  23  48  78 108 146 204 257 309 375 459
#     4  12  27  48  74 117 155 196 260 319 381 459
#     4  10  23  46  75 112 148 199 254 306 376 460
#     4  12  27  47  80 111 153 199 259 316 382 460
#     4  11  26  44  79 108 152 200 255 311 379 453
#     4  12  27  47  76 111 152 195 259 318 379 448
#     4  12  29  48  78 113 158 203 252 323 393 451
#     4  12  27  51  76 110 154 201 258 314 388 457
#
# _framework density 23.365957999999999
#
# number of rings (size 3 to 8) (size 9 to 14) (size 15 to 20)
#    0.000    0.500    2.500    4.875    8.750    0.000 
#    0.000    1.875    0.000    0.000    0.000    0.000 
#    0.000    0.000    0.000    0.000    0.000    0.000 
#
# Total GULP energy -89339.010892 kJ/mol
# GULP energy per Si atom -5583.688181 kJ/mol
# Density = 2.331278 g / cm^3
# Si number density = 23.365958 Si / 1000 Ang^3
#
#
#
# Elastic Constant Matrix: (Units=GPa)
#
#
# Indices 1 2 3 4 5 6 
#
# 1 104.6536 24.4252 30.9920 2.2446 4.6636 -13.5032
# 2 24.4252 89.8799 31.4630 7.1980 -2.5559 -19.8154
# 3 30.9920 31.4630 171.8909 9.5261 -14.0077 -17.8259
# 4 2.2446 7.1980 9.5261 33.8540 4.8965 1.7205
# 5 4.6636 -2.5559 -14.0077 4.8965 38.5727 2.3031
# 6 -13.5032 -19.8154 -17.8259 1.7205 2.3031 42.9952
#
#
#
# Elastic Compliance Matrix: (Units=1/GPa)
#
#
# Indices 1 2 3 4 5 6 
#
# 1 0.010839 -0.002067 -0.001578 0.000384 -0.002183 0.001899
# 2 -0.002067 0.013526 -0.001369 -0.002712 0.000690 0.005088
# 3 -0.001578 -0.001369 0.006860 -0.002016 0.002749 0.001651
# 4 0.000384 -0.002712 -0.002016 0.031499 -0.004780 -0.002969
# 5 -0.002183 0.000690 0.002749 -0.004780 0.027871 -0.000530
# 6 0.001899 0.005088 0.001651 -0.002969 -0.000530 0.027031
#
#
# Mechanical properties :
#
#
# Convention : Reuss Voigt Hill
#
# Bulk Modulus (GPa) = 47.17947 60.02053 53.60000
# Shear Modulus (GPa) = 37.11396 41.72067 39.41732
#
# Velocity S-wave (km/s) = 3.98977 4.23014 4.11171
# Velocity P-wave (km/s) = 6.43892 7.04285 6.74765
#
# Compressibility (1/GPa) = 0.02119566
#
# Stress axis : x y z
#
# Youngs Moduli (GPa) = 92.25765 73.93423 145.77987
#
# Poissons Ratio (x) = 0.15285 0.23007
# Poissons Ratio (y) = 0.19073 0.19954
# Poissons Ratio (z) = 0.14560 0.10120
#
# Static dielectric constant tensor:
#      x y z
#    x 1.924930 0.026260 0.020920 
#    y 0.026260 2.000470 0.058510 
#    z 0.020920 0.058510 1.910990 
# 
# From -- ./inp_files/189812.got.cif
#   From: 2010.05.17/outbox.cif.g08.bks.cpg/sg2_95_cif.got.tgz:189812.got - 2010.06.03 11:33:40.
