data_PCOD9044252
_publ_section_title
;
Structure prediction by ZEFSAII (Michael W. Deem and Ramdas Pophale) SiO2 
 PCOD9044252
Probable space group: P -1
;
_chemical_formula_sum "Si O2"
_cell_formula_units_Z 14
_cell_length_a 7.471285
_cell_length_b 7.760552
_cell_length_c 12.953287
_cell_angle_alpha 83.758298
_cell_angle_beta 57.907568
_cell_angle_gamma 62.680130
_cell_volume 556.127454
_symmetry_space_group_name_H-M "P -1"
_symmetry_group_IT_number 2
_symmetry_cell_setting 'triclinic'
loop_
_space_group_symop_operation_xyz
x,y,z
-x,-y,-z
loop_
_atom_site_type_symbol
_atom_site_label
_atom_site_fract_x
_atom_site_fract_y
_atom_site_fract_z
Si Si1 0.651770 0.102866 0.529143
Si Si2 0.480129 0.937448 0.148799
Si Si3 0.289728 0.558636 0.473859
Si Si4 0.819012 0.731940 0.244117
Si Si5 0.742769 0.723782 0.656328
Si Si6 0.954702 0.048049 0.234715
Si Si7 0.930749 0.646712 0.913697
O O1 0.359482 0.217074 0.607291
O O2 0.740141 0.229187 0.563332
O O3 0.659934 0.584972 0.629639
O O4 0.714511 0.896762 0.575065
O O5 0.625829 0.791238 0.207342
O O6 0.223949 0.955496 0.201653
O O7 0.411833 0.152966 0.205220
O O8 0.668652 0.828325 0.005790
O O9 0.500000 0.500000 0.500000
O O10 0.970816 0.395828 0.406680
O O11 0.924852 0.882523 0.192142
O O12 0.021881 0.509557 0.181372
O O13 0.223635 0.907299 0.617348
O O14 0.917446 0.240068 0.169222
O O15 0.000000 0.500000 0.000000
#
# Coordination Sequence:
#
# PCOD9044252 Si02
#       7
#     2   2   2   2   2   2   2
#     4  11  25  42  70 107 147 182 226 287 360 426
#     4  10  23  46  71  98 140 186 235 289 344 419
#     4  11  25  40  69 101 143 185 228 279 343 425
#     4  10  26  43  71 105 141 185 232 289 355 421
#     4  10  24  45  64 104 144 184 228 285 354 416
#     4  12  25  44  73 102 141 188 234 295 354 418
#     4  10  25  50  71 102 138 184 249 295 343 416
#
# _framework density 25.174085999999999
#
# number of rings (size 3 to 8) (size 9 to 14) (size 15 to 20)
#    0.000    1.429    1.429    1.286   10.000    2.857 
#    0.000    5.714    0.000    0.000    0.000    0.000 
#    0.000    0.000    0.000    0.000    0.000    0.000 
#
# Total GULP energy -78209.804287 kJ/mol
# GULP energy per Si atom -5586.414592 kJ/mol
# Density = 2.511679 g / cm^3
# Si number density = 25.174086 Si / 1000 Ang^3
#
#
#
# Elastic Constant Matrix: (Units=GPa)
#
#
# Indices 1 2 3 4 5 6 
#
# 1 127.1337 60.9227 41.1824 9.8971 -10.5718 11.2591
# 2 60.9227 177.0866 90.4373 7.0088 -16.3126 9.6150
# 3 41.1824 90.4373 146.6192 17.7376 -2.8372 10.1955
# 4 9.8971 7.0088 17.7376 55.9881 -10.7142 -13.7185
# 5 -10.5718 -16.3126 -2.8372 -10.7142 20.9156 -6.5586
# 6 11.2591 9.6150 10.1955 -13.7185 -6.5586 57.2932
#
#
#
# Elastic Compliance Matrix: (Units=1/GPa)
#
#
# Indices 1 2 3 4 5 6 
#
# 1 0.009764 -0.002650 -0.000839 -0.001140 0.001732 -0.001399
# 2 -0.002650 0.009979 -0.005702 0.002813 0.007550 0.001399
# 3 -0.000839 -0.005702 0.011193 -0.004609 -0.006569 -0.002726
# 4 -0.001140 0.002813 -0.004609 0.024240 0.015983 0.008206
# 5 0.001732 0.007550 -0.006569 0.015983 0.065277 0.010861
# 6 -0.001399 0.001399 -0.002726 0.008206 0.010861 0.021187
#
#
# Mechanical properties :
#
#
# Convention : Reuss Voigt Hill
#
# Bulk Modulus (GPa) = 79.66012 92.88048 86.27030
# Shear Modulus (GPa) = 30.44922 44.05920 37.25421
#
# Velocity S-wave (km/s) = 3.48163 4.18805 3.85107
# Velocity P-wave (km/s) = 6.91915 7.76928 7.35651
#
# Compressibility (1/GPa) = 0.01255333
#
# Stress axis : x y z
#
# Youngs Moduli (GPa) = 102.41575 100.21135 89.33788
#
# Poissons Ratio (x) = 0.26554 0.07499
# Poissons Ratio (y) = 0.27138 0.50944
# Poissons Ratio (z) = 0.08596 0.57144
#
# Static dielectric constant tensor:
#      x y z
#    x 2.028100 -0.031020 0.086170 
#    y -0.031020 2.112650 0.040900 
#    z 0.086170 0.040900 2.112030 
# 
# From -- ./inp_files/553332.got.cif
#   From: 2010.05.17/outbox.cif.g08.bks.cpg/sg2_277_cif.got.tgz:553332.got - 2010.06.03 11:33:40.
