data_PCOD9044801
_publ_section_title
;
Structure prediction by ZEFSAII (Michael W. Deem and Ramdas Pophale) SiO2 
 PCOD9044801
Probable space group: P -1
;
_chemical_formula_sum "Si O2"
_cell_formula_units_Z 16
_cell_length_a 5.666820
_cell_length_b 11.626618
_cell_length_c 21.670828
_cell_angle_alpha 34.292850
_cell_angle_beta 73.218703
_cell_angle_gamma 57.900320
_cell_volume 646.803937
_symmetry_space_group_name_H-M "P -1"
_symmetry_group_IT_number 2
_symmetry_cell_setting 'triclinic'
loop_
_space_group_symop_operation_xyz
x,y,z
-x,-y,-z
loop_
_atom_site_type_symbol
_atom_site_label
_atom_site_fract_x
_atom_site_fract_y
_atom_site_fract_z
Si Si1 0.806707 0.831994 0.015677
Si Si2 0.273064 0.570224 0.817785
Si Si3 0.651483 0.613642 0.974563
Si Si4 0.550231 0.899768 0.193286
Si Si5 0.871546 0.353005 0.811642
Si Si6 0.379151 0.528327 0.407567
Si Si7 0.086769 0.854374 0.393777
Si Si8 0.253358 0.259563 0.430177
O O1 0.908440 0.550961 0.128838
O O2 0.034645 0.792927 0.067051
O O3 0.500000 0.000000 0.000000
O O4 0.716490 0.962616 0.898480
O O5 0.518095 0.483225 0.784199
O O6 0.421570 0.424847 0.933729
O O7 0.080420 0.854858 0.721111
O O8 0.521161 0.893388 0.843688
O O9 0.500000 0.500000 0.000000
O O10 0.000000 0.500000 0.000000
O O11 0.538913 0.672936 0.316847
O O12 0.864249 0.829837 0.173320
O O13 0.892710 0.584275 0.690169
O O14 0.107467 0.728429 0.382090
O O15 0.579313 0.294064 0.539955
O O16 0.330457 0.423989 0.394318
O O17 0.927387 0.793320 0.484909
O O18 0.500000 0.000000 0.500000
#
# Coordination Sequence:
#
# PCOD9044801 Si02
#       8
#     2   2   2   2   2   2   2   2
#     4   9  23  41  64 101 143 180 239 300 379 454
#     4  11  25  43  73 103 144 195 247 318 384 455
#     4  11  27  50  74 111 150 204 265 318 392 468
#     4  10  23  47  74 103 143 197 245 312 389 460
#     4  11  24  42  67 106 139 184 244 309 390 446
#     4  11  26  48  73 102 149 194 254 309 386 467
#     4  11  25  48  70 105 140 201 249 309 385 457
#     4  12  26  44  71 108 143 190 249 316 388 457
#
# _framework density 24.737017999999999
#
# number of rings (size 3 to 8) (size 9 to 14) (size 15 to 20)
#    0.000    1.250    2.500    1.125    8.750    7.000 
#    4.500    0.000    0.000    0.000    0.000    0.000 
#    0.000    0.000    0.000    0.000    0.000    0.000 
#
# Total GULP energy -89072.787942 kJ/mol
# GULP energy per Si atom -5567.049246 kJ/mol
# Density = 2.468072 g / cm^3
# Si number density = 24.737018 Si / 1000 Ang^3
#
#
#
# Elastic Constant Matrix: (Units=GPa)
#
#
# Indices 1 2 3 4 5 6 
#
# 1 58.0705 50.6322 29.2275 -17.9368 -5.3980 -0.9855
# 2 50.6322 136.9258 43.2440 -19.6650 -5.4191 -13.5252
# 3 29.2275 43.2440 130.3432 -28.2714 -7.7024 7.5396
# 4 -17.9368 -19.6650 -28.2714 58.8813 0.5723 -2.4104
# 5 -5.3980 -5.4191 -7.7024 0.5723 33.4935 0.4136
# 6 -0.9855 -13.5252 7.5396 -2.4104 0.4136 47.3500
#
#
#
# Elastic Compliance Matrix: (Units=1/GPa)
#
#
# Indices 1 2 3 4 5 6 
#
# 1 0.027643 -0.009001 -0.002037 0.004352 0.002474 -0.001471
# 2 -0.009001 0.011645 -0.001976 0.000341 -0.000070 0.003472
# 3 -0.002037 -0.001976 0.009704 0.003282 0.001552 -0.001998
# 4 0.004352 0.000341 0.003282 0.020015 0.001161 0.000674
# 5 0.002474 -0.000070 0.001552 0.001161 0.030586 -0.000424
# 6 -0.001471 0.003472 -0.001998 0.000674 -0.000424 0.022437
#
#
# Mechanical properties :
#
#
# Convention : Reuss Voigt Hill
#
# Bulk Modulus (GPa) = 43.54699 63.50521 53.52610
# Shear Modulus (GPa) = 32.11070 41.42734 36.76902
#
# Velocity S-wave (km/s) = 3.60680 4.09676 3.85956
# Velocity P-wave (km/s) = 5.91503 6.93584 6.44567
#
# Compressibility (1/GPa) = 0.02296370
#
# Stress axis : x y z
#
# Youngs Moduli (GPa) = 36.17558 85.87562 103.05546
#
# Poissons Ratio (x) = 0.77295 0.20992
# Poissons Ratio (y) = 0.32561 0.20364
# Poissons Ratio (z) = 0.07369 0.16969
#
# Static dielectric constant tensor:
#      x y z
#    x 2.090760 0.047930 0.008480 
#    y 0.047930 2.107420 -0.025340 
#    z 0.008480 -0.025340 1.956170 
# 
# From -- ./inp_files/604388.got.cif
#   From: 2010.05.17/outbox.cif.g08.bks.cpg/sg2_303_cif.got.tgz:604388.got - 2010.06.03 11:33:40.
