data_PCOD9044123
_publ_section_title
;
Structure prediction by ZEFSAII (Michael W. Deem and Ramdas Pophale) SiO2 
 PCOD9044123
Probable space group: P -1
;
_chemical_formula_sum "Si O2"
_cell_formula_units_Z 14
_cell_length_a 10.250222
_cell_length_b 10.627453
_cell_length_c 21.388331
_cell_angle_alpha 147.986160
_cell_angle_beta 36.316593
_cell_angle_gamma 123.749328
_cell_volume 668.311860
_symmetry_space_group_name_H-M "P -1"
_symmetry_group_IT_number 2
_symmetry_cell_setting 'triclinic'
loop_
_space_group_symop_operation_xyz
x,y,z
-x,-y,-z
loop_
_atom_site_type_symbol
_atom_site_label
_atom_site_fract_x
_atom_site_fract_y
_atom_site_fract_z
Si Si1 0.690524 0.221443 0.385993
Si Si2 0.175927 0.141283 0.973945
Si Si3 0.660535 0.736010 0.559260
Si Si4 0.732271 0.412746 0.827247
Si Si5 0.446486 0.738623 0.406525
Si Si6 0.963493 0.343740 0.008149
Si Si7 0.114885 0.859982 0.469164
O O1 0.721886 0.436546 0.421907
O O2 0.456892 0.190549 0.433508
O O3 0.635960 0.309514 0.514444
O O4 0.923505 0.954970 0.181763
O O5 0.202605 0.337906 0.097269
O O6 0.090645 0.311978 0.014413
O O7 0.437649 0.916089 0.764331
O O8 0.000000 0.000000 0.000000
O O9 0.893738 0.781125 0.506238
O O10 0.698753 0.288754 0.721818
O O11 0.500000 0.500000 0.000000
O O12 0.971656 0.172360 0.657769
O O13 0.246958 0.777679 0.448325
O O14 0.500000 0.000000 0.500000
O O15 0.684332 0.492615 0.192746
O O16 0.000000 0.500000 0.000000
#
# Coordination Sequence:
#
# PCOD9044123 Si02
#       7
#     2   2   2   2   2   2   2
#     4  10  24  43  70  94 141 176 227 295 343 416
#     4  11  24  44  77 106 137 185 244 290 349 421
#     4  10  23  46  70 104 135 180 239 290 355 411
#     4  11  25  43  68 101 144 181 230 296 349 411
#     4  12  25  42  66  98 138 179 229 284 351 420
#     4  11  24  40  68 100 134 180 236 282 350 417
#     4  11  27  41  69 104 139 182 235 287 356 418
#
# _framework density 20.948304
#
# number of rings (size 3 to 8) (size 9 to 14) (size 15 to 20)
#    0.000    1.143    2.857    1.714   14.000    0.571 
#    0.000    0.714    0.000    0.000    0.000    0.000 
#    0.000    0.000    0.000    0.000    0.000    0.000 
#
# Total GULP energy -78148.627926 kJ/mol
# GULP energy per Si atom -5582.044852 kJ/mol
# Density = 2.090062 g / cm^3
# Si number density = 20.948304 Si / 1000 Ang^3
#
#
#
# Elastic Constant Matrix: (Units=GPa)
#
#
# Indices 1 2 3 4 5 6 
#
# 1 121.8574 30.7069 62.8896 -5.3908 1.8253 -4.9205
# 2 30.7069 73.7705 52.7082 9.2545 1.2150 9.3549
# 3 62.8896 52.7082 174.8991 -0.8563 -1.9789 -4.3101
# 4 -5.3908 9.2545 -0.8563 41.0113 -6.9905 -0.7102
# 5 1.8253 1.2150 -1.9789 -6.9905 36.3616 -1.8592
# 6 -4.9205 9.3549 -4.3101 -0.7102 -1.8592 34.5646
#
#
#
# Elastic Compliance Matrix: (Units=1/GPa)
#
#
# Indices 1 2 3 4 5 6 
#
# 1 0.010582 -0.002829 -0.002896 0.001983 -0.000113 0.001946
# 2 -0.002829 0.020060 -0.005246 -0.005502 -0.002215 -0.006718
# 3 -0.002896 -0.005246 0.008411 0.001207 0.001120 0.002141
# 4 0.001983 -0.005502 0.001207 0.026890 0.005461 0.002768
# 5 -0.000113 -0.002215 0.001120 0.005461 0.028814 0.002385
# 6 0.001946 -0.006718 0.002141 0.002768 0.002385 0.031479
#
#
# Mechanical properties :
#
#
# Convention : Reuss Voigt Hill
#
# Bulk Modulus (GPa) = 58.44117 73.68183 66.06150
# Shear Modulus (GPa) = 32.49278 37.33565 34.91421
#
# Velocity S-wave (km/s) = 3.94267 4.22628 4.08693
# Velocity P-wave (km/s) = 6.97743 7.68536 7.33994
#
# Compressibility (1/GPa) = 0.01711122
#
# Stress axis : x y z
#
# Youngs Moduli (GPa) = 94.50154 49.85118 118.89094
#
# Poissons Ratio (x) = 0.14104 0.34431
# Poissons Ratio (y) = 0.26736 0.62364
# Poissons Ratio (z) = 0.27368 0.26150
#
# Static dielectric constant tensor:
#      x y z
#    x 1.568040 0.002230 0.094940 
#    y 0.002230 1.846350 -0.027120 
#    z 0.094940 -0.027120 1.743060 
# 
# From -- ./inp_files/426694.got.cif
#   From: 2010.05.17/outbox.cif.g08.bks.cpg/sg2_214_cif.got.tgz:426694.got - 2010.06.03 11:33:40.
