data_PCOD9044763
_publ_section_title
;
Structure prediction by ZEFSAII (Michael W. Deem and Ramdas Pophale) SiO2 
 PCOD9044763
Probable space group: P -1
;
_chemical_formula_sum "Si O2"
_cell_formula_units_Z 14
_cell_length_a 13.359083
_cell_length_b 12.120972
_cell_length_c 7.288496
_cell_angle_alpha 83.904476
_cell_angle_beta 111.244341
_cell_angle_gamma 148.268575
_cell_volume 527.124586
_symmetry_space_group_name_H-M "P -1"
_symmetry_group_IT_number 2
_symmetry_cell_setting 'triclinic'
loop_
_space_group_symop_operation_xyz
x,y,z
-x,-y,-z
loop_
_atom_site_type_symbol
_atom_site_label
_atom_site_fract_x
_atom_site_fract_y
_atom_site_fract_z
Si Si1 0.253624 0.158510 0.749073
Si Si2 0.534461 0.663958 0.498313
Si Si3 0.937813 0.244001 0.686513
Si Si4 0.467924 0.025065 0.671701
Si Si5 0.037488 0.277013 0.154437
Si Si6 0.359629 0.512783 0.795392
Si Si7 0.160646 0.667790 0.852932
O O1 0.257337 0.143212 0.536789
O O2 0.272740 0.307085 0.776148
O O3 0.488816 0.326330 0.955864
O O4 0.063313 0.918949 0.768085
O O5 0.500000 0.500000 0.500000
O O6 0.525405 0.682117 0.705105
O O7 0.303328 0.509919 0.304382
O O8 0.692771 0.018086 0.477052
O O9 0.966262 0.209433 0.905891
O O10 0.142237 0.391909 0.669331
O O11 0.697317 0.247973 0.893991
O O12 0.325314 0.826365 0.760533
O O13 0.500000 0.000000 0.500000
O O14 0.934721 0.297301 0.167845
O O15 0.981664 0.413545 0.728770
#
# Coordination Sequence:
#
# PCOD9044763 Si02
#       7
#     2   2   2   2   2   2   2
#     4  10  24  48  71 105 145 183 250 296 365 444
#     4  10  23  47  74 106 140 192 242 299 369 431
#     4  12  25  49  74 106 152 196 245 304 377 435
#     4  11  25  45  73 107 138 198 250 298 370 436
#     4  12  25  47  73 105 147 194 236 305 370 432
#     4  10  23  47  73 102 141 193 235 307 368 431
#     4  11  27  49  72 105 151 189 248 310 358 446
#
# _framework density 26.559183999999998
#
# number of rings (size 3 to 8) (size 9 to 14) (size 15 to 20)
#    0.000    1.143    2.857    1.714    4.000    2.857 
#   10.286    0.000    0.000    0.000    0.000    0.000 
#    0.000    0.000    0.000    0.000    0.000    0.000 
#
# Total GULP energy -78473.655242 kJ/mol
# GULP energy per Si atom -5605.261089 kJ/mol
# Density = 2.649873 g / cm^3
# Si number density = 26.559184 Si / 1000 Ang^3
#
#
#
# Elastic Constant Matrix: (Units=GPa)
#
#
# Indices 1 2 3 4 5 6 
#
# 1 64.9091 0.8228 24.8645 15.0821 -3.4613 17.2889
# 2 0.8228 123.1528 30.4033 -4.8805 -12.5083 1.6322
# 3 24.8645 30.4033 125.2944 -6.4868 5.5968 7.9749
# 4 15.0821 -4.8805 -6.4868 65.8636 19.3961 6.2417
# 5 -3.4613 -12.5083 5.5968 19.3961 40.1508 -2.2919
# 6 17.2889 1.6322 7.9749 6.2417 -2.2919 39.1794
#
#
#
# Elastic Compliance Matrix: (Units=1/GPa)
#
#
# Indices 1 2 3 4 5 6 
#
# 1 0.020664 0.001380 -0.004539 -0.005986 0.005337 -0.006986
# 2 0.001380 0.009129 -0.002711 -0.001032 0.003837 -0.000049
# 3 -0.004539 -0.002711 0.009927 0.003100 -0.004154 -0.000641
# 4 -0.005986 -0.001032 0.003100 0.020239 -0.011151 -0.001823
# 5 0.005337 0.003837 -0.004154 -0.011151 0.032642 0.002017
# 6 -0.006986 -0.000049 -0.000641 -0.001823 0.002017 0.029147
#
#
# Mechanical properties :
#
#
# Convention : Reuss Voigt Hill
#
# Bulk Modulus (GPa) = 35.74007 47.28195 41.51101
# Shear Modulus (GPa) = 35.01014 46.18979 40.59996
#
# Velocity S-wave (km/s) = 3.63463 4.17481 3.91405
# Velocity P-wave (km/s) = 5.57674 6.40936 6.00749
#
# Compressibility (1/GPa) = 0.02797980
#
# Stress axis : x y z
#
# Youngs Moduli (GPa) = 48.39367 109.53567 100.73838
#
# Poissons Ratio (x) = -0.15116 0.45728
# Poissons Ratio (y) = -0.06678 0.27309
# Poissons Ratio (z) = 0.21967 0.29694
#
# Static dielectric constant tensor:
#      x y z
#    x 2.134790 -0.102980 0.063980 
#    y -0.102980 2.115680 -0.061560 
#    z 0.063980 -0.061560 2.102580 
# 
# From -- ./inp_files/99765.got.cif
#   From: 2010.05.17/outbox.cif.g08.bks.cpg/sg2_50_cif.got.tgz:99765.got - 2010.06.03 11:33:40.
