data_PCOD9044641
_publ_section_title
;
Structure prediction by ZEFSAII (Michael W. Deem and Ramdas Pophale) SiO2 
 PCOD9044641
Probable space group: P -1
;
_chemical_formula_sum "Si O2"
_cell_formula_units_Z 12
_cell_length_a 12.060045
_cell_length_b 8.837072
_cell_length_c 13.848007
_cell_angle_alpha 136.249473
_cell_angle_beta 30.089160
_cell_angle_gamma 141.867105
_cell_volume 452.711293
_symmetry_space_group_name_H-M "P -1"
_symmetry_group_IT_number 2
_symmetry_cell_setting 'triclinic'
loop_
_space_group_symop_operation_xyz
x,y,z
-x,-y,-z
loop_
_atom_site_type_symbol
_atom_site_label
_atom_site_fract_x
_atom_site_fract_y
_atom_site_fract_z
Si Si1 0.578505 0.857181 0.793908
Si Si2 0.945002 0.319243 0.366365
Si Si3 0.579276 0.225969 0.825791
Si Si4 0.256516 0.516013 0.730472
Si Si5 0.894194 0.959756 0.761540
Si Si6 0.779342 0.083241 0.193783
O O1 0.347799 0.614898 0.815489
O O2 0.784645 0.815367 0.677235
O O3 0.674851 0.039271 0.712875
O O4 0.500000 0.000000 0.000000
O O5 0.760470 0.211370 0.366026
O O6 0.000000 0.500000 0.500000
O O7 0.208825 0.495985 0.194286
O O8 0.908626 0.079258 0.341733
O O9 0.468545 0.153140 0.767895
O O10 0.339304 0.155854 0.041893
O O11 0.500000 0.500000 0.500000
O O12 0.192054 0.712845 0.815023
O O13 0.024762 0.247820 0.773988
O O14 0.000000 0.000000 0.000000
#
# Coordination Sequence:
#
# PCOD9044641 Si02
#       6
#     2   2   2   2   2   2
#     4   9  22  43  73 100 138 185 243 291 354 431
#     4  12  28  44  71 104 147 190 240 305 364 419
#     4  10  23  47  70 100 139 189 245 285 355 431
#     4  11  27  46  74 109 149 185 237 307 365 418
#     4  11  24  44  73 105 141 188 244 292 360 433
#     4  11  25  49  74 102 146 193 243 291 360 443
#
# _framework density 26.506959999999999
#
# number of rings (size 3 to 8) (size 9 to 14) (size 15 to 20)
#    0.000    1.333    1.667    1.500    7.000   11.333 
#    0.000    0.000    0.000    0.000    0.000    0.000 
#    0.000    0.000    0.000    0.000    0.000    0.000 
#
# Total GULP energy -66975.871079 kJ/mol
# GULP energy per Si atom -5581.322590 kJ/mol
# Density = 2.644663 g / cm^3
# Si number density = 26.506960 Si / 1000 Ang^3
#
#
#
# Elastic Constant Matrix: (Units=GPa)
#
#
# Indices 1 2 3 4 5 6 
#
# 1 199.6099 26.1171 0.5754 -4.8365 6.3362 39.9309
# 2 26.1171 105.2710 -2.6943 -13.8423 -2.8115 9.2826
# 3 0.5754 -2.6943 98.4638 -10.3191 -0.1914 6.6263
# 4 -4.8365 -13.8423 -10.3191 29.6642 10.0028 -3.2633
# 5 6.3362 -2.8115 -0.1914 10.0028 31.8717 12.1330
# 6 39.9309 9.2826 6.6263 -3.2633 12.1330 48.4679
#
#
#
# Elastic Compliance Matrix: (Units=1/GPa)
#
#
# Indices 1 2 3 4 5 6 
#
# 1 0.006138 -0.001077 0.000256 -0.000199 0.000678 -0.005068
# 2 -0.001077 0.010518 0.000874 0.004962 -0.000069 -0.000895
# 3 0.000256 0.000874 0.010717 0.004272 -0.000727 -0.001374
# 4 -0.000199 0.004962 0.004272 0.043139 -0.015055 0.005303
# 5 0.000678 -0.000069 -0.000727 -0.015055 0.040357 -0.011562
# 6 -0.005068 -0.000895 -0.001374 0.005303 -0.011562 0.028419
#
#
# Mechanical properties :
#
#
# Convention : Reuss Voigt Hill
#
# Bulk Modulus (GPa) = 36.39097 50.14901 43.26999
# Shear Modulus (GPa) = 33.70593 47.29054 40.49823
#
# Velocity S-wave (km/s) = 3.56980 4.22842 3.91299
# Velocity P-wave (km/s) = 5.54526 6.54214 6.06422
#
# Compressibility (1/GPa) = 0.02747934
#
# Stress axis : x y z
#
# Youngs Moduli (GPa) = 162.93187 95.07134 93.30804
#
# Poissons Ratio (x) = 0.10242 -0.02390
# Poissons Ratio (y) = 0.17552 -0.08157
# Poissons Ratio (z) = -0.04174 -0.08311
#
# Static dielectric constant tensor:
#      x y z
#    x 2.135220 -0.073530 -0.106810 
#    y -0.073530 2.092850 0.145130 
#    z -0.106810 0.145130 2.449160 
# 
# From -- ./inp_files/513631.got.cif
#   From: 2010.05.17/outbox.cif.g08.bks.cpg/sg2_257_cif.got.tgz:513631.got - 2010.06.03 11:33:40.
