data_PCOD9044920
_publ_section_title
;
Structure prediction by ZEFSAII (Michael W. Deem and Ramdas Pophale) SiO2 
 PCOD9044920
Probable space group: P -1
;
_chemical_formula_sum "Si O2"
_cell_formula_units_Z 16
_cell_length_a 12.131035
_cell_length_b 14.935558
_cell_length_c 14.507333
_cell_angle_alpha 138.563291
_cell_angle_beta 57.671352
_cell_angle_gamma 151.691175
_cell_volume 756.375124
_symmetry_space_group_name_H-M "P -1"
_symmetry_group_IT_number 2
_symmetry_cell_setting 'triclinic'
loop_
_space_group_symop_operation_xyz
x,y,z
-x,-y,-z
loop_
_atom_site_type_symbol
_atom_site_label
_atom_site_fract_x
_atom_site_fract_y
_atom_site_fract_z
Si Si1 0.448940 0.123955 0.750345
Si Si2 0.771966 0.898830 0.006608
Si Si3 0.056082 0.408896 0.537567
Si Si4 0.010605 0.850316 0.478976
Si Si5 0.451042 0.073367 0.354392
Si Si6 0.009587 0.650184 0.850247
Si Si7 0.900608 0.275215 0.919541
Si Si8 0.246004 0.340020 0.746123
O O1 0.337801 0.138703 0.878239
O O2 0.705860 0.400208 0.799967
O O3 0.222123 0.873725 0.593160
O O4 0.528072 0.061798 0.725612
O O5 0.542146 0.617894 0.843137
O O6 0.861411 0.107016 0.067609
O O7 0.000000 0.000000 0.000000
O O8 0.052648 0.552454 0.697519
O O9 0.274649 0.613059 0.520638
O O10 0.120017 0.350265 0.537401
O O11 0.238497 0.960841 0.421612
O O12 0.131711 0.098717 0.648680
O O13 0.825301 0.715983 0.373060
O O14 0.352873 0.988029 0.226645
O O15 0.117570 0.725462 0.963476
O O16 0.104366 0.339101 0.857342
O O17 0.000000 0.500000 0.000000
#
# Coordination Sequence:
#
# PCOD9044920 Si02
#       8
#     2   2   2   2   2   2   2   2
#     4  12  25  46  64  99 143 169 224 282 326 401
#     4  12  29  44  69  99 136 181 222 277 334 399
#     4  12  26  39  73 100 129 179 228 270 333 398
#     4  10  24  45  70  97 133 180 215 277 337 391
#     4  11  23  42  68 101 132 170 220 281 331 388
#     4  12  25  43  71  99 130 181 222 276 340 393
#     4  11  21  44  72  98 137 173 219 280 334 390
#     4  10  23  48  66  96 143 170 220 278 330 395
#
# _framework density 21.153524000000001
#
# number of rings (size 3 to 8) (size 9 to 14) (size 15 to 20)
#    0.000    0.750    5.000    1.500    5.250    2.000 
#    0.000    1.875    0.000    0.000    0.000    0.000 
#    0.000    0.000    0.000    0.000    0.000    0.000 
#
# Total GULP energy -89567.420061 kJ/mol
# GULP energy per Si atom -5597.963754 kJ/mol
# Density = 2.110538 g / cm^3
# Si number density = 21.153524 Si / 1000 Ang^3
#
#
#
# Elastic Constant Matrix: (Units=GPa)
#
#
# Indices 1 2 3 4 5 6 
#
# 1 74.5837 7.2033 30.6378 2.5321 -17.7872 8.0504
# 2 7.2033 58.7709 15.4050 14.4566 -10.0346 3.7856
# 3 30.6378 15.4050 89.0505 16.1972 -7.8102 4.4575
# 4 2.5321 14.4566 16.1972 20.3334 -1.4576 -2.7648
# 5 -17.7872 -10.0346 -7.8102 -1.4576 39.1509 2.9440
# 6 8.0504 3.7856 4.4575 -2.7648 2.9440 33.3522
#
#
#
# Elastic Compliance Matrix: (Units=1/GPa)
#
#
# Indices 1 2 3 4 5 6 
#
# 1 0.017873 0.000333 -0.005729 0.002081 0.007446 -0.004071
# 2 0.000333 0.022148 -0.000399 -0.015665 0.005490 -0.004324
# 3 -0.005729 -0.000399 0.015452 -0.011524 0.000069 -0.001598
# 4 0.002081 -0.015665 -0.011524 0.070208 -0.003427 0.008938
# 5 0.007446 0.005490 0.000069 -0.003427 0.030626 -0.005417
# 6 -0.004071 -0.004324 -0.001598 0.008938 -0.005417 0.032889
#
#
# Mechanical properties :
#
#
# Convention : Reuss Voigt Hill
#
# Bulk Modulus (GPa) = 22.78735 36.54415 29.66575
# Shear Modulus (GPa) = 23.21115 29.84456 26.52785
#
# Velocity S-wave (km/s) = 3.31610 3.76021 3.54512
# Velocity P-wave (km/s) = 5.04557 6.01377 5.55082
#
# Compressibility (1/GPa) = 0.04388400
#
# Stress axis : x y z
#
# Youngs Moduli (GPa) = 55.94879 45.15039 64.71827
#
# Poissons Ratio (x) = -0.01502 0.37074
# Poissons Ratio (y) = -0.01861 0.02580
# Poissons Ratio (z) = 0.32051 0.01800
#
# Static dielectric constant tensor:
#      x y z
#    x 1.737660 0.003600 0.030850 
#    y 0.003600 1.741300 -0.000610 
#    z 0.030850 -0.000610 1.772580 
# 
# From -- ./inp_files/427012.got.cif
#   From: 2010.05.17/outbox.cif.g08.bks.cpg/sg2_214_cif.got.tgz:427012.got - 2010.06.03 11:33:40.
