data_PCOD9044819
_publ_section_title
;
Structure prediction by ZEFSAII (Michael W. Deem and Ramdas Pophale) SiO2 
 PCOD9044819
Probable space group: P -1
;
_chemical_formula_sum "Si O2"
_cell_formula_units_Z 16
_cell_length_a 5.049179
_cell_length_b 16.615413
_cell_length_c 13.680222
_cell_angle_alpha 140.067623
_cell_angle_beta 124.697043
_cell_angle_gamma 55.280760
_cell_volume 586.112815
_symmetry_space_group_name_H-M "P -1"
_symmetry_group_IT_number 2
_symmetry_cell_setting 'triclinic'
loop_
_space_group_symop_operation_xyz
x,y,z
-x,-y,-z
loop_
_atom_site_type_symbol
_atom_site_label
_atom_site_fract_x
_atom_site_fract_y
_atom_site_fract_z
Si Si1 0.171589 0.436560 0.077982
Si Si2 0.414118 0.248355 0.494678
Si Si3 0.860011 0.216574 0.893986
Si Si4 0.722535 0.699532 0.279140
Si Si5 0.983585 0.047441 0.430909
Si Si6 0.809433 0.877771 0.919220
Si Si7 0.343319 0.507700 0.634232
Si Si8 0.275820 0.747304 0.722201
O O1 0.553961 0.435637 0.186701
O O2 0.956456 0.556581 0.211741
O O3 0.000000 0.500000 0.000000
O O4 0.085228 0.302994 0.970307
O O5 0.512718 0.274013 0.650208
O O6 0.601282 0.103427 0.372184
O O7 0.493732 0.358113 0.547688
O O8 0.023411 0.263487 0.420317
O O9 0.487587 0.295486 0.860376
O O10 0.868431 0.077526 0.717554
O O11 0.979857 0.173825 0.987789
O O12 0.869427 0.826737 0.428293
O O13 0.000000 0.000000 0.500000
O O14 0.576764 0.781732 0.762680
O O15 0.076985 0.851721 0.861034
O O16 0.500000 0.000000 0.000000
O O17 0.443488 0.610573 0.680446
O O18 0.000000 0.500000 0.500000
#
# Coordination Sequence:
#
# PCOD9044819 Si02
#       8
#     2   2   2   2   2   2   2   2
#     4  12  25  47  78 113 160 198 261 332 406 472
#     4  11  25  46  77 107 147 197 261 318 393 472
#     4  12  27  45  75 114 151 205 260 327 398 480
#     4  12  27  46  77 110 150 203 259 327 397 481
#     4  12  25  47  70 110 153 196 258 316 400 476
#     4  12  28  49  73 111 158 210 261 321 402 468
#     4  10  23  47  74 111 142 203 256 323 390 469
#     4  11  27  48  79 108 155 202 264 328 389 475
#
# _framework density 27.298500000000001
#
# number of rings (size 3 to 8) (size 9 to 14) (size 15 to 20)
#    0.000    0.500    3.750    3.375    7.000    1.000 
#    0.000    3.125    0.000    0.000    0.000    0.000 
#    0.000    0.000    0.000    0.000    0.000    0.000 
#
# Total GULP energy -89307.481461 kJ/mol
# GULP energy per Si atom -5581.717591 kJ/mol
# Density = 2.723637 g / cm^3
# Si number density = 27.298500 Si / 1000 Ang^3
#
#
#
# Elastic Constant Matrix: (Units=GPa)
#
#
# Indices 1 2 3 4 5 6 
#
# 1 82.5301 22.4410 14.9155 0.8828 0.7533 -2.1831
# 2 22.4410 166.4893 22.5527 -8.6493 -11.6044 -10.5193
# 3 14.9155 22.5527 111.1643 -25.9360 7.5802 6.0479
# 4 0.8828 -8.6493 -25.9360 63.9185 -2.6295 1.9897
# 5 0.7533 -11.6044 7.5802 -2.6295 42.3315 2.7840
# 6 -2.1831 -10.5193 6.0479 1.9897 2.7840 35.9762
#
#
#
# Elastic Compliance Matrix: (Units=1/GPa)
#
#
# Indices 1 2 3 4 5 6 
#
# 1 0.012878 -0.001554 -0.001678 -0.001110 -0.000470 0.000707
# 2 -0.001554 0.006670 -0.001284 0.000426 0.001988 0.001894
# 3 -0.001678 -0.001284 0.010713 0.004195 -0.001824 -0.002369
# 4 -0.001110 0.000426 0.004195 0.017496 0.000581 -0.001661
# 5 -0.000470 0.001988 -0.001824 0.000581 0.024610 -0.001077
# 6 0.000707 0.001894 -0.002369 -0.001661 -0.001077 0.028966
#
#
# Mechanical properties :
#
#
# Convention : Reuss Voigt Hill
#
# Bulk Modulus (GPa) = 47.10589 53.33358 50.21974
# Shear Modulus (GPa) = 42.57418 48.46354 45.51886
#
# Velocity S-wave (km/s) = 3.95344 4.21802 4.08787
# Velocity P-wave (km/s) = 6.17518 6.58042 6.38102
#
# Compressibility (1/GPa) = 0.02122877
#
# Stress axis : x y z
#
# Youngs Moduli (GPa) = 77.65458 149.92060 93.34090
#
# Poissons Ratio (x) = 0.23302 0.15662
# Poissons Ratio (y) = 0.12070 0.11984
# Poissons Ratio (z) = 0.13030 0.19249
#
# Static dielectric constant tensor:
#      x y z
#    x 2.203150 -0.096100 -0.043130 
#    y -0.096100 2.223370 -0.027650 
#    z -0.043130 -0.027650 2.224560 
# 
# From -- ./inp_files/485276.got.cif
#   From: 2010.05.17/outbox.cif.g08.bks.cpg/sg2_243_cif.got.tgz:485276.got - 2010.06.03 11:33:40.
