data_PCOD9044388
_publ_section_title
;
Structure prediction by ZEFSAII (Michael W. Deem and Ramdas Pophale) SiO2 
 PCOD9044388
Probable space group: P -1
;
_chemical_formula_sum "Si O2"
_cell_formula_units_Z 15
_cell_length_a 6.765526
_cell_length_b 8.968629
_cell_length_c 19.883598
_cell_angle_alpha 140.266859
_cell_angle_beta 111.262223
_cell_angle_gamma 86.134126
_cell_volume 671.902085
_symmetry_space_group_name_H-M "P -1"
_symmetry_group_IT_number 2
_symmetry_cell_setting 'triclinic'
loop_
_space_group_symop_operation_xyz
x,y,z
-x,-y,-z
loop_
_atom_site_type_symbol
_atom_site_label
_atom_site_fract_x
_atom_site_fract_y
_atom_site_fract_z
Si Si1 0.752949 0.997566 0.906019
Si Si2 0.061656 0.078149 0.343696
Si Si3 0.500000 0.500000 0.500000
Si Si4 0.602845 0.209125 0.686056
Si Si5 0.620826 0.793982 0.102589
Si Si6 0.259103 0.269035 0.055334
Si Si7 0.098489 0.837116 0.502782
Si Si8 0.720029 0.496004 0.660902
O O1 0.678552 0.892563 0.935258
O O2 0.798168 0.772192 0.795660
O O3 0.566795 0.076217 0.872583
O O4 0.992807 0.220933 0.017042
O O5 0.001754 0.182420 0.442367
O O6 0.236705 0.299113 0.398807
O O7 0.830257 0.931771 0.224774
O O8 0.190799 0.885274 0.307637
O O9 0.523447 0.463174 0.571203
O O10 0.610204 0.439483 0.813936
O O11 0.621263 0.310099 0.647255
O O12 0.368995 0.984642 0.592967
O O13 0.500000 0.500000 0.000000
O O14 0.703815 0.809619 0.041454
O O15 0.082226 0.584045 0.375403
O O16 0.000000 0.000000 0.500000
#
# Coordination Sequence:
#
# PCOD9044388 Si02
#       8
#     2   2   1   2   2   2   2   2
#     4  10  24  47  70 104 140 185 235 284 359 415
#     4  12  27  45  70 105 144 187 238 289 355 422
#     4  12  26  46  64  98 152 184 222 290 356 408
#     4  11  23  48  71 102 138 190 240 287 353 419
#     4  12  26  45  73 110 139 181 239 294 352 421
#     4  10  23  46  73  96 141 187 229 297 347 420
#     4  12  24  45  74 101 136 187 246 285 340 427
#     4  11  24  45  71  99 145 185 231 291 349 419
#
# _framework density 22.324681999999999
#
# number of rings (size 3 to 8) (size 9 to 14) (size 15 to 20)
#    0.000    0.800    2.667    4.000    1.867    4.800 
#   14.400    0.000    0.000    0.000    0.000    0.000 
#    0.000    0.000    0.000    0.000    0.000    0.000 
#
# Total GULP energy -83736.414262 kJ/mol
# GULP energy per Si atom -5582.427617 kJ/mol
# Density = 2.227387 g / cm^3
# Si number density = 22.324682 Si / 1000 Ang^3
#
#
#
# Elastic Constant Matrix: (Units=GPa)
#
#
# Indices 1 2 3 4 5 6 
#
# 1 90.9739 51.8372 54.8189 5.4160 -1.3014 -10.0902
# 2 51.8372 98.9999 43.5464 -8.7599 4.1188 -5.4714
# 3 54.8189 43.5464 81.0110 -2.5899 3.3236 16.3844
# 4 5.4160 -8.7599 -2.5899 36.3718 1.8849 10.6969
# 5 -1.3014 4.1188 3.3236 1.8849 46.0981 -7.3040
# 6 -10.0902 -5.4714 16.3844 10.6969 -7.3040 25.8874
#
#
#
# Elastic Compliance Matrix: (Units=1/GPa)
#
#
# Indices 1 2 3 4 5 6 
#
# 1 0.056127 -0.006944 -0.050912 -0.036064 0.018895 0.072865
# 2 -0.006944 0.015922 -0.003839 0.004409 -0.001383 0.000876
# 3 -0.050912 -0.003839 0.068188 0.037702 -0.021073 -0.085337
# 4 -0.036064 0.004409 0.037702 0.056630 -0.016763 -0.065116
# 5 0.018895 -0.001383 -0.021073 -0.016763 0.030238 0.035868
# 6 0.072865 0.000876 -0.085337 -0.065116 0.035868 0.158251
#
#
# Mechanical properties :
#
#
# Convention : Reuss Voigt Hill
#
# Bulk Modulus (GPa) = 59.36169 63.48776 61.42472
# Shear Modulus (GPa) = 9.72078 29.72362 19.72220
#
# Velocity S-wave (km/s) = 2.08895 3.65283 2.97547
# Velocity P-wave (km/s) = 5.69791 6.80375 6.27524
#
# Compressibility (1/GPa) = 0.01684588
#
# Stress axis : x y z
#
# Youngs Moduli (GPa) = 17.81686 62.80707 14.66525
#
# Poissons Ratio (x) = 0.43614 0.74664
# Poissons Ratio (y) = 0.12372 0.05630
# Poissons Ratio (z) = 0.90710 0.24112
#
# Static dielectric constant tensor:
#      x y z
#    x 1.803250 -0.018670 -0.003090 
#    y -0.018670 1.822920 0.017160 
#    z -0.003090 0.017160 1.789540 
# 
# From -- ./inp_files/582680.got.cif
#   From: 2010.05.17/outbox.cif.g08.bks.cpg/sg2_292_cif.got.tgz:582680.got - 2010.06.03 11:33:40.
