data_PCOD9044178
_publ_section_title
;
Structure prediction by ZEFSAII (Michael W. Deem and Ramdas Pophale) SiO2 
 PCOD9044178
Probable space group: P -1
;
_chemical_formula_sum "Si O2"
_cell_formula_units_Z 16
_cell_length_a 28.096568
_cell_length_b 6.235325
_cell_length_c 8.916491
_cell_angle_alpha 82.101768
_cell_angle_beta 27.596014
_cell_angle_gamma 76.345840
_cell_volume 694.163324
_symmetry_space_group_name_H-M "P -1"
_symmetry_group_IT_number 2
_symmetry_cell_setting 'triclinic'
loop_
_space_group_symop_operation_xyz
x,y,z
-x,-y,-z
loop_
_atom_site_type_symbol
_atom_site_label
_atom_site_fract_x
_atom_site_fract_y
_atom_site_fract_z
Si Si1 0.983004 0.920036 0.864715
Si Si2 0.182181 0.095944 0.195122
Si Si3 0.418957 0.351590 0.281320
Si Si4 0.642651 0.350831 0.316956
Si Si5 0.704396 0.668371 0.900734
Si Si6 0.548720 0.883563 0.084449
Si Si7 0.088345 0.359497 0.156187
Si Si8 0.875520 0.341715 0.253193
O O1 0.030902 0.732474 0.874516
O O2 0.958172 0.814600 0.791382
O O3 0.070941 0.055853 0.567336
O O4 0.879404 0.093968 0.203312
O O5 0.226226 0.236227 0.183176
O O6 0.174411 0.221806 0.045131
O O7 0.259688 0.852657 0.978663
O O8 0.337610 0.523454 0.597039
O O9 0.485309 0.136372 0.206980
O O10 0.500000 0.500000 0.000000
O O11 0.389011 0.238096 0.225186
O O12 0.540306 0.251950 0.623805
O O13 0.630617 0.539806 0.207648
O O14 0.777564 0.486628 0.604840
O O15 0.630855 0.862605 0.990543
O O16 0.000000 0.500000 0.500000
O O17 0.114480 0.515596 0.936432
#
# Coordination Sequence:
#
# PCOD9044178 Si02
#       8
#     2   2   2   2   2   2   2   2
#     4  11  25  48  70 100 140 185 231 284 355 421
#     4  12  27  43  70 105 143 181 236 290 344 426
#     4   9  21  43  71  96 132 177 229 288 353 407
#     4  11  24  44  71  98 139 186 231 294 347 416
#     4  12  27  43  68 105 140 184 241 284 354 414
#     4  10  23  46  71 100 137 185 232 292 349 417
#     4  12  26  44  72 101 138 183 230 288 354 415
#     4  11  26  43  74  98 139 184 230 291 348 414
#
# _framework density 23.049330999999999
#
# number of rings (size 3 to 8) (size 9 to 14) (size 15 to 20)
#    0.000    1.000    2.500    2.625    3.500    9.000 
#    0.000    0.000    2.750    0.000    0.000    0.000 
#    0.000    0.000    0.000    0.000    0.000    0.000 
#
# Total GULP energy -89470.198504 kJ/mol
# GULP energy per Si atom -5591.887406 kJ/mol
# Density = 2.299687 g / cm^3
# Si number density = 23.049331 Si / 1000 Ang^3
#
#
#
# Elastic Constant Matrix: (Units=GPa)
#
#
# Indices 1 2 3 4 5 6 
#
# 1 133.6666 51.7409 17.3130 -8.6483 15.3254 -9.9133
# 2 51.7409 107.7197 26.6322 -10.8539 7.9490 -4.8623
# 3 17.3130 26.6322 64.4681 2.7038 31.4789 10.9894
# 4 -8.6483 -10.8539 2.7038 39.4345 2.1336 16.1205
# 5 15.3254 7.9490 31.4789 2.1336 31.2419 4.2174
# 6 -9.9133 -4.8623 10.9894 16.1205 4.2174 43.1519
#
#
#
# Elastic Compliance Matrix: (Units=1/GPa)
#
#
# Indices 1 2 3 4 5 6 
#
# 1 0.009846 -0.004620 0.001705 0.000373 -0.005629 0.001718
# 2 -0.004620 0.013172 -0.007432 0.002465 0.006127 0.000796
# 3 0.001705 -0.007432 0.035968 0.000325 -0.034349 -0.006370
# 4 0.000373 0.002465 0.000325 0.030694 -0.001747 -0.011015
# 5 -0.005629 0.006127 -0.034349 -0.001747 0.067644 0.002186
# 6 0.001718 0.000796 -0.006370 -0.011015 0.002186 0.029182
#
#
# Mechanical properties :
#
#
# Convention : Reuss Voigt Hill
#
# Bulk Modulus (GPa) = 26.11516 55.24740 40.68128
# Shear Modulus (GPa) = 22.73101 36.77687 29.75394
#
# Velocity S-wave (km/s) = 3.14377 3.99879 3.59678
# Velocity P-wave (km/s) = 4.95302 6.73363 5.91076
#
# Compressibility (1/GPa) = 0.03829193
#
# Stress axis : x y z
#
# Youngs Moduli (GPa) = 101.56510 75.91819 27.80252
#
# Poissons Ratio (x) = 0.35076 -0.04740
# Poissons Ratio (y) = 0.46925 0.20662
# Poissons Ratio (z) = -0.17314 0.56419
#
# Static dielectric constant tensor:
#      x y z
#    x 1.861910 -0.022220 0.008820 
#    y -0.022220 1.858690 -0.021540 
#    z 0.008820 -0.021540 1.907070 
# 
# From -- ./inp_files/358215.got.cif
#   From: 2010.05.17/outbox.cif.g08.bks.cpg/sg2_180_cif.got.tgz:358215.got - 2010.06.03 11:33:40.
