data_PCOD9044076
_publ_section_title
;
Structure prediction by ZEFSAII (Michael W. Deem and Ramdas Pophale) SiO2 
 PCOD9044076
Probable space group: P -1
;
_chemical_formula_sum "Si O2"
_cell_formula_units_Z 14
_cell_length_a 8.663585
_cell_length_b 14.541367
_cell_length_c 19.748530
_cell_angle_alpha 147.550388
_cell_angle_beta 29.198761
_cell_angle_gamma 141.290013
_cell_volume 642.093109
_symmetry_space_group_name_H-M "P -1"
_symmetry_group_IT_number 2
_symmetry_cell_setting 'triclinic'
loop_
_space_group_symop_operation_xyz
x,y,z
-x,-y,-z
loop_
_atom_site_type_symbol
_atom_site_label
_atom_site_fract_x
_atom_site_fract_y
_atom_site_fract_z
Si Si1 0.462699 0.506738 0.637908
Si Si2 0.324100 0.813823 0.606186
Si Si3 0.677462 0.099289 0.556102
Si Si4 0.255462 0.011939 0.348438
Si Si5 0.011876 0.528687 0.327319
Si Si6 0.415731 0.181279 0.119472
Si Si7 0.281589 0.171160 0.008931
O O1 0.519376 0.354763 0.574707
O O2 0.780215 0.540826 0.488870
O O3 0.180031 0.457110 0.660565
O O4 0.408257 0.668526 0.805434
O O5 0.955500 0.791145 0.716180
O O6 0.473623 0.997660 0.631305
O O7 0.447235 0.840022 0.652912
O O8 0.707559 0.304985 0.672045
O O9 0.500000 0.000000 0.500000
O O10 0.043664 0.063451 0.399904
O O11 0.426393 0.849667 0.166169
O O12 0.000000 0.000000 0.500000
O O13 0.141472 0.347593 0.163544
O O14 0.443082 0.179141 0.026446
O O15 0.500000 0.000000 0.000000
O O16 0.000000 0.000000 0.000000
#
# Coordination Sequence:
#
# PCOD9044076 Si02
#       7
#     2   2   2   2   2   2   2
#     4  11  23  42  69 103 145 181 238 290 356 413
#     4  11  22  45  68  98 138 191 226 283 353 423
#     4  11  25  42  71  97 141 186 236 278 354 427
#     4  10  23  46  69  93 135 190 225 280 356 423
#     4  11  24  43  70 107 138 188 234 292 350 424
#     4  12  26  39  69 109 142 178 238 301 344 408
#     4  12  24  44  72 105 141 179 237 297 351 411
#
# _framework density 21.803692000000002
#
# number of rings (size 3 to 8) (size 9 to 14) (size 15 to 20)
#    0.000    0.857    4.286    2.143    8.000    0.000 
#    0.000    6.429    0.000    0.000    0.000    0.000 
#    0.000    0.000    0.000    0.000    0.000    0.000 
#
# Total GULP energy -78037.151903 kJ/mol
# GULP energy per Si atom -5574.082279 kJ/mol
# Density = 2.175407 g / cm^3
# Si number density = 21.803692 Si / 1000 Ang^3
#
#
#
# Elastic Constant Matrix: (Units=GPa)
#
#
# Indices 1 2 3 4 5 6 
#
# 1 126.0768 26.1586 38.4191 14.9584 1.6563 15.7642
# 2 26.1586 99.4998 41.9878 30.6504 10.9162 0.1019
# 3 38.4191 41.9878 138.6382 33.3441 7.4043 -10.7041
# 4 14.9584 30.6504 33.3441 41.3260 -3.4496 1.5900
# 5 1.6563 10.9162 7.4043 -3.4496 38.8231 9.1623
# 6 15.7642 0.1019 -10.7041 1.5900 9.1623 32.3075
#
#
#
# Elastic Compliance Matrix: (Units=1/GPa)
#
#
# Indices 1 2 3 4 5 6 
#
# 1 0.009915 -0.001759 -0.002962 0.000539 0.002210 -0.006467
# 2 -0.001759 0.014575 -0.001097 -0.009821 -0.005258 0.002423
# 3 -0.002962 -0.001097 0.010865 -0.007451 -0.003834 0.006502
# 4 0.000539 -0.009821 -0.007451 0.038350 0.009270 -0.007217
# 5 0.002210 -0.005258 -0.003834 0.009270 0.031461 -0.011711
# 6 -0.006467 0.002423 0.006502 -0.007217 -0.011711 0.039931
#
#
# Mechanical properties :
#
#
# Convention : Reuss Voigt Hill
#
# Bulk Modulus (GPa) = 42.15864 64.14954 53.15409
# Shear Modulus (GPa) = 30.36968 39.66793 35.01880
#
# Velocity S-wave (km/s) = 3.73616 4.26998 4.01196
# Velocity P-wave (km/s) = 6.16356 7.33455 6.77440
#
# Compressibility (1/GPa) = 0.02371993
#
# Stress axis : x y z
#
# Youngs Moduli (GPa) = 100.85967 68.61017 92.03974
#
# Poissons Ratio (x) = 0.12065 0.27261
# Poissons Ratio (y) = 0.17736 0.10097
# Poissons Ratio (z) = 0.29873 0.07527
#
# Static dielectric constant tensor:
#      x y z
#    x 1.835610 -0.026110 0.003100 
#    y -0.026110 1.905970 0.004080 
#    z 0.003100 0.004080 1.825960 
# 
# From -- ./inp_files/304732.got.cif
#   From: 2010.05.17/outbox.cif.g08.bks.cpg/sg2_153_cif.got.tgz:304732.got - 2010.06.03 11:33:40.
