data_PCOD9044905
_publ_section_title
;
Structure prediction by ZEFSAII (Michael W. Deem and Ramdas Pophale) SiO2 
 PCOD9044905
Probable space group: P -1
;
_chemical_formula_sum "Si O2"
_cell_formula_units_Z 14
_cell_length_a 9.691977
_cell_length_b 5.096204
_cell_length_c 15.584050
_cell_angle_alpha 103.218398
_cell_angle_beta 128.440823
_cell_angle_gamma 66.032615
_cell_volume 550.602906
_symmetry_space_group_name_H-M "P -1"
_symmetry_group_IT_number 2
_symmetry_cell_setting 'triclinic'
loop_
_space_group_symop_operation_xyz
x,y,z
-x,-y,-z
loop_
_atom_site_type_symbol
_atom_site_label
_atom_site_fract_x
_atom_site_fract_y
_atom_site_fract_z
Si Si1 0.039040 0.776668 0.712761
Si Si2 0.337572 0.297650 0.421228
Si Si3 0.694447 0.996402 0.860709
Si Si4 0.636846 0.173556 0.037225
Si Si5 0.360214 0.536574 0.259654
Si Si6 0.685359 0.690418 0.328345
Si Si7 0.168045 0.873975 0.489565
O O1 0.202229 0.825233 0.833885
O O2 0.131386 0.508615 0.663662
O O3 0.854942 0.749277 0.682374
O O4 0.940231 0.046014 0.635570
O O5 0.375962 0.455859 0.361253
O O6 0.500000 0.000000 0.500000
O O7 0.726503 0.461389 0.511416
O O8 0.735423 0.161200 0.805763
O O9 0.465012 0.116514 0.782946
O O10 0.742165 0.665669 0.835501
O O11 0.742134 0.066950 0.979082
O O12 0.500000 0.500000 0.000000
O O13 0.500000 0.000000 0.000000
O O14 0.572129 0.486470 0.303141
O O15 0.714118 0.918916 0.423881
O O16 0.000000 0.000000 0.500000
#
# Coordination Sequence:
#
# PCOD9044905 Si02
#       7
#     2   2   2   2   2   2   2
#     4  12  28  48  80 127 169 220 288 362 427 509
#     4  12  32  55  78 125 179 233 282 351 435 528
#     4  10  23  47  80 117 161 220 282 341 430 500
#     4  12  25  48  86 126 169 216 291 367 428 497
#     4  10  26  49  79 115 164 226 282 336 431 521
#     4  10  24  46  80 118 163 221 279 349 423 507
#     4  12  29  49  84 123 172 218 290 361 429 511
#
# _framework density 25.426673000000001
#
# number of rings (size 3 to 8) (size 9 to 14) (size 15 to 20)
#    0.857    0.000    2.857    2.143   10.000    2.286 
#    0.000    1.429    0.000    0.000    0.000    0.000 
#    0.000    0.000    0.000    0.000    0.000    0.000 
#
# Total GULP energy -78067.693263 kJ/mol
# GULP energy per Si atom -5576.263804 kJ/mol
# Density = 2.536880 g / cm^3
# Si number density = 25.426673 Si / 1000 Ang^3
#
#
#
# Elastic Constant Matrix: (Units=GPa)
#
#
# Indices 1 2 3 4 5 6 
#
# 1 143.8406 62.4924 16.5649 13.7122 -1.2086 15.6961
# 2 62.4924 202.0095 44.8561 21.8489 -7.6923 1.9912
# 3 16.5649 44.8561 122.5570 23.0692 8.7854 1.8914
# 4 13.7122 21.8489 23.0692 28.7606 -6.3201 -4.4782
# 5 -1.2086 -7.6923 8.7854 -6.3201 41.0953 7.0118
# 6 15.6961 1.9912 1.8914 -4.4782 7.0118 51.1305
#
#
#
# Elastic Compliance Matrix: (Units=1/GPa)
#
#
# Indices 1 2 3 4 5 6 
#
# 1 0.008531 -0.002371 0.000347 -0.003033 -0.000261 -0.002769
# 2 -0.002371 0.006321 -0.001695 -0.002031 0.001127 0.000212
# 3 0.000347 -0.001695 0.010567 -0.008274 -0.003729 -0.000645
# 4 -0.003033 -0.002031 -0.008274 0.046777 0.007751 0.004350
# 5 -0.000261 0.001127 -0.003729 0.007751 0.027013 -0.002851
# 6 -0.002769 0.000212 -0.000645 0.004350 -0.002851 0.021196
#
#
# Mechanical properties :
#
#
# Convention : Reuss Voigt Hill
#
# Bulk Modulus (GPa) = 55.60913 79.58152 67.59533
# Shear Modulus (GPa) = 37.35939 47.16352 42.26146
#
# Velocity S-wave (km/s) = 3.83730 4.31151 4.08130
# Velocity P-wave (km/s) = 6.44601 7.49345 6.98938
#
# Compressibility (1/GPa) = 0.01798266
#
# Stress axis : x y z
#
# Youngs Moduli (GPa) = 117.21444 158.21525 94.62998
#
# Poissons Ratio (x) = 0.37510 -0.03284
# Poissons Ratio (y) = 0.27790 0.16036
# Poissons Ratio (z) = -0.04068 0.26811
#
# Static dielectric constant tensor:
#      x y z
#    x 2.080380 -0.193460 0.044340 
#    y -0.193460 2.047970 -0.092530 
#    z 0.044340 -0.092530 2.046620 
# 
# From -- ./inp_files/552731.got.cif
#   From: 2010.05.17/outbox.cif.g08.bks.cpg/sg2_277_cif.got.tgz:552731.got - 2010.06.03 11:33:40.
