data_PCOD9044566
_publ_section_title
;
Structure prediction by ZEFSAII (Michael W. Deem and Ramdas Pophale) SiO2 
 PCOD9044566
Probable space group: P -1
;
_chemical_formula_sum "Si O2"
_cell_formula_units_Z 12
_cell_length_a 10.790918
_cell_length_b 5.784060
_cell_length_c 11.845776
_cell_angle_alpha 95.927277
_cell_angle_beta 140.811699
_cell_angle_gamma 83.104544
_cell_volume 463.738206
_symmetry_space_group_name_H-M "P -1"
_symmetry_group_IT_number 2
_symmetry_cell_setting 'triclinic'
loop_
_space_group_symop_operation_xyz
x,y,z
-x,-y,-z
loop_
_atom_site_type_symbol
_atom_site_label
_atom_site_fract_x
_atom_site_fract_y
_atom_site_fract_z
Si Si1 0.281048 0.048226 0.892995
Si Si2 0.180255 0.306398 0.623295
Si Si3 0.846743 0.248469 0.021725
Si Si4 0.675374 0.083705 0.477830
Si Si5 0.510145 0.578613 0.805816
Si Si6 0.777145 0.903892 0.768893
O O1 0.149785 0.137844 0.699910
O O2 0.203791 0.825523 0.890637
O O3 0.331315 0.256991 0.021863
O O4 0.500000 0.000000 0.000000
O O5 0.376959 0.444429 0.791675
O O6 0.000000 0.500000 0.500000
O O7 0.250347 0.144195 0.556286
O O8 0.069577 0.315077 0.163914
O O9 0.663049 0.394928 0.845544
O O10 0.839654 0.010474 0.935786
O O11 0.653324 0.291460 0.382464
O O12 0.451802 0.117303 0.370620
O O13 0.796447 0.064032 0.678230
#
# Coordination Sequence:
#
# PCOD9044566 Si02
#       6
#     2   2   2   2   2   2
#     4  12  23  45  68  96 138 171 222 277 323 400
#     4  12  28  44  67 102 134 172 225 272 334 396
#     4  11  24  44  68 103 126 180 220 271 331 390
#     4  11  24  47  65 101 136 175 215 282 326 387
#     4  12  23  43  68  98 130 178 217 264 345 379
#     4  10  23  47  67  93 146 165 225 275 320 397
#
# _framework density 25.876669
#
# number of rings (size 3 to 8) (size 9 to 14) (size 15 to 20)
#    0.000    0.667    6.667    0.500    4.667    2.000 
#    0.000    0.000    0.000    0.000    0.000    0.000 
#    0.000    0.000    0.000    0.000    0.000    0.000 
#
# Total GULP energy -66879.219229 kJ/mol
# GULP energy per Si atom -5573.268269 kJ/mol
# Density = 2.581777 g / cm^3
# Si number density = 25.876669 Si / 1000 Ang^3
#
#
#
# Elastic Constant Matrix: (Units=GPa)
#
#
# Indices 1 2 3 4 5 6 
#
# 1 102.8094 55.6251 43.0022 -14.2049 8.5232 -27.0470
# 2 55.6251 65.7160 30.0502 -31.7481 6.8416 -14.0191
# 3 43.0022 30.0502 126.7732 -35.1846 -0.7213 -13.0212
# 4 -14.2049 -31.7481 -35.1846 45.4182 -8.1175 14.3850
# 5 8.5232 6.8416 -0.7213 -8.1175 60.1520 -20.1524
# 6 -27.0470 -14.0191 -13.0212 14.3850 -20.1524 26.1233
#
#
#
# Elastic Compliance Matrix: (Units=1/GPa)
#
#
# Indices 1 2 3 4 5 6 
#
# 1 0.037727 -0.035213 -0.008977 -0.030535 0.007175 0.038039
# 2 -0.035213 0.056411 0.007243 0.042669 -0.005820 -0.030561
# 3 -0.008977 0.007243 0.012425 0.014072 0.000220 -0.006793
# 4 -0.030535 0.042669 0.014072 0.065533 -0.005629 -0.042130
# 5 0.007175 -0.005820 0.000220 -0.005629 0.024315 0.026272
# 6 0.038039 -0.030561 -0.006793 -0.042130 0.026272 0.101344
#
#
# Mechanical properties :
#
#
# Convention : Reuss Voigt Hill
#
# Bulk Modulus (GPa) = 30.60921 61.40595 46.00758
# Shear Modulus (GPa) = 13.07058 37.44676 25.25867
#
# Velocity S-wave (km/s) = 2.24990 3.80824 3.12768
# Velocity P-wave (km/s) = 4.31323 6.56648 5.55530
#
# Compressibility (1/GPa) = 0.03266991
#
# Stress axis : x y z
#
# Youngs Moduli (GPa) = 26.50623 17.72700 80.48068
#
# Poissons Ratio (x) = 0.62422 0.72248
# Poissons Ratio (y) = 0.93336 -0.58293
# Poissons Ratio (z) = 0.23795 -0.12840
#
# Static dielectric constant tensor:
#      x y z
#    x 2.135730 0.037400 0.068530 
#    y 0.037400 1.956340 -0.103360 
#    z 0.068530 -0.103360 2.114840 
# 
# From -- ./inp_files/21774.got.cif
#   From: 2010.05.17/outbox.cif.g08.bks.cpg/sg2_11_cif.got.tgz:21774.got - 2010.06.03 11:33:40.
