data_PCOD9044568
_publ_section_title
;
Structure prediction by ZEFSAII (Michael W. Deem and Ramdas Pophale) SiO2 
 PCOD9044568
Probable space group: P -1
;
_chemical_formula_sum "Si O2"
_cell_formula_units_Z 14
_cell_length_a 17.933557
_cell_length_b 7.832314
_cell_length_c 7.850056
_cell_angle_alpha 59.554961
_cell_angle_beta 30.631887
_cell_angle_gamma 63.748414
_cell_volume 484.296740
_symmetry_space_group_name_H-M "P -1"
_symmetry_group_IT_number 2
_symmetry_cell_setting 'triclinic'
loop_
_space_group_symop_operation_xyz
x,y,z
-x,-y,-z
loop_
_atom_site_type_symbol
_atom_site_label
_atom_site_fract_x
_atom_site_fract_y
_atom_site_fract_z
Si Si1 0.034461 0.041212 0.639357
Si Si2 0.306552 0.824964 0.253421
Si Si3 0.446644 0.225162 0.654432
Si Si4 0.323351 0.384564 0.460391
Si Si5 0.801588 0.591687 0.765738
Si Si6 0.704445 0.034244 0.413377
Si Si7 0.960018 0.607940 0.784207
O O1 0.131471 0.843927 0.557661
O O2 0.950637 0.835128 0.626633
O O3 0.123725 0.193194 0.509583
O O4 0.872173 0.033213 0.029275
O O5 0.365337 0.605621 0.213738
O O6 0.329353 0.877788 0.379956
O O7 0.373710 0.006348 0.923658
O O8 0.398282 0.318296 0.524754
O O9 0.614068 0.175680 0.389368
O O10 0.366876 0.360637 0.887884
O O11 0.343381 0.195294 0.394290
O O12 0.148944 0.407683 0.837795
O O13 0.869594 0.506057 0.853852
O O14 0.874788 0.466090 0.536101
#
# Coordination Sequence:
#
# PCOD9044568 Si02
#       7
#     2   2   2   2   2   2   2
#     4   9  19  39  66  93 133 176 215 281 332 386
#     4  11  24  46  69  94 140 182 222 279 339 394
#     4  10  23  47  67  95 145 178 217 285 336 401
#     4  11  24  44  72 100 135 177 228 279 337 401
#     4   7  14  33  65  88 120 174 213 261 325 386
#     4  12  25  40  71 106 132 177 233 272 336 415
#     4   8  15  35  64  93 125 169 217 270 327 382
#
# _framework density 28.907896999999998
#
# number of rings (size 3 to 8) (size 9 to 14) (size 15 to 20)
#    0.857    1.429    1.429    2.143    2.000    3.429 
#    0.000    1.429    0.000    0.000    0.000    0.000 
#    0.000    0.000    0.000    0.000    0.000    0.000 
#
# Total GULP energy -78504.585766 kJ/mol
# GULP energy per Si atom -5607.470412 kJ/mol
# Density = 2.884210 g / cm^3
# Si number density = 28.907897 Si / 1000 Ang^3
#
#
#
# Elastic Constant Matrix: (Units=GPa)
#
#
# Indices 1 2 3 4 5 6 
#
# 1 119.3877 41.9421 40.5987 10.2757 10.3236 -8.3918
# 2 41.9421 224.4083 48.2742 18.9659 -0.3359 -15.2994
# 3 40.5987 48.2742 145.5351 19.3164 -1.6866 -12.7188
# 4 10.2757 18.9659 19.3164 63.6424 -10.4315 0.1613
# 5 10.3236 -0.3359 -1.6866 -10.4315 45.7236 7.1596
# 6 -8.3918 -15.2994 -12.7188 0.1613 7.1596 43.5379
#
#
#
# Elastic Compliance Matrix: (Units=1/GPa)
#
#
# Indices 1 2 3 4 5 6 
#
# 1 0.009962 -0.001224 -0.002150 -0.001051 -0.002784 0.001324
# 2 -0.001224 0.005094 -0.001105 -0.001014 -0.000156 0.001261
# 3 -0.002150 -0.001105 0.008217 -0.001801 0.000121 0.001584
# 4 -0.001051 -0.001014 -0.001801 0.017464 0.004442 -0.001880
# 5 -0.002784 -0.000156 0.000121 0.004442 0.024229 -0.004557
# 6 0.001324 0.001261 0.001584 -0.001880 -0.004557 0.024886
#
#
# Mechanical properties :
#
#
# Convention : Reuss Voigt Hill
#
# Bulk Modulus (GPa) = 69.86664 83.44014 76.65339
# Shear Modulus (GPa) = 48.27106 54.48186 51.37646
#
# Velocity S-wave (km/s) = 4.09078 4.34599 4.22031
# Velocity P-wave (km/s) = 6.82157 7.35597 7.09380
#
# Compressibility (1/GPa) = 0.01431298
#
# Stress axis : x y z
#
# Youngs Moduli (GPa) = 100.38588 196.30351 121.70628
#
# Poissons Ratio (x) = 0.24037 0.26165
# Poissons Ratio (y) = 0.12292 0.13452
# Poissons Ratio (z) = 0.21582 0.21697
#
# Static dielectric constant tensor:
#      x y z
#    x 2.435990 0.098760 -0.097840 
#    y 0.098760 2.255080 -0.039280 
#    z -0.097840 -0.039280 2.212210 
# 
# From -- ./inp_files/343381.got.cif
#   From: 2010.05.17/outbox.cif.g08.bks.cpg/sg2_172_cif.got.tgz:343381.got - 2010.06.03 11:33:40.
