data_PCOD9044108
_publ_section_title
;
Structure prediction by ZEFSAII (Michael W. Deem and Ramdas Pophale) SiO2 
 PCOD9044108
Probable space group: P -1
;
_chemical_formula_sum "Si O2"
_cell_formula_units_Z 16
_cell_length_a 14.859990
_cell_length_b 14.731235
_cell_length_c 11.515122
_cell_angle_alpha 58.752356
_cell_angle_beta 29.183171
_cell_angle_gamma 40.601442
_cell_volume 712.617856
_symmetry_space_group_name_H-M "P -1"
_symmetry_group_IT_number 2
_symmetry_cell_setting 'triclinic'
loop_
_space_group_symop_operation_xyz
x,y,z
-x,-y,-z
loop_
_atom_site_type_symbol
_atom_site_label
_atom_site_fract_x
_atom_site_fract_y
_atom_site_fract_z
Si Si1 0.369993 0.943507 0.147640
Si Si2 0.556003 0.496582 0.223053
Si Si3 0.609177 0.126838 0.086125
Si Si4 0.968840 0.737188 0.331006
Si Si5 0.303665 0.984182 0.702269
Si Si6 0.369790 0.340364 0.574989
Si Si7 0.257562 0.385607 0.937205
Si Si8 0.147086 0.770614 0.335799
O O1 0.314283 0.963252 0.060303
O O2 0.576514 0.761872 0.067110
O O3 0.097608 0.053365 0.457564
O O4 0.500000 0.000000 0.000000
O O5 0.519989 0.389610 0.367030
O O6 0.278941 0.655984 0.372108
O O7 0.645861 0.535308 0.199611
O O8 0.784473 0.412953 0.921489
O O9 0.298255 0.223590 0.397344
O O10 0.792025 0.014263 0.064474
O O11 0.641861 0.237900 0.955571
O O12 0.046235 0.730629 0.379916
O O13 0.901015 0.878210 0.250388
O O14 0.467144 0.818963 0.570418
O O15 0.500000 0.000000 0.500000
O O16 0.066745 0.482350 0.769900
O O17 0.327150 0.325360 0.766782
#
# Coordination Sequence:
#
# PCOD9044108 Si02
#       8
#     2   2   2   2   2   2   2   2
#     4  12  24  46  71 100 139 179 227 282 342 401
#     4  12  26  45  67 106 140 178 233 275 342 411
#     4  11  24  43  70 100 132 177 224 282 335 401
#     4  11  25  45  69 101 137 178 226 280 340 404
#     4  10  23  46  70 101 133 178 230 278 340 405
#     4  11  25  46  71 100 141 180 225 287 340 402
#     4  11  25  46  70 102 139 182 228 280 343 407
#     4  12  25  44  69 103 135 180 227 279 340 402
#
# _framework density 22.452425000000002
#
# number of rings (size 3 to 8) (size 9 to 14) (size 15 to 20)
#    0.000    0.750    2.500    4.875    1.750    3.500 
#    2.250    0.000    0.000    0.000    0.000    0.000 
#    0.000    0.000    0.000    0.000    0.000    0.000 
#
# Total GULP energy -89567.029839 kJ/mol
# GULP energy per Si atom -5597.939365 kJ/mol
# Density = 2.240132 g / cm^3
# Si number density = 22.452425 Si / 1000 Ang^3
#
#
#
# Elastic Constant Matrix: (Units=GPa)
#
#
# Indices 1 2 3 4 5 6 
#
# 1 89.8801 12.1599 22.0628 10.8125 6.9232 13.8789
# 2 12.1599 84.9012 28.4663 -3.4350 -1.0593 19.5767
# 3 22.0628 28.4663 62.9618 2.5919 -10.2858 -3.5726
# 4 10.8125 -3.4350 2.5919 32.3375 8.5571 -4.7610
# 5 6.9232 -1.0593 -10.2858 8.5571 28.5033 -11.1024
# 6 13.8789 19.5767 -3.5726 -4.7610 -11.1024 30.4735
#
#
#
# Elastic Compliance Matrix: (Units=1/GPa)
#
#
# Indices 1 2 3 4 5 6 
#
# 1 0.017877 0.005648 -0.012232 -0.003241 -0.015050 -0.019194
# 2 0.005648 0.021758 -0.015967 0.002516 -0.016435 -0.024016
# 3 -0.012232 -0.015967 0.033523 -0.003088 0.026699 0.029004
# 4 -0.003241 0.002516 -0.003088 0.035456 -0.010391 0.001251
# 5 -0.015050 -0.016435 0.026699 -0.010391 0.067886 0.043652
# 6 -0.019194 -0.024016 0.029004 0.001251 0.043652 0.076485
#
#
# Mechanical properties :
#
#
# Convention : Reuss Voigt Hill
#
# Bulk Modulus (GPa) = 35.64564 40.34679 37.99622
# Shear Modulus (GPa) = 16.26332 29.93313 23.09823
#
# Velocity S-wave (km/s) = 2.69429 3.65524 3.21091
# Velocity P-wave (km/s) = 5.05860 5.98525 5.54133
#
# Compressibility (1/GPa) = 0.02805392
#
# Stress axis : x y z
#
# Youngs Moduli (GPa) = 55.93650 45.96083 29.83036
#
# Poissons Ratio (x) = -0.25957 0.36490
# Poissons Ratio (y) = -0.31591 0.47631
# Poissons Ratio (z) = 0.68423 0.73388
#
# Static dielectric constant tensor:
#      x y z
#    x 1.809950 -0.020300 -0.030230 
#    y -0.020300 1.829110 -0.017590 
#    z -0.030230 -0.017590 1.862470 
# 
# From -- ./inp_files/455606.got.cif
#   From: 2010.05.17/outbox.cif.g08.bks.cpg/sg2_228_cif.got.tgz:455606.got - 2010.06.03 11:33:40.
