data_PCOD9044213
_publ_section_title
;
Structure prediction by ZEFSAII (Michael W. Deem and Ramdas Pophale) SiO2 
 PCOD9044213
Probable space group: P -1
;
_chemical_formula_sum "Si O2"
_cell_formula_units_Z 15
_cell_length_a 5.830728
_cell_length_b 8.942929
_cell_length_c 19.375138
_cell_angle_alpha 43.030235
_cell_angle_beta 69.219516
_cell_angle_gamma 56.311133
_cell_volume 571.340388
_symmetry_space_group_name_H-M "P -1"
_symmetry_group_IT_number 2
_symmetry_cell_setting 'triclinic'
loop_
_space_group_symop_operation_xyz
x,y,z
-x,-y,-z
loop_
_atom_site_type_symbol
_atom_site_label
_atom_site_fract_x
_atom_site_fract_y
_atom_site_fract_z
Si Si1 0.337131 0.643212 0.051123
Si Si2 0.359167 0.100740 0.153764
Si Si3 0.164292 0.259424 0.675560
Si Si4 0.412999 0.366310 0.343689
Si Si5 0.227191 0.003211 0.059584
Si Si6 0.500000 0.500000 0.500000
Si Si7 0.296739 0.918337 0.465226
Si Si8 0.791515 0.221258 0.230028
O O1 0.476575 0.265065 0.045091
O O2 0.550882 0.374895 0.147176
O O3 0.212124 0.794990 0.084546
O O4 0.052627 0.740420 0.006025
O O5 0.285543 0.962390 0.147253
O O6 0.070575 0.239681 0.178330
O O7 0.598424 0.901377 0.241447
O O8 0.229282 0.464983 0.563830
O O9 0.885657 0.405729 0.699532
O O10 0.144853 0.063505 0.690553
O O11 0.500873 0.321573 0.430059
O O12 0.659558 0.347090 0.274886
O O13 0.377541 0.133141 0.397398
O O14 0.500000 0.000000 0.000000
O O15 0.329745 0.805601 0.424734
O O16 0.000000 0.000000 0.500000
#
# Coordination Sequence:
#
# PCOD9044213 Si02
#       8
#     2   2   2   2   2   1   2   2
#     4  10  23  46  71 105 150 195 252 305 365 443
#     4  11  26  46  70 107 146 200 249 305 371 440
#     4  12  29  46  74 111 149 188 253 312 368 454
#     4  11  28  47  75 110 148 195 246 308 377 446
#     4   9  21  42  74 105 142 195 247 305 370 432
#     4  12  26  50  76 108 150 190 240 314 376 446
#     4  11  25  49  77 106 147 194 242 306 379 448
#     4  12  28  44  75 108 148 199 250 306 372 443
#
# _framework density 26.254052999999999
#
# number of rings (size 3 to 8) (size 9 to 14) (size 15 to 20)
#    0.000    1.067    2.667    1.200   11.200    4.800 
#    0.000    0.000    0.000    0.000    0.000    0.000 
#    0.000    0.000    0.000    0.000    0.000    0.000 
#
# Total GULP energy -83762.822445 kJ/mol
# GULP energy per Si atom -5584.188163 kJ/mol
# Density = 2.619430 g / cm^3
# Si number density = 26.254053 Si / 1000 Ang^3
#
#
#
# Elastic Constant Matrix: (Units=GPa)
#
#
# Indices 1 2 3 4 5 6 
#
# 1 115.7329 34.9355 41.0517 -4.8971 4.9479 -39.0566
# 2 34.9355 131.6798 34.2367 4.3761 -0.5670 -43.6919
# 3 41.0517 34.2367 106.3137 5.9182 -12.6169 -12.4130
# 4 -4.8971 4.3761 5.9182 41.1714 -5.5863 -14.6455
# 5 4.9479 -0.5670 -12.6169 -5.5863 50.5824 8.4502
# 6 -39.0566 -43.6919 -12.4130 -14.6455 8.4502 51.4292
#
#
#
# Elastic Compliance Matrix: (Units=1/GPa)
#
#
# Indices 1 2 3 4 5 6 
#
# 1 0.015744 0.002153 -0.005966 0.007262 -0.004740 0.015193
# 2 0.002153 0.011968 -0.003760 0.003553 -0.002685 0.012348
# 3 -0.005966 -0.003760 0.012908 -0.003855 0.004410 -0.006432
# 4 0.007262 0.003553 -0.003855 0.031110 -0.000973 0.016622
# 5 -0.004740 -0.002685 0.004410 -0.000973 0.022669 -0.008818
# 6 0.015193 0.012348 -0.006432 0.016622 -0.008818 0.046102
#
#
# Mechanical properties :
#
#
# Convention : Reuss Voigt Hill
#
# Bulk Modulus (GPa) = 39.25534 63.79712 51.52623
# Shear Modulus (GPa) = 30.46244 44.87010 37.66627
#
# Velocity S-wave (km/s) = 3.41001 4.13858 3.79183
# Velocity P-wave (km/s) = 5.52166 6.86948 6.23212
#
# Compressibility (1/GPa) = 0.02547424
#
# Stress axis : x y z
#
# Youngs Moduli (GPa) = 63.51776 83.55551 77.47404
#
# Poissons Ratio (x) = -0.17993 0.46218
# Poissons Ratio (y) = -0.13678 0.29133
# Poissons Ratio (z) = 0.37892 0.31419
#
# Static dielectric constant tensor:
#      x y z
#    x 2.142700 0.175140 0.021800 
#    y 0.175140 2.270780 0.026860 
#    z 0.021800 0.026860 2.173940 
# 
# From -- ./inp_files/582251.got.cif
#   From: 2010.05.17/outbox.cif.g08.bks.cpg/sg2_292_cif.got.tgz:582251.got - 2010.06.03 11:33:40.
