data_PCOD9044932
_publ_section_title
;
Structure prediction by ZEFSAII (Michael W. Deem and Ramdas Pophale) SiO2 
 PCOD9044932
Probable space group: P -1
;
_chemical_formula_sum "Si O2"
_cell_formula_units_Z 14
_cell_length_a 10.342895
_cell_length_b 11.066772
_cell_length_c 18.417189
_cell_angle_alpha 23.713624
_cell_angle_beta 50.984844
_cell_angle_gamma 63.197177
_cell_volume 603.300821
_symmetry_space_group_name_H-M "P -1"
_symmetry_group_IT_number 2
_symmetry_cell_setting 'triclinic'
loop_
_space_group_symop_operation_xyz
x,y,z
-x,-y,-z
loop_
_atom_site_type_symbol
_atom_site_label
_atom_site_fract_x
_atom_site_fract_y
_atom_site_fract_z
Si Si1 0.977250 0.828844 0.681521
Si Si2 0.916804 0.235526 0.111791
Si Si3 0.438159 0.255102 0.420220
Si Si4 0.737279 0.376228 0.358483
Si Si5 0.935132 0.071238 0.882254
Si Si6 0.438377 0.862960 0.016805
Si Si7 0.241685 0.777941 0.405799
O O1 0.173294 0.806484 0.625921
O O2 0.894674 0.032413 0.648212
O O3 0.860580 0.442807 0.955668
O O4 0.000000 0.000000 0.500000
O O5 0.750572 0.935656 0.368338
O O6 0.054959 0.087176 0.112906
O O7 0.000000 0.500000 0.000000
O O8 0.580568 0.422349 0.343157
O O9 0.429654 0.499858 0.227282
O O10 0.500000 0.000000 0.500000
O O11 0.680620 0.194665 0.554678
O O12 0.892494 0.735015 0.127164
O O13 0.763425 0.155997 0.912937
O O14 0.117249 0.397767 0.642493
O O15 0.500000 0.000000 0.000000
O O16 0.591503 0.068203 0.792568
#
# Coordination Sequence:
#
# PCOD9044932 Si02
#       7
#     2   2   2   2   2   2   2
#     4   9  21  44  68  98 133 175 234 281 339 417
#     4  11  25  45  70  98 136 189 227 285 358 415
#     4  12  25  45  71 103 144 180 234 291 346 420
#     4  10  23  48  68 104 140 184 235 285 351 424
#     4  11  25  45  72 101 142 181 237 287 353 414
#     4  12  27  46  66 107 142 178 241 293 345 418
#     4  11  25  46  74  98 143 188 230 292 350 411
#
# _framework density 23.205672
#
# number of rings (size 3 to 8) (size 9 to 14) (size 15 to 20)
#    0.000    1.143    1.429    3.857    6.000    1.714 
#    7.714    2.143    0.000    0.000    0.000    0.000 
#    0.000    0.000    0.000    0.000    0.000    0.000 
#
# Total GULP energy -78095.733395 kJ/mol
# GULP energy per Si atom -5578.266671 kJ/mol
# Density = 2.315285 g / cm^3
# Si number density = 23.205672 Si / 1000 Ang^3
#
#
#
# Elastic Constant Matrix: (Units=GPa)
#
#
# Indices 1 2 3 4 5 6 
#
# 1 55.0202 32.9137 44.2719 12.9959 9.0082 -10.5834
# 2 32.9137 158.5321 64.3025 23.5722 7.6133 -9.0072
# 3 44.2719 64.3025 159.3168 34.1534 4.5340 -1.7734
# 4 12.9959 23.5722 34.1534 57.3230 0.2989 5.1561
# 5 9.0082 7.6133 4.5340 0.2989 35.0744 -1.1389
# 6 -10.5834 -9.0072 -1.7734 5.1561 -1.1389 26.1076
#
#
#
# Elastic Compliance Matrix: (Units=1/GPa)
#
#
# Indices 1 2 3 4 5 6 
#
# 1 0.027845 -0.002057 -0.006036 -0.002784 -0.005561 0.010476
# 2 -0.002057 0.008068 -0.002278 -0.001678 -0.000846 0.002089
# 3 -0.006036 -0.002278 0.009515 -0.003195 0.000780 -0.001921
# 4 -0.002784 -0.001678 -0.003195 0.021210 0.001115 -0.006065
# 5 -0.005561 -0.000846 0.000780 0.001115 0.029967 -0.001406
# 6 0.010476 0.002089 -0.001921 -0.006065 -0.001406 0.044276
#
#
# Mechanical properties :
#
#
# Convention : Reuss Voigt Hill
#
# Bulk Modulus (GPa) = 40.50692 72.87170 56.68931
# Shear Modulus (GPa) = 29.43771 39.12639 34.28205
#
# Velocity S-wave (km/s) = 3.56554 4.11063 3.84775
# Velocity P-wave (km/s) = 5.86893 7.34850 6.64999
#
# Compressibility (1/GPa) = 0.02468714
#
# Stress axis : x y z
#
# Youngs Moduli (GPa) = 35.91247 123.95395 105.09914
#
# Poissons Ratio (x) = 0.25493 0.63438
# Poissons Ratio (y) = 0.07386 0.23938
# Poissons Ratio (z) = 0.21677 0.28232
#
# Static dielectric constant tensor:
#      x y z
#    x 2.663410 -0.171570 -0.828310 
#    y -0.171570 1.960880 0.215210 
#    z -0.828310 0.215210 2.895950 
# 
# From -- ./inp_files/595030.got.cif
#   From: 2010.05.17/outbox.cif.g08.bks.cpg/sg2_298_cif.got.tgz:595030.got - 2010.06.03 11:33:40.
