data_PCOD9044752
_publ_section_title
;
Structure prediction by ZEFSAII (Michael W. Deem and Ramdas Pophale) SiO2 
 PCOD9044752
Probable space group: P -1
;
_chemical_formula_sum "Si O2"
_cell_formula_units_Z 14
_cell_length_a 11.624832
_cell_length_b 5.451499
_cell_length_c 13.497711
_cell_angle_alpha 111.157693
_cell_angle_beta 131.452224
_cell_angle_gamma 90.006078
_cell_volume 561.851161
_symmetry_space_group_name_H-M "P -1"
_symmetry_group_IT_number 2
_symmetry_cell_setting 'triclinic'
loop_
_space_group_symop_operation_xyz
x,y,z
-x,-y,-z
loop_
_atom_site_type_symbol
_atom_site_label
_atom_site_fract_x
_atom_site_fract_y
_atom_site_fract_z
Si Si1 0.958732 0.218458 0.369971
Si Si2 0.415546 0.580505 0.559000
Si Si3 0.339296 0.292760 0.825153
Si Si4 0.982015 0.221740 0.889635
Si Si5 0.900195 0.453303 0.180840
Si Si6 0.746243 0.958232 0.884376
Si Si7 0.732081 0.930073 0.457848
O O1 0.000000 0.500000 0.500000
O O2 0.791148 0.553957 0.208382
O O3 0.082916 0.063444 0.455203
O O4 0.769198 0.017144 0.240670
O O5 0.500000 0.500000 0.500000
O O6 0.562542 0.764548 0.740327
O O7 0.688897 0.212948 0.487538
O O8 0.324934 0.287303 0.517093
O O9 0.366292 0.230826 0.718345
O O10 0.500000 0.500000 0.000000
O O11 0.145892 0.165705 0.003096
O O12 0.981961 0.305886 0.787779
O O13 0.987443 0.299329 0.281459
O O14 0.830814 0.000485 0.829263
O O15 0.000000 0.500000 0.000000
O O16 0.778045 0.249563 0.001584
#
# Coordination Sequence:
#
# PCOD9044752 Si02
#       7
#     2   2   2   2   2   2   2
#     4  12  27  52  78 120 164 220 275 335 413 501
#     4  12  30  53  80 113 159 217 278 342 415 490
#     4  12  28  48  81 118 162 212 270 341 417 491
#     4   9  21  42  71 110 147 203 260 335 400 478
#     4  11  24  43  79 113 159 205 270 331 412 493
#     4  10  23  47  72 114 156 203 274 340 403 486
#     4  12  29  54  81 116 166 216 275 340 415 500
#
# _framework density 24.917632999999999
#
# number of rings (size 3 to 8) (size 9 to 14) (size 15 to 20)
#    0.000    0.857    1.429    3.429   10.000    5.143 
#    2.571    0.000    0.000    0.000    0.000    0.000 
#    0.000    0.000    0.000    0.000    0.000    0.000 
#
# Total GULP energy -78273.683083 kJ/mol
# GULP energy per Si atom -5590.977363 kJ/mol
# Density = 2.486092 g / cm^3
# Si number density = 24.917633 Si / 1000 Ang^3
#
#
#
# Elastic Constant Matrix: (Units=GPa)
#
#
# Indices 1 2 3 4 5 6 
#
# 1 119.3192 61.9463 42.0169 -4.2448 -16.0301 -13.2809
# 2 61.9463 171.1116 49.1197 -4.2420 4.2043 10.9483
# 3 42.0169 49.1197 144.6786 19.6853 -7.9744 10.9180
# 4 -4.2448 -4.2420 19.6853 40.9149 9.8108 -10.8714
# 5 -16.0301 4.2043 -7.9744 9.8108 52.1507 8.1225
# 6 -13.2809 10.9483 10.9180 -10.8714 8.1225 40.0511
#
#
#
# Elastic Compliance Matrix: (Units=1/GPa)
#
#
# Indices 1 2 3 4 5 6 
#
# 1 0.012834 -0.004103 -0.003269 0.003841 0.001977 0.006910
# 2 -0.004103 0.008014 -0.001585 0.000983 -0.001952 -0.002456
# 3 -0.003269 -0.001585 0.010079 -0.007713 0.003067 -0.006114
# 4 0.003841 0.000983 -0.007713 0.034555 -0.008802 0.014272
# 5 0.001977 -0.001952 0.003067 -0.008802 0.023112 -0.006723
# 6 0.006910 -0.002456 -0.006114 0.014272 -0.006723 0.034835
#
#
# Mechanical properties :
#
#
# Convention : Reuss Voigt Hill
#
# Bulk Modulus (GPa) = 76.85158 82.36392 79.60775
# Shear Modulus (GPa) = 34.32130 45.42510 39.87320
#
# Velocity S-wave (km/s) = 3.71535 4.27430 4.00459
# Velocity P-wave (km/s) = 7.02241 7.58194 7.30753
#
# Compressibility (1/GPa) = 0.01301209
#
# Stress axis : x y z
#
# Youngs Moduli (GPa) = 77.92036 124.77943 99.21187
#
# Poissons Ratio (x) = 0.51198 0.32434
# Poissons Ratio (y) = 0.31971 0.15728
# Poissons Ratio (z) = 0.25473 0.19781
#
# Static dielectric constant tensor:
#      x y z
#    x 2.066680 -0.099520 -0.068890 
#    y -0.099520 2.244630 0.142180 
#    z -0.068890 0.142180 2.071000 
# 
# From -- ./inp_files/415452.got.cif
#   From: 2010.05.17/outbox.cif.g08.bks.cpg/sg2_208_cif.got.tgz:415452.got - 2010.06.03 11:33:40.
