data_PCOD9044087
_publ_section_title
;
Structure prediction by ZEFSAII (Michael W. Deem and Ramdas Pophale) SiO2 
 PCOD9044087
Probable space group: P -1
;
_chemical_formula_sum "Si O2"
_cell_formula_units_Z 16
_cell_length_a 8.596846
_cell_length_b 8.857734
_cell_length_c 20.104927
_cell_angle_alpha 136.989298
_cell_angle_beta 40.599782
_cell_angle_gamma 127.855652
_cell_volume 673.693358
_symmetry_space_group_name_H-M "P -1"
_symmetry_group_IT_number 2
_symmetry_cell_setting 'triclinic'
loop_
_space_group_symop_operation_xyz
x,y,z
-x,-y,-z
loop_
_atom_site_type_symbol
_atom_site_label
_atom_site_fract_x
_atom_site_fract_y
_atom_site_fract_z
Si Si1 0.606177 0.820596 0.751522
Si Si2 0.837437 0.896372 0.216293
Si Si3 0.356166 0.816567 0.034347
Si Si4 0.102269 0.843216 0.859639
Si Si5 0.351476 0.524697 0.122296
Si Si6 0.341336 0.615857 0.325092
Si Si7 0.874489 0.057013 0.406877
Si Si8 0.049870 0.796786 0.370959
O O1 0.358290 0.782752 0.780509
O O2 0.620273 0.623165 0.736459
O O3 0.850433 0.829700 0.633376
O O4 0.616549 0.054140 0.862770
O O5 0.583310 0.745137 0.256025
O O6 0.073400 0.768218 0.096545
O O7 0.865591 0.041611 0.186336
O O8 0.855257 0.023957 0.323225
O O9 0.493035 0.603330 0.919268
O O10 0.500000 0.000000 0.000000
O O11 0.907278 0.624128 0.848635
O O12 0.000000 0.000000 0.000000
O O13 0.291863 0.766739 0.240418
O O14 0.500000 0.500000 0.000000
O O15 0.293200 0.775679 0.454464
O O16 0.110895 0.616418 0.349882
O O17 0.860079 0.829623 0.383247
O O18 0.000000 0.000000 0.500000
#
# Coordination Sequence:
#
# PCOD9044087 Si02
#       8
#     2   2   2   2   2   2   2   2
#     4  11  23  41  66  99 141 180 228 291 345 418
#     4  11  24  42  70  97 145 183 233 297 350 413
#     4  11  21  43  63  97 139 179 223 285 359 413
#     4  12  26  46  66 102 146 185 232 295 356 421
#     4  12  25  42  74 102 140 186 241 291 361 414
#     4  11  24  42  72 103 134 184 243 284 352 423
#     4  10  23  46  69  96 141 184 233 292 355 418
#     4  10  24  46  74 101 140 183 240 290 357 424
#
# _framework density 23.749679
#
# number of rings (size 3 to 8) (size 9 to 14) (size 15 to 20)
#    0.000    1.000    2.500    3.750    7.000    0.000 
#    0.000    2.500    0.000    0.000    0.000    0.000 
#    0.000    0.000    0.000    0.000    0.000    0.000 
#
# Total GULP energy -89273.060862 kJ/mol
# GULP energy per Si atom -5579.566304 kJ/mol
# Density = 2.369562 g / cm^3
# Si number density = 23.749679 Si / 1000 Ang^3
#
#
#
# Elastic Constant Matrix: (Units=GPa)
#
#
# Indices 1 2 3 4 5 6 
#
# 1 141.8693 55.2446 54.0442 0.9971 -2.2544 -19.3613
# 2 55.2446 99.3717 56.4094 -11.3065 -5.4146 -11.5652
# 3 54.0442 56.4094 160.7113 1.5877 1.4697 -0.5858
# 4 0.9971 -11.3065 1.5877 40.9405 -7.8177 -11.7570
# 5 -2.2544 -5.4146 1.4697 -7.8177 46.1902 -11.2630
# 6 -19.3613 -11.5652 -0.5858 -11.7570 -11.2630 46.6399
#
#
#
# Elastic Compliance Matrix: (Units=1/GPa)
#
#
# Indices 1 2 3 4 5 6 
#
# 1 0.009760 -0.003959 -0.001887 -0.000182 0.000821 0.003199
# 2 -0.003959 0.016523 -0.004560 0.007188 0.004390 0.005269
# 3 -0.001887 -0.004560 0.008493 -0.002815 -0.002111 -0.003027
# 4 -0.000182 0.007188 -0.002815 0.031688 0.009183 0.011877
# 5 0.000821 0.004390 -0.002111 0.009183 0.026280 0.010064
# 6 0.003199 0.005269 -0.003027 0.011877 0.010064 0.029461
#
#
# Mechanical properties :
#
#
# Convention : Reuss Voigt Hill
#
# Bulk Modulus (GPa) = 71.60669 81.48321 76.54495
# Shear Modulus (GPa) = 33.85891 42.50440 38.18166
#
# Velocity S-wave (km/s) = 3.77988 4.23505 4.01393
# Velocity P-wave (km/s) = 7.01898 7.63531 7.33362
#
# Compressibility (1/GPa) = 0.01396518
#
# Stress axis : x y z
#
# Youngs Moduli (GPa) = 102.46115 60.52232 117.73713
#
# Poissons Ratio (x) = 0.23959 0.22213
# Poissons Ratio (y) = 0.40561 0.53691
# Poissons Ratio (z) = 0.19331 0.27600
#
# Static dielectric constant tensor:
#      x y z
#    x 2.004750 -0.046800 0.070830 
#    y -0.046800 1.878610 -0.006640 
#    z 0.070830 -0.006640 1.921440 
# 
# From -- ./inp_files/224204.got.cif
#   From: 2010.05.17/outbox.cif.g08.bks.cpg/sg2_113_cif.got.tgz:224204.got - 2010.06.03 11:33:40.
