data_PCOD9044913
_publ_section_title
;
Structure prediction by ZEFSAII (Michael W. Deem and Ramdas Pophale) SiO2 
 PCOD9044913
Probable space group: P -1
;
_chemical_formula_sum "Si O2"
_cell_formula_units_Z 14
_cell_length_a 21.970287
_cell_length_b 15.554753
_cell_length_c 12.568820
_cell_angle_alpha 29.091549
_cell_angle_beta 160.057249
_cell_angle_gamma 152.790826
_cell_volume 649.869957
_symmetry_space_group_name_H-M "P -1"
_symmetry_group_IT_number 2
_symmetry_cell_setting 'triclinic'
loop_
_space_group_symop_operation_xyz
x,y,z
-x,-y,-z
loop_
_atom_site_type_symbol
_atom_site_label
_atom_site_fract_x
_atom_site_fract_y
_atom_site_fract_z
Si Si1 0.477430 0.390736 0.691598
Si Si2 0.227193 0.223896 0.153478
Si Si3 0.578171 0.065515 0.278550
Si Si4 0.853236 0.221131 0.146039
Si Si5 0.927915 0.663032 0.828494
Si Si6 0.012896 0.066886 0.766410
Si Si7 0.286809 0.905570 0.303910
O O1 0.500000 0.500000 0.500000
O O2 0.609450 0.561923 0.802037
O O3 0.254072 0.302985 0.459626
O O4 0.562557 0.228296 0.001299
O O5 0.319650 0.066919 0.456729
O O6 0.105818 0.146466 0.146562
O O7 0.087314 0.200763 0.848123
O O8 0.681685 0.163573 0.452305
O O9 0.356288 0.915533 0.097359
O O10 0.891588 0.131043 0.414815
O O11 0.011604 0.245954 0.287742
O O12 0.863171 0.433279 0.958235
O O13 0.120232 0.751277 0.123583
O O14 0.200543 0.064933 0.015942
O O15 0.500000 0.000000 0.500000
#
# Coordination Sequence:
#
# PCOD9044913 Si02
#       7
#     2   2   2   2   2   2   2
#     4  12  26  42  70 100 132 174 223 266 332 392
#     4  10  23  48  62 102 134 171 223 273 317 405
#     4  11  24  42  71  96 132 179 215 269 335 381
#     4  11  23  42  66  97 132 180 213 274 335 380
#     4  11  25  42  64 101 136 167 226 272 322 401
#     4  10  24  42  70  90 136 176 215 272 341 372
#     4  11  23  43  65  97 130 170 223 273 323 396
#
# _framework density 21.542771999999999
#
# number of rings (size 3 to 8) (size 9 to 14) (size 15 to 20)
#    0.000    1.143    2.857    2.571    6.000    2.286 
#    0.000    4.286    0.000    0.000    0.000    0.000 
#    0.000    0.000    0.000    0.000    0.000    0.000 
#
# Total GULP energy -78263.744344 kJ/mol
# GULP energy per Si atom -5590.267453 kJ/mol
# Density = 2.149374 g / cm^3
# Si number density = 21.542772 Si / 1000 Ang^3
#
#
#
# Elastic Constant Matrix: (Units=GPa)
#
#
# Indices 1 2 3 4 5 6 
#
# 1 68.9431 11.4001 26.7259 3.4257 -4.4717 3.6105
# 2 11.4001 98.1964 25.4549 17.4087 -11.5819 -9.4438
# 3 26.7259 25.4549 79.9278 13.2306 -10.8860 3.4488
# 4 3.4257 17.4087 13.2306 32.8093 -0.5919 1.7754
# 5 -4.4717 -11.5819 -10.8860 -0.5919 43.7354 8.5972
# 6 3.6105 -9.4438 3.4488 1.7754 8.5972 25.6117
#
#
#
# Elastic Compliance Matrix: (Units=1/GPa)
#
#
# Indices 1 2 3 4 5 6 
#
# 1 0.016826 -0.000895 -0.005325 0.000999 0.000616 -0.002261
# 2 -0.000895 0.012703 -0.002808 -0.005762 0.001496 0.005085
# 3 -0.005325 -0.002808 0.016521 -0.004373 0.003425 -0.003356
# 4 0.000999 -0.005762 -0.004373 0.035372 -0.001308 -0.003689
# 5 0.000616 0.001496 0.003425 -0.001308 0.025845 -0.008581
# 6 -0.002261 0.005085 -0.003356 -0.003689 -0.008581 0.044827
#
#
# Mechanical properties :
#
#
# Convention : Reuss Voigt Hill
#
# Bulk Modulus (GPa) = 35.72245 41.58102 38.65174
# Shear Modulus (GPa) = 27.85817 32.66371 30.26094
#
# Velocity S-wave (km/s) = 3.59995 3.89810 3.75199
# Velocity P-wave (km/s) = 5.82217 6.29315 6.06223
#
# Compressibility (1/GPa) = 0.02799360
#
# Stress axis : x y z
#
# Youngs Moduli (GPa) = 59.43302 78.72424 60.52810
#
# Poissons Ratio (x) = 0.07045 0.32231
# Poissons Ratio (y) = 0.05318 0.16997
# Poissons Ratio (z) = 0.31648 0.22106
#
# Static dielectric constant tensor:
#      x y z
#    x 1.820380 -0.014040 0.007110 
#    y -0.014040 1.785060 0.031700 
#    z 0.007110 0.031700 1.780720 
# 
# From -- ./inp_files/182805.got.cif
#   From: 2010.05.17/outbox.cif.g08.bks.cpg/sg2_92_cif.got.tgz:182805.got - 2010.06.03 11:33:40.
