data_PCOD9044098
_publ_section_title
;
Structure prediction by ZEFSAII (Michael W. Deem and Ramdas Pophale) SiO2 
 PCOD9044098
Probable space group: P -1
;
_chemical_formula_sum "Si O2"
_cell_formula_units_Z 14
_cell_length_a 9.107166
_cell_length_b 5.195825
_cell_length_c 27.790380
_cell_angle_alpha 119.636513
_cell_angle_beta 31.572301
_cell_angle_gamma 122.931558
_cell_volume 576.410455
_symmetry_space_group_name_H-M "P -1"
_symmetry_group_IT_number 2
_symmetry_cell_setting 'triclinic'
loop_
_space_group_symop_operation_xyz
x,y,z
-x,-y,-z
loop_
_atom_site_type_symbol
_atom_site_label
_atom_site_fract_x
_atom_site_fract_y
_atom_site_fract_z
Si Si1 0.757456 0.611273 0.326275
Si Si2 0.185360 0.264884 0.415302
Si Si3 0.397331 0.456289 0.267635
Si Si4 0.843432 0.991331 0.246671
Si Si5 0.310417 0.719153 0.056851
Si Si6 0.157031 0.340745 0.586323
Si Si7 0.891071 0.306352 0.060665
O O1 0.443590 0.356305 0.390050
O O2 0.720212 0.865072 0.321848
O O3 0.857769 0.761189 0.363150
O O4 0.934989 0.354799 0.243530
O O5 0.337861 0.309683 0.323961
O O6 0.000000 0.500000 0.500000
O O7 0.962626 0.933549 0.443077
O O8 0.616238 0.796149 0.251867
O O9 0.561309 0.287238 0.168320
O O10 0.087322 0.475072 0.335428
O O11 0.132587 0.870662 0.156998
O O12 0.067089 0.505463 0.072484
O O13 0.500000 0.500000 0.000000
O O14 0.500000 0.000000 0.000000
O O15 0.500000 0.500000 0.500000
O O16 0.000000 0.500000 0.000000
O O17 0.000000 0.000000 0.000000
#
# Coordination Sequence:
#
# PCOD9044098 Si02
#       7
#     2   2   2   2   2   2   2
#     4  11  25  44  73 101 142 191 245 292 370 432
#     4  11  26  48  75 101 153 199 245 313 376 443
#     4  10  25  46  73 103 152 199 252 300 375 454
#     4  10  23  46  69  99 141 198 236 299 368 440
#     4  11  23  42  69 104 141 184 241 303 363 438
#     4  12  28  44  74 111 148 192 258 306 373 455
#     4  11  26  46  76 109 150 197 246 309 377 434
#
# _framework density 24.288249
#
# number of rings (size 3 to 8) (size 9 to 14) (size 15 to 20)
#    0.000    1.143    1.429    2.571    8.000    8.000 
#    0.000    0.000    0.000    0.000    0.000    0.000 
#    0.000    0.000    0.000    0.000    0.000    0.000 
#
# Total GULP energy -78181.809991 kJ/mol
# GULP energy per Si atom -5584.414999 kJ/mol
# Density = 2.423297 g / cm^3
# Si number density = 24.288249 Si / 1000 Ang^3
#
#
#
# Elastic Constant Matrix: (Units=GPa)
#
#
# Indices 1 2 3 4 5 6 
#
# 1 111.7666 11.3206 23.7811 3.0489 -18.6938 -6.6707
# 2 11.3206 102.6773 34.7266 14.2230 -12.0293 -7.3657
# 3 23.7811 34.7266 135.1214 9.1605 -19.6170 -18.5363
# 4 3.0489 14.2230 9.1605 34.2101 -4.5404 -2.2676
# 5 -18.6938 -12.0293 -19.6170 -4.5404 41.4576 -0.3739
# 6 -6.6707 -7.3657 -18.5363 -2.2676 -0.3739 50.5133
#
#
#
# Elastic Compliance Matrix: (Units=1/GPa)
#
#
# Indices 1 2 3 4 5 6 
#
# 1 0.009894 -0.000238 -0.000983 0.000066 0.003943 0.000943
# 2 -0.000238 0.011304 -0.002275 -0.003804 0.001685 0.000624
# 3 -0.000983 -0.002275 0.009056 -0.000788 0.003121 0.002849
# 4 0.000066 -0.003804 -0.000788 0.031321 0.001988 0.000586
# 5 0.003943 0.001685 0.003121 0.001988 0.028103 0.002209
# 6 0.000943 0.000624 0.002849 0.000586 0.002209 0.021100
#
#
# Mechanical properties :
#
#
# Convention : Reuss Voigt Hill
#
# Bulk Modulus (GPa) = 42.98776 54.35796 48.67286
# Shear Modulus (GPa) = 39.83287 43.88535 41.85911
#
# Velocity S-wave (km/s) = 4.05409 4.25532 4.15593
# Velocity P-wave (km/s) = 6.29695 6.82442 6.56598
#
# Compressibility (1/GPa) = 0.02326244
#
# Stress axis : x y z
#
# Youngs Moduli (GPa) = 101.06645 88.46325 110.42523
#
# Poissons Ratio (x) = 0.02106 0.10853
# Poissons Ratio (y) = 0.02406 0.25124
# Poissons Ratio (z) = 0.09933 0.20127
#
# Static dielectric constant tensor:
#      x y z
#    x 1.996170 -0.118530 -0.133070 
#    y -0.118530 2.092490 0.114830 
#    z -0.133070 0.114830 2.131280 
# 
# From -- ./inp_files/143316.got.cif
#   From: 2010.05.17/outbox.cif.g08.bks.cpg/sg2_72_cif.got.tgz:143316.got - 2010.06.03 11:33:40.
