data_PCOD9044451
_publ_section_title
;
Structure prediction by ZEFSAII (Michael W. Deem and Ramdas Pophale) SiO2 
 PCOD9044451
Probable space group: P -1
;
_chemical_formula_sum "Si O2"
_cell_formula_units_Z 16
_cell_length_a 16.444848
_cell_length_b 15.477658
_cell_length_c 13.454984
_cell_angle_alpha 49.069185
_cell_angle_beta 26.926636
_cell_angle_gamma 30.782107
_cell_volume 697.045952
_symmetry_space_group_name_H-M "P -1"
_symmetry_group_IT_number 2
_symmetry_cell_setting 'triclinic'
loop_
_space_group_symop_operation_xyz
x,y,z
-x,-y,-z
loop_
_atom_site_type_symbol
_atom_site_label
_atom_site_fract_x
_atom_site_fract_y
_atom_site_fract_z
Si Si1 0.778451 0.526058 0.990733
Si Si2 0.257323 0.664557 0.556320
Si Si3 0.198736 0.999769 0.048684
Si Si4 0.614899 0.893788 0.346595
Si Si5 0.184811 0.226339 0.192801
Si Si6 0.657087 0.559427 0.886477
Si Si7 0.117382 0.981446 0.779530
Si Si8 0.130507 0.675966 0.335794
O O1 0.780903 0.654780 0.926079
O O2 0.858791 0.472752 0.827140
O O3 0.040586 0.310235 0.907223
O O4 0.455508 0.639039 0.284436
O O5 0.500000 0.500000 0.500000
O O6 0.070610 0.669230 0.690637
O O7 0.995537 0.868606 0.743753
O O8 0.958963 0.083555 0.161832
O O9 0.410037 0.783344 0.996094
O O10 0.431328 0.977370 0.774942
O O11 0.500000 0.000000 0.500000
O O12 0.449317 0.859536 0.530391
O O13 0.075379 0.236009 0.411491
O O14 0.500000 0.000000 0.000000
O O15 0.831119 0.457617 0.670747
O O16 0.460298 0.543550 0.117061
O O17 0.973346 0.168269 0.742495
O O18 0.000000 0.000000 0.000000
#
# Coordination Sequence:
#
# PCOD9044451 Si02
#       8
#     2   2   2   2   2   2   2   2
#     4  12  28  46  79 109 150 199 252 319 379 456
#     4  12  28  52  75 104 158 204 258 315 382 451
#     4  11  26  46  75 104 143 203 242 309 375 452
#     4  12  26  44  72 112 149 185 246 307 383 453
#     4  12  30  49  76 113 154 202 264 316 375 460
#     4  10  23  46  75 107 143 191 247 308 389 441
#     4  11  25  45  74 107 151 188 244 310 385 450
#     4  10  24  45  76 107 149 194 249 312 378 455
#
# _framework density 22.954011000000001
#
# number of rings (size 3 to 8) (size 9 to 14) (size 15 to 20)
#    0.000    0.750    3.750    1.500   10.500    3.000 
#    0.000    0.000    0.000    0.000    0.000    0.000 
#    0.000    0.000    0.000    0.000    0.000    0.000 
#
# Total GULP energy -89348.591321 kJ/mol
# GULP energy per Si atom -5584.286958 kJ/mol
# Density = 2.290177 g / cm^3
# Si number density = 22.954011 Si / 1000 Ang^3
#
#
#
# Elastic Constant Matrix: (Units=GPa)
#
#
# Indices 1 2 3 4 5 6 
#
# 1 112.5647 15.0324 20.2119 -4.5555 1.7749 17.8245
# 2 15.0324 69.0032 13.5624 8.8230 8.6727 15.0426
# 3 20.2119 13.5624 115.4260 6.9592 9.3782 16.5110
# 4 -4.5555 8.8230 6.9592 34.0205 13.0529 0.4254
# 5 1.7749 8.6727 9.3782 13.0529 41.0443 0.4470
# 6 17.8245 15.0426 16.5110 0.4254 0.4470 29.7985
#
#
#
# Elastic Compliance Matrix: (Units=1/GPa)
#
#
# Indices 1 2 3 4 5 6 
#
# 1 0.010092 -0.001124 -0.001010 0.002139 -0.000595 -0.004931
# 2 -0.001124 0.017239 -0.000315 -0.003577 -0.002300 -0.007770
# 3 -0.001010 -0.000315 0.009750 -0.001364 -0.001634 -0.004595
# 4 0.002139 -0.003577 -0.001364 0.034745 -0.010085 0.000937
# 5 -0.000595 -0.002300 -0.001634 -0.010085 0.028433 0.002139
# 6 -0.004931 -0.007770 -0.004595 0.000937 0.002139 0.042931
#
#
# Mechanical properties :
#
#
# Convention : Reuss Voigt Hill
#
# Bulk Modulus (GPa) = 31.07229 43.84529 37.45879
# Shear Modulus (GPa) = 31.48305 37.51847 34.50076
#
# Velocity S-wave (km/s) = 3.70749 4.04729 3.88111
# Velocity P-wave (km/s) = 5.64743 6.40184 6.03643
#
# Compressibility (1/GPa) = 0.03218301
#
# Stress axis : x y z
#
# Youngs Moduli (GPa) = 99.08744 58.00751 102.56701
#
# Poissons Ratio (x) = 0.06519 0.10364
# Poissons Ratio (y) = 0.11135 0.03228
# Poissons Ratio (z) = 0.10012 0.01826
#
# Static dielectric constant tensor:
#      x y z
#    x 2.583020 0.162720 0.072260 
#    y 0.162720 1.959720 0.072390 
#    z 0.072260 0.072390 1.898330 
# 
# From -- ./inp_files/455588.got.cif
#   From: 2010.05.17/outbox.cif.g08.bks.cpg/sg2_228_cif.got.tgz:455588.got - 2010.06.03 11:33:40.
