data_PCOD9044749
_publ_section_title
;
Structure prediction by ZEFSAII (Michael W. Deem and Ramdas Pophale) SiO2 
 PCOD9044749
Probable space group: P -1
;
_chemical_formula_sum "Si O2"
_cell_formula_units_Z 14
_cell_length_a 11.914708
_cell_length_b 5.117768
_cell_length_c 11.177052
_cell_angle_alpha 84.611340
_cell_angle_beta 66.014071
_cell_angle_gamma 104.593615
_cell_volume 587.551421
_symmetry_space_group_name_H-M "P -1"
_symmetry_group_IT_number 2
_symmetry_cell_setting 'triclinic'
loop_
_space_group_symop_operation_xyz
x,y,z
-x,-y,-z
loop_
_atom_site_type_symbol
_atom_site_label
_atom_site_fract_x
_atom_site_fract_y
_atom_site_fract_z
Si Si1 0.651406 0.578323 0.456318
Si Si2 0.273310 0.859025 0.141733
Si Si3 0.702019 0.706669 0.706896
Si Si4 0.797174 0.187301 0.307961
Si Si5 0.552050 0.742247 0.139145
Si Si6 0.956063 0.546571 0.650684
Si Si7 0.311183 0.687242 0.875138
O O1 0.500000 0.500000 0.500000
O O2 0.677081 0.659662 0.580380
O O3 0.700545 0.322960 0.411530
O O4 0.737781 0.857462 0.341702
O O5 0.118296 0.742341 0.238548
O O6 0.309182 0.006227 0.252536
O O7 0.274164 0.662785 0.032117
O O8 0.368722 0.131706 0.019909
O O9 0.596232 0.425598 0.819444
O O10 0.840742 0.679378 0.679957
O O11 0.802014 0.309763 0.166349
O O12 0.927187 0.277961 0.325402
O O13 0.618708 0.534480 0.174618
O O14 0.579880 0.011156 0.197039
O O15 0.000000 0.500000 0.500000
#
# Coordination Sequence:
#
# PCOD9044749 Si02
#       7
#     2   2   2   2   2   2   2
#     4  12  27  47  76 109 139 192 241 302 363 416
#     4  10  26  44  76 106 146 191 243 296 364 425
#     4  12  25  44  75 106 149 190 242 302 358 431
#     4  12  26  48  73 103 154 185 243 296 352 440
#     4  10  24  45  74 111 144 180 250 298 366 412
#     4  12  27  48  69 107 149 198 240 287 366 432
#     4  10  23  47  72 110 139 190 236 306 359 418
#
# _framework density 23.827701999999999
#
# number of rings (size 3 to 8) (size 9 to 14) (size 15 to 20)
#    0.857    0.000    1.429    5.143    4.000    2.857 
#    0.000    1.429    0.000    0.000    0.000    0.000 
#    0.000    0.000    0.000    0.000    0.000    0.000 
#
# Total GULP energy -78032.931218 kJ/mol
# GULP energy per Si atom -5573.780801 kJ/mol
# Density = 2.377347 g / cm^3
# Si number density = 23.827702 Si / 1000 Ang^3
#
#
#
# Elastic Constant Matrix: (Units=GPa)
#
#
# Indices 1 2 3 4 5 6 
#
# 1 177.0891 39.5093 38.8614 -7.6583 10.0880 31.0298
# 2 39.5093 104.0308 18.7010 -1.7786 -12.7753 14.2220
# 3 38.8614 18.7010 95.6612 5.1377 12.2495 6.3881
# 4 -7.6583 -1.7786 5.1377 62.3604 7.8564 -0.5636
# 5 10.0880 -12.7753 12.2495 7.8564 46.9723 3.1927
# 6 31.0298 14.2220 6.3881 -0.5636 3.1927 33.6802
#
#
#
# Elastic Compliance Matrix: (Units=1/GPa)
#
#
# Indices 1 2 3 4 5 6 
#
# 1 0.007696 -0.001885 -0.002263 0.001201 -0.001388 -0.005714
# 2 -0.001885 0.011624 -0.001826 -0.000323 0.004317 -0.003240
# 3 -0.002263 -0.001826 0.012118 -0.000934 -0.003071 0.000833
# 4 0.001201 -0.000323 -0.000934 0.016610 -0.002864 -0.000244
# 5 -0.001388 0.004317 -0.003071 -0.002864 0.024198 -0.002303
# 6 -0.005714 -0.003240 0.000833 -0.000244 -0.002303 0.036380
#
#
# Mechanical properties :
#
#
# Convention : Reuss Voigt Hill
#
# Bulk Modulus (GPa) = 51.30766 63.43606 57.37186
# Shear Modulus (GPa) = 39.34857 47.24987 43.29922
#
# Velocity S-wave (km/s) = 4.06812 4.45790 4.26746
# Velocity P-wave (km/s) = 6.60649 7.29231 6.95785
#
# Compressibility (1/GPa) = 0.01949027
#
# Stress axis : x y z
#
# Youngs Moduli (GPa) = 129.93383 86.02800 82.52402
#
# Poissons Ratio (x) = 0.16215 0.18678
# Poissons Ratio (y) = 0.24490 0.15067
# Poissons Ratio (z) = 0.29408 0.15707
#
# Static dielectric constant tensor:
#      x y z
#    x 1.699030 0.155850 0.003720 
#    y 0.155850 1.760500 0.011090 
#    z 0.003720 0.011090 1.927910 
# 
# From -- ./inp_files/410479.got.cif
#   From: 2010.05.17/outbox.cif.g08.bks.cpg/sg2_206_cif.got.tgz:410479.got - 2010.06.03 11:33:40.
