data_PCOD9044894
_publ_section_title
;
Structure prediction by ZEFSAII (Michael W. Deem and Ramdas Pophale) SiO2 
 PCOD9044894
Probable space group: P -1
;
_chemical_formula_sum "Si O2"
_cell_formula_units_Z 12
_cell_length_a 7.702892
_cell_length_b 7.796599
_cell_length_c 13.684527
_cell_angle_alpha 49.225444
_cell_angle_beta 131.149200
_cell_angle_gamma 110.290441
_cell_volume 463.656656
_symmetry_space_group_name_H-M "P -1"
_symmetry_group_IT_number 2
_symmetry_cell_setting 'triclinic'
loop_
_space_group_symop_operation_xyz
x,y,z
-x,-y,-z
loop_
_atom_site_type_symbol
_atom_site_label
_atom_site_fract_x
_atom_site_fract_y
_atom_site_fract_z
Si Si1 0.971149 0.033027 0.245839
Si Si2 0.520850 0.235933 0.128314
Si Si3 0.949372 0.728044 0.165286
Si Si4 0.535205 0.373524 0.663755
Si Si5 0.045829 0.228539 0.490915
Si Si6 0.577248 0.772284 0.677425
O O1 0.925691 0.906309 0.178216
O O2 0.143654 0.217926 0.223212
O O3 0.740909 0.144162 0.175328
O O4 0.076989 0.819060 0.435243
O O5 0.519779 0.201846 0.258042
O O6 0.500000 0.500000 0.000000
O O7 0.272112 0.191969 0.012807
O O8 0.195441 0.734716 0.201504
O O9 0.475846 0.454395 0.313154
O O10 0.964942 0.465165 0.314148
O O11 0.500000 0.500000 0.500000
O O12 0.315452 0.236224 0.622559
O O13 0.000000 0.000000 0.500000
O O14 0.500000 0.000000 0.500000
#
# Coordination Sequence:
#
# PCOD9044894 Si02
#       6
#     2   2   2   2   2   2
#     4  12  28  48  82 119 159 216 272 331 405 486
#     4  12  30  51  81 118 166 218 267 337 408 478
#     4  11  26  50  77 119 165 210 270 339 401 483
#     4  10  23  47  78 118 158 208 272 332 401 476
#     4  11  24  46  83 114 157 211 274 325 399 483
#     4  12  29  51  83 118 163 214 274 332 403 488
#
# _framework density 25.881218000000001
#
# number of rings (size 3 to 8) (size 9 to 14) (size 15 to 20)
#    0.000    0.667    0.000    7.000   14.000    3.333 
#    0.000    0.000    0.000    0.000    0.000    0.000 
#    0.000    0.000    0.000    0.000    0.000    0.000 
#
# Total GULP energy -67116.041410 kJ/mol
# GULP energy per Si atom -5593.003451 kJ/mol
# Density = 2.582231 g / cm^3
# Si number density = 25.881218 Si / 1000 Ang^3
#
#
#
# Elastic Constant Matrix: (Units=GPa)
#
#
# Indices 1 2 3 4 5 6 
#
# 1 222.2064 110.6094 79.1679 5.5605 32.8217 -13.0256
# 2 110.6094 234.2726 58.3906 24.6646 3.6772 -8.8049
# 3 79.1679 58.3906 92.2823 25.6949 14.0532 -21.5567
# 4 5.5605 24.6646 25.6949 57.8506 4.0760 -10.6559
# 5 32.8217 3.6772 14.0532 4.0760 50.0781 0.2519
# 6 -13.0256 -8.8049 -21.5567 -10.6559 0.2519 60.9987
#
#
#
# Elastic Compliance Matrix: (Units=1/GPa)
#
#
# Indices 1 2 3 4 5 6 
#
# 1 0.008481 -0.002843 -0.005785 0.003236 -0.003990 -0.000062
# 2 -0.002843 0.006089 -0.001281 -0.001989 0.001940 -0.000536
# 3 -0.005785 -0.001281 0.019678 -0.006757 -0.001108 0.004358
# 4 0.003236 -0.001989 -0.006757 0.021273 -0.001819 0.001740
# 5 -0.003990 0.001940 -0.001108 -0.001819 0.022907 -0.001376
# 6 -0.000062 -0.000536 0.004358 0.001740 -0.001376 0.018153
#
#
# Mechanical properties :
#
#
# Convention : Reuss Voigt Hill
#
# Bulk Modulus (GPa) = 69.29625 116.12193 92.70909
# Shear Modulus (GPa) = 41.25138 53.82502 47.53820
#
# Velocity S-wave (km/s) = 3.99667 4.56531 4.29042
# Velocity P-wave (km/s) = 6.93762 8.52960 7.77447
#
# Compressibility (1/GPa) = 0.01443079
#
# Stress axis : x y z
#
# Youngs Moduli (GPa) = 117.90739 164.23717 50.81856
#
# Poissons Ratio (x) = 0.46690 0.29399
# Poissons Ratio (y) = 0.33519 0.06508
# Poissons Ratio (z) = 0.68211 0.21031
#
# Static dielectric constant tensor:
#      x y z
#    x 2.554940 1.254280 -1.167630 
#    y 1.254280 4.683600 -2.787110 
#    z -1.167630 -2.787110 5.305780 
# 
# From -- ./inp_files/492157.got.cif
#   From: 2010.05.17/outbox.cif.g08.bks.cpg/sg2_247_cif.got.tgz:492157.got - 2010.06.03 11:33:40.
