data_PCOD9044753
_publ_section_title
;
Structure prediction by ZEFSAII (Michael W. Deem and Ramdas Pophale) SiO2 
 PCOD9044753
Probable space group: P -1
;
_chemical_formula_sum "Si O2"
_cell_formula_units_Z 16
_cell_length_a 9.200642
_cell_length_b 21.893561
_cell_length_c 9.458799
_cell_angle_alpha 58.809444
_cell_angle_beta 58.583061
_cell_angle_gamma 27.857283
_cell_volume 751.973490
_symmetry_space_group_name_H-M "P -1"
_symmetry_group_IT_number 2
_symmetry_cell_setting 'triclinic'
loop_
_space_group_symop_operation_xyz
x,y,z
-x,-y,-z
loop_
_atom_site_type_symbol
_atom_site_label
_atom_site_fract_x
_atom_site_fract_y
_atom_site_fract_z
Si Si1 0.219198 0.483361 0.478320
Si Si2 0.665319 0.631159 0.935050
Si Si3 0.722166 0.852985 0.047481
Si Si4 0.736334 0.111982 0.701697
Si Si5 0.070960 0.258560 0.617843
Si Si6 0.613590 0.381876 0.129489
Si Si7 0.672411 0.268541 0.728445
Si Si8 0.418920 0.830410 0.607789
O O1 0.485335 0.407414 0.318223
O O2 0.354380 0.399805 0.649786
O O3 0.000000 0.500000 0.500000
O O4 0.074506 0.611047 0.443082
O O5 0.560142 0.606399 0.911143
O O6 0.625331 0.713336 0.754767
O O7 0.412763 0.722956 0.079735
O O8 0.000000 0.500000 0.000000
O O9 0.510341 0.855895 0.140454
O O10 0.895857 0.783446 0.192071
O O11 0.007576 0.758795 0.904963
O O12 0.500000 0.000000 0.000000
O O13 0.809539 0.153029 0.713972
O O14 0.598755 0.186161 0.529577
O O15 0.060681 0.957356 0.688590
O O16 0.417430 0.149991 0.509066
O O17 0.873435 0.270141 0.620297
O O18 0.500000 0.500000 0.000000
#
# Coordination Sequence:
#
# PCOD9044753 Si02
#       8
#     2   2   2   2   2   2   2   2
#     4  12  24  43  72  98 138 184 232 279 339 419
#     4  12  25  41  65 100 139 178 222 282 353 407
#     4  11  23  44  71  98 137 182 231 288 338 411
#     4  10  24  45  74  98 131 185 238 280 345 419
#     4  11  23  44  65 102 141 172 223 294 346 400
#     4  12  24  43  68 100 133 180 240 279 331 417
#     4  12  25  42  65 102 141 175 218 291 358 399
#     4  10  23  47  72  94 134 184 237 278 336 427
#
# _framework density 21.277346000000001
#
# number of rings (size 3 to 8) (size 9 to 14) (size 15 to 20)
#    0.000    0.750    2.500    5.625    1.750    4.000 
#    0.000    0.000    0.000    0.000    0.000    0.000 
#    0.000    0.000    0.000    0.000    0.000    0.000 
#
# Total GULP energy -89387.908197 kJ/mol
# GULP energy per Si atom -5586.744262 kJ/mol
# Density = 2.122892 g / cm^3
# Si number density = 21.277346 Si / 1000 Ang^3
#
#
#
# Elastic Constant Matrix: (Units=GPa)
#
#
# Indices 1 2 3 4 5 6 
#
# 1 129.9113 15.4834 17.7291 19.5871 -9.8118 3.7048
# 2 15.4834 81.6800 29.5676 18.6732 -13.5275 0.8789
# 3 17.7291 29.5676 119.2272 12.7586 -0.9222 0.0185
# 4 19.5871 18.6732 12.7586 32.9055 -6.6185 -9.8372
# 5 -9.8118 -13.5275 -0.9222 -6.6185 28.4770 2.9801
# 6 3.7048 0.8789 0.0185 -9.8372 2.9801 34.8440
#
#
#
# Elastic Compliance Matrix: (Units=1/GPa)
#
#
# Indices 1 2 3 4 5 6 
#
# 1 0.008836 0.000236 -0.000771 -0.005462 0.002142 -0.002670
# 2 0.000236 0.016186 -0.003166 -0.007799 0.006186 -0.003163
# 3 -0.000771 -0.003166 0.009471 -0.001855 -0.001872 -0.000207
# 4 -0.005462 -0.007799 -0.001855 0.043204 0.003064 0.012714
# 5 0.002142 0.006186 -0.001872 0.003064 0.039749 -0.002917
# 6 -0.002670 -0.003163 -0.000207 0.012714 -0.002917 0.032902
#
#
# Mechanical properties :
#
#
# Convention : Reuss Voigt Hill
#
# Bulk Modulus (GPa) = 36.91199 50.70875 43.81037
# Shear Modulus (GPa) = 29.97952 37.11452 33.54702
#
# Velocity S-wave (km/s) = 3.75772 4.18104 3.97502
# Velocity P-wave (km/s) = 6.01772 6.86965 6.45775
#
# Compressibility (1/GPa) = 0.02709147
#
# Stress axis : x y z
#
# Youngs Moduli (GPa) = 113.17192 61.78253 105.58265
#
# Poissons Ratio (x) = -0.01460 0.08141
# Poissons Ratio (y) = -0.02675 0.33429
# Poissons Ratio (z) = 0.08726 0.19561
#
# Static dielectric constant tensor:
#      x y z
#    x 1.455900 -0.137750 0.295880 
#    y -0.137750 1.835140 0.215690 
#    z 0.295880 0.215690 1.495760 
# 
# From -- ./inp_files/223396.got.cif
#   From: 2010.05.17/outbox.cif.g08.bks.cpg/sg2_112_cif.got.tgz:223396.got - 2010.06.03 11:33:40.
