data_PCOD9044879
_publ_section_title
;
Structure prediction by ZEFSAII (Michael W. Deem and Ramdas Pophale) SiO2 
 PCOD9044879
Probable space group: P -1
;
_chemical_formula_sum "Si O2"
_cell_formula_units_Z 16
_cell_length_a 13.020572
_cell_length_b 10.398465
_cell_length_c 4.817504
_cell_angle_alpha 75.386193
_cell_angle_beta 104.656213
_cell_angle_gamma 108.521180
_cell_volume 587.750689
_symmetry_space_group_name_H-M "P -1"
_symmetry_group_IT_number 2
_symmetry_cell_setting 'triclinic'
loop_
_space_group_symop_operation_xyz
x,y,z
-x,-y,-z
loop_
_atom_site_type_symbol
_atom_site_label
_atom_site_fract_x
_atom_site_fract_y
_atom_site_fract_z
Si Si1 0.286463 0.653712 0.488836
Si Si2 0.725095 0.178950 0.096240
Si Si3 0.107042 0.967397 0.713523
Si Si4 0.070092 0.422771 0.393525
Si Si5 0.483509 0.335428 0.640830
Si Si6 0.430252 0.065990 0.177993
Si Si7 0.738942 0.836472 0.634836
Si Si8 0.952409 0.759939 0.040856
O O1 0.294296 0.702845 0.782445
O O2 0.198273 0.508164 0.459509
O O3 0.408696 0.679746 0.437077
O O4 0.239381 0.755184 0.213144
O O5 0.830224 0.139053 0.311034
O O6 0.617760 0.050696 0.030052
O O7 0.055779 0.891852 0.998565
O O8 0.207068 0.100126 0.652952
O O9 0.000000 0.000000 0.500000
O O10 0.039363 0.366769 0.090754
O O11 0.000000 0.500000 0.500000
O O12 0.055139 0.283304 0.626925
O O13 0.500000 0.500000 0.500000
O O14 0.366251 0.283946 0.444488
O O15 0.468447 0.220745 0.959299
O O16 0.319983 0.069353 0.274642
O O17 0.500000 0.000000 0.500000
O O18 0.838218 0.793256 0.870112
#
# Coordination Sequence:
#
# PCOD9044879 Si02
#       8
#     2   2   2   2   2   2   2   2
#     4  12  29  47  83 119 165 224 282 347 423 510
#     4  12  26  51  80 119 166 215 285 351 422 498
#     4  10  23  47  77 118 156 215 276 349 419 499
#     4  12  25  50  77 117 164 222 277 348 421 510
#     4  12  30  54  84 120 173 222 282 344 435 510
#     4  12  30  54  86 125 168 226 287 356 423 508
#     4  11  26  49  77 117 164 216 275 352 418 508
#     4  11  26  46  80 113 166 213 283 345 426 499
#
# _framework density 27.222422999999999
#
# number of rings (size 3 to 8) (size 9 to 14) (size 15 to 20)
#    0.000    0.500    1.250    4.875    8.750    3.000 
#    0.000    5.000    0.000    0.000    0.000    0.000 
#    0.000    0.000    0.000    0.000    0.000    0.000 
#
# Total GULP energy -89244.732834 kJ/mol
# GULP energy per Si atom -5577.795802 kJ/mol
# Density = 2.716046 g / cm^3
# Si number density = 27.222423 Si / 1000 Ang^3
#
#
#
# Elastic Constant Matrix: (Units=GPa)
#
#
# Indices 1 2 3 4 5 6 
#
# 1 164.6267 33.0723 29.4284 -8.1279 -0.7170 4.9609
# 2 33.0723 134.7916 39.8866 -0.5759 -17.1612 11.1967
# 3 29.4284 39.8866 152.4573 -12.9419 -4.7752 8.8034
# 4 -8.1279 -0.5759 -12.9419 45.2616 4.1578 -3.9812
# 5 -0.7170 -17.1612 -4.7752 4.1578 54.6563 -14.6869
# 6 4.9609 11.1967 8.8034 -3.9812 -14.6869 64.2537
#
#
#
# Elastic Compliance Matrix: (Units=1/GPa)
#
#
# Indices 1 2 3 4 5 6 
#
# 1 0.006557 -0.001416 -0.000819 0.000958 -0.000561 -0.000216
# 2 -0.001416 0.008712 -0.001976 -0.000990 0.002447 -0.000640
# 3 -0.000819 -0.001976 0.007421 0.001927 -0.000278 -0.000553
# 4 0.000958 -0.000990 0.001927 0.023033 -0.001644 0.000886
# 5 -0.000561 0.002447 -0.000278 -0.001644 0.020284 0.004189
# 6 -0.000216 -0.000640 -0.000553 0.000886 0.004189 0.016780
#
#
# Mechanical properties :
#
#
# Convention : Reuss Voigt Hill
#
# Bulk Modulus (GPa) = 70.09080 72.96114 71.52597
# Shear Modulus (GPa) = 52.10318 56.13357 54.11837
#
# Velocity S-wave (km/s) = 4.37965 4.54589 4.46354
# Velocity P-wave (km/s) = 7.16788 7.37655 7.27296
#
# Compressibility (1/GPa) = 0.01426721
#
# Stress axis : x y z
#
# Youngs Moduli (GPa) = 152.52008 114.79024 134.75030
#
# Poissons Ratio (x) = 0.16251 0.11036
# Poissons Ratio (y) = 0.21593 0.26630
# Poissons Ratio (z) = 0.12491 0.22686
#
# Static dielectric constant tensor:
#      x y z
#    x 2.163700 -0.083950 0.011610 
#    y -0.083950 2.191310 -0.100310 
#    z 0.011610 -0.100310 2.135510 
# 
# From -- ./inp_files/68565.got.cif
#   From: 2010.05.17/outbox.cif.g08.bks.cpg/sg2_35_cif.got.tgz:68565.got - 2010.06.03 11:33:40.
