data_PCOD9044766
_publ_section_title
;
Structure prediction by ZEFSAII (Michael W. Deem and Ramdas Pophale) SiO2 
 PCOD9044766
Probable space group: P -1
;
_chemical_formula_sum "Si O2"
_cell_formula_units_Z 16
_cell_length_a 14.059958
_cell_length_b 17.686281
_cell_length_c 5.622517
_cell_angle_alpha 132.448072
_cell_angle_beta 51.437869
_cell_angle_gamma 138.920382
_cell_volume 658.710459
_symmetry_space_group_name_H-M "P -1"
_symmetry_group_IT_number 2
_symmetry_cell_setting 'triclinic'
loop_
_space_group_symop_operation_xyz
x,y,z
-x,-y,-z
loop_
_atom_site_type_symbol
_atom_site_label
_atom_site_fract_x
_atom_site_fract_y
_atom_site_fract_z
Si Si1 0.661668 0.875341 0.283082
Si Si2 0.164683 0.233766 0.324365
Si Si3 0.398247 0.702661 0.674028
Si Si4 0.938373 0.514679 0.378023
Si Si5 0.923526 0.200464 0.339059
Si Si6 0.082396 0.939023 0.340382
Si Si7 0.570178 0.497291 0.630522
Si Si8 0.622926 0.077211 0.763748
O O1 0.521545 0.763116 0.404450
O O2 0.791283 0.966876 0.468115
O O3 0.609960 0.956412 0.415406
O O4 0.738222 0.820618 0.905068
O O5 0.266173 0.375812 0.382778
O O6 0.038268 0.169212 0.182008
O O7 0.059287 0.196029 0.632805
O O8 0.237364 0.595520 0.589547
O O9 0.433704 0.626663 0.629991
O O10 0.403548 0.816397 0.029515
O O11 0.000000 0.500000 0.500000
O O12 0.991053 0.658093 0.582532
O O13 0.000000 0.500000 0.000000
O O14 0.805710 0.171108 0.667810
O O15 0.840308 0.101967 0.047531
O O16 0.000000 0.000000 0.500000
O O17 0.500000 0.500000 0.500000
O O18 0.500000 0.500000 0.000000
O O19 0.500000 0.000000 0.000000
#
# Coordination Sequence:
#
# PCOD9044766 Si02
#       8
#     2   2   2   2   2   2   2   2
#     4  11  23  47  73 108 163 205 262 325 399 478
#     4  12  25  46  78 109 160 204 270 332 400 473
#     4  11  25  49  78 114 158 209 266 326 406 480
#     4  12  29  51  81 114 159 210 272 333 398 483
#     4  12  25  46  77 112 154 208 265 335 398 474
#     4  12  26  41  74 115 153 204 264 326 397 475
#     4  12  29  51  79 116 164 210 265 335 404 482
#     4  10  23  47  73 102 153 205 256 319 391 473
#
# _framework density 24.289883
#
# number of rings (size 3 to 8) (size 9 to 14) (size 15 to 20)
#    0.000    0.500    6.250    1.125    7.000    1.000 
#    0.000    3.750    0.000    0.000    0.000    0.000 
#    0.000    0.000    0.000    0.000    0.000    0.000 
#
# Total GULP energy -89164.819835 kJ/mol
# GULP energy per Si atom -5572.801240 kJ/mol
# Density = 2.423460 g / cm^3
# Si number density = 24.289883 Si / 1000 Ang^3
#
#
#
# Elastic Constant Matrix: (Units=GPa)
#
#
# Indices 1 2 3 4 5 6 
#
# 1 111.3266 56.5446 60.6984 2.8025 0.0010 -7.3162
# 2 56.5446 210.2783 61.3630 -21.2044 -15.6712 -5.7885
# 3 60.6984 61.3630 116.1265 -5.7470 -21.9151 -12.1278
# 4 2.8025 -21.2044 -5.7470 53.3680 -4.3655 -19.1377
# 5 0.0010 -15.6712 -21.9151 -4.3655 36.7678 10.2856
# 6 -7.3162 -5.7885 -12.1278 -19.1377 10.2856 50.3947
#
#
#
# Elastic Compliance Matrix: (Units=1/GPa)
#
#
# Indices 1 2 3 4 5 6 
#
# 1 0.014367 -0.002415 -0.007478 -0.002971 -0.005861 0.000077
# 2 -0.002415 0.006292 -0.001478 0.002883 0.001943 0.000714
# 3 -0.007478 -0.001478 0.015177 0.002744 0.008251 0.001755
# 4 -0.002971 0.002883 0.002744 0.023805 0.003187 0.008950
# 5 -0.005861 0.001943 0.008251 0.003187 0.034578 -0.004489
# 6 0.000077 0.000714 0.001755 0.008950 -0.004489 0.024674
#
#
# Mechanical properties :
#
#
# Convention : Reuss Voigt Hill
#
# Bulk Modulus (GPa) = 76.38092 88.32704 82.35398
# Shear Modulus (GPa) = 34.24659 45.38114 39.81386
#
# Velocity S-wave (km/s) = 3.75895 4.32709 4.05299
# Velocity P-wave (km/s) = 7.09602 7.83630 7.47533
#
# Compressibility (1/GPa) = 0.01309227
#
# Stress axis : x y z
#
# Youngs Moduli (GPa) = 69.60612 158.94231 65.88716
#
# Poissons Ratio (x) = 0.38389 0.49272
# Poissons Ratio (y) = 0.16812 0.09739
# Poissons Ratio (z) = 0.52053 0.23494
#
# Static dielectric constant tensor:
#      x y z
#    x 1.723400 -0.060680 -0.022460 
#    y -0.060680 1.918000 -0.027800 
#    z -0.022460 -0.027800 1.971010 
# 
# From -- ./inp_files/99965.got.cif
#   From: 2010.05.17/outbox.cif.g08.bks.cpg/sg2_50_cif.got.tgz:99965.got - 2010.06.03 11:33:40.
