data_PCOD9044824
_publ_section_title
;
Structure prediction by ZEFSAII (Michael W. Deem and Ramdas Pophale) SiO2 
 PCOD9044824
Probable space group: P -1
;
_chemical_formula_sum "Si O2"
_cell_formula_units_Z 16
_cell_length_a 14.416101
_cell_length_b 8.371108
_cell_length_c 12.702186
_cell_angle_alpha 126.771222
_cell_angle_beta 28.372076
_cell_angle_gamma 126.068691
_cell_volume 575.685288
_symmetry_space_group_name_H-M "P -1"
_symmetry_group_IT_number 2
_symmetry_cell_setting 'triclinic'
loop_
_space_group_symop_operation_xyz
x,y,z
-x,-y,-z
loop_
_atom_site_type_symbol
_atom_site_label
_atom_site_fract_x
_atom_site_fract_y
_atom_site_fract_z
Si Si1 0.320240 0.709859 0.449994
Si Si2 0.249186 0.335500 0.211717
Si Si3 0.904664 0.852886 0.916276
Si Si4 0.358433 0.282266 0.702580
Si Si5 0.501489 0.004775 0.788143
Si Si6 0.917367 0.711631 0.193537
Si Si7 0.798934 0.318862 0.945626
Si Si8 0.136162 0.891139 0.395780
O O1 0.319227 0.533358 0.291345
O O2 0.098159 0.750113 0.700876
O O3 0.426971 0.680120 0.442822
O O4 0.441084 0.909236 0.351020
O O5 0.227362 0.304206 0.094825
O O6 0.021783 0.263011 0.442812
O O7 0.391079 0.169344 0.024864
O O8 0.969128 0.073011 0.882116
O O9 0.777165 0.891333 0.161736
O O10 0.300084 0.291717 0.641436
O O11 0.245708 0.460614 0.924154
O O12 0.703968 0.990983 0.640179
O O13 0.346359 0.803122 0.872212
O O14 0.979969 0.708893 0.252113
O O15 0.000000 0.500000 0.000000
O O16 0.746547 0.224556 0.848363
O O17 0.000000 0.000000 0.500000
#
# Coordination Sequence:
#
# PCOD9044824 Si02
#       8
#     2   2   2   2   2   2   2   2
#     4  12  26  40  69 106 141 179 223 271 344 414
#     4  12  24  42  66 102 145 180 217 271 340 418
#     4  12  23  45  71 101 137 180 222 283 341 401
#     4  11  25  44  72  97 135 180 232 282 335 399
#     4  12  24  41  65  97 144 182 220 271 334 408
#     4  10  23  47  74  96 130 180 235 286 336 388
#     4  11  23  44  66  97 135 183 228 279 336 393
#     4  12  24  38  63 100 136 181 218 270 336 407
#
# _framework density 27.792963
#
# number of rings (size 3 to 8) (size 9 to 14) (size 15 to 20)
#    0.000    0.500    5.000    3.000    3.500    0.500 
#    0.000    0.000    0.000    6.750    0.000    0.000 
#    0.000    0.000    0.000    0.000    0.000    0.000 
#
# Total GULP energy -89470.042392 kJ/mol
# GULP energy per Si atom -5591.877649 kJ/mol
# Density = 2.772971 g / cm^3
# Si number density = 27.792963 Si / 1000 Ang^3
#
#
#
# Elastic Constant Matrix: (Units=GPa)
#
#
# Indices 1 2 3 4 5 6 
#
# 1 214.9855 20.9853 43.5184 21.5080 -41.6138 18.8064
# 2 20.9853 88.6336 18.7592 15.0582 -13.5030 11.0080
# 3 43.5184 18.7592 107.3225 0.1963 -33.4136 0.0557
# 4 21.5080 15.0582 0.1963 39.3110 -2.3735 -3.3970
# 5 -41.6138 -13.5030 -33.4136 -2.3735 61.5821 11.2320
# 6 18.8064 11.0080 0.0557 -3.3970 11.2320 33.5815
#
#
#
# Elastic Compliance Matrix: (Units=1/GPa)
#
#
# Indices 1 2 3 4 5 6 
#
# 1 0.006778 0.000948 -0.001336 -0.004299 0.005032 -0.006222
# 2 0.000948 0.013910 -0.001598 -0.006211 0.003862 -0.007008
# 3 -0.001336 -0.001598 0.011773 0.001572 0.005259 -0.000347
# 4 -0.004299 -0.006211 0.001572 0.030693 -0.003841 0.008830
# 5 0.005032 0.003862 0.005259 -0.003841 0.025568 -0.013033
# 6 -0.006222 -0.007008 -0.000347 0.008830 -0.013033 0.040813
#
#
# Mechanical properties :
#
#
# Convention : Reuss Voigt Hill
#
# Bulk Modulus (GPa) = 35.10268 64.16304 49.63286
# Shear Modulus (GPa) = 34.96391 48.74015 41.85203
#
# Velocity S-wave (km/s) = 3.55070 4.19225 3.88474
# Velocity P-wave (km/s) = 5.42839 6.82418 6.16591
#
# Compressibility (1/GPa) = 0.02848785
#
# Stress axis : x y z
#
# Youngs Moduli (GPa) = 147.54022 71.88915 84.93709
#
# Poissons Ratio (x) = -0.06813 0.11350
# Poissons Ratio (y) = -0.13983 0.13576
# Poissons Ratio (z) = 0.19715 0.11490
#
# Static dielectric constant tensor:
#      x y z
#    x 2.239690 0.022130 0.104450 
#    y 0.022130 2.270020 -0.024520 
#    z 0.104450 -0.024520 2.255970 
# 
# From -- ./inp_files/528902.got.cif
#   From: 2010.05.17/outbox.cif.g08.bks.cpg/sg2_265_cif.got.tgz:528902.got - 2010.06.03 11:33:40.
