data_PCOD9044848
_publ_section_title
;
Structure prediction by ZEFSAII (Michael W. Deem and Ramdas Pophale) SiO2 
 PCOD9044848
Probable space group: P -1
;
_chemical_formula_sum "Si O2"
_cell_formula_units_Z 14
_cell_length_a 11.948895
_cell_length_b 5.186739
_cell_length_c 16.653369
_cell_angle_alpha 57.325049
_cell_angle_beta 138.034261
_cell_angle_gamma 117.566380
_cell_volume 577.473840
_symmetry_space_group_name_H-M "P -1"
_symmetry_group_IT_number 2
_symmetry_cell_setting 'triclinic'
loop_
_space_group_symop_operation_xyz
x,y,z
-x,-y,-z
loop_
_atom_site_type_symbol
_atom_site_label
_atom_site_fract_x
_atom_site_fract_y
_atom_site_fract_z
Si Si1 0.937319 0.159057 0.699352
Si Si2 0.547482 0.165159 0.281931
Si Si3 0.873309 0.390042 0.053361
Si Si4 0.613434 0.811081 0.643709
Si Si5 0.111600 0.121703 0.461186
Si Si6 0.779654 0.277895 0.838812
Si Si7 0.472002 0.635138 0.047547
O O1 0.932166 0.526843 0.634221
O O2 0.787217 0.030955 0.702425
O O3 0.916084 0.049747 0.612078
O O4 0.079019 0.952745 0.842681
O O5 0.499450 0.275244 0.325307
O O6 0.589100 0.466188 0.199274
O O7 0.695808 0.943699 0.402599
O O8 0.363793 0.004287 0.183270
O O9 0.029579 0.657064 0.102391
O O10 0.810924 0.398224 0.926706
O O11 0.721418 0.445324 0.019083
O O12 0.676403 0.506203 0.693133
O O13 0.500000 0.000000 0.500000
O O14 0.000000 0.000000 0.500000
O O15 0.500000 0.500000 0.000000
O O16 0.500000 0.000000 0.000000
#
# Coordination Sequence:
#
# PCOD9044848 Si02
#       7
#     2   2   2   2   2   2   2
#     4  11  27  46  77 109 149 200 253 312 380 449
#     4  12  27  46  81 108 154 193 263 314 387 444
#     4  10  24  49  75 110 153 193 255 309 389 444
#     4  11  22  44  72 110 149 189 247 320 383 439
#     4  12  29  50  74 110 154 208 252 308 371 458
#     4  10  23  47  75 111 148 195 246 325 381 448
#     4  12  29  49  76 108 151 204 250 308 367 459
#
# _framework density 24.243518999999999
#
# number of rings (size 3 to 8) (size 9 to 14) (size 15 to 20)
#    0.000    0.857    2.857    2.143    8.000    2.857 
#    2.571    0.000    0.000    0.000    0.000    0.000 
#    0.000    0.000    0.000    0.000    0.000    0.000 
#
# Total GULP energy -78146.080083 kJ/mol
# GULP energy per Si atom -5581.862863 kJ/mol
# Density = 2.418834 g / cm^3
# Si number density = 24.243519 Si / 1000 Ang^3
#
#
#
# Elastic Constant Matrix: (Units=GPa)
#
#
# Indices 1 2 3 4 5 6 
#
# 1 137.5340 17.1328 17.8778 -1.0135 15.1980 -2.8318
# 2 17.1328 107.5635 30.7673 -30.7445 8.7777 -10.4399
# 3 17.8778 30.7673 128.6580 -34.1954 15.8519 -5.1281
# 4 -1.0135 -30.7445 -34.1954 48.8689 4.8459 -3.3941
# 5 15.1980 8.7777 15.8519 4.8459 51.1300 1.3399
# 6 -2.8318 -10.4399 -5.1281 -3.3941 1.3399 36.0802
#
#
#
# Elastic Compliance Matrix: (Units=1/GPa)
#
#
# Indices 1 2 3 4 5 6 
#
# 1 0.007706 -0.001097 -0.000832 -0.000928 -0.001760 0.000147
# 2 -0.001097 0.012543 -0.000116 0.008361 -0.002699 0.004414
# 3 -0.000832 -0.000116 0.010558 0.007833 -0.003808 0.002280
# 4 -0.000928 0.008361 0.007833 0.032332 -0.006829 0.006755
# 5 -0.001760 -0.002699 -0.003808 -0.006829 0.022450 -0.002937
# 6 0.000147 0.004414 0.002280 0.006755 -0.002937 0.030073
#
#
# Mechanical properties :
#
#
# Convention : Reuss Voigt Hill
#
# Bulk Modulus (GPa) = 37.42942 56.14570 46.78756
# Shear Modulus (GPa) = 38.86244 47.74765 43.30505
#
# Velocity S-wave (km/s) = 4.00810 4.44272 4.23099
# Velocity P-wave (km/s) = 6.07390 7.03750 6.57338
#
# Compressibility (1/GPa) = 0.02671696
#
# Stress axis : x y z
#
# Youngs Moduli (GPa) = 129.76129 79.72347 94.71392
#
# Poissons Ratio (x) = 0.08743 0.07884
# Poissons Ratio (y) = 0.14230 0.01103
# Poissons Ratio (z) = 0.10802 0.00928
#
# Static dielectric constant tensor:
#      x y z
#    x 1.901020 0.001740 -0.027150 
#    y 0.001740 2.070790 -0.029230 
#    z -0.027150 -0.029230 1.980240 
# 
# From -- ./inp_files/564228.got.cif
#   From: 2010.05.17/outbox.cif.g08.bks.cpg/sg2_283_cif.got.tgz:564228.got - 2010.06.03 11:33:40.
