data_PCOD9044239
_publ_section_title
;
Structure prediction by ZEFSAII (Michael W. Deem and Ramdas Pophale) SiO2 
 PCOD9044239
Probable space group: P -1
;
_chemical_formula_sum "Si O2"
_cell_formula_units_Z 16
_cell_length_a 9.548188
_cell_length_b 6.389628
_cell_length_c 18.857475
_cell_angle_alpha 142.355990
_cell_angle_beta 77.115836
_cell_angle_gamma 104.076352
_cell_volume 680.664339
_symmetry_space_group_name_H-M "P -1"
_symmetry_group_IT_number 2
_symmetry_cell_setting 'triclinic'
loop_
_space_group_symop_operation_xyz
x,y,z
-x,-y,-z
loop_
_atom_site_type_symbol
_atom_site_label
_atom_site_fract_x
_atom_site_fract_y
_atom_site_fract_z
Si Si1 0.393648 0.743899 0.038778
Si Si2 0.661824 0.446081 0.488562
Si Si3 0.164590 0.471168 0.097077
Si Si4 0.410578 0.547138 0.822188
Si Si5 0.121436 0.688595 0.837079
Si Si6 0.816075 0.236920 0.545246
Si Si7 0.103569 0.528675 0.639480
Si Si8 0.677114 0.222383 0.705289
O O1 0.244505 0.706585 0.089838
O O2 0.480176 0.123236 0.127541
O O3 0.500000 0.500000 0.000000
O O4 0.368672 0.618423 0.927233
O O5 0.500000 0.500000 0.500000
O O6 0.698451 0.241110 0.498592
O O7 0.755597 0.326640 0.380988
O O8 0.722555 0.842141 0.609124
O O9 0.265702 0.535228 0.171729
O O10 0.004906 0.512811 0.155173
O O11 0.155591 0.076726 0.966626
O O12 0.268822 0.519181 0.783427
O O13 0.505606 0.231908 0.723856
O O14 0.077638 0.707376 0.764867
O O15 0.744362 0.334947 0.652973
O O16 0.965179 0.490059 0.593038
O O17 0.864527 0.856011 0.444606
#
# Coordination Sequence:
#
# PCOD9044239 Si02
#       8
#     2   2   2   2   2   2   2   2
#     4  11  21  42  64  93 139 189 233 274 347 417
#     4  11  27  43  69 108 133 176 238 292 345 416
#     4  11  23  44  69 101 146 180 230 289 348 423
#     4  11  24  39  68  99 135 188 231 285 340 417
#     4  11  24  43  70 106 143 177 236 294 340 412
#     4  10  23  46  71  96 135 180 227 285 349 410
#     4  10  23  46  71  95 137 181 226 284 351 414
#     4  11  24  43  69 100 139 184 227 280 356 417
#
# _framework density 23.506447999999999
#
# number of rings (size 3 to 8) (size 9 to 14) (size 15 to 20)
#    0.000    1.250    3.750    1.125    5.250    2.500 
#    0.000    0.000    0.000    0.000    0.000    0.000 
#    0.000    0.000    0.000    0.000    0.000    0.000 
#
# Total GULP energy -89522.892613 kJ/mol
# GULP energy per Si atom -5595.180788 kJ/mol
# Density = 2.345295 g / cm^3
# Si number density = 23.506448 Si / 1000 Ang^3
#
#
#
# Elastic Constant Matrix: (Units=GPa)
#
#
# Indices 1 2 3 4 5 6 
#
# 1 115.7946 25.5685 18.7202 -13.8977 6.6387 11.5350
# 2 25.5685 87.2892 26.9191 -20.8805 4.3101 14.6088
# 3 18.7202 26.9191 93.2189 -18.5108 1.3263 6.7214
# 4 -13.8977 -20.8805 -18.5108 26.4799 -2.8021 -11.2354
# 5 6.6387 4.3101 1.3263 -2.8021 31.3792 -10.4240
# 6 11.5350 14.6088 6.7214 -11.2354 -10.4240 44.2696
#
#
#
# Elastic Compliance Matrix: (Units=1/GPa)
#
#
# Indices 1 2 3 4 5 6 
#
# 1 0.009709 -0.001637 -0.000881 0.002184 -0.002202 -0.001820
# 2 -0.001637 0.015094 -0.002183 0.008257 -0.001740 -0.002538
# 3 -0.000881 -0.002183 0.012914 0.007412 0.000967 0.001098
# 4 0.002184 0.008257 0.007412 0.056204 0.006921 0.011475
# 5 -0.002202 -0.001740 0.000967 0.006921 0.036957 0.011460
# 6 -0.001820 -0.002538 0.001098 0.011475 0.011460 0.029345
#
#
# Mechanical properties :
#
#
# Convention : Reuss Voigt Hill
#
# Bulk Modulus (GPa) = 35.31475 48.74647 42.03061
# Shear Modulus (GPa) = 27.92307 35.43207 31.67757
#
# Velocity S-wave (km/s) = 3.45032 3.88665 3.67497
# Velocity P-wave (km/s) = 5.56138 6.39718 5.99387
#
# Compressibility (1/GPa) = 0.02831678
#
# Stress axis : x y z
#
# Youngs Moduli (GPa) = 102.99221 66.24934 77.43793
#
# Poissons Ratio (x) = 0.10842 0.06822
# Poissons Ratio (y) = 0.16855 0.16904
# Poissons Ratio (z) = 0.09073 0.14462
#
# Static dielectric constant tensor:
#      x y z
#    x 1.910250 0.033660 0.003880 
#    y 0.033660 1.889910 0.042740 
#    z 0.003880 0.042740 1.893370 
# 
# From -- ./inp_files/553933.got.cif
#   From: 2010.05.17/outbox.cif.g08.bks.cpg/sg2_277_cif.got.tgz:553933.got - 2010.06.03 11:33:40.
