data_PCOD9044734
_publ_section_title
;
Structure prediction by ZEFSAII (Michael W. Deem and Ramdas Pophale) SiO2 
 PCOD9044734
Probable space group: P -1
;
_chemical_formula_sum "Si O2"
_cell_formula_units_Z 15
_cell_length_a 8.438622
_cell_length_b 14.615072
_cell_length_c 14.116335
_cell_angle_alpha 129.298021
_cell_angle_beta 128.827062
_cell_angle_gamma 29.516762
_cell_volume 650.518202
_symmetry_space_group_name_H-M "P -1"
_symmetry_group_IT_number 2
_symmetry_cell_setting 'triclinic'
loop_
_space_group_symop_operation_xyz
x,y,z
-x,-y,-z
loop_
_atom_site_type_symbol
_atom_site_label
_atom_site_fract_x
_atom_site_fract_y
_atom_site_fract_z
Si Si1 0.908746 0.642755 0.927129
Si Si2 0.500000 0.500000 0.500000
Si Si3 0.178428 0.580249 0.800562
Si Si4 0.905539 0.939621 0.852430
Si Si5 0.242221 0.862131 0.739451
Si Si6 0.265150 0.393908 0.448237
Si Si7 0.221574 0.784921 0.338898
Si Si8 0.857073 0.725621 0.180045
O O1 0.531006 0.805298 0.860537
O O2 0.141592 0.605108 0.916254
O O3 0.036470 0.449185 0.853507
O O4 0.915990 0.692089 0.067306
O O5 0.382351 0.680056 0.623933
O O6 0.262121 0.528898 0.498685
O O7 0.500102 0.376486 0.740542
O O8 0.124703 0.728617 0.826631
O O9 0.863598 0.640748 0.698450
O O10 0.991565 0.940284 0.779636
O O11 0.523510 0.082327 0.814443
O O12 0.000000 0.000000 0.000000
O O13 0.060956 0.021826 0.697407
O O14 0.605740 0.218503 0.516226
O O15 0.000000 0.500000 0.500000
O O16 0.084874 0.728763 0.302182
#
# Coordination Sequence:
#
# PCOD9044734 Si02
#       8
#     2   1   2   2   2   2   2   2
#     4  11  23  44  71 103 146 189 243 299 370 432
#     4  12  24  46  80  98 148 194 250 308 370 436
#     4  11  24  46  73 104 148 192 245 306 369 446
#     4  12  26  46  74 106 148 193 244 305 370 448
#     4  12  25  47  70 108 142 196 242 302 370 441
#     4  10  23  47  72 104 143 194 245 308 364 439
#     4  11  26  45  74 106 147 193 247 301 372 443
#     4  11  25  43  72 108 144 190 245 306 366 449
#
# _framework density 23.058541000000002
#
# number of rings (size 3 to 8) (size 9 to 14) (size 15 to 20)
#    0.000    0.800    2.667    4.800    3.733    2.133 
#    2.400    3.333    0.000    0.000    0.000    0.000 
#    0.000    0.000    0.000    0.000    0.000    0.000 
#
# Total GULP energy -83756.188977 kJ/mol
# GULP energy per Si atom -5583.745932 kJ/mol
# Density = 2.300606 g / cm^3
# Si number density = 23.058541 Si / 1000 Ang^3
#
#
#
# Elastic Constant Matrix: (Units=GPa)
#
#
# Indices 1 2 3 4 5 6 
#
# 1 108.1122 0.8676 -8.4480 5.0252 -3.1349 -15.3596
# 2 0.8676 80.1596 18.5399 -2.6615 3.3578 -8.7290
# 3 -8.4480 18.5399 42.2083 0.1104 17.3448 -16.4181
# 4 5.0252 -2.6615 0.1104 25.7681 -5.6613 4.2799
# 5 -3.1349 3.3578 17.3448 -5.6613 43.8219 11.2800
# 6 -15.3596 -8.7290 -16.4181 4.2799 11.2800 34.2178
#
#
#
# Elastic Compliance Matrix: (Units=1/GPa)
#
#
# Indices 1 2 3 4 5 6 
#
# 1 0.012440 -0.001255 0.012481 -0.007018 -0.008723 0.015006
# 2 -0.001255 0.014226 -0.009035 0.002987 0.003502 -0.002798
# 3 0.012481 -0.009035 0.067250 -0.021288 -0.041111 0.051780
# 4 -0.007018 0.002987 -0.021288 0.049365 0.020658 -0.025587
# 5 -0.008723 0.003502 -0.041111 0.020658 0.051782 -0.042402
# 6 0.015006 -0.002798 0.051780 -0.025587 -0.042402 0.077270
#
#
# Mechanical properties :
#
#
# Convention : Reuss Voigt Hill
#
# Bulk Modulus (GPa) = 10.17308 28.04433 19.10870
# Shear Modulus (GPa) = 16.62693 35.39628 26.01161
#
# Velocity S-wave (km/s) = 2.68820 3.92224 3.36232
# Velocity P-wave (km/s) = 3.74922 5.71844 4.83514
#
# Compressibility (1/GPa) = 0.09829866
#
# Stress axis : x y z
#
# Youngs Moduli (GPa) = 80.38436 70.29259 14.86992
#
# Poissons Ratio (x) = 0.08821 -0.18560
# Poissons Ratio (y) = 0.10088 0.13435
# Poissons Ratio (z) = -1.00330 0.63511
#
# Static dielectric constant tensor:
#      x y z
#    x 1.793390 0.034070 -0.080040 
#    y 0.034070 1.850330 -0.031820 
#    z -0.080040 -0.031820 1.865650 
# 
# From -- ./inp_files/493342.got.cif
#   From: 2010.05.17/outbox.cif.g08.bks.cpg/sg2_247_cif.got.tgz:493342.got - 2010.06.03 11:33:40.
