data_PCOD9044874
_publ_section_title
;
Structure prediction by ZEFSAII (Michael W. Deem and Ramdas Pophale) SiO2 
 PCOD9044874
Probable space group: P -1
;
_chemical_formula_sum "Si O2"
_cell_formula_units_Z 10
_cell_length_a 21.609907
_cell_length_b 5.085403
_cell_length_c 8.912355
_cell_angle_alpha 96.939112
_cell_angle_beta 153.643872
_cell_angle_gamma 73.052766
_cell_volume 392.551292
_symmetry_space_group_name_H-M "P -1"
_symmetry_group_IT_number 2
_symmetry_cell_setting 'triclinic'
loop_
_space_group_symop_operation_xyz
x,y,z
-x,-y,-z
loop_
_atom_site_type_symbol
_atom_site_label
_atom_site_fract_x
_atom_site_fract_y
_atom_site_fract_z
Si Si1 0.933573 0.286486 0.271410
Si Si2 0.362233 0.661054 0.893953
Si Si3 0.869157 0.471598 0.815928
Si Si4 0.664768 0.247920 0.826362
Si Si5 0.585216 0.979556 0.378100
O O1 0.000000 0.500000 0.500000
O O2 0.946237 0.292357 0.120977
O O3 0.757287 0.366997 0.927304
O O4 0.000000 0.000000 0.500000
O O5 0.229179 0.673397 0.494139
O O6 0.465268 0.834705 0.094033
O O7 0.281645 0.790651 0.888240
O O8 0.484567 0.320205 0.143943
O O9 0.739157 0.787833 0.607869
O O10 0.000000 0.500000 0.000000
O O11 0.500000 0.500000 0.500000
O O12 0.355742 0.009136 0.323508
#
# Coordination Sequence:
#
# PCOD9044874 Si02
#       5
#     2   2   2   2   2
#     4  12  28  50  73 105 152 202 249 306 376 452
#     4  11  25  46  77 113 149 194 251 316 378 446
#     4  12  27  50  78 115 154 201 255 317 380 447
#     4  10  23  47  77 109 146 197 250 304 372 453
#     4  11  24  47  76 112 153 198 247 309 380 456
#
# _framework density 25.474375999999999
#
# number of rings (size 3 to 8) (size 9 to 14) (size 15 to 20)
#    0.000    0.800    0.000    6.600    0.000    9.600 
#    0.000   15.000    0.000    0.000    0.000    0.000 
#    0.000    0.000    0.000    0.000    0.000    0.000 
#
# Total GULP energy -56022.719628 kJ/mol
# GULP energy per Si atom -5602.271963 kJ/mol
# Density = 2.541640 g / cm^3
# Si number density = 25.474376 Si / 1000 Ang^3
#
#
#
# Elastic Constant Matrix: (Units=GPa)
#
#
# Indices 1 2 3 4 5 6 
#
# 1 228.0378 71.4262 94.5372 23.2194 -13.7843 -0.1452
# 2 71.4262 208.1639 97.3520 21.5974 -6.6171 3.9429
# 3 94.5372 97.3520 156.7146 23.9994 -25.9504 2.1030
# 4 23.2194 21.5974 23.9994 44.3936 -0.2072 -9.0416
# 5 -13.7843 -6.6171 -25.9504 -0.2072 70.6008 17.7280
# 6 -0.1452 3.9429 2.1030 -9.0416 17.7280 44.1360
#
#
#
# Elastic Compliance Matrix: (Units=1/GPa)
#
#
# Indices 1 2 3 4 5 6 
#
# 1 0.005943 -0.000454 -0.003122 -0.001205 -0.000027 -0.000027
# 2 -0.000454 0.006916 -0.003999 -0.001031 -0.000837 -0.000304
# 3 -0.003122 -0.003999 0.011972 -0.003393 0.004045 -0.002543
# 4 -0.001205 -0.001031 -0.003393 0.026919 -0.003278 0.007081
# 5 -0.000027 -0.000837 0.004045 -0.003278 0.017523 -0.007828
# 6 -0.000027 -0.000304 -0.002543 0.007081 -0.007828 0.027400
#
#
# Mechanical properties :
#
#
# Convention : Reuss Voigt Hill
#
# Bulk Modulus (GPa) = 103.30403 124.39412 113.84908
# Shear Modulus (GPa) = 43.45882 53.79947 48.62914
#
# Velocity S-wave (km/s) = 4.13483 4.60053 4.37389
# Velocity P-wave (km/s) = 7.96467 8.78390 8.38430
#
# Compressibility (1/GPa) = 0.00968016
#
# Stress axis : x y z
#
# Youngs Moduli (GPa) = 168.26349 144.59104 83.52658
#
# Poissons Ratio (x) = 0.06568 0.26081
# Poissons Ratio (y) = 0.07643 0.33402
# Poissons Ratio (z) = 0.52539 0.57821
#
# Static dielectric constant tensor:
#      x y z
#    x 2.067550 -0.018760 -0.062560 
#    y -0.018760 2.040700 -0.092850 
#    z -0.062560 -0.092850 2.114870 
# 
# From -- ./inp_files/321221.got.cif
#   From: 2010.05.17/outbox.cif.g08.bks.cpg/sg2_161_cif.got.tgz:321221.got - 2010.06.03 11:33:40.
