data_PCOD9044602
_publ_section_title
;
Structure prediction by ZEFSAII (Michael W. Deem and Ramdas Pophale) SiO2 
 PCOD9044602
Probable space group: P -1
;
_chemical_formula_sum "Si O2"
_cell_formula_units_Z 16
_cell_length_a 8.998864
_cell_length_b 6.201880
_cell_length_c 30.456124
_cell_angle_alpha 46.314334
_cell_angle_beta 145.767502
_cell_angle_gamma 127.901962
_cell_volume 687.544282
_symmetry_space_group_name_H-M "P -1"
_symmetry_group_IT_number 2
_symmetry_cell_setting 'triclinic'
loop_
_space_group_symop_operation_xyz
x,y,z
-x,-y,-z
loop_
_atom_site_type_symbol
_atom_site_label
_atom_site_fract_x
_atom_site_fract_y
_atom_site_fract_z
Si Si1 0.706652 0.336167 0.450573
Si Si2 0.008549 0.190370 0.732163
Si Si3 0.339183 0.324166 0.448005
Si Si4 0.267873 0.433872 0.258994
Si Si5 0.164065 0.733570 0.975323
Si Si6 0.242097 0.290930 0.984046
Si Si7 0.723508 0.559564 0.156248
Si Si8 0.479903 0.948488 0.173031
O O1 0.542428 0.328858 0.456650
O O2 0.509836 0.457771 0.349521
O O3 0.000000 0.500000 0.500000
O O4 0.750199 0.989025 0.507037
O O5 0.898336 0.502500 0.651587
O O6 0.149807 0.209377 0.810330
O O7 0.240044 0.148015 0.760758
O O8 0.777875 0.917560 0.714748
O O9 0.500000 0.500000 0.500000
O O10 0.338454 0.674835 0.204346
O O11 0.977278 0.484114 0.200717
O O12 0.089348 0.555798 0.934412
O O13 0.477921 0.708001 0.055768
O O14 0.142642 0.052384 0.953237
O O15 0.000000 0.500000 0.000000
O O16 0.327504 0.073643 0.075687
O O17 0.500000 0.500000 0.000000
O O18 0.572575 0.247981 0.181778
#
# Coordination Sequence:
#
# PCOD9044602 Si02
#       8
#     2   2   2   2   2   2   2   2
#     4  11  26  40  64 101 136 184 239 291 353 426
#     4  11  22  44  69  96 138 184 234 295 350 426
#     4  11  24  43  64  94 142 183 233 292 359 413
#     4  11  24  44  68  99 140 182 238 294 355 426
#     4  11  24  50  75 110 146 187 241 302 370 442
#     4  11  24  51  74 108 148 191 240 300 372 449
#     4  10  23  47  68  98 138 185 234 284 362 424
#     4  10  25  44  70 104 135 180 237 294 354 429
#
# _framework density 23.271229999999999
#
# number of rings (size 3 to 8) (size 9 to 14) (size 15 to 20)
#    0.000    1.250    3.750    0.750    3.500    2.500 
#   24.750    0.000    0.000    0.000    0.000    0.000 
#    0.000    0.000    0.000    0.000    0.000    0.000 
#
# Total GULP energy -89151.758716 kJ/mol
# GULP energy per Si atom -5571.984920 kJ/mol
# Density = 2.321826 g / cm^3
# Si number density = 23.271230 Si / 1000 Ang^3
#
#
#
# Elastic Constant Matrix: (Units=GPa)
#
#
# Indices 1 2 3 4 5 6 
#
# 1 86.5839 57.7963 18.6949 -13.9221 -0.3686 11.6604
# 2 57.7963 165.0384 57.2341 0.8489 -6.3823 2.8821
# 3 18.6949 57.2341 109.8131 -11.3831 10.3440 24.7992
# 4 -13.9221 0.8489 -11.3831 34.1865 5.3363 -8.4186
# 5 -0.3686 -6.3823 10.3440 5.3363 31.6292 -0.0825
# 6 11.6604 2.8821 24.7992 -8.4186 -0.0825 38.5806
#
#
#
# Elastic Compliance Matrix: (Units=1/GPa)
#
#
# Indices 1 2 3 4 5 6 
#
# 1 0.017724 -0.007386 0.003138 0.007747 -0.003630 -0.005139
# 2 -0.007386 0.011064 -0.006547 -0.005162 0.005170 0.004499
# 3 0.003138 -0.006547 0.015285 0.005411 -0.007220 -0.009119
# 4 0.007747 -0.005162 0.005411 0.036326 -0.008843 0.002474
# 5 -0.003630 0.005170 -0.007220 -0.008843 0.036480 0.003500
# 6 -0.005139 0.004499 -0.009119 0.002474 0.003500 0.033546
#
#
# Mechanical properties :
#
#
# Convention : Reuss Voigt Hill
#
# Bulk Modulus (GPa) = 44.47845 69.87623 57.17734
# Shear Modulus (GPa) = 27.85359 36.05992 31.95676
#
# Velocity S-wave (km/s) = 3.46339 3.94070 3.70973
# Velocity P-wave (km/s) = 5.92858 7.12724 6.55536
#
# Compressibility (1/GPa) = 0.02248280
#
# Stress axis : x y z
#
# Youngs Moduli (GPa) = 56.41914 90.38204 65.42349
#
# Poissons Ratio (x) = 0.66753 -0.20527
# Poissons Ratio (y) = 0.41669 0.42835
# Poissons Ratio (z) = -0.17702 0.59176
#
# Static dielectric constant tensor:
#      x y z
#    x 1.961800 -0.078110 0.056980 
#    y -0.078110 1.905200 -0.078680 
#    z 0.056980 -0.078680 1.940760 
# 
# From -- ./inp_files/622178.got.cif
#   From: 2010.05.17/outbox.cif.g08.bks.cpg/sg2_312_cif.got.tgz:622178.got - 2010.06.03 11:33:40.
