data_PCOD9044237
_publ_section_title
;
Structure prediction by ZEFSAII (Michael W. Deem and Ramdas Pophale) SiO2 
 PCOD9044237
Probable space group: P -1
;
_chemical_formula_sum "Si O2"
_cell_formula_units_Z 16
_cell_length_a 8.682319
_cell_length_b 12.318871
_cell_length_c 14.147037
_cell_angle_alpha 103.778591
_cell_angle_beta 65.585680
_cell_angle_gamma 147.412057
_cell_volume 723.143699
_symmetry_space_group_name_H-M "P -1"
_symmetry_group_IT_number 2
_symmetry_cell_setting 'triclinic'
loop_
_space_group_symop_operation_xyz
x,y,z
-x,-y,-z
loop_
_atom_site_type_symbol
_atom_site_label
_atom_site_fract_x
_atom_site_fract_y
_atom_site_fract_z
Si Si1 0.009996 0.554131 0.285928
Si Si2 0.174534 0.691340 0.555023
Si Si3 0.724304 0.387618 0.116483
Si Si4 0.850176 0.708223 0.416930
Si Si5 0.289343 0.124957 0.856060
Si Si6 0.652853 0.685916 0.944520
Si Si7 0.946047 0.038519 0.759257
Si Si8 0.108613 0.904197 0.583901
O O1 0.372811 0.724144 0.231337
O O2 0.821892 0.354610 0.349197
O O3 0.878069 0.493192 0.201045
O O4 0.978841 0.655097 0.365516
O O5 0.018766 0.727447 0.598858
O O6 0.000000 0.500000 0.500000
O O7 0.517362 0.885976 0.463086
O O8 0.416997 0.138310 0.160481
O O9 0.558750 0.400415 0.109181
O O10 0.000000 0.500000 0.000000
O O11 0.500000 0.500000 0.500000
O O12 0.023590 0.871601 0.489074
O O13 0.900655 0.795233 0.321867
O O14 0.340803 0.203784 0.963582
O O15 0.146519 0.139047 0.825000
O O16 0.023234 0.880602 0.870157
O O17 0.500000 0.500000 0.000000
O O18 0.962997 0.923871 0.684129
#
# Coordination Sequence:
#
# PCOD9044237 Si02
#       8
#     2   2   2   2   2   2   2   2
#     4  12  24  42  72 102 142 184 235 284 355 412
#     4  11  23  43  70 104 139 180 234 296 341 419
#     4  11  24  47  66 101 138 183 233 291 347 420
#     4  12  26  43  69 103 144 186 234 290 351 417
#     4  10  24  43  67 102 134 175 237 287 342 420
#     4  10  23  46  71  94 136 181 229 295 349 401
#     4  11  25  44  70 101 144 183 236 283 355 422
#     4  11  24  44  70  99 141 185 233 284 354 414
#
# _framework density 22.125616000000001
#
# number of rings (size 3 to 8) (size 9 to 14) (size 15 to 20)
#    0.000    1.000    2.500    3.375    5.250    3.000 
#    0.000    1.250    0.000    0.000    0.000    0.000 
#    0.000    0.000    0.000    0.000    0.000    0.000 
#
# Total GULP energy -89449.977476 kJ/mol
# GULP energy per Si atom -5590.623592 kJ/mol
# Density = 2.207526 g / cm^3
# Si number density = 22.125616 Si / 1000 Ang^3
#
#
#
# Elastic Constant Matrix: (Units=GPa)
#
#
# Indices 1 2 3 4 5 6 
#
# 1 76.4670 37.7994 35.0728 -14.9071 14.2941 1.9768
# 2 37.7994 81.4569 20.3723 -22.0538 4.1351 8.4188
# 3 35.0728 20.3723 100.7291 -15.4773 10.1720 4.3085
# 4 -14.9071 -22.0538 -15.4773 42.8061 3.2688 8.0382
# 5 14.2941 4.1351 10.1720 3.2688 55.9319 -7.2676
# 6 1.9768 8.4188 4.3085 8.0382 -7.2676 43.3043
#
#
#
# Elastic Compliance Matrix: (Units=1/GPa)
#
#
# Indices 1 2 3 4 5 6 
#
# 1 0.019994 -0.007438 -0.004824 0.001661 -0.003770 0.000072
# 2 -0.007438 0.018313 0.000374 0.007934 -0.000613 -0.004834
# 3 -0.004824 0.000374 0.012295 0.003440 -0.001487 -0.001964
# 4 0.001661 0.007934 0.003440 0.031220 -0.004569 -0.008522
# 5 -0.003770 -0.000613 -0.001487 -0.004569 0.020029 0.004649
# 6 0.000072 -0.004834 -0.001964 -0.008522 0.004649 0.026586
#
#
# Mechanical properties :
#
#
# Convention : Reuss Voigt Hill
#
# Bulk Modulus (GPa) = 37.27960 49.46021 43.36990
# Shear Modulus (GPa) = 31.02591 39.43570 35.23080
#
# Velocity S-wave (km/s) = 3.74874 4.22637 3.99470
# Velocity P-wave (km/s) = 5.96851 6.79846 6.39696
#
# Compressibility (1/GPa) = 0.02682432
#
# Stress axis : x y z
#
# Youngs Moduli (GPa) = 50.01595 54.60534 81.33666
#
# Poissons Ratio (x) = 0.40614 0.39241
# Poissons Ratio (y) = 0.37201 -0.03039
# Poissons Ratio (z) = 0.24130 -0.02040
#
# Static dielectric constant tensor:
#      x y z
#    x 1.810090 0.014890 0.018050 
#    y 0.014890 1.866620 -0.055120 
#    z 0.018050 -0.055120 1.862960 
# 
# From -- ./inp_files/112821.got.cif
#   From: 2010.05.17/outbox.cif.g08.bks.cpg/sg2_57_cif.got.tgz:112821.got - 2010.06.03 11:33:40.
