data_PCOD9044633
_publ_section_title
;
Structure prediction by ZEFSAII (Michael W. Deem and Ramdas Pophale) SiO2 
 PCOD9044633
Probable space group: P -1
;
_chemical_formula_sum "Si O2"
_cell_formula_units_Z 14
_cell_length_a 9.406970
_cell_length_b 11.928548
_cell_length_c 18.803937
_cell_angle_alpha 26.629706
_cell_angle_beta 142.328461
_cell_angle_gamma 133.341054
_cell_volume 576.247117
_symmetry_space_group_name_H-M "P -1"
_symmetry_group_IT_number 2
_symmetry_cell_setting 'triclinic'
loop_
_space_group_symop_operation_xyz
x,y,z
-x,-y,-z
loop_
_atom_site_type_symbol
_atom_site_label
_atom_site_fract_x
_atom_site_fract_y
_atom_site_fract_z
Si Si1 0.110070 0.483764 0.249897
Si Si2 0.907830 0.019265 0.648756
Si Si3 0.279654 0.768223 0.843323
Si Si4 0.543698 0.686422 0.741688
Si Si5 0.032046 0.763613 0.199762
Si Si6 0.758742 0.012526 0.065291
Si Si7 0.481208 0.945619 0.340964
O O1 0.067367 0.540179 0.284560
O O2 0.299269 0.251170 0.449219
O O3 0.869659 0.408176 0.164262
O O4 0.198853 0.723686 0.107050
O O5 0.755197 0.775763 0.727307
O O6 0.096664 0.979570 0.683819
O O7 0.056948 0.025426 0.775953
O O8 0.707517 0.243828 0.432541
O O9 0.468205 0.888311 0.801827
O O10 0.391328 0.592525 0.048755
O O11 0.547895 0.870560 0.707728
O O12 0.260860 0.794386 0.320220
O O13 0.824192 0.800559 0.152475
O O14 0.000000 0.000000 0.000000
O O15 0.500000 0.000000 0.000000
#
# Coordination Sequence:
#
# PCOD9044633 Si02
#       7
#     2   2   2   2   2   2   2
#     4  11  24  46  73 105 144 191 234 301 356 422
#     4  11  24  44  69 105 146 180 244 289 359 419
#     4  12  25  44  74 111 143 183 241 300 357 425
#     4  11  23  43  72 103 145 191 228 301 363 414
#     4  10  23  47  69  98 141 191 241 293 354 423
#     4  11  25  48  73 102 144 194 241 290 358 435
#     4  12  24  46  70 108 142 186 245 295 358 427
#
# _framework density 24.295131999999999
#
# number of rings (size 3 to 8) (size 9 to 14) (size 15 to 20)
#    0.000    0.857    4.286    2.571    4.000    0.000 
#    0.000    2.143    0.000    0.000    0.000    0.000 
#    0.000    0.000    0.000    0.000    0.000    0.000 
#
# Total GULP energy -78483.351002 kJ/mol
# GULP energy per Si atom -5605.953643 kJ/mol
# Density = 2.423984 g / cm^3
# Si number density = 24.295132 Si / 1000 Ang^3
#
#
#
# Elastic Constant Matrix: (Units=GPa)
#
#
# Indices 1 2 3 4 5 6 
#
# 1 141.3933 41.2818 5.4106 9.4117 9.2124 -1.3920
# 2 41.2818 83.5000 36.6491 15.9939 6.8767 11.5099
# 3 5.4106 36.6491 114.5368 24.2497 4.4334 17.6910
# 4 9.4117 15.9939 24.2497 37.0526 8.5701 -0.4295
# 5 9.2124 6.8767 4.4334 8.5701 34.1768 1.4641
# 6 -1.3920 11.5099 17.6910 -0.4295 1.4641 28.8765
#
#
#
# Elastic Compliance Matrix: (Units=1/GPa)
#
#
# Indices 1 2 3 4 5 6 
#
# 1 0.008546 -0.004693 0.000973 -0.000426 -0.001454 0.001753
# 2 -0.004693 0.017393 -0.003770 -0.003768 -0.000592 -0.004875
# 3 0.000973 -0.003770 0.012268 -0.006929 0.000904 -0.006115
# 4 -0.000426 -0.003768 -0.006929 0.035022 -0.007294 0.006617
# 5 -0.001454 -0.000592 0.000904 -0.007294 0.031572 -0.002097
# 6 0.001753 -0.004875 -0.006115 0.006617 -0.002097 0.040609
#
#
# Mechanical properties :
#
#
# Convention : Reuss Voigt Hill
#
# Bulk Modulus (GPa) = 43.05151 56.23480 49.64316
# Shear Modulus (GPa) = 29.73883 37.09374 33.41628
#
# Velocity S-wave (km/s) = 3.50246 3.91166 3.71270
# Velocity P-wave (km/s) = 5.84080 6.60290 6.23351
#
# Compressibility (1/GPa) = 0.02322799
#
# Stress axis : x y z
#
# Youngs Moduli (GPa) = 117.01929 57.49352 81.51565
#
# Poissons Ratio (x) = 0.26979 -0.07934
# Poissons Ratio (y) = 0.54912 0.30732
# Poissons Ratio (z) = -0.11390 0.21675
#
# Static dielectric constant tensor:
#      x y z
#    x 1.932760 -0.004920 -0.016120 
#    y -0.004920 1.960500 -0.007670 
#    z -0.016120 -0.007670 1.904110 
# 
# From -- ./inp_files/465043.got.cif
#   From: 2010.05.17/outbox.cif.g08.bks.cpg/sg2_233_cif.got.tgz:465043.got - 2010.06.03 11:33:40.
