data_PCOD9044376
_publ_section_title
;
Structure prediction by ZEFSAII (Michael W. Deem and Ramdas Pophale) SiO2 
 PCOD9044376
Probable space group: P -1
;
_chemical_formula_sum "Si O2"
_cell_formula_units_Z 14
_cell_length_a 5.077324
_cell_length_b 12.138466
_cell_length_c 23.719536
_cell_angle_alpha 21.912127
_cell_angle_beta 70.197373
_cell_angle_gamma 74.052301
_cell_volume 510.015246
_symmetry_space_group_name_H-M "P -1"
_symmetry_group_IT_number 2
_symmetry_cell_setting 'triclinic'
loop_
_space_group_symop_operation_xyz
x,y,z
-x,-y,-z
loop_
_atom_site_type_symbol
_atom_site_label
_atom_site_fract_x
_atom_site_fract_y
_atom_site_fract_z
Si Si1 0.496174 0.793048 0.463409
Si Si2 0.791279 0.337404 0.943841
Si Si3 0.615990 0.471914 0.288399
Si Si4 0.998864 0.761042 0.829894
Si Si5 0.893785 0.188028 0.832390
Si Si6 0.684609 0.164581 0.738187
Si Si7 0.036567 0.132851 0.372133
O O1 0.551174 0.745352 0.549310
O O2 0.558367 0.471613 0.587621
O O3 0.706078 0.053068 0.296561
O O4 0.181582 0.895998 0.436357
O O5 0.739826 0.567886 0.789429
O O6 0.873529 0.571379 0.876316
O O7 0.045932 0.146456 0.001901
O O8 0.545514 0.090451 0.098380
O O9 0.867684 0.624320 0.237529
O O10 0.404994 0.711746 0.177524
O O11 0.749075 0.290087 0.316354
O O12 0.816208 0.009066 0.750042
O O13 0.000000 0.500000 0.000000
O O14 0.904352 0.222485 0.746891
O O15 0.000000 0.000000 0.500000
#
# Coordination Sequence:
#
# PCOD9044376 Si02
#       7
#     2   2   2   2   2   2   2
#     4  10  23  46  73 108 151 196 251 316 370 454
#     4  12  25  47  78 107 159 195 258 314 377 460
#     4  10  24  47  76 109 152 196 259 310 383 447
#     4  12  25  44  75 112 153 204 253 310 388 454
#     4  11  22  46  76 113 150 195 253 318 371 453
#     4  11  24  49  75 113 152 198 256 314 382 452
#     4  10  25  48  71 112 150 203 248 316 384 454
#
# _framework density 27.45016
#
# number of rings (size 3 to 8) (size 9 to 14) (size 15 to 20)
#    0.000    1.143    4.286    1.714    0.000    6.857 
#    0.000   10.714    0.000    0.000    0.000    0.000 
#    0.000    0.000    0.000    0.000    0.000    0.000 
#
# Total GULP energy -78352.063682 kJ/mol
# GULP energy per Si atom -5596.575977 kJ/mol
# Density = 2.738768 g / cm^3
# Si number density = 27.450160 Si / 1000 Ang^3
#
#
#
# Elastic Constant Matrix: (Units=GPa)
#
#
# Indices 1 2 3 4 5 6 
#
# 1 154.8540 76.9887 77.4592 -23.0386 0.8785 -30.9100
# 2 76.9887 214.2750 86.3582 -41.4645 -6.6628 -39.4606
# 3 77.4592 86.3582 224.0203 -10.6400 10.2783 -21.4878
# 4 -23.0386 -41.4645 -10.6400 63.5581 -6.0097 3.8218
# 5 0.8785 -6.6628 10.2783 -6.0097 46.7370 -8.2059
# 6 -30.9100 -39.4606 -21.4878 3.8218 -8.2059 59.3863
#
#
#
# Elastic Compliance Matrix: (Units=1/GPa)
#
#
# Indices 1 2 3 4 5 6 
#
# 1 0.009194 -0.001425 -0.002291 0.001924 0.000904 0.003011
# 2 -0.001425 0.007531 -0.001989 0.004100 0.002706 0.003653
# 3 -0.002291 -0.001989 0.005997 -0.001265 -0.001812 -0.000514
# 4 0.001924 0.004100 -0.001265 0.019093 0.003730 0.002554
# 5 0.000904 0.002706 -0.001812 0.003730 0.023453 0.004614
# 6 0.003011 0.003653 -0.000514 0.002554 0.004614 0.021120
#
#
# Mechanical properties :
#
#
# Convention : Reuss Voigt Hill
#
# Bulk Modulus (GPa) = 88.41323 119.41794 103.91559
# Shear Modulus (GPa) = 49.22712 57.42581 53.32647
#
# Velocity S-wave (km/s) = 4.23936 4.57880 4.41235
# Velocity P-wave (km/s) = 7.49943 8.45884 7.99354
#
# Compressibility (1/GPa) = 0.01131052
#
# Stress axis : x y z
#
# Youngs Moduli (GPa) = 108.76268 132.78574 166.75781
#
# Poissons Ratio (x) = 0.18927 0.38203
# Poissons Ratio (y) = 0.15503 0.33174
# Poissons Ratio (z) = 0.24917 0.26416
#
# Static dielectric constant tensor:
#      x y z
#    x 2.239640 0.042750 -0.033930 
#    y 0.042750 2.157600 0.083520 
#    z -0.033930 0.083520 2.280600 
# 
# From -- ./inp_files/621906.got.cif
#   From: 2010.05.17/outbox.cif.g08.bks.cpg/sg2_311_cif.got.tgz:621906.got - 2010.06.03 11:33:40.
