data_PCOD9044942
_publ_section_title
;
Structure prediction by ZEFSAII (Michael W. Deem and Ramdas Pophale) SiO2 
 PCOD9044942
Probable space group: P -1
;
_chemical_formula_sum "Si O2"
_cell_formula_units_Z 12
_cell_length_a 6.383677
_cell_length_b 15.194581
_cell_length_c 14.093261
_cell_angle_alpha 150.673521
_cell_angle_beta 93.357911
_cell_angle_gamma 106.745564
_cell_volume 481.407840
_symmetry_space_group_name_H-M "P -1"
_symmetry_group_IT_number 2
_symmetry_cell_setting 'triclinic'
loop_
_space_group_symop_operation_xyz
x,y,z
-x,-y,-z
loop_
_atom_site_type_symbol
_atom_site_label
_atom_site_fract_x
_atom_site_fract_y
_atom_site_fract_z
Si Si1 0.235164 0.543140 0.335002
Si Si2 0.836276 0.352342 0.976338
Si Si3 0.697516 0.011599 0.278016
Si Si4 0.931454 0.167407 0.643463
Si Si5 0.186821 0.225425 0.350104
Si Si6 0.175769 0.844013 0.883169
O O1 0.345809 0.814211 0.599860
O O2 0.499944 0.571213 0.400355
O O3 0.970548 0.356513 0.225332
O O4 0.120721 0.460651 0.145986
O O5 0.763136 0.141417 0.707176
O O6 0.609557 0.262348 0.969229
O O7 0.836834 0.530519 0.077630
O O8 0.806575 0.100188 0.471382
O O9 0.938003 0.056965 0.264816
O O10 0.000000 0.000000 0.500000
O O11 0.061607 0.298361 0.342478
O O12 0.200256 0.056569 0.128067
O O13 0.500000 0.000000 0.000000
#
# Coordination Sequence:
#
# PCOD9044942 Si02
#       6
#     2   2   2   2   2   2
#     4  11  24  43  70  99 143 185 231 294 355 420
#     4  10  23  48  69 105 148 187 237 301 351 419
#     4  11  25  45  69 102 142 182 240 294 352 420
#     4  10  24  44  73 106 141 192 240 293 357 427
#     4  11  25  43  68 103 137 186 237 285 359 427
#     4  11  25  45  70 101 141 185 236 292 352 426
#
# _framework density 24.926888000000002
#
# number of rings (size 3 to 8) (size 9 to 14) (size 15 to 20)
#    0.000    1.333    0.000    4.000    4.667    8.667 
#    0.000    0.000    0.000    0.000    0.000    0.000 
#    0.000    0.000    0.000    0.000    0.000    0.000 
#
# Total GULP energy -67003.427776 kJ/mol
# GULP energy per Si atom -5583.618981 kJ/mol
# Density = 2.487015 g / cm^3
# Si number density = 24.926888 Si / 1000 Ang^3
#
#
#
# Elastic Constant Matrix: (Units=GPa)
#
#
# Indices 1 2 3 4 5 6 
#
# 1 135.3433 75.0965 40.8810 -8.5278 -5.9423 20.9894
# 2 75.0965 156.7903 28.7718 -4.5881 9.6073 -4.0298
# 3 40.8810 28.7718 40.3765 -14.2847 -0.2962 -8.6279
# 4 -8.5278 -4.5881 -14.2847 57.2504 -1.7618 1.9854
# 5 -5.9423 9.6073 -0.2962 -1.7618 33.3090 0.7034
# 6 20.9894 -4.0298 -8.6279 1.9854 0.7034 51.1749
#
#
#
# Elastic Compliance Matrix: (Units=1/GPa)
#
#
# Indices 1 2 3 4 5 6 
#
# 1 0.017113 -0.005901 -0.015734 -0.001351 0.004758 -0.010149
# 2 -0.005901 0.009577 -0.000349 -0.000429 -0.003908 0.003186
# 3 -0.015734 -0.000349 0.047051 0.008816 -0.002118 0.014045
# 4 -0.001351 -0.000429 0.008816 0.019418 0.000962 0.001240
# 5 0.004758 -0.003908 -0.002118 0.000962 0.032095 -0.003095
# 6 -0.010149 0.003186 0.014045 0.001240 -0.003095 0.026317
#
#
# Mechanical properties :
#
#
# Convention : Reuss Voigt Hill
#
# Bulk Modulus (GPa) = 33.58803 69.11208 51.35006
# Shear Modulus (GPa) = 24.33507 40.86425 32.59966
#
# Velocity S-wave (km/s) = 3.12790 4.05330 3.62029
# Velocity P-wave (km/s) = 5.15256 7.04924 6.17417
#
# Compressibility (1/GPa) = 0.02977251
#
# Stress axis : x y z
#
# Youngs Moduli (GPa) = 58.43438 104.41291 21.25354
#
# Poissons Ratio (x) = 0.61617 0.33440
# Poissons Ratio (y) = 0.34484 0.00743
# Poissons Ratio (z) = 0.91939 0.03649
#
# Static dielectric constant tensor:
#      x y z
#    x 1.978350 -0.002870 0.057040 
#    y -0.002870 2.019580 0.065860 
#    z 0.057040 0.065860 2.166490 
# 
# From -- ./inp_files/4673.got.cif
#   From: 2010.05.17/outbox.cif.g08.bks.cpg/sg2_3_cif.got.tgz:4673.got - 2010.06.03 11:33:40.
