data_PCOD9044149
_publ_section_title
;
Structure prediction by ZEFSAII (Michael W. Deem and Ramdas Pophale) SiO2 
 PCOD9044149
Probable space group: P -1
;
_chemical_formula_sum "Si O2"
_cell_formula_units_Z 12
_cell_length_a 9.595402
_cell_length_b 9.905683
_cell_length_c 5.628029
_cell_angle_alpha 88.747956
_cell_angle_beta 67.024204
_cell_angle_gamma 91.000441
_cell_volume 492.187920
_symmetry_space_group_name_H-M "P -1"
_symmetry_group_IT_number 2
_symmetry_cell_setting 'triclinic'
loop_
_space_group_symop_operation_xyz
x,y,z
-x,-y,-z
loop_
_atom_site_type_symbol
_atom_site_label
_atom_site_fract_x
_atom_site_fract_y
_atom_site_fract_z
Si Si1 0.123706 0.761341 0.456855
Si Si2 0.353526 0.936488 0.972199
Si Si3 0.944300 0.612264 0.218230
Si Si4 0.145263 0.180384 0.072936
Si Si5 0.650616 0.587959 0.190653
Si Si6 0.374347 0.693406 0.647023
O O1 0.244038 0.847941 0.221282
O O2 0.215055 0.710686 0.624614
O O3 0.052327 0.633301 0.367613
O O4 0.977798 0.841540 0.640079
O O5 0.248140 0.056332 0.949474
O O6 0.410920 0.835586 0.737924
O O7 0.500000 0.000000 0.000000
O O8 0.763121 0.587069 0.348294
O O9 0.946289 0.762546 0.092408
O O10 0.000000 0.500000 0.000000
O O11 0.257216 0.311075 0.048454
O O12 0.496753 0.652212 0.372360
O O13 0.629169 0.430119 0.156297
#
# Coordination Sequence:
#
# PCOD9044149 Si02
#       6
#     2   2   2   2   2   2
#     4  12  25  43  78 103 139 190 235 297 352 419
#     4  12  28  47  70 105 146 195 235 290 356 422
#     4  10  23  46  70 108 140 179 233 292 359 412
#     4  10  25  45  70 105 143 181 238 291 350 422
#     4   9  23  48  72 102 144 189 225 307 345 416
#     4  11  25  49  70 106 149 182 246 287 351 427
#
# _framework density 24.380932000000001
#
# number of rings (size 3 to 8) (size 9 to 14) (size 15 to 20)
#    1.000    0.333    0.000    4.500    2.333    9.333 
#    3.000    3.333    0.000    0.000    0.000    0.000 
#    0.000    0.000    0.000    0.000    0.000    0.000 
#
# Total GULP energy -67048.009541 kJ/mol
# GULP energy per Si atom -5587.334128 kJ/mol
# Density = 2.432544 g / cm^3
# Si number density = 24.380932 Si / 1000 Ang^3
#
#
#
# Elastic Constant Matrix: (Units=GPa)
#
#
# Indices 1 2 3 4 5 6 
#
# 1 125.6427 50.2736 35.6139 31.5472 -20.6490 5.2704
# 2 50.2736 129.9319 23.4012 22.3189 3.5190 -13.3659
# 3 35.6139 23.4012 30.5279 25.7773 -3.7038 -0.3586
# 4 31.5472 22.3189 25.7773 46.8841 12.3630 -8.0353
# 5 -20.6490 3.5190 -3.7038 12.3630 37.8778 6.3015
# 6 5.2704 -13.3659 -0.3586 -8.0353 6.3015 44.5763
#
#
#
# Elastic Compliance Matrix: (Units=1/GPa)
#
#
# Indices 1 2 3 4 5 6 
#
# 1 0.016663 -0.004836 -0.004395 -0.011503 0.014109 -0.007524
# 2 -0.004836 0.010874 -0.007997 0.005336 -0.007124 0.005737
# 3 -0.004395 -0.007997 0.092833 -0.054067 0.027528 -0.014769
# 4 -0.011503 0.005336 -0.054067 0.069867 -0.038273 0.020530
# 5 0.014109 -0.007124 0.027528 -0.038273 0.052926 -0.017964
# 6 -0.007524 0.005737 -0.014769 0.020530 -0.017964 0.031165
#
#
# Mechanical properties :
#
#
# Convention : Reuss Voigt Hill
#
# Bulk Modulus (GPa) = 11.63936 56.07554 33.85745
# Shear Modulus (GPa) = 14.81829 37.65522 26.23676
#
# Velocity S-wave (km/s) = 2.46800 3.93422 3.28398
# Velocity P-wave (km/s) = 3.59245 6.60962 5.31944
#
# Compressibility (1/GPa) = 0.08591536
#
# Stress axis : x y z
#
# Youngs Moduli (GPa) = 60.01495 91.96136 10.77198
#
# Poissons Ratio (x) = 0.44469 0.04734
# Poissons Ratio (y) = 0.29021 0.08614
# Poissons Ratio (z) = 0.26377 0.73538
#
# Static dielectric constant tensor:
#      x y z
#    x 1.913800 -0.001960 0.042100 
#    y -0.001960 1.983420 -0.045170 
#    z 0.042100 -0.045170 1.958880 
# 
# From -- ./inp_files/59843.got.cif
#   From: 2010.05.17/outbox.cif.g08.bks.cpg/sg2_30_cif.got.tgz:59843.got - 2010.06.03 11:33:40.
