data_PCOD9044146
_publ_section_title
;
Structure prediction by ZEFSAII (Michael W. Deem and Ramdas Pophale) SiO2 
 PCOD9044146
Probable space group: P -1
;
_chemical_formula_sum "Si O2"
_cell_formula_units_Z 12
_cell_length_a 9.270444
_cell_length_b 11.886920
_cell_length_c 15.696459
_cell_angle_alpha 38.461876
_cell_angle_beta 45.673062
_cell_angle_gamma 27.281956
_cell_volume 493.119363
_symmetry_space_group_name_H-M "P -1"
_symmetry_group_IT_number 2
_symmetry_cell_setting 'triclinic'
loop_
_space_group_symop_operation_xyz
x,y,z
-x,-y,-z
loop_
_atom_site_type_symbol
_atom_site_label
_atom_site_fract_x
_atom_site_fract_y
_atom_site_fract_z
Si Si1 0.040650 0.135069 0.831853
Si Si2 0.784553 0.605790 0.360700
Si Si3 0.196241 0.973767 0.506689
Si Si4 0.646845 0.569342 0.946840
Si Si5 0.669102 0.755727 0.142337
Si Si6 0.568721 0.505265 0.210592
O O1 0.977181 0.388697 0.727045
O O2 0.812893 0.241173 0.785778
O O3 0.416152 0.881618 0.822368
O O4 0.000000 0.000000 0.000000
O O5 0.553207 0.806100 0.256023
O O6 0.994297 0.287265 0.434914
O O7 0.547166 0.750365 0.452407
O O8 0.263170 0.799947 0.663510
O O9 0.000000 0.000000 0.500000
O O10 0.000328 0.376578 0.899079
O O11 0.500000 0.500000 0.000000
O O12 0.638276 0.540019 0.068674
O O13 0.687067 0.554092 0.206646
O O14 0.500000 0.000000 0.000000
#
# Coordination Sequence:
#
# PCOD9044146 Si02
#       6
#     2   2   2   2   2   2
#     4  10  23  46  70 107 149 191 245 317 380 441
#     4  12  27  48  77 106 156 200 253 311 380 446
#     4  12  28  50  75 110 155 204 256 313 365 453
#     4  11  23  44  73 110 156 196 249 327 387 444
#     4  12  24  40  73 110 145 198 258 316 386 446
#     4  11  25  43  72 107 150 199 257 306 378 458
#
# _framework density 24.334879000000001
#
# number of rings (size 3 to 8) (size 9 to 14) (size 15 to 20)
#    0.000    0.667    1.667    7.000    2.333    2.667 
#    0.000    0.000    0.000    0.000    0.000    0.000 
#    0.000    0.000    0.000    0.000    0.000    0.000 
#
# Total GULP energy -66997.051661 kJ/mol
# GULP energy per Si atom -5583.087638 kJ/mol
# Density = 2.427949 g / cm^3
# Si number density = 24.334879 Si / 1000 Ang^3
#
#
#
# Elastic Constant Matrix: (Units=GPa)
#
#
# Indices 1 2 3 4 5 6 
#
# 1 114.1348 15.9889 2.2049 0.1311 -28.3912 -2.3494
# 2 15.9889 99.2600 23.0080 -9.8833 -16.3943 -3.8523
# 3 2.2049 23.0080 62.3496 -27.6785 -12.5143 -3.8747
# 4 0.1311 -9.8833 -27.6785 42.5712 8.3628 1.0605
# 5 -28.3912 -16.3943 -12.5143 8.3628 39.3745 -11.4302
# 6 -2.3494 -3.8523 -3.8747 1.0605 -11.4302 43.1096
#
#
#
# Elastic Compliance Matrix: (Units=1/GPa)
#
#
# Indices 1 2 3 4 5 6 
#
# 1 0.011248 -0.000555 0.001378 -0.001218 0.009517 0.003241
# 2 -0.000555 0.011666 -0.003583 -0.000432 0.003915 0.001739
# 3 0.001378 -0.003583 0.024873 0.014225 0.005267 0.003037
# 4 -0.001218 -0.000432 0.014225 0.033410 -0.003825 -0.000663
# 5 0.009517 0.003915 0.005267 -0.003825 0.039861 0.012005
# 6 0.003241 0.001739 0.003037 -0.000663 0.012005 0.027001
#
#
# Mechanical properties :
#
#
# Convention : Reuss Voigt Hill
#
# Bulk Modulus (GPa) = 23.65953 39.79421 31.72687
# Shear Modulus (GPa) = 29.82093 40.64725 35.23409
#
# Velocity S-wave (km/s) = 3.50443 4.09140 3.80924
# Velocity P-wave (km/s) = 5.11060 6.22155 5.69324
#
# Compressibility (1/GPa) = 0.04226627
#
# Stress axis : x y z
#
# Youngs Moduli (GPa) = 88.90402 85.72263 40.20429
#
# Poissons Ratio (x) = 0.04757 -0.05540
# Poissons Ratio (y) = 0.04933 0.14406
# Poissons Ratio (z) = -0.12250 0.30716
#
# Static dielectric constant tensor:
#      x y z
#    x 1.901380 0.064380 -0.072640 
#    y 0.064380 2.181770 -0.039110 
#    z -0.072640 -0.039110 2.154040 
# 
# From -- ./inp_files/499828.got.cif
#   From: 2010.05.17/outbox.cif.g08.bks.cpg/sg2_250_cif.got.tgz:499828.got - 2010.06.03 11:33:40.
