data_PCOD9044285
_publ_section_title
;
Structure prediction by ZEFSAII (Michael W. Deem and Ramdas Pophale) SiO2 
 PCOD9044285
Probable space group: P -1
;
_chemical_formula_sum "Si O2"
_cell_formula_units_Z 12
_cell_length_a 10.895465
_cell_length_b 12.723792
_cell_length_c 9.017774
_cell_angle_alpha 55.145823
_cell_angle_beta 148.847175
_cell_angle_gamma 131.935069
_cell_volume 481.103966
_symmetry_space_group_name_H-M "P -1"
_symmetry_group_IT_number 2
_symmetry_cell_setting 'triclinic'
loop_
_space_group_symop_operation_xyz
x,y,z
-x,-y,-z
loop_
_atom_site_type_symbol
_atom_site_label
_atom_site_fract_x
_atom_site_fract_y
_atom_site_fract_z
Si Si1 0.659964 0.948615 0.317611
Si Si2 0.189101 0.127793 0.760214
Si Si3 0.801813 0.058672 0.824631
Si Si4 0.576508 0.324124 0.514106
Si Si5 0.101045 0.388557 0.943725
Si Si6 0.604301 0.386859 0.152786
O O1 0.779930 0.875099 0.381428
O O2 0.537332 0.830504 0.408594
O O3 0.885516 0.089594 0.505573
O O4 0.500000 0.000000 0.000000
O O5 0.396396 0.268486 0.931111
O O6 0.226391 0.002476 0.987507
O O7 0.500000 0.000000 0.500000
O O8 0.972149 0.228548 0.869976
O O9 0.000000 0.000000 0.000000
O O10 0.379910 0.397303 0.283391
O O11 0.602603 0.319354 0.365637
O O12 0.879910 0.393414 0.820521
O O13 0.155045 0.516980 0.780564
O O14 0.500000 0.500000 0.000000
#
# Coordination Sequence:
#
# PCOD9044285 Si02
#       6
#     2   2   2   2   2   2
#     4  11  26  46  70 102 143 191 245 294 348 421
#     4  11  25  45  71 103 142 188 238 295 355 423
#     4  12  24  39  70 107 135 179 234 296 356 412
#     4  11  23  44  73  98 142 183 233 293 352 420
#     4  11  22  43  66 103 142 176 226 294 356 421
#     4  10  23  46  72 106 142 181 232 298 364 427
#
# _framework density 24.942630999999999
#
# number of rings (size 3 to 8) (size 9 to 14) (size 15 to 20)
#    0.000    1.000    1.667    5.500    4.667    0.000 
#   12.000    4.167    0.000    0.000    0.000    0.000 
#    0.000    0.000    0.000    0.000    0.000    0.000 
#
# Total GULP energy -66964.555593 kJ/mol
# GULP energy per Si atom -5580.379633 kJ/mol
# Density = 2.488586 g / cm^3
# Si number density = 24.942631 Si / 1000 Ang^3
#
#
#
# Elastic Constant Matrix: (Units=GPa)
#
#
# Indices 1 2 3 4 5 6 
#
# 1 89.5717 50.1027 41.3243 8.5711 7.4729 30.5380
# 2 50.1027 166.1533 55.0633 2.2601 -24.9901 46.9637
# 3 41.3243 55.0633 144.6866 -5.8503 24.1636 11.8886
# 4 8.5711 2.2601 -5.8503 41.9767 -0.5399 1.8308
# 5 7.4729 -24.9901 24.1636 -0.5399 49.0302 2.4721
# 6 30.5380 46.9637 11.8886 1.8308 2.4721 44.5654
#
#
#
# Elastic Compliance Matrix: (Units=1/GPa)
#
#
# Indices 1 2 3 4 5 6 
#
# 1 0.017167 -0.001698 -0.003444 -0.003526 -0.001378 -0.008835
# 2 -0.001698 0.013152 -0.005260 -0.000448 0.010146 -0.011837
# 3 -0.003444 -0.005260 0.010838 0.002164 -0.007743 0.005352
# 4 -0.003526 -0.000448 0.002164 0.024804 -0.000551 0.001323
# 5 -0.001378 0.010146 -0.007743 -0.000551 0.030058 -0.009327
# 6 -0.008835 -0.011837 0.005352 0.001323 -0.009327 0.040002
#
#
# Mechanical properties :
#
#
# Convention : Reuss Voigt Hill
#
# Bulk Modulus (GPa) = 49.13123 77.04358 63.08740
# Shear Modulus (GPa) = 30.56099 44.04254 37.30176
#
# Velocity S-wave (km/s) = 3.50416 4.20665 3.87137
# Velocity P-wave (km/s) = 6.00938 7.38579 6.73285
#
# Compressibility (1/GPa) = 0.02035365
#
# Stress axis : x y z
#
# Youngs Moduli (GPa) = 58.25162 76.03587 92.26959
#
# Poissons Ratio (x) = 0.12907 0.31774
# Poissons Ratio (y) = 0.09889 0.48536
# Poissons Ratio (z) = 0.20059 0.39997
#
# Static dielectric constant tensor:
#      x y z
#    x 2.142010 0.046870 0.124520 
#    y 0.046870 1.971080 -0.007430 
#    z 0.124520 -0.007430 2.127820 
# 
# From -- ./inp_files/272022.got.cif
#   From: 2010.05.17/outbox.cif.g08.bks.cpg/sg2_137_cif.got.tgz:272022.got - 2010.06.03 11:33:40.
