data_PCOD9044417
_publ_section_title
;
Structure prediction by ZEFSAII (Michael W. Deem and Ramdas Pophale) SiO2 
 PCOD9044417
Probable space group: P -1
;
_chemical_formula_sum "Si O2"
_cell_formula_units_Z 13
_cell_length_a 15.938257
_cell_length_b 16.444314
_cell_length_c 9.289470
_cell_angle_alpha 46.705038
_cell_angle_beta 43.268375
_cell_angle_gamma 17.193423
_cell_volume 492.707937
_symmetry_space_group_name_H-M "P -1"
_symmetry_group_IT_number 2
_symmetry_cell_setting 'triclinic'
loop_
_space_group_symop_operation_xyz
x,y,z
-x,-y,-z
loop_
_atom_site_type_symbol
_atom_site_label
_atom_site_fract_x
_atom_site_fract_y
_atom_site_fract_z
Si Si1 0.695389 0.614354 0.404238
Si Si2 0.918441 0.241584 0.770439
Si Si3 0.281334 0.077718 0.157537
Si Si4 0.549293 0.229955 0.934272
Si Si5 0.500000 0.500000 0.500000
Si Si6 0.149372 0.837583 0.795693
Si Si7 0.472679 0.150535 0.395996
O O1 0.742519 0.660317 0.423907
O O2 0.712764 0.485617 0.626951
O O3 0.949806 0.395992 0.228637
O O4 0.389624 0.904373 0.358069
O O5 0.040223 0.035198 0.780498
O O6 0.202681 0.074049 0.681302
O O7 0.737025 0.346342 0.006467
O O8 0.341168 0.960501 0.079180
O O9 0.500000 0.000000 0.000000
O O10 0.404911 0.455550 0.754719
O O11 0.387197 0.301346 0.183880
O O12 0.848158 0.039398 0.854324
O O13 0.368723 0.676394 0.585525
O O14 0.500000 0.000000 0.500000
#
# Coordination Sequence:
#
# PCOD9044417 Si02
#       7
#     2   2   2   2   1   2   2
#     4  12  25  49  76 107 147 199 253 303 382 446
#     4  10  23  46  74 107 145 200 254 309 380 442
#     4  12  28  49  73 111 154 203 248 310 380 455
#     4  11  27  44  73 112 152 198 251 318 379 447
#     4  12  24  42  68 110 150 188 252 304 382 438
#     4  10  24  44  71 108 148 196 251 315 371 454
#     4  11  25  49  76 111 149 200 259 314 373 454
#
# _framework density 26.384798
#
# number of rings (size 3 to 8) (size 9 to 14) (size 15 to 20)
#    0.000    0.923    1.538    3.692    4.308    0.615 
#    2.769    4.615    0.000    0.000    0.000    0.000 
#    0.000    0.000    0.000    0.000    0.000    0.000 
#
# Total GULP energy -72603.299132 kJ/mol
# GULP energy per Si atom -5584.869164 kJ/mol
# Density = 2.632475 g / cm^3
# Si number density = 26.384798 Si / 1000 Ang^3
#
#
#
# Elastic Constant Matrix: (Units=GPa)
#
#
# Indices 1 2 3 4 5 6 
#
# 1 182.5598 36.2498 37.7885 8.6924 -19.4836 40.9218
# 2 36.2498 79.5956 5.2331 -1.1645 0.5131 23.3274
# 3 37.7885 5.2331 80.4729 -0.5811 -5.8611 9.1427
# 4 8.6924 -1.1645 -0.5811 40.1510 22.4133 0.4139
# 5 -19.4836 0.5131 -5.8611 22.4133 40.5674 2.2725
# 6 40.9218 23.3274 9.1427 0.4139 2.2725 52.6722
#
#
#
# Elastic Compliance Matrix: (Units=1/GPa)
#
#
# Indices 1 2 3 4 5 6 
#
# 1 0.008936 -0.002357 -0.002882 -0.006281 0.007693 -0.005681
# 2 -0.002357 0.015073 0.000534 0.002239 -0.002210 -0.004859
# 3 -0.002882 0.000534 0.013814 0.000713 0.000234 -0.000411
# 4 -0.006281 0.002239 0.000713 0.040600 -0.025628 0.004551
# 5 0.007693 -0.002210 0.000234 -0.025628 0.042941 -0.006690
# 6 -0.005681 -0.004859 -0.000411 0.004551 -0.006690 0.025875
#
#
# Mechanical properties :
#
#
# Convention : Reuss Voigt Hill
#
# Bulk Modulus (GPa) = 35.19616 55.68565 45.44090
# Shear Modulus (GPa) = 30.09863 44.23527 37.16695
#
# Velocity S-wave (km/s) = 3.38117 4.09900 3.75727
# Velocity P-wave (km/s) = 5.34898 6.59950 6.00687
#
# Compressibility (1/GPa) = 0.02841219
#
# Stress axis : x y z
#
# Youngs Moduli (GPa) = 111.91044 66.34437 72.38949
#
# Poissons Ratio (x) = 0.15635 0.20866
# Poissons Ratio (y) = 0.26373 -0.03864
# Poissons Ratio (z) = 0.32257 -0.03541
#
# Static dielectric constant tensor:
#      x y z
#    x 2.096490 -0.026470 -0.007300 
#    y -0.026470 2.046600 0.015540 
#    z -0.007300 0.015540 2.058510 
# 
# From -- ./inp_files/314567.got.cif
#   From: 2010.05.17/outbox.cif.g08.bks.cpg/sg2_158_cif.got.tgz:314567.got - 2010.06.03 11:33:40.
