data_PCOD9044776
_publ_section_title
;
Structure prediction by ZEFSAII (Michael W. Deem and Ramdas Pophale) SiO2 
 PCOD9044776
Probable space group: P -1
;
_chemical_formula_sum "Si O2"
_cell_formula_units_Z 16
_cell_length_a 6.660059
_cell_length_b 7.940424
_cell_length_c 25.356340
_cell_angle_alpha 50.871499
_cell_angle_beta 37.080821
_cell_angle_gamma 58.483428
_cell_volume 626.650491
_symmetry_space_group_name_H-M "P -1"
_symmetry_group_IT_number 2
_symmetry_cell_setting 'triclinic'
loop_
_space_group_symop_operation_xyz
x,y,z
-x,-y,-z
loop_
_atom_site_type_symbol
_atom_site_label
_atom_site_fract_x
_atom_site_fract_y
_atom_site_fract_z
Si Si1 0.791756 0.382379 0.742956
Si Si2 0.238240 0.344400 0.110484
Si Si3 0.740399 0.952912 0.110658
Si Si4 0.758940 0.246957 0.623442
Si Si5 0.863118 0.447676 0.266330
Si Si6 0.826275 0.344532 0.472259
Si Si7 0.818556 0.013326 0.204745
Si Si8 0.376541 0.026018 0.580151
O O1 0.848662 0.518709 0.757404
O O2 0.898753 0.552935 0.642441
O O3 0.035823 0.172069 0.748313
O O4 0.461092 0.260165 0.821134
O O5 0.458911 0.149232 0.129693
O O6 0.038539 0.487053 0.166869
O O7 0.500000 0.500000 0.000000
O O8 0.986597 0.231902 0.144685
O O9 0.887573 0.959385 0.138595
O O10 0.000000 0.000000 0.000000
O O11 0.574572 0.019132 0.700317
O O12 0.106061 0.674270 0.476303
O O13 0.057740 0.193864 0.611272
O O14 0.462477 0.410151 0.674109
O O15 0.744845 0.204531 0.332101
O O16 0.500000 0.500000 0.500000
O O17 0.683267 0.116548 0.529251
O O18 0.500000 0.000000 0.500000
#
# Coordination Sequence:
#
# PCOD9044776 Si02
#       8
#     2   2   2   2   2   2   2   2
#     4  10  24  46  74 108 153 194 244 319 366 445
#     4  11  27  48  75 106 152 187 247 333 375 443
#     4  11  27  48  77 110 142 195 257 312 382 463
#     4  11  26  46  78 106 152 208 247 302 375 455
#     4  11  24  49  73 110 152 202 249 317 376 445
#     4  12  23  45  72 111 152 201 253 301 372 446
#     4  10  23  47  73 107 141 203 244 302 386 445
#     4  12  26  47  72 112 153 199 252 306 367 449
#
# _framework density 25.532572999999999
#
# number of rings (size 3 to 8) (size 9 to 14) (size 15 to 20)
#    0.000    1.000    3.750    1.500    8.750    5.000 
#    2.250    5.000    0.000    0.000    0.000    0.000 
#    0.000    0.000    0.000    0.000    0.000    0.000 
#
# Total GULP energy -89583.860674 kJ/mol
# GULP energy per Si atom -5598.991292 kJ/mol
# Density = 2.547446 g / cm^3
# Si number density = 25.532573 Si / 1000 Ang^3
#
#
#
# Elastic Constant Matrix: (Units=GPa)
#
#
# Indices 1 2 3 4 5 6 
#
# 1 165.4392 74.3548 76.5615 -1.2674 -8.2697 26.5853
# 2 74.3548 134.1401 67.7113 -9.3233 -10.2551 28.9411
# 3 76.5615 67.7113 226.6797 -11.5694 0.9022 42.5177
# 4 -1.2674 -9.3233 -11.5694 52.8014 12.8421 -9.6848
# 5 -8.2697 -10.2551 0.9022 12.8421 40.7860 -4.9013
# 6 26.5853 28.9411 42.5177 -9.6848 -4.9013 64.8859
#
#
#
# Elastic Compliance Matrix: (Units=1/GPa)
#
#
# Indices 1 2 3 4 5 6 
#
# 1 0.008730 -0.003782 -0.001727 -0.001276 0.001156 -0.000862
# 2 -0.003782 0.010965 -0.001576 0.000744 0.001541 -0.002081
# 3 -0.001727 -0.001576 0.005983 0.000890 -0.001458 -0.002488
# 4 -0.001276 0.000744 0.000890 0.021235 -0.006503 0.002286
# 5 0.001156 0.001541 -0.001458 -0.006503 0.027326 0.000888
# 6 -0.000862 -0.002081 -0.002488 0.002286 0.000888 0.018731
#
#
# Mechanical properties :
#
#
# Convention : Reuss Voigt Hill
#
# Bulk Modulus (GPa) = 86.88790 107.05713 96.97251
# Shear Modulus (GPa) = 45.05435 52.20341 48.62888
#
# Velocity S-wave (km/s) = 4.20525 4.52661 4.36889
# Velocity P-wave (km/s) = 7.59493 8.32712 7.96944
#
# Compressibility (1/GPa) = 0.01150908
#
# Stress axis : x y z
#
# Youngs Moduli (GPa) = 114.55022 91.19823 167.13096
#
# Poissons Ratio (x) = 0.34488 0.28863
# Poissons Ratio (y) = 0.43319 0.26338
# Poissons Ratio (z) = 0.19783 0.14372
#
# Static dielectric constant tensor:
#      x y z
#    x 2.045540 -0.035040 0.073310 
#    y -0.035040 2.111970 -0.013160 
#    z 0.073310 -0.013160 1.822970 
# 
# From -- ./inp_files/604010.got.cif
#   From: 2010.05.17/outbox.cif.g08.bks.cpg/sg2_303_cif.got.tgz:604010.got - 2010.06.03 11:33:40.
