data_PCOD9044080
_publ_section_title
;
Structure prediction by ZEFSAII (Michael W. Deem and Ramdas Pophale) SiO2 
 PCOD9044080
Probable space group: P -1
;
_chemical_formula_sum "Si O2"
_cell_formula_units_Z 14
_cell_length_a 15.817236
_cell_length_b 5.575480
_cell_length_c 12.784656
_cell_angle_alpha 67.282239
_cell_angle_beta 141.416499
_cell_angle_gamma 117.469384
_cell_volume 623.203462
_symmetry_space_group_name_H-M "P -1"
_symmetry_group_IT_number 2
_symmetry_cell_setting 'triclinic'
loop_
_space_group_symop_operation_xyz
x,y,z
-x,-y,-z
loop_
_atom_site_type_symbol
_atom_site_label
_atom_site_fract_x
_atom_site_fract_y
_atom_site_fract_z
Si Si1 0.807972 0.372472 0.543373
Si Si2 0.948324 0.903289 0.706119
Si Si3 0.128154 0.253954 0.111698
Si Si4 0.779131 0.206640 0.977435
Si Si5 0.662012 0.534055 0.187393
Si Si6 0.661387 0.112827 0.098314
Si Si7 0.663902 0.054309 0.662993
O O1 0.899145 0.681238 0.604030
O O2 0.683927 0.391824 0.340516
O O3 0.742472 0.236105 0.612075
O O4 0.890263 0.167894 0.607371
O O5 0.886539 0.737501 0.780100
O O6 0.117327 0.980149 0.870353
O O7 0.115445 0.495934 0.986021
O O8 0.279264 0.209049 0.242961
O O9 0.000000 0.000000 0.000000
O O10 0.706714 0.163072 0.802213
O O11 0.675824 0.187789 0.977575
O O12 0.725127 0.376880 0.186067
O O13 0.724033 0.855473 0.210781
O O14 0.500000 0.500000 0.000000
O O15 0.500000 0.000000 0.000000
O O16 0.500000 0.000000 0.500000
#
# Coordination Sequence:
#
# PCOD9044080 Si02
#       7
#     2   2   2   2   2   2   2
#     4  11  24  45  70 103 144 179 241 298 358 419
#     4  11  23  42  71 106 139 188 227 299 359 430
#     4  11  22  43  70 103 152 187 234 282 370 443
#     4  12  24  43  72 106 146 186 243 286 367 433
#     4  10  23  46  69  94 132 191 239 288 351 415
#     4  10  25  43  70  98 136 195 237 288 345 420
#     4  11  26  39  67 111 147 185 230 301 365 442
#
# _framework density 22.464572
#
# number of rings (size 3 to 8) (size 9 to 14) (size 15 to 20)
#    0.000    1.143    2.857    3.000    6.000    1.714 
#    2.571    4.286    0.000    0.000    0.000    0.000 
#    0.000    0.000    0.000    0.000    0.000    0.000 
#
# Total GULP energy -78135.141690 kJ/mol
# GULP energy per Si atom -5581.081549 kJ/mol
# Density = 2.241344 g / cm^3
# Si number density = 22.464572 Si / 1000 Ang^3
#
#
#
# Elastic Constant Matrix: (Units=GPa)
#
#
# Indices 1 2 3 4 5 6 
#
# 1 100.7636 43.5269 42.0660 -6.4903 -11.5385 -26.0712
# 2 43.5269 124.3385 40.6781 -15.6935 2.7650 -35.8968
# 3 42.0660 40.6781 145.6974 -5.9077 -3.3066 -15.4189
# 4 -6.4903 -15.6935 -5.9077 28.1882 5.0044 -1.0818
# 5 -11.5385 2.7650 -3.3066 5.0044 42.7687 -2.6468
# 6 -26.0712 -35.8968 -15.4189 -1.0818 -2.6468 30.4224
#
#
#
# Elastic Compliance Matrix: (Units=1/GPa)
#
#
# Indices 1 2 3 4 5 6 
#
# 1 0.014864 -0.001178 -0.002687 0.001839 0.004309 0.010427
# 2 -0.001178 0.014588 -0.001791 0.008320 -0.001416 0.015469
# 3 -0.002687 -0.001791 0.008110 0.000074 -0.000010 -0.000303
# 4 0.001839 0.008320 0.000074 0.041765 -0.004146 0.012556
# 5 0.004309 -0.001416 -0.000010 -0.004146 0.025372 0.004077
# 6 0.010427 0.015469 -0.000303 0.012556 0.004077 0.060707
#
#
# Mechanical properties :
#
#
# Convention : Reuss Voigt Hill
#
# Bulk Modulus (GPa) = 38.09268 69.26015 53.67642
# Shear Modulus (GPa) = 26.95879 36.57778 31.76829
#
# Velocity S-wave (km/s) = 3.46794 4.03953 3.76460
# Velocity P-wave (km/s) = 5.74710 7.25636 6.54538
#
# Compressibility (1/GPa) = 0.02625176
#
# Stress axis : x y z
#
# Youngs Moduli (GPa) = 67.27442 68.54771 123.30535
#
# Poissons Ratio (x) = 0.08075 0.33132
# Poissons Ratio (y) = 0.07925 0.22079
# Poissons Ratio (z) = 0.18077 0.12274
#
# Static dielectric constant tensor:
#      x y z
#    x 1.830900 -0.064400 0.018150 
#    y -0.064400 1.989230 -0.024040 
#    z 0.018150 -0.024040 1.960500 
# 
# From -- ./inp_files/70231.got.cif
#   From: 2010.05.17/outbox.cif.g08.bks.cpg/sg2_36_cif.got.tgz:70231.got - 2010.06.03 11:33:40.
