data_PCOD9044544
_publ_section_title
;
Structure prediction by ZEFSAII (Michael W. Deem and Ramdas Pophale) SiO2 
 PCOD9044544
Probable space group: P -1
;
_chemical_formula_sum "Si O2"
_cell_formula_units_Z 16
_cell_length_a 9.138313
_cell_length_b 11.348928
_cell_length_c 7.524516
_cell_angle_alpha 100.734123
_cell_angle_beta 63.727739
_cell_angle_gamma 107.250956
_cell_volume 666.899141
_symmetry_space_group_name_H-M "P -1"
_symmetry_group_IT_number 2
_symmetry_cell_setting 'triclinic'
loop_
_space_group_symop_operation_xyz
x,y,z
-x,-y,-z
loop_
_atom_site_type_symbol
_atom_site_label
_atom_site_fract_x
_atom_site_fract_y
_atom_site_fract_z
Si Si1 0.520622 0.998741 0.700089
Si Si2 0.027777 0.848380 0.552711
Si Si3 0.980160 0.260890 0.853586
Si Si4 0.341452 0.218848 0.260275
Si Si5 0.300942 0.438425 0.596998
Si Si6 0.647740 0.271543 0.858462
Si Si7 0.153084 0.607436 0.512746
Si Si8 0.856049 0.064799 0.144512
O O1 0.580985 0.878798 0.698097
O O2 0.325892 0.983657 0.858901
O O3 0.500000 0.000000 0.500000
O O4 0.621477 0.129006 0.765304
O O5 0.019728 0.837104 0.339393
O O6 0.079145 0.725954 0.560507
O O7 0.153968 0.945575 0.637051
O O8 0.843785 0.853560 0.719573
O O9 0.820027 0.311565 0.890497
O O10 0.164676 0.355157 0.784342
O O11 0.927273 0.198109 0.052247
O O12 0.296691 0.332989 0.420333
O O13 0.480923 0.273221 0.054393
O O14 0.500000 0.500000 0.500000
O O15 0.218006 0.553410 0.636722
O O16 0.683804 0.360274 0.694201
O O17 0.000000 0.500000 0.500000
O O18 0.000000 0.000000 0.000000
#
# Coordination Sequence:
#
# PCOD9044544 Si02
#       8
#     2   2   2   2   2   2   2   2
#     4  12  27  43  70 106 142 187 231 294 345 421
#     4  10  24  45  71  98 142 186 226 287 350 413
#     4  10  23  47  66 102 139 185 231 280 354 411
#     4  11  24  45  69 105 138 179 238 281 364 406
#     4  11  26  44  73 101 138 183 231 300 340 420
#     4  11  23  43  73  97 141 185 227 292 346 419
#     4  11  21  48  69  95 136 185 234 274 362 412
#     4  12  27  43  70 106 142 184 241 282 346 426
#
# _framework density 23.991633
#
# number of rings (size 3 to 8) (size 9 to 14) (size 15 to 20)
#    0.000    1.000    5.000    2.625    8.750    2.000 
#    2.250    1.250    0.000    0.000    0.000    0.000 
#    0.000    0.000    0.000    0.000    0.000    0.000 
#
# Total GULP energy -89169.780719 kJ/mol
# GULP energy per Si atom -5573.111295 kJ/mol
# Density = 2.393703 g / cm^3
# Si number density = 23.991633 Si / 1000 Ang^3
#
#
#
# Elastic Constant Matrix: (Units=GPa)
#
#
# Indices 1 2 3 4 5 6 
#
# 1 122.5580 21.9836 3.5777 -7.2713 -30.2255 14.0915
# 2 21.9836 76.8617 9.5044 -16.7491 -1.5088 -2.2322
# 3 3.5777 9.5044 85.8247 -16.1915 -10.1435 4.2538
# 4 -7.2713 -16.7491 -16.1915 43.8133 4.4888 -16.2476
# 5 -30.2255 -1.5088 -10.1435 4.4888 45.8322 -6.2793
# 6 14.0915 -2.2322 4.2538 -16.2476 -6.2793 44.4652
#
#
#
# Elastic Compliance Matrix: (Units=1/GPa)
#
#
# Indices 1 2 3 4 5 6 
#
# 1 0.010698 -0.003334 0.000673 -0.001080 0.006781 -0.003059
# 2 -0.003334 0.015639 -0.000728 0.006897 -0.001951 0.004156
# 3 0.000673 -0.000728 0.012869 0.004505 0.002905 0.000575
# 4 -0.001080 0.006897 0.004505 0.031337 -0.000972 0.011571
# 5 0.006781 -0.001951 0.002905 -0.000972 0.027094 0.000946
# 6 -0.003059 0.004156 0.000575 0.011571 0.000946 0.027974
#
#
# Mechanical properties :
#
#
# Convention : Reuss Voigt Hill
#
# Bulk Modulus (GPa) = 30.83853 39.48622 35.16237
# Shear Modulus (GPa) = 34.91639 43.50071 39.20855
#
# Velocity S-wave (km/s) = 3.81905 4.26274 4.04698
# Velocity P-wave (km/s) = 5.68583 6.38138 6.04362
#
# Compressibility (1/GPa) = 0.03242697
#
# Stress axis : x y z
#
# Youngs Moduli (GPa) = 93.47826 63.94105 77.70620
#
# Poissons Ratio (x) = 0.21317 -0.05226
# Poissons Ratio (y) = 0.31164 0.05659
# Poissons Ratio (z) = -0.06287 0.04657
#
# Static dielectric constant tensor:
#      x y z
#    x 1.932290 0.129470 -0.031280 
#    y 0.129470 1.733510 0.033760 
#    z -0.031280 0.033760 2.102860 
# 
# From -- ./inp_files/179948.got.cif
#   From: 2010.05.17/outbox.cif.g08.bks.cpg/sg2_90_cif.got.tgz:179948.got - 2010.06.03 11:33:40.
