data_PCOD9044974
_publ_section_title
;
Structure prediction by ZEFSAII (Michael W. Deem and Ramdas Pophale) SiO2 
 PCOD9044974
Probable space group: P -1
;
_chemical_formula_sum "Si O2"
_cell_formula_units_Z 14
_cell_length_a 19.010501
_cell_length_b 12.192192
_cell_length_c 12.487075
_cell_angle_alpha 149.308019
_cell_angle_beta 40.134843
_cell_angle_gamma 143.769833
_cell_volume 848.686918
_symmetry_space_group_name_H-M "P -1"
_symmetry_group_IT_number 2
_symmetry_cell_setting 'triclinic'
loop_
_space_group_symop_operation_xyz
x,y,z
-x,-y,-z
loop_
_atom_site_type_symbol
_atom_site_label
_atom_site_fract_x
_atom_site_fract_y
_atom_site_fract_z
Si Si1 0.703506 0.184199 0.908556
Si Si2 0.938668 0.628473 0.104861
Si Si3 0.210857 0.169020 0.427811
Si Si4 0.589059 0.595141 0.876362
Si Si5 0.809647 0.061100 0.978251
Si Si6 0.635994 0.319531 0.413076
Si Si7 0.502952 0.103634 0.912675
O O1 0.629962 0.216786 0.922379
O O2 0.753066 0.988388 0.665975
O O3 0.816867 0.427233 0.021856
O O4 0.602496 0.052085 0.008582
O O5 0.898664 0.790387 0.362116
O O6 0.048435 0.791442 0.034158
O O7 0.000000 0.500000 0.000000
O O8 0.317957 0.437820 0.507110
O O9 0.188257 0.032512 0.224924
O O10 0.614554 0.394260 0.618369
O O11 0.719845 0.818960 0.940904
O O12 0.500000 0.500000 0.000000
O O13 0.530475 0.706887 0.950442
O O14 0.741481 0.230761 0.207790
O O15 0.514357 0.100710 0.325305
#
# Coordination Sequence:
#
# PCOD9044974 Si02
#       7
#     2   2   2   2   2   2   2
#     4  11  21  30  49  77 111 142 167 201 252 317
#     4  12  19  30  49  75 111 143 166 206 252 303
#     4  11  17  30  47  75 106 143 167 197 253 306
#     4  10  21  37  58  77  96 132 178 222 259 295
#     4  10  20  31  48  79 103 130 174 211 251 302
#     4  10  17  34  52  74 104 134 168 216 255 298
#     4  10  20  35  47  77 109 135 175 206 250 312
#
# _framework density 16.496072000000002
#
# number of rings (size 3 to 8) (size 9 to 14) (size 15 to 20)
#    0.000    1.429    8.571    0.429    0.000    4.000 
#    0.000    0.000    0.000    0.857    0.000    3.000 
#    0.000    0.000    0.000    0.000    0.000    0.000 
#
# Total GULP energy -77968.416703 kJ/mol
# GULP energy per Si atom -5569.172622 kJ/mol
# Density = 1.645853 g / cm^3
# Si number density = 16.496072 Si / 1000 Ang^3
#
#
#
# Elastic Constant Matrix: (Units=GPa)
#
#
# Indices 1 2 3 4 5 6 
#
# 1 59.9495 40.8556 32.5633 -1.6375 -0.0526 22.2211
# 2 40.8556 102.6717 44.0823 -11.7524 6.4070 19.8479
# 3 32.5633 44.0823 123.3345 0.5264 -3.7678 6.8627
# 4 -1.6375 -11.7524 0.5264 23.7164 3.1499 3.4854
# 5 -0.0526 6.4070 -3.7678 3.1499 11.3536 1.6142
# 6 22.2211 19.8479 6.8627 3.4854 1.6142 26.4479
#
#
#
# Elastic Compliance Matrix: (Units=1/GPa)
#
#
# Indices 1 2 3 4 5 6 
#
# 1 0.031460 -0.006693 -0.004617 0.001340 0.004960 -0.020691
# 2 -0.006693 0.018056 -0.004752 0.011525 -0.013948 -0.007362
# 3 -0.004617 -0.004752 0.010990 -0.004534 0.006887 0.004771
# 4 0.001340 0.011525 -0.004534 0.052915 -0.020648 -0.014312
# 5 0.004960 -0.013948 0.006887 -0.020648 0.103859 0.000895
# 6 -0.020691 -0.007362 0.004771 -0.014312 0.000895 0.061312
#
#
# Mechanical properties :
#
#
# Convention : Reuss Voigt Hill
#
# Bulk Modulus (GPa) = 35.23347 57.88421 46.55884
# Shear Modulus (GPa) = 15.61637 23.53388 19.57512
#
# Velocity S-wave (km/s) = 3.08014 3.78118 3.44852
# Velocity P-wave (km/s) = 5.83565 7.36403 6.64393
#
# Compressibility (1/GPa) = 0.02838210
#
# Stress axis : x y z
#
# Youngs Moduli (GPa) = 31.78647 55.38270 90.99279
#
# Poissons Ratio (x) = 0.37066 0.42011
# Poissons Ratio (y) = 0.21274 0.43243
# Poissons Ratio (z) = 0.14676 0.26320
#
# Static dielectric constant tensor:
#      x y z
#    x 1.557240 0.024330 0.000130 
#    y 0.024330 1.600020 0.009460 
#    z 0.000130 0.009460 1.593950 
# 
# From -- ./inp_files/62054.got.cif
#   From: 2010.05.17/outbox.cif.g08.bks.cpg/sg2_32_cif.got.tgz:62054.got - 2010.06.03 11:33:40.
