data_PCOD9044444
_publ_section_title
;
Structure prediction by ZEFSAII (Michael W. Deem and Ramdas Pophale) SiO2 
 PCOD9044444
Probable space group: P -1
;
_chemical_formula_sum "Si O2"
_cell_formula_units_Z 14
_cell_length_a 9.054556
_cell_length_b 14.137322
_cell_length_c 6.861706
_cell_angle_alpha 49.694375
_cell_angle_beta 54.481028
_cell_angle_gamma 61.131179
_cell_volume 537.030844
_symmetry_space_group_name_H-M "P -1"
_symmetry_group_IT_number 2
_symmetry_cell_setting 'triclinic'
loop_
_space_group_symop_operation_xyz
x,y,z
-x,-y,-z
loop_
_atom_site_type_symbol
_atom_site_label
_atom_site_fract_x
_atom_site_fract_y
_atom_site_fract_z
Si Si1 0.948944 0.343435 0.335613
Si Si2 0.036910 0.384701 0.781866
Si Si3 0.782190 0.101378 0.694214
Si Si4 0.088352 0.870207 0.849329
Si Si5 0.648316 0.617186 0.898008
Si Si6 0.644612 0.522389 0.581964
Si Si7 0.416460 0.887098 0.809122
O O1 0.906061 0.204531 0.526437
O O2 0.792396 0.415516 0.502442
O O3 0.154311 0.346457 0.250782
O O4 0.938812 0.401929 0.045623
O O5 0.254266 0.360078 0.708739
O O6 0.968202 0.265262 0.903997
O O7 0.649546 0.550958 0.773859
O O8 0.765978 0.128833 0.440496
O O9 0.596216 0.115091 0.943419
O O10 0.905128 0.965008 0.808343
O O11 0.199974 0.909433 0.891550
O O12 0.549925 0.523755 0.233401
O O13 0.510638 0.751151 0.837995
O O14 0.000000 0.500000 0.500000
O O15 0.500000 0.000000 0.500000
#
# Coordination Sequence:
#
# PCOD9044444 Si02
#       7
#     2   2   2   2   2   2   2
#     4  11  23  46  75 103 145 196 242 297 360 434
#     4  11  24  43  75 101 141 195 244 297 360 424
#     4  10  23  46  75 105 137 194 241 290 368 432
#     4  10  24  46  74 102 143 192 239 297 363 425
#     4  11  25  43  69 109 146 190 241 296 364 429
#     4  11  24  44  69 102 147 190 242 295 353 432
#     4  12  25  42  71 109 145 183 238 305 359 432
#
# _framework density 26.069267
#
# number of rings (size 3 to 8) (size 9 to 14) (size 15 to 20)
#    0.000    1.143    1.429    3.857    4.000    2.286 
#    2.571    1.429    0.000    0.000    0.000    0.000 
#    0.000    0.000    0.000    0.000    0.000    0.000 
#
# Total GULP energy -78171.526319 kJ/mol
# GULP energy per Si atom -5583.680451 kJ/mol
# Density = 2.600993 g / cm^3
# Si number density = 26.069267 Si / 1000 Ang^3
#
#
#
# Elastic Constant Matrix: (Units=GPa)
#
#
# Indices 1 2 3 4 5 6 
#
# 1 65.0147 28.4203 29.7231 -3.4128 -0.2772 -1.3102
# 2 28.4203 97.3937 76.2548 17.5438 12.6924 2.1197
# 3 29.7231 76.2548 190.8931 8.2258 4.7154 2.1607
# 4 -3.4128 17.5438 8.2258 54.6632 -5.1704 -4.3379
# 5 -0.2772 12.6924 4.7154 -5.1704 38.0594 2.8666
# 6 -1.3102 2.1197 2.1607 -4.3379 2.8666 34.7536
#
#
#
# Elastic Compliance Matrix: (Units=1/GPa)
#
#
# Indices 1 2 3 4 5 6 
#
# 1 0.018479 -0.005737 -0.000812 0.003460 0.002519 0.001321
# 2 -0.005737 0.018696 -0.006143 -0.006123 -0.006255 -0.001223
# 3 -0.000812 -0.006143 0.007753 0.000858 0.001208 -0.000131
# 4 0.003460 -0.006123 0.000858 0.020995 0.004610 0.002691
# 5 0.002519 -0.006255 0.001208 0.004610 0.028962 -0.001412
# 6 0.001321 -0.001223 -0.000131 0.002691 -0.001412 0.029359
#
#
# Mechanical properties :
#
#
# Convention : Reuss Voigt Hill
#
# Bulk Modulus (GPa) = 51.16378 69.12199 60.14288
# Shear Modulus (GPa) = 32.02176 40.08880 36.05528
#
# Velocity S-wave (km/s) = 3.50856 3.92571 3.72298
# Velocity P-wave (km/s) = 6.00683 6.86444 6.44991
#
# Compressibility (1/GPa) = 0.01954508
#
# Stress axis : x y z
#
# Youngs Moduli (GPa) = 54.11496 53.48716 128.97475
#
# Poissons Ratio (x) = 0.30686 0.10471
# Poissons Ratio (y) = 0.31046 0.79228
# Poissons Ratio (z) = 0.04393 0.32857
#
# Static dielectric constant tensor:
#      x y z
#    x 2.258940 0.001920 0.033190 
#    y 0.001920 2.086010 0.069500 
#    z 0.033190 0.069500 2.097970 
# 
# From -- ./inp_files/214061.got.cif
#   From: 2010.05.17/outbox.cif.g08.bks.cpg/sg2_108_cif.got.tgz:214061.got - 2010.06.03 11:33:40.
