data_PCOD9044326
_publ_section_title
;
Structure prediction by ZEFSAII (Michael W. Deem and Ramdas Pophale) SiO2 
 PCOD9044326
Probable space group: P -1
;
_chemical_formula_sum "Si O2"
_cell_formula_units_Z 16
_cell_length_a 5.058601
_cell_length_b 11.766465
_cell_length_c 11.340812
_cell_angle_alpha 103.483060
_cell_angle_beta 68.374176
_cell_angle_gamma 97.818550
_cell_volume 609.278317
_symmetry_space_group_name_H-M "P -1"
_symmetry_group_IT_number 2
_symmetry_cell_setting 'triclinic'
loop_
_space_group_symop_operation_xyz
x,y,z
-x,-y,-z
loop_
_atom_site_type_symbol
_atom_site_label
_atom_site_fract_x
_atom_site_fract_y
_atom_site_fract_z
Si Si1 0.506962 0.139139 0.505931
Si Si2 0.513699 0.028457 0.866110
Si Si3 0.968125 0.106082 0.232076
Si Si4 0.749035 0.291214 0.916292
Si Si5 0.864882 0.679059 0.914197
Si Si6 0.321291 0.664508 0.312522
Si Si7 0.217404 0.339992 0.482233
Si Si8 0.644900 0.472769 0.291902
O O1 0.769038 0.156949 0.376180
O O2 0.538781 0.209946 0.640866
O O3 0.265196 0.210656 0.495635
O O4 0.500000 0.000000 0.500000
O O5 0.611625 0.162607 0.880674
O O6 0.229035 0.987132 0.833981
O O7 0.773713 0.954270 0.762026
O O8 0.500000 0.000000 0.000000
O O9 0.086763 0.205763 0.147288
O O10 0.847977 0.330867 0.780401
O O11 0.991778 0.294292 0.975064
O O12 0.470004 0.353085 0.025096
O O13 0.065835 0.585099 0.802111
O O14 0.526199 0.559877 0.236627
O O15 0.115999 0.638270 0.452735
O O16 0.403915 0.371297 0.343831
O O17 0.320299 0.436263 0.584642
#
# Coordination Sequence:
#
# PCOD9044326 Si02
#       8
#     2   2   2   2   2   2   2   2
#     4  11  26  44  70 108 144 182 235 302 361 428
#     4  12  23  43  67 100 146 186 233 285 358 429
#     4  12  24  43  71 104 139 187 242 294 352 426
#     4  12  28  44  71 103 147 191 238 294 359 436
#     4  12  25  45  71 106 140 186 249 294 350 427
#     4  11  27  46  71 101 144 196 232 297 372 422
#     4  10  23  46  73 100 140 185 242 293 371 421
#     4  10  24  46  71 103 137 186 245 306 350 425
#
# _framework density 26.260579
#
# number of rings (size 3 to 8) (size 9 to 14) (size 15 to 20)
#    0.000    0.750    3.750    2.250    8.750    2.500 
#    0.000    0.000    0.000    0.000    0.000    0.000 
#    0.000    0.000    0.000    0.000    0.000    0.000 
#
# Total GULP energy -89607.971853 kJ/mol
# GULP energy per Si atom -5600.498241 kJ/mol
# Density = 2.620081 g / cm^3
# Si number density = 26.260579 Si / 1000 Ang^3
#
#
#
# Elastic Constant Matrix: (Units=GPa)
#
#
# Indices 1 2 3 4 5 6 
#
# 1 75.6950 30.4261 16.4243 18.0788 -5.8931 3.2217
# 2 30.4261 149.9567 33.4229 16.7381 2.1937 -4.7462
# 3 16.4243 33.4229 101.1628 0.9984 -5.5514 -8.6021
# 4 18.0788 16.7381 0.9984 40.2922 -1.5752 -12.4808
# 5 -5.8931 2.1937 -5.5514 -1.5752 52.3430 14.2750
# 6 3.2217 -4.7462 -8.6021 -12.4808 14.2750 30.0248
#
#
#
# Elastic Compliance Matrix: (Units=1/GPa)
#
#
# Indices 1 2 3 4 5 6 
#
# 1 0.017619 -0.002288 -0.002543 -0.009457 0.003918 -0.008775
# 2 -0.002288 0.007893 -0.002232 -0.002092 -0.001015 0.000467
# 3 -0.002543 -0.002232 0.011385 0.003198 -0.000137 0.004576
# 4 -0.009457 -0.002092 0.003198 0.035407 -0.004622 0.018516
# 5 0.003918 -0.001015 -0.000137 -0.004622 0.023127 -0.013537
# 6 -0.008775 0.000467 0.004576 0.018516 -0.013537 0.049765
#
#
# Mechanical properties :
#
#
# Convention : Reuss Voigt Hill
#
# Bulk Modulus (GPa) = 43.90992 54.15123 49.03058
# Shear Modulus (GPa) = 29.95599 40.96810 35.46205
#
# Velocity S-wave (km/s) = 3.38112 3.95405 3.67875
# Velocity P-wave (km/s) = 5.65683 6.44294 6.06264
#
# Compressibility (1/GPa) = 0.02277389
#
# Stress axis : x y z
#
# Youngs Moduli (GPa) = 56.75561 126.68846 87.83260
#
# Poissons Ratio (x) = 0.28983 0.22332
# Poissons Ratio (y) = 0.12984 0.19603
# Poissons Ratio (z) = 0.14430 0.28275
#
# Static dielectric constant tensor:
#      x y z
#    x 2.102880 0.032900 -0.013710 
#    y 0.032900 2.108380 -0.005650 
#    z -0.013710 -0.005650 2.071860 
# 
# From -- ./inp_files/81659.got.cif
#   From: 2010.05.17/outbox.cif.g08.bks.cpg/sg2_41_cif.got.tgz:81659.got - 2010.06.03 11:33:40.
