data_PCOD9044352
_publ_section_title
;
Structure prediction by ZEFSAII (Michael W. Deem and Ramdas Pophale) SiO2 
 PCOD9044352
Probable space group: P -1
;
_chemical_formula_sum "Si O2"
_cell_formula_units_Z 10
_cell_length_a 13.691070
_cell_length_b 6.919007
_cell_length_c 8.797566
_cell_angle_alpha 54.469817
_cell_angle_beta 32.913186
_cell_angle_gamma 60.826620
_cell_volume 368.519147
_symmetry_space_group_name_H-M "P -1"
_symmetry_group_IT_number 2
_symmetry_cell_setting 'triclinic'
loop_
_space_group_symop_operation_xyz
x,y,z
-x,-y,-z
loop_
_atom_site_type_symbol
_atom_site_label
_atom_site_fract_x
_atom_site_fract_y
_atom_site_fract_z
Si Si1 0.342514 0.217179 0.272605
Si Si2 0.658802 0.918990 0.117203
Si Si3 0.845199 0.445846 0.105212
Si Si4 0.955764 0.239858 0.743660
Si Si5 0.565712 0.557186 0.639945
O O1 0.325497 0.346263 0.400873
O O2 0.149075 0.108739 0.539452
O O3 0.521604 0.058279 0.126423
O O4 0.397868 0.423336 0.989106
O O5 0.322921 0.613562 0.538670
O O6 0.538786 0.784089 0.463832
O O7 0.800282 0.101831 0.921604
O O8 0.781221 0.699698 0.001681
O O9 0.899276 0.275933 0.976364
O O10 0.000000 0.500000 0.000000
O O11 0.000000 0.500000 0.500000
#
# Coordination Sequence:
#
# PCOD9044352 Si02
#       5
#     2   2   2   2   2
#     4  11  21  45  77 102 145 191 238 305 357 423
#     4  10  25  46  75 101 145 197 236 291 373 431
#     4  10  23  46  73 104 149 190 235 305 363 426
#     4  12  25  46  77 109 140 194 248 293 363 440
#     4   9  21  42  73  97 144 191 227 297 366 412
#
# _framework density 27.135632999999999
#
# number of rings (size 3 to 8) (size 9 to 14) (size 15 to 20)
#    1.200    0.400    2.000    3.000    0.000    4.000 
#    0.000    9.000    4.400    1.200    0.000    0.000 
#    0.000    0.000    0.000    0.000    0.000    0.000 
#
# Total GULP energy -56029.564324 kJ/mol
# GULP energy per Si atom -5602.956432 kJ/mol
# Density = 2.707387 g / cm^3
# Si number density = 27.135633 Si / 1000 Ang^3
#
#
#
# Elastic Constant Matrix: (Units=GPa)
#
#
# Indices 1 2 3 4 5 6 
#
# 1 145.5508 37.4002 57.2835 -11.5738 -27.3001 -1.3461
# 2 37.4002 109.8901 26.8991 1.4872 -24.3799 -20.6139
# 3 57.2835 26.8991 132.6610 -6.2905 -13.5889 -14.3547
# 4 -11.5738 1.4872 -6.2905 42.3861 -8.6751 -1.9797
# 5 -27.3001 -24.3799 -13.5889 -8.6751 58.8269 3.6676
# 6 -1.3461 -20.6139 -14.3547 -1.9797 3.6676 43.6300
#
#
#
# Elastic Compliance Matrix: (Units=1/GPa)
#
#
# Indices 1 2 3 4 5 6 
#
# 1 0.009594 -0.002092 -0.003463 0.002766 0.003317 -0.001985
# 2 -0.002092 0.011636 -0.000580 -0.000141 0.003388 0.004951
# 3 -0.003463 -0.000580 0.009509 0.000671 0.000276 0.002755
# 4 0.002766 -0.000141 0.000671 0.025539 0.005086 0.000971
# 5 0.003317 0.003388 0.000276 0.005086 0.020739 0.000282
# 6 -0.001985 0.004951 0.002755 0.000971 0.000282 0.026125
#
#
# Mechanical properties :
#
#
# Convention : Reuss Voigt Hill
#
# Bulk Modulus (GPa) = 54.13853 70.14084 62.13968
# Shear Modulus (GPa) = 41.12921 46.73655 43.93288
#
# Velocity S-wave (km/s) = 3.89741 4.15460 4.02806
# Velocity P-wave (km/s) = 6.34409 6.99419 6.67705
#
# Compressibility (1/GPa) = 0.01847113
#
# Stress axis : x y z
#
# Youngs Moduli (GPa) = 104.22683 85.93817 105.16277
#
# Poissons Ratio (x) = 0.17975 0.36414
# Poissons Ratio (y) = 0.21800 0.06101
# Poissons Ratio (z) = 0.36090 0.04986
#
# Static dielectric constant tensor:
#      x y z
#    x 2.135450 -0.026290 -0.010660 
#    y -0.026290 2.155040 0.013860 
#    z -0.010660 0.013860 2.054740 
# 
# From -- ./inp_files/233393.got.cif
#   From: 2010.05.17/outbox.cif.g08.bks.cpg/sg2_117_cif.got.tgz:233393.got - 2010.06.03 11:33:40.
