data_PCOD9044363
_publ_section_title
;
Structure prediction by ZEFSAII (Michael W. Deem and Ramdas Pophale) SiO2 
 PCOD9044363
Probable space group: P -1
;
_chemical_formula_sum "Si O2"
_cell_formula_units_Z 10
_cell_length_a 12.124465
_cell_length_b 10.002429
_cell_length_c 6.931562
_cell_angle_alpha 131.678092
_cell_angle_beta 134.722675
_cell_angle_gamma 37.125199
_cell_volume 349.753474
_symmetry_space_group_name_H-M "P -1"
_symmetry_group_IT_number 2
_symmetry_cell_setting 'triclinic'
loop_
_space_group_symop_operation_xyz
x,y,z
-x,-y,-z
loop_
_atom_site_type_symbol
_atom_site_label
_atom_site_fract_x
_atom_site_fract_y
_atom_site_fract_z
Si Si1 0.726761 0.569331 0.185750
Si Si2 0.591181 0.025260 0.438624
Si Si3 0.862190 0.122309 0.733138
Si Si4 0.183574 0.332733 0.199344
Si Si5 0.724100 0.158047 0.174059
O O1 0.828535 0.565354 0.505995
O O2 0.501453 0.342987 0.998006
O O3 0.690897 0.781789 0.232075
O O4 0.849279 0.331244 0.000083
O O5 0.752195 0.063236 0.682750
O O6 0.399946 0.247126 0.316990
O O7 0.500000 0.000000 0.500000
O O8 0.744135 0.201871 0.462468
O O9 0.916345 0.105056 0.257325
O O10 0.000000 0.500000 0.000000
O O11 0.220454 0.092411 0.005730
#
# Coordination Sequence:
#
# PCOD9044363 Si02
#       5
#     2   2   2   2   2
#     4  10  23  49  77 107 149 199 249 303 373 444
#     4   9  22  46  75 108 148 193 248 309 370 440
#     4  11  24  45  80 112 148 195 245 308 375 442
#     4  10  23  46  73 106 150 197 250 307 368 441
#     4  10  24  46  74 116 154 189 248 309 371 447
#
# _framework density 28.591567000000001
#
# number of rings (size 3 to 8) (size 9 to 14) (size 15 to 20)
#    0.000    2.000    0.000    2.400    0.000   13.600 
#    0.000   38.000    0.000    3.600    0.000    0.000 
#    0.000    0.000    0.000    0.000    0.000    0.000 
#
# Total GULP energy -55998.684923 kJ/mol
# GULP energy per Si atom -5599.868492 kJ/mol
# Density = 2.852649 g / cm^3
# Si number density = 28.591567 Si / 1000 Ang^3
#
#
#
# Elastic Constant Matrix: (Units=GPa)
#
#
# Indices 1 2 3 4 5 6 
#
# 1 123.0315 14.6690 27.4381 -15.8321 5.9368 -29.8601
# 2 14.6690 98.2233 54.3028 15.9595 -11.2474 -18.1064
# 3 27.4381 54.3028 262.4585 2.2351 8.0729 -21.5133
# 4 -15.8321 15.9595 2.2351 62.7076 -18.7604 17.6653
# 5 5.9368 -11.2474 8.0729 -18.7604 37.3484 -3.4928
# 6 -29.8601 -18.1064 -21.5133 17.6653 -3.4928 44.0404
#
#
#
# Elastic Compliance Matrix: (Units=1/GPa)
#
#
# Indices 1 2 3 4 5 6 
#
# 1 0.009842 -0.000296 -0.000462 0.000695 -0.000644 0.005996
# 2 -0.000296 0.013745 -0.002357 -0.004329 0.003109 0.006282
# 3 -0.000462 -0.002357 0.004482 -0.000470 -0.001752 0.000957
# 4 0.000695 -0.004329 -0.000470 0.022800 0.009210 -0.009953
# 5 -0.000644 0.003109 -0.001752 0.009210 0.032714 -0.001114
# 6 0.005996 0.006282 0.000957 -0.009953 -0.001114 0.033726
#
#
# Mechanical properties :
#
#
# Convention : Reuss Voigt Hill
#
# Bulk Modulus (GPa) = 45.78690 75.17034 60.47862
# Shear Modulus (GPa) = 38.22045 54.63949 46.42997
#
# Velocity S-wave (km/s) = 3.66016 4.37628 4.03414
# Velocity P-wave (km/s) = 5.82334 7.20305 6.54963
#
# Compressibility (1/GPa) = 0.02184031
#
# Stress axis : x y z
#
# Youngs Moduli (GPa) = 101.60463 72.75151 223.09348
#
# Poissons Ratio (x) = 0.02150 0.10316
# Poissons Ratio (y) = 0.03003 0.52580
# Poissons Ratio (z) = 0.04698 0.17146
#
# Static dielectric constant tensor:
#      x y z
#    x 2.358510 0.000300 -0.045790 
#    y 0.000300 2.221790 -0.045530 
#    z -0.045790 -0.045530 2.333840 
# 
# From -- ./inp_files/87861.got.cif
#   From: 2010.05.17/outbox.cif.g08.bks.cpg/sg2_44_cif.got.tgz:87861.got - 2010.06.03 11:33:40.
