data_PCOD9044938
_publ_section_title
;
Structure prediction by ZEFSAII (Michael W. Deem and Ramdas Pophale) SiO2 
 PCOD9044938
Probable space group: P -1
;
_chemical_formula_sum "Si O2"
_cell_formula_units_Z 14
_cell_length_a 5.012826
_cell_length_b 12.976885
_cell_length_c 11.020617
_cell_angle_alpha 124.015698
_cell_angle_beta 87.040786
_cell_angle_gamma 71.973918
_cell_volume 541.604572
_symmetry_space_group_name_H-M "P -1"
_symmetry_group_IT_number 2
_symmetry_cell_setting 'triclinic'
loop_
_space_group_symop_operation_xyz
x,y,z
-x,-y,-z
loop_
_atom_site_type_symbol
_atom_site_label
_atom_site_fract_x
_atom_site_fract_y
_atom_site_fract_z
Si Si1 0.304422 0.403608 0.233860
Si Si2 0.762125 0.333534 0.464962
Si Si3 0.135236 0.169305 0.144711
Si Si4 0.375814 0.199595 0.491638
Si Si5 0.216682 0.558071 0.914451
Si Si6 0.677951 0.724442 0.185474
Si Si7 0.564055 0.949604 0.163590
O O1 0.273846 0.512767 0.411707
O O2 0.321789 0.261351 0.190813
O O3 0.561697 0.400490 0.138273
O O4 0.016580 0.453346 0.186108
O O5 0.496637 0.307205 0.509442
O O6 0.847543 0.270538 0.287378
O O7 0.048303 0.244771 0.479678
O O8 0.303958 0.039434 0.139092
O O9 0.151057 0.115714 0.972557
O O10 0.577835 0.055545 0.332144
O O11 0.629056 0.800085 0.364024
O O12 0.375006 0.410622 0.876216
O O13 0.011478 0.662955 0.087670
O O14 0.509219 0.831900 0.157036
#
# Coordination Sequence:
#
# PCOD9044938 Si02
#       7
#     2   2   2   2   2   2   2
#     4  12  22  48  69 107 138 180 231 292 345 407
#     4  11  23  45  72 104 139 180 230 291 345 405
#     4  10  24  45  73 102 143 185 237 276 347 420
#     4  11  24  45  71 104 140 181 231 284 349 413
#     4  11  26  41  76 102 141 178 231 291 352 403
#     4  11  22  47  70 106 140 180 233 291 346 414
#     4  10  23  48  69 103 142 191 227 284 344 416
#
# _framework density 25.849119000000002
#
# number of rings (size 3 to 8) (size 9 to 14) (size 15 to 20)
#    0.000    1.143    4.286    0.857    0.000    6.286 
#    7.714    8.571    0.000    0.000    0.000    0.000 
#    0.000    0.000    0.000    0.000    0.000    0.000 
#
# Total GULP energy -78491.880021 kJ/mol
# GULP energy per Si atom -5606.562859 kJ/mol
# Density = 2.579029 g / cm^3
# Si number density = 25.849119 Si / 1000 Ang^3
#
#
#
# Elastic Constant Matrix: (Units=GPa)
#
#
# Indices 1 2 3 4 5 6 
#
# 1 97.1174 39.2028 28.6848 -8.9161 -3.0394 18.3150
# 2 39.2028 191.8990 53.5763 2.6462 -0.8116 -4.7756
# 3 28.6848 53.5763 227.9738 -19.3932 -9.6535 -4.6191
# 4 -8.9161 2.6462 -19.3932 52.4118 4.6101 -2.1171
# 5 -3.0394 -0.8116 -9.6535 4.6101 27.9011 -6.1608
# 6 18.3150 -4.7756 -4.6191 -2.1171 -6.1608 27.3186
#
#
#
# Elastic Compliance Matrix: (Units=1/GPa)
#
#
# Indices 1 2 3 4 5 6 
#
# 1 0.013797 -0.002765 -0.001206 0.001765 -0.001526 -0.010144
# 2 -0.002765 0.006176 -0.001132 -0.001115 0.000271 0.002717
# 3 -0.001206 -0.001132 0.005059 0.001650 0.001753 0.001989
# 4 0.001765 -0.001115 0.001650 0.020275 -0.002647 -0.000125
# 5 -0.001526 0.000271 0.001753 -0.002647 0.038921 0.009939
# 6 -0.010144 0.002717 0.001989 -0.000125 0.009939 0.046449
#
#
# Mechanical properties :
#
#
# Convention : Reuss Voigt Hill
#
# Bulk Modulus (GPa) = 67.45072 84.43535 75.94303
# Shear Modulus (GPa) = 34.28786 47.89471 41.09129
#
# Velocity S-wave (km/s) = 3.64601 4.30915 3.99138
# Velocity P-wave (km/s) = 6.62384 7.58248 7.11931
#
# Compressibility (1/GPa) = 0.01482564
#
# Stress axis : x y z
#
# Youngs Moduli (GPa) = 72.48209 161.91541 197.66218
#
# Poissons Ratio (x) = 0.44769 0.23842
# Poissons Ratio (y) = 0.20041 0.22373
# Poissons Ratio (z) = 0.08743 0.18327
#
# Static dielectric constant tensor:
#      x y z
#    x 2.026450 -0.058810 0.024180 
#    y -0.058810 1.984170 0.012090 
#    z 0.024180 0.012090 2.076170 
# 
# From -- ./inp_files/483006.got.cif
#   From: 2010.05.17/outbox.cif.g08.bks.cpg/sg2_242_cif.got.tgz:483006.got - 2010.06.03 11:33:40.
