data_PCOD9044298
_publ_section_title
;
Structure prediction by ZEFSAII (Michael W. Deem and Ramdas Pophale) SiO2 
 PCOD9044298
Probable space group: P -1
;
_chemical_formula_sum "Si O2"
_cell_formula_units_Z 16
_cell_length_a 9.500440
_cell_length_b 8.298581
_cell_length_c 14.208551
_cell_angle_alpha 76.870030
_cell_angle_beta 35.315399
_cell_angle_gamma 81.652316
_cell_volume 629.027125
_symmetry_space_group_name_H-M "P -1"
_symmetry_group_IT_number 2
_symmetry_cell_setting 'triclinic'
loop_
_space_group_symop_operation_xyz
x,y,z
-x,-y,-z
loop_
_atom_site_type_symbol
_atom_site_label
_atom_site_fract_x
_atom_site_fract_y
_atom_site_fract_z
Si Si1 0.191334 0.379474 0.958186
Si Si2 0.792549 0.163861 0.567520
Si Si3 0.568278 0.677713 0.488257
Si Si4 0.779444 0.950031 0.772115
Si Si5 0.435045 0.644315 0.086103
Si Si6 0.711901 0.883118 0.221260
Si Si7 0.904107 0.534831 0.445225
Si Si8 0.874282 0.119991 0.250441
O O1 0.445195 0.414205 0.871693
O O2 0.246442 0.237000 0.872628
O O3 0.000000 0.500000 0.000000
O O4 0.032035 0.294128 0.139538
O O5 0.564690 0.067661 0.652763
O O6 0.062483 0.129765 0.387171
O O7 0.788703 0.351386 0.507526
O O8 0.735773 0.118538 0.714889
O O9 0.500000 0.500000 0.500000
O O10 0.753339 0.762696 0.301910
O O11 0.379415 0.818270 0.585030
O O12 0.683808 0.647459 0.530341
O O13 0.972831 0.982911 0.746601
O O14 0.559430 0.822551 0.950806
O O15 0.141246 0.616535 0.252472
O O16 0.500000 0.500000 0.000000
O O17 0.852004 0.046214 0.166863
O O18 0.000000 0.500000 0.500000
#
# Coordination Sequence:
#
# PCOD9044298 Si02
#       8
#     2   2   2   2   2   2   2   2
#     4  11  27  48  74 106 151 194 249 318 373 446
#     4  11  23  43  73 107 153 190 249 310 371 443
#     4  12  25  45  76 105 151 194 251 313 366 445
#     4  10  23  46  72 109 151 194 243 313 371 446
#     4  11  25  48  73 111 150 197 254 307 381 447
#     4  12  25  46  71 111 148 194 252 305 382 449
#     4  12  27  45  72 111 148 193 255 305 374 445
#     4  11  25  47  75 108 148 198 251 304 382 448
#
# _framework density 25.436105999999999
#
# number of rings (size 3 to 8) (size 9 to 14) (size 15 to 20)
#    0.000    0.750    3.750    2.250    7.000    2.000 
#    2.250    1.875    0.000    0.000    0.000    0.000 
#    0.000    0.000    0.000    0.000    0.000    0.000 
#
# Total GULP energy -89076.315216 kJ/mol
# GULP energy per Si atom -5567.269701 kJ/mol
# Density = 2.537821 g / cm^3
# Si number density = 25.436106 Si / 1000 Ang^3
#
#
#
# Elastic Constant Matrix: (Units=GPa)
#
#
# Indices 1 2 3 4 5 6 
#
# 1 156.5569 31.6876 31.4438 1.8078 -0.0655 -20.3260
# 2 31.6876 82.7154 26.4730 -1.6975 -13.6143 -8.0896
# 3 31.4438 26.4730 98.8823 -16.8123 -0.3043 -7.5139
# 4 1.8078 -1.6975 -16.8123 35.7673 3.4709 4.7594
# 5 -0.0655 -13.6143 -0.3043 3.4709 33.4203 -0.2711
# 6 -20.3260 -8.0896 -7.5139 4.7594 -0.2711 49.9914
#
#
#
# Elastic Compliance Matrix: (Units=1/GPa)
#
#
# Indices 1 2 3 4 5 6 
#
# 1 0.007568 -0.002184 -0.001910 -0.001661 -0.000699 0.002591
# 2 -0.002184 0.015185 -0.003531 -0.001606 0.006326 0.001226
# 3 -0.001910 -0.003531 0.012693 0.006089 -0.001959 -0.000030
# 4 -0.001661 -0.001606 0.006089 0.031614 -0.003910 -0.003051
# 5 -0.000699 0.006326 -0.001959 -0.003910 0.032894 0.000996
# 6 0.002591 0.001226 -0.000030 -0.003051 0.000996 0.021547
#
#
# Mechanical properties :
#
#
# Convention : Reuss Voigt Hill
#
# Bulk Modulus (GPa) = 49.51447 57.48483 53.49965
# Shear Modulus (GPa) = 34.84776 40.40581 37.62679
#
# Velocity S-wave (km/s) = 3.70538 3.98995 3.85030
# Velocity P-wave (km/s) = 6.14939 6.62382 6.39101
#
# Compressibility (1/GPa) = 0.02019611
#
# Stress axis : x y z
#
# Youngs Moduli (GPa) = 132.12998 65.85639 78.78588
#
# Poissons Ratio (x) = 0.14382 0.15045
# Poissons Ratio (y) = 0.28855 0.27821
# Poissons Ratio (z) = 0.25232 0.23255
#
# Static dielectric constant tensor:
#      x y z
#    x 2.555460 0.403240 -0.590750 
#    y 0.403240 2.898290 -0.396810 
#    z -0.590750 -0.396810 2.834540 
# 
# From -- ./inp_files/494576.got.cif
#   From: 2010.05.17/outbox.cif.g08.bks.cpg/sg2_248_cif.got.tgz:494576.got - 2010.06.03 11:33:40.
