data_PCOD9044545
_publ_section_title
;
Structure prediction by ZEFSAII (Michael W. Deem and Ramdas Pophale) SiO2 
 PCOD9044545
Probable space group: P -1
;
_chemical_formula_sum "Si O2"
_cell_formula_units_Z 16
_cell_length_a 12.733096
_cell_length_b 13.582137
_cell_length_c 6.173734
_cell_angle_alpha 113.495102
_cell_angle_beta 105.379844
_cell_angle_gamma 42.108994
_cell_volume 655.774074
_symmetry_space_group_name_H-M "P -1"
_symmetry_group_IT_number 2
_symmetry_cell_setting 'triclinic'
loop_
_space_group_symop_operation_xyz
x,y,z
-x,-y,-z
loop_
_atom_site_type_symbol
_atom_site_label
_atom_site_fract_x
_atom_site_fract_y
_atom_site_fract_z
Si Si1 0.592083 0.252725 0.301148
Si Si2 0.925789 0.787715 0.939118
Si Si3 0.914833 0.661207 0.207403
Si Si4 0.462743 0.492007 0.733354
Si Si5 0.176364 0.546593 0.552718
Si Si6 0.599153 0.047839 0.843834
Si Si7 0.959435 0.992972 0.222423
Si Si8 0.357327 0.214967 0.493437
O O1 0.567091 0.311899 0.582317
O O2 0.504611 0.417084 0.289242
O O3 0.772664 0.135212 0.244269
O O4 0.549005 0.166321 0.109491
O O5 0.056269 0.623248 0.754650
O O6 0.788353 0.922920 0.820464
O O7 0.842755 0.783858 0.084418
O O8 0.009218 0.833650 0.110403
O O9 0.783175 0.723433 0.365282
O O10 0.057317 0.628608 0.360163
O O11 0.000000 0.500000 0.000000
O O12 0.286612 0.571703 0.664493
O O13 0.500000 0.500000 0.000000
O O14 0.283030 0.364950 0.450850
O O15 0.499361 0.149961 0.668531
O O16 0.582888 0.929878 0.737128
O O17 0.000000 0.000000 0.500000
O O18 0.000000 0.000000 0.000000
#
# Coordination Sequence:
#
# PCOD9044545 Si02
#       8
#     2   2   2   2   2   2   2   2
#     4  10  25  47  69 105 144 190 252 309 385 462
#     4  11  25  44  72 104 147 194 249 310 378 463
#     4  12  25  42  72 105 144 192 253 310 378 461
#     4  11  26  45  74 102 144 194 251 317 384 462
#     4  12  25  45  73 106 145 193 253 316 380 460
#     4  10  23  47  66 103 142 189 243 307 392 456
#     4  11  27  47  76 112 152 200 253 316 386 461
#     4  11  23  45  73 100 149 193 246 318 384 462
#
# _framework density 24.398644999999998
#
# number of rings (size 3 to 8) (size 9 to 14) (size 15 to 20)
#    0.000    1.000    2.500    2.625    8.750    1.500 
#   11.250    0.000    0.000    0.000    0.000    0.000 
#    0.000    0.000    0.000    0.000    0.000    0.000 
#
# Total GULP energy -89201.049662 kJ/mol
# GULP energy per Si atom -5575.065604 kJ/mol
# Density = 2.434311 g / cm^3
# Si number density = 24.398645 Si / 1000 Ang^3
#
#
#
# Elastic Constant Matrix: (Units=GPa)
#
#
# Indices 1 2 3 4 5 6 
#
# 1 91.3264 26.1866 56.5904 -4.4812 -0.7046 -1.3507
# 2 26.1866 103.0176 50.8298 13.9290 4.8152 3.1581
# 3 56.5904 50.8298 183.5519 26.6984 26.9284 -1.1695
# 4 -4.4812 13.9290 26.6984 49.6487 -2.4179 9.4210
# 5 -0.7046 4.8152 26.9284 -2.4179 37.6133 3.6484
# 6 -1.3507 3.1581 -1.1695 9.4210 3.6484 45.5251
#
#
#
# Elastic Compliance Matrix: (Units=1/GPa)
#
#
# Indices 1 2 3 4 5 6 
#
# 1 0.015379 -0.002027 -0.005738 0.005500 0.005115 -0.001099
# 2 -0.002027 0.011659 -0.002302 -0.002121 0.000029 -0.000491
# 3 -0.005738 -0.002302 0.009814 -0.005901 -0.007418 0.002057
# 4 0.005500 -0.002121 -0.005901 0.025826 0.006816 -0.005732
# 5 0.005115 0.000029 -0.007418 0.006816 0.032823 -0.004082
# 6 -0.001099 -0.000491 0.002057 -0.005732 -0.004082 0.023534
#
#
# Mechanical properties :
#
#
# Convention : Reuss Voigt Hill
#
# Bulk Modulus (GPa) = 59.81665 71.67884 65.74775
# Shear Modulus (GPa) = 34.54395 42.84335 38.69365
#
# Velocity S-wave (km/s) = 3.76681 4.19498 3.98665
# Velocity P-wave (km/s) = 6.59455 7.27364 6.94240
#
# Compressibility (1/GPa) = 0.01671775
#
# Stress axis : x y z
#
# Youngs Moduli (GPa) = 65.02164 85.77059 101.89180
#
# Poissons Ratio (x) = 0.17390 0.58462
# Poissons Ratio (y) = 0.13183 0.23460
# Poissons Ratio (z) = 0.37307 0.19748
#
# Static dielectric constant tensor:
#      x y z
#    x 1.995950 0.028230 -0.064600 
#    y 0.028230 1.892460 -0.015770 
#    z -0.064600 -0.015770 2.174540 
# 
# From -- ./inp_files/98602.got.cif
#   From: 2010.05.17/outbox.cif.g08.bks.cpg/sg2_50_cif.got.tgz:98602.got - 2010.06.03 11:33:40.
