data_PCOD9044192
_publ_section_title
;
Structure prediction by ZEFSAII (Michael W. Deem and Ramdas Pophale) SiO2 
 PCOD9044192
Probable space group: P -1
;
_chemical_formula_sum "Si O2"
_cell_formula_units_Z 16
_cell_length_a 6.904224
_cell_length_b 15.966820
_cell_length_c 17.683635
_cell_angle_alpha 149.341314
_cell_angle_beta 48.238068
_cell_angle_gamma 129.070289
_cell_volume 733.009868
_symmetry_space_group_name_H-M "P -1"
_symmetry_group_IT_number 2
_symmetry_cell_setting 'triclinic'
loop_
_space_group_symop_operation_xyz
x,y,z
-x,-y,-z
loop_
_atom_site_type_symbol
_atom_site_label
_atom_site_fract_x
_atom_site_fract_y
_atom_site_fract_z
Si Si1 0.226949 0.594006 0.961256
Si Si2 0.279594 0.946291 0.298834
Si Si3 0.751071 0.426717 0.701390
Si Si4 0.369196 0.151471 0.179733
Si Si5 0.800478 0.220303 0.375446
Si Si6 0.755886 0.108881 0.555696
Si Si7 0.778614 0.440171 0.235372
Si Si8 0.491914 0.652621 0.563460
O O1 0.481781 0.500755 0.825908
O O2 0.133622 0.579280 0.887366
O O3 0.292689 0.784393 0.118792
O O4 0.000000 0.500000 0.000000
O O5 0.260249 0.889508 0.347853
O O6 0.540950 0.082517 0.332812
O O7 0.017473 0.025082 0.407041
O O8 0.800477 0.330710 0.536801
O O9 0.754418 0.289701 0.660144
O O10 0.990041 0.570081 0.772934
O O11 0.523451 0.306046 0.213156
O O12 0.420719 0.189516 0.284554
O O13 0.060402 0.137671 0.239030
O O14 0.500000 0.000000 0.000000
O O15 0.779773 0.334728 0.396336
O O16 0.500000 0.000000 0.500000
O O17 0.681430 0.614435 0.416525
O O18 0.500000 0.500000 0.500000
#
# Coordination Sequence:
#
# PCOD9044192 Si02
#       8
#     2   2   2   2   2   2   2   2
#     4  12  28  47  71 110 150 191 246 315 365 433
#     4  11  27  43  72 110 148 191 250 308 368 440
#     4  12  25  44  78 105 143 199 249 299 369 447
#     4  11  28  47  71 108 148 192 245 309 372 439
#     4  12  25  45  77 107 146 196 248 304 377 447
#     4  11  23  45  73 104 148 197 247 299 375 443
#     4  11  25  47  72 101 148 193 245 297 365 442
#     4  10  23  46  71 102 139 188 247 296 360 440
#
# _framework density 21.827812000000002
#
# number of rings (size 3 to 8) (size 9 to 14) (size 15 to 20)
#    0.000    0.750    3.750    2.250    5.250    7.500 
#    0.000    0.000    0.000    0.000    0.000    0.000 
#    0.000    0.000    0.000    0.000    0.000    0.000 
#
# Total GULP energy -89485.001151 kJ/mol
# GULP energy per Si atom -5592.812572 kJ/mol
# Density = 2.177813 g / cm^3
# Si number density = 21.827812 Si / 1000 Ang^3
#
#
#
# Elastic Constant Matrix: (Units=GPa)
#
#
# Indices 1 2 3 4 5 6 
#
# 1 151.6246 39.8184 74.6799 -6.4071 -2.7329 15.1192
# 2 39.8184 86.7938 44.8419 -3.7213 3.9662 14.9834
# 3 74.6799 44.8419 185.5469 -6.9807 4.0602 11.5657
# 4 -6.4071 -3.7213 -6.9807 29.8169 0.4019 -2.2520
# 5 -2.7329 3.9662 4.0602 0.4019 46.5524 -8.6387
# 6 15.1192 14.9834 11.5657 -2.2520 -8.6387 46.6827
#
#
#
# Elastic Compliance Matrix: (Units=1/GPa)
#
#
# Indices 1 2 3 4 5 6 
#
# 1 0.008799 -0.002335 -0.002887 0.000822 0.000736 -0.001209
# 2 -0.002335 0.014508 -0.002278 0.000525 -0.001857 -0.003654
# 3 -0.002887 -0.002278 0.007157 0.000765 -0.000641 -0.000189
# 4 0.000822 0.000525 0.000765 0.034036 -0.000174 0.000985
# 5 0.000736 -0.001857 -0.000641 -0.000174 0.022611 0.004692
# 6 -0.001209 -0.003654 -0.000189 0.000985 0.004692 0.023948
#
#
# Mechanical properties :
#
#
# Convention : Reuss Voigt Hill
#
# Bulk Modulus (GPa) = 64.66895 82.51620 73.59258
# Shear Modulus (GPa) = 38.10592 42.25206 40.17899
#
# Velocity S-wave (km/s) = 4.18275 4.40443 4.29502
# Velocity P-wave (km/s) = 7.28137 7.98440 7.64098
#
# Compressibility (1/GPa) = 0.01546337
#
# Stress axis : x y z
#
# Youngs Moduli (GPa) = 113.65103 68.92765 139.73077
#
# Poissons Ratio (x) = 0.16093 0.40340
# Poissons Ratio (y) = 0.26534 0.31836
# Poissons Ratio (z) = 0.32811 0.15704
#
# Static dielectric constant tensor:
#      x y z
#    x 1.981540 0.940620 1.441470 
#    y 0.940620 7.458500 8.578040 
#    z 1.441470 8.578040 14.921440 
# 
# From -- ./inp_files/47967.got.cif
#   From: 2010.05.17/outbox.cif.g08.bks.cpg/sg2_24_cif.got.tgz:47967.got - 2010.06.03 11:33:40.
