data_PCOD9044071
_publ_section_title
;
Structure prediction by ZEFSAII (Michael W. Deem and Ramdas Pophale) SiO2 
 PCOD9044071
Probable space group: P -1
;
_chemical_formula_sum "Si O2"
_cell_formula_units_Z 12
_cell_length_a 17.142071
_cell_length_b 9.218747
_cell_length_c 5.666750
_cell_angle_alpha 53.999058
_cell_angle_beta 69.257630
_cell_angle_gamma 48.477747
_cell_volume 541.479103
_symmetry_space_group_name_H-M "P -1"
_symmetry_group_IT_number 2
_symmetry_cell_setting 'triclinic'
loop_
_space_group_symop_operation_xyz
x,y,z
-x,-y,-z
loop_
_atom_site_type_symbol
_atom_site_label
_atom_site_fract_x
_atom_site_fract_y
_atom_site_fract_z
Si Si1 0.059199 0.948134 0.736051
Si Si2 0.366473 0.090342 0.445970
Si Si3 0.282689 0.532216 0.950534
Si Si4 0.547360 0.696608 0.393429
Si Si5 0.615438 0.242750 0.876822
Si Si6 0.764620 0.031200 0.528060
O O1 0.159294 0.684830 0.889929
O O2 0.116291 0.070011 0.548097
O O3 0.000000 0.000000 0.500000
O O4 0.000000 0.000000 0.000000
O O5 0.518838 0.059991 0.651197
O O6 0.278524 0.105995 0.361887
O O7 0.322976 0.345145 0.286039
O O8 0.375902 0.931686 0.789485
O O9 0.350862 0.389805 0.785124
O O10 0.296576 0.729565 0.778132
O O11 0.572757 0.497008 0.729235
O O12 0.464105 0.724436 0.269839
O O13 0.728708 0.117504 0.750830
#
# Coordination Sequence:
#
# PCOD9044071 Si02
#       6
#     2   2   2   2   2   2
#     4  10  23  46  69  90 122 169 217 270 325 375
#     4  11  19  35  60  92 121 162 202 250 311 381
#     4   9  21  39  59  89 121 159 212 255 313 373
#     4   9  18  35  51  89 126 162 197 244 308 383
#     4   9  18  33  56  86 124 159 202 242 309 381
#     4   8  21  38  59  83 123 156 202 255 316 368
#
# _framework density 22.161518999999998
#
# number of rings (size 3 to 8) (size 9 to 14) (size 15 to 20)
#    1.000    1.667    0.000    2.000    2.333    0.667 
#    9.000    1.667    0.000    0.000    0.000    0.000 
#    0.000    0.000    0.000    0.000    0.000    0.000 
#
# Total GULP energy -66840.235601 kJ/mol
# GULP energy per Si atom -5570.019633 kJ/mol
# Density = 2.211108 g / cm^3
# Si number density = 22.161519 Si / 1000 Ang^3
#
#
#
# Elastic Constant Matrix: (Units=GPa)
#
#
# Indices 1 2 3 4 5 6 
#
# 1 106.0145 53.5659 35.6981 12.4117 -14.1695 -17.3773
# 2 53.5659 77.4347 31.5477 -7.6335 -6.0399 -9.8743
# 3 35.6981 31.5477 107.9634 -15.7870 -6.7053 -15.6738
# 4 12.4117 -7.6335 -15.7870 36.1063 -2.6931 -15.3604
# 5 -14.1695 -6.0399 -6.7053 -2.6931 33.3594 0.8387
# 6 -17.3773 -9.8743 -15.6738 -15.3604 0.8387 50.2256
#
#
#
# Elastic Compliance Matrix: (Units=1/GPa)
#
#
# Indices 1 2 3 4 5 6 
#
# 1 0.018522 -0.011973 -0.003985 -0.010543 0.004059 -0.000481
# 2 -0.011973 0.022886 -0.000856 0.009876 -0.000395 0.003117
# 3 -0.003985 -0.000856 0.013046 0.009266 0.001388 0.005335
# 4 -0.010543 0.009876 0.009266 0.043824 0.002345 0.014549
# 5 0.004059 -0.000395 0.001388 0.002345 0.032049 0.001942
# 6 -0.000481 0.003117 0.005335 0.014549 0.001942 0.026438
#
#
# Mechanical properties :
#
#
# Convention : Reuss Voigt Hill
#
# Bulk Modulus (GPa) = 48.02038 59.22625 53.62331
# Shear Modulus (GPa) = 25.33743 35.31165 30.32454
#
# Velocity S-wave (km/s) = 3.38495 3.99604 3.70312
# Velocity P-wave (km/s) = 6.08215 6.93354 6.52175
#
# Compressibility (1/GPa) = 0.02082449
#
# Stress axis : x y z
#
# Youngs Moduli (GPa) = 53.98877 43.69513 76.65218
#
# Poissons Ratio (x) = 0.52318 0.30546
# Poissons Ratio (y) = 0.64643 0.06564
# Poissons Ratio (z) = 0.21515 0.03742
#
# Static dielectric constant tensor:
#      x y z
#    x 1.835130 0.027200 0.032230 
#    y 0.027200 1.846190 0.067580 
#    z 0.032230 0.067580 1.910510 
# 
# From -- ./inp_files/87027.got.cif
#   From: 2010.05.17/outbox.cif.g08.bks.cpg/sg2_44_cif.got.tgz:87027.got - 2010.06.03 11:33:40.
