data_PCOD9044144
_publ_section_title
;
Structure prediction by ZEFSAII (Michael W. Deem and Ramdas Pophale) SiO2 
 PCOD9044144
Probable space group: P -1
;
_chemical_formula_sum "Si O2"
_cell_formula_units_Z 15
_cell_length_a 11.711131
_cell_length_b 9.177618
_cell_length_c 12.530127
_cell_angle_alpha 48.487490
_cell_angle_beta 55.372581
_cell_angle_gamma 38.816972
_cell_volume 628.269141
_symmetry_space_group_name_H-M "P -1"
_symmetry_group_IT_number 2
_symmetry_cell_setting 'triclinic'
loop_
_space_group_symop_operation_xyz
x,y,z
-x,-y,-z
loop_
_atom_site_type_symbol
_atom_site_label
_atom_site_fract_x
_atom_site_fract_y
_atom_site_fract_z
Si Si1 0.646800 0.386477 0.383679
Si Si2 0.655739 0.565016 0.684295
Si Si3 0.836121 0.819851 0.494607
Si Si4 0.741592 0.986860 0.233951
Si Si5 0.000000 0.500000 0.000000
Si Si6 0.395367 0.289398 0.949274
Si Si7 0.246234 0.923793 0.039064
Si Si8 0.209291 0.488544 0.586028
O O1 0.500000 0.500000 0.500000
O O2 0.592840 0.559895 0.224508
O O3 0.800635 0.379126 0.365355
O O4 0.722272 0.105729 0.457398
O O5 0.736534 0.703117 0.604293
O O6 0.450350 0.758237 0.744170
O O7 0.765688 0.277092 0.804481
O O8 0.664990 0.547324 0.559348
O O9 0.013471 0.651520 0.555220
O O10 0.865288 0.844037 0.342361
O O11 0.716403 0.793539 0.292371
O O12 0.812047 0.039782 0.070679
O O13 0.181392 0.428553 0.002543
O O14 0.867424 0.803760 0.971020
O O15 0.531415 0.236610 0.996918
O O16 0.500000 0.000000 0.000000
#
# Coordination Sequence:
#
# PCOD9044144 Si02
#       8
#     2   2   2   2   1   2   2   2
#     4  12  24  45  75 105 142 196 243 304 374 435
#     4  11  23  44  73  98 146 192 234 295 364 441
#     4  11  25  44  68 106 149 183 240 306 355 443
#     4  11  22  45  70 100 142 190 236 291 363 437
#     4  10  24  46  72 104 160 184 240 312 362 426
#     4  10  23  46  70 107 146 187 239 303 363 435
#     4  11  24  46  74 108 145 193 250 293 372 438
#     4  11  23  44  67 106 140 184 245 297 365 429
#
# _framework density 23.875119000000002
#
# number of rings (size 3 to 8) (size 9 to 14) (size 15 to 20)
#    0.000    1.067    0.000    8.800    1.867    0.000 
#   21.600    2.667    0.000    0.000    0.000    0.000 
#    0.000    0.000    0.000    0.000    0.000    0.000 
#
# Total GULP energy -83580.791454 kJ/mol
# GULP energy per Si atom -5572.052764 kJ/mol
# Density = 2.382078 g / cm^3
# Si number density = 23.875119 Si / 1000 Ang^3
#
#
#
# Elastic Constant Matrix: (Units=GPa)
#
#
# Indices 1 2 3 4 5 6 
#
# 1 115.3482 39.6480 34.9220 -4.2529 5.0307 1.4937
# 2 39.6480 134.2822 53.0982 -32.3448 -7.9071 6.1833
# 3 34.9220 53.0982 90.7021 -30.0270 17.1884 8.0517
# 4 -4.2529 -32.3448 -30.0270 23.3137 7.3789 -0.6453
# 5 5.0307 -7.9071 17.1884 7.3789 24.9572 0.0903
# 6 1.4937 6.1833 8.0517 -0.6453 0.0903 48.7850
#
#
#
# Elastic Compliance Matrix: (Units=1/GPa)
#
#
# Indices 1 2 3 4 5 6 
#
# 1 0.012229 -0.003455 -0.012183 -0.021769 0.011261 0.001765
# 2 -0.003455 0.012690 -0.001317 0.014858 0.001235 -0.001091
# 3 -0.012183 -0.001317 0.065182 0.102836 -0.073226 -0.008722
# 4 -0.021769 0.014858 0.102836 0.232886 -0.130531 -0.014867
# 5 0.011261 0.001235 -0.073226 -0.130531 0.127180 0.009622
# 6 0.001765 -0.001091 -0.008722 -0.014867 0.009622 0.021807
#
#
# Mechanical properties :
#
#
# Convention : Reuss Voigt Hill
#
# Bulk Modulus (GPa) = 17.79674 66.18545 41.99109
# Shear Modulus (GPa) = 9.53082 33.58880 21.55981
#
# Velocity S-wave (km/s) = 2.00015 3.75487 3.00830
# Velocity P-wave (km/s) = 3.57833 6.82499 5.44908
#
# Compressibility (1/GPa) = 0.05619008
#
# Stress axis : x y z
#
# Youngs Moduli (GPa) = 81.77407 78.80433 15.34173
#
# Poissons Ratio (x) = 0.27227 0.18691
# Poissons Ratio (y) = 0.28253 0.02020
# Poissons Ratio (z) = 0.99626 0.10378
#
# Static dielectric constant tensor:
#      x y z
#    x 2.066450 -0.038180 -0.050810 
#    y -0.038180 1.893010 0.048970 
#    z -0.050810 0.048970 1.918730 
# 
# From -- ./inp_files/418845.got.cif
#   From: 2010.05.17/outbox.cif.g08.bks.cpg/sg2_210_cif.got.tgz:418845.got - 2010.06.03 11:33:40.
