data_PCOD9044241
_publ_section_title
;
Structure prediction by ZEFSAII (Michael W. Deem and Ramdas Pophale) SiO2 
 PCOD9044241
Probable space group: P -1
;
_chemical_formula_sum "Si O2"
_cell_formula_units_Z 16
_cell_length_a 15.168028
_cell_length_b 9.046691
_cell_length_c 7.846991
_cell_angle_alpha 63.414962
_cell_angle_beta 108.001279
_cell_angle_gamma 69.209707
_cell_volume 746.043232
_symmetry_space_group_name_H-M "P -1"
_symmetry_group_IT_number 2
_symmetry_cell_setting 'triclinic'
loop_
_space_group_symop_operation_xyz
x,y,z
-x,-y,-z
loop_
_atom_site_type_symbol
_atom_site_label
_atom_site_fract_x
_atom_site_fract_y
_atom_site_fract_z
Si Si1 0.661063 0.514486 0.543707
Si Si2 0.876862 0.747583 0.981796
Si Si3 0.776431 0.880341 0.232935
Si Si4 0.515158 0.714147 0.896456
Si Si5 0.676477 0.164773 0.557269
Si Si6 0.143358 0.441677 0.254894
Si Si7 0.558914 0.045915 0.825329
Si Si8 0.640568 0.335280 0.962334
O O1 0.679834 0.355712 0.495637
O O2 0.773827 0.495324 0.676687
O O3 0.564819 0.748690 0.330192
O O4 0.622890 0.442817 0.717996
O O5 0.844629 0.777027 0.149265
O O6 0.011631 0.623688 0.106521
O O7 0.840540 0.632840 0.894130
O O8 0.805935 0.969137 0.738874
O O9 0.828438 0.735190 0.502287
O O10 0.750220 0.102375 0.138393
O O11 0.650214 0.940182 0.086634
O O12 0.404499 0.800134 0.665108
O O13 0.543458 0.876569 0.836009
O O14 0.466096 0.672034 0.053860
O O15 0.623477 0.501245 0.000318
O O16 0.620757 0.110132 0.701775
#
# Coordination Sequence:
#
# PCOD9044241 Si02
#       8
#     2   2   2   2   2   2   2   2
#     4  12  23  41  65  96 137 172 214 265 333 390
#     4  10  23  46  71  96 126 173 223 277 324 378
#     4  11  23  45  68  97 134 171 217 271 328 389
#     4  11  24  38  65  97 138 173 219 262 326 398
#     4  11  21  40  63  94 131 170 216 271 321 387
#     4  11  26  44  72  97 127 173 226 272 324 392
#     4  11  22  38  65  97 128 174 213 260 327 392
#     4  11  23  39  58  97 134 171 207 270 323 391
#
# _framework density 21.446480000000001
#
# number of rings (size 3 to 8) (size 9 to 14) (size 15 to 20)
#    0.000    1.000    3.750    4.125    3.500    4.500 
#    0.000    0.000    0.000    2.250    0.000    0.000 
#    0.000    0.000    0.000    0.000    0.000    0.000 
#
# Total GULP energy -89314.699233 kJ/mol
# GULP energy per Si atom -5582.168702 kJ/mol
# Density = 2.139767 g / cm^3
# Si number density = 21.446480 Si / 1000 Ang^3
#
#
#
# Elastic Constant Matrix: (Units=GPa)
#
#
# Indices 1 2 3 4 5 6 
#
# 1 64.2587 61.2485 51.1636 -10.1361 11.9319 4.3151
# 2 61.2485 157.5193 44.3225 -30.0654 13.1941 12.9060
# 3 51.1636 44.3225 107.3012 -11.4303 16.8411 -10.4647
# 4 -10.1361 -30.0654 -11.4303 41.3131 -4.6098 -2.8984
# 5 11.9319 13.1941 16.8411 -4.6098 42.3884 6.7194
# 6 4.3151 12.9060 -10.4647 -2.8984 6.7194 34.2637
#
#
#
# Elastic Compliance Matrix: (Units=1/GPa)
#
#
# Indices 1 2 3 4 5 6 
#
# 1 0.036429 -0.010363 -0.013695 -0.002861 -0.001124 -0.004889
# 2 -0.010363 0.011524 0.000549 0.005842 0.000127 -0.002399
# 3 -0.013695 0.000549 0.017239 0.001886 -0.004191 0.007764
# 4 -0.002861 0.005842 0.001886 0.028474 0.001190 0.000911
# 5 -0.001124 0.000127 -0.004191 0.001190 0.026663 -0.006315
# 6 -0.004889 -0.002399 0.007764 0.000911 -0.006315 0.034391
#
#
# Mechanical properties :
#
#
# Convention : Reuss Voigt Hill
#
# Bulk Modulus (GPa) = 55.01963 71.39427 63.20695
# Shear Modulus (GPa) = 24.06219 35.08268 29.57243
#
# Velocity S-wave (km/s) = 3.35321 4.04892 3.71738
# Velocity P-wave (km/s) = 6.37982 7.43102 6.92540
#
# Compressibility (1/GPa) = 0.01817533
#
# Stress axis : x y z
#
# Youngs Moduli (GPa) = 27.45059 86.77434 58.00965
#
# Poissons Ratio (x) = 0.89922 0.79443
# Poissons Ratio (y) = 0.28446 -0.03187
# Poissons Ratio (z) = 0.37593 -0.04767
#
# Static dielectric constant tensor:
#      x y z
#    x 1.756600 -0.052310 -0.031790 
#    y -0.052310 1.922750 0.026700 
#    z -0.031790 0.026700 1.814700 
# 
# From -- ./inp_files/297528.got.cif
#   From: 2010.05.17/outbox.cif.g08.bks.cpg/sg2_149_cif.got.tgz:297528.got - 2010.06.03 11:33:40.
