data_PCOD9044923
_publ_section_title
;
Structure prediction by ZEFSAII (Michael W. Deem and Ramdas Pophale) SiO2 
 PCOD9044923
Probable space group: P -1
;
_chemical_formula_sum "Si O2"
_cell_formula_units_Z 14
_cell_length_a 5.138091
_cell_length_b 7.006167
_cell_length_c 22.217434
_cell_angle_alpha 128.492860
_cell_angle_beta 90.478721
_cell_angle_gamma 107.947563
_cell_volume 573.605249
_symmetry_space_group_name_H-M "P -1"
_symmetry_group_IT_number 2
_symmetry_cell_setting 'triclinic'
loop_
_space_group_symop_operation_xyz
x,y,z
-x,-y,-z
loop_
_atom_site_type_symbol
_atom_site_label
_atom_site_fract_x
_atom_site_fract_y
_atom_site_fract_z
Si Si1 0.777405 0.089112 0.687144
Si Si2 0.868709 0.761309 0.724929
Si Si3 0.318453 0.624705 0.643697
Si Si4 0.616743 0.146986 0.939634
Si Si5 0.048022 0.699856 0.834568
Si Si6 0.216093 0.376913 0.050232
Si Si7 0.292666 0.113169 0.487666
O O1 0.927750 0.992582 0.721553
O O2 0.452741 0.923223 0.675646
O O3 0.772097 0.979630 0.599036
O O4 0.917404 0.402695 0.750414
O O5 0.527327 0.620487 0.697359
O O6 0.986183 0.858843 0.810092
O O7 0.012726 0.577257 0.658929
O O8 0.370550 0.428595 0.557655
O O9 0.452594 0.272893 0.009183
O O10 0.613713 0.153739 0.126231
O O11 0.925990 0.216184 0.981102
O O12 0.670342 0.316394 0.911080
O O13 0.880560 0.671109 0.890751
O O14 0.500000 0.000000 0.500000
O O15 0.000000 0.000000 0.500000
#
# Coordination Sequence:
#
# PCOD9044923 Si02
#       7
#     2   2   2   2   2   2   2
#     4  10  27  45  70 107 143 186 235 296 358 412
#     4  10  26  44  69 103 143 185 235 293 351 422
#     4  10  23  48  66  97 147 185 234 291 346 415
#     4  10  24  46  72 102 142 181 239 286 356 424
#     4  12  24  47  74 108 142 190 236 295 358 427
#     4  10  24  46  71 104 136 189 232 292 351 425
#     4  12  25  43  74 103 136 191 243 289 346 422
#
# _framework density 24.407026999999999
#
# number of rings (size 3 to 8) (size 9 to 14) (size 15 to 20)
#    0.857    0.571    0.000    3.857    4.000    6.286 
#    5.143    0.000    0.000    0.000    0.000    0.000 
#    0.000    0.000    0.000    0.000    0.000    0.000 
#
# Total GULP energy -78214.668252 kJ/mol
# GULP energy per Si atom -5586.762018 kJ/mol
# Density = 2.435148 g / cm^3
# Si number density = 24.407027 Si / 1000 Ang^3
#
#
#
# Elastic Constant Matrix: (Units=GPa)
#
#
# Indices 1 2 3 4 5 6 
#
# 1 102.5405 32.1203 22.9841 -7.8949 -12.5572 10.9726
# 2 32.1203 103.5534 57.7571 -10.6686 -4.2063 26.7581
# 3 22.9841 57.7571 134.7133 -30.1504 -3.9802 11.6390
# 4 -7.8949 -10.6686 -30.1504 51.4247 6.4101 6.6128
# 5 -12.5572 -4.2063 -3.9802 6.4101 29.4173 6.6532
# 6 10.9726 26.7581 11.6390 6.6128 6.6532 30.4017
#
#
#
# Elastic Compliance Matrix: (Units=1/GPa)
#
#
# Indices 1 2 3 4 5 6 
#
# 1 0.011594 -0.002190 -0.000390 0.000895 0.005165 -0.003433
# 2 -0.002190 0.017021 -0.005395 0.001293 0.003465 -0.013165
# 3 -0.000390 -0.005395 0.011031 0.005405 -0.000534 -0.000393
# 4 0.000895 0.001293 0.005405 0.024360 -0.002118 -0.008366
# 5 0.005165 0.003465 -0.000534 -0.002118 0.040025 -0.013007
# 6 -0.003433 -0.013165 -0.000393 -0.008366 -0.013007 0.050535
#
#
# Mechanical properties :
#
#
# Convention : Reuss Voigt Hill
#
# Bulk Modulus (GPa) = 42.19987 62.94780 52.57383
# Shear Modulus (GPa) = 28.02475 37.44512 32.73493
#
# Velocity S-wave (km/s) = 3.39222 3.92113 3.66623
# Velocity P-wave (km/s) = 5.71581 6.80788 6.28560
#
# Compressibility (1/GPa) = 0.02369675
#
# Stress axis : x y z
#
# Youngs Moduli (GPa) = 86.24923 58.75206 90.65749
#
# Poissons Ratio (x) = 0.12866 0.03534
# Poissons Ratio (y) = 0.18888 0.48907
# Poissons Ratio (z) = 0.03362 0.31695
#
# Static dielectric constant tensor:
#      x y z
#    x 1.915360 -0.033190 0.036110 
#    y -0.033190 2.057440 0.092300 
#    z 0.036110 0.092300 1.972320 
# 
# From -- ./inp_files/581676.got.cif
#   From: 2010.05.17/outbox.cif.g08.bks.cpg/sg2_291_cif.got.tgz:581676.got - 2010.06.03 11:33:40.
