data_PCOD9044464
_publ_section_title
;
Structure prediction by ZEFSAII (Michael W. Deem and Ramdas Pophale) SiO2 
 PCOD9044464
Probable space group: P -1
;
_chemical_formula_sum "Si O2"
_cell_formula_units_Z 13
_cell_length_a 9.023984
_cell_length_b 9.918216
_cell_length_c 9.375241
_cell_angle_alpha 73.148999
_cell_angle_beta 117.589396
_cell_angle_gamma 63.803321
_cell_volume 522.713750
_symmetry_space_group_name_H-M "P -1"
_symmetry_group_IT_number 2
_symmetry_cell_setting 'triclinic'
loop_
_space_group_symop_operation_xyz
x,y,z
-x,-y,-z
loop_
_atom_site_type_symbol
_atom_site_label
_atom_site_fract_x
_atom_site_fract_y
_atom_site_fract_z
Si Si1 0.368949 0.425081 0.978774
Si Si2 0.345639 0.403101 0.647239
Si Si3 0.000000 0.500000 0.000000
Si Si4 0.293757 0.213004 0.455225
Si Si5 0.762810 0.024155 0.821885
Si Si6 0.190738 0.003367 0.624169
Si Si7 0.051935 0.802576 0.264264
O O1 0.566576 0.205872 0.182396
O O2 0.500000 0.500000 0.000000
O O3 0.294121 0.436140 0.779785
O O4 0.158278 0.519054 0.961305
O O5 0.226350 0.348919 0.520175
O O6 0.612116 0.210589 0.803712
O O7 0.269977 0.588847 0.475765
O O8 0.782272 0.659169 0.754464
O O9 0.569004 0.050320 0.645716
O O10 0.195714 0.117422 0.470974
O O11 0.890146 0.065780 0.770653
O O12 0.930824 0.831995 0.050650
O O13 0.000000 0.000000 0.500000
O O14 0.123466 0.112052 0.711444
#
# Coordination Sequence:
#
# PCOD9044464 Si02
#       7
#     2   2   1   2   2   2   2
#     4  12  28  51  75 110 156 199 258 316 390 453
#     4  10  23  46  76 104 150 198 244 309 372 461
#     4  12  28  48  72 112 148 206 252 320 382 452
#     4  10  26  49  70 110 146 196 254 310 377 441
#     4   9  23  43  70 114 143 192 251 312 367 452
#     4  12  26  47  73 103 152 201 251 317 383 456
#     4  11  21  43  75 109 145 192 246 307 382 449
#
# _framework density 24.87021
#
# number of rings (size 3 to 8) (size 9 to 14) (size 15 to 20)
#    0.923    0.308    1.538    3.231    4.308    6.769 
#    8.308    0.000    0.000    0.000    0.000    0.000 
#    0.000    0.000    0.000    0.000    0.000    0.000 
#
# Total GULP energy -72506.469660 kJ/mol
# GULP energy per Si atom -5577.420743 kJ/mol
# Density = 2.481360 g / cm^3
# Si number density = 24.870210 Si / 1000 Ang^3
#
#
#
# Elastic Constant Matrix: (Units=GPa)
#
#
# Indices 1 2 3 4 5 6 
#
# 1 144.5424 25.8921 53.2315 10.0484 -26.7891 -4.9877
# 2 25.8921 55.5528 32.5402 1.1600 -19.0520 -5.9907
# 3 53.2315 32.5402 213.3062 -7.0977 -29.5921 12.4476
# 4 10.0484 1.1600 -7.0977 34.7971 0.7741 0.8823
# 5 -26.7891 -19.0520 -29.5921 0.7741 50.8246 -3.1300
# 6 -4.9877 -5.9907 12.4476 0.8823 -3.1300 32.4225
#
#
#
# Elastic Compliance Matrix: (Units=1/GPa)
#
#
# Indices 1 2 3 4 5 6 
#
# 1 0.008703 -0.001707 -0.001694 -0.002924 0.003132 0.002056
# 2 -0.001707 0.023223 -0.002558 -0.001096 0.006683 0.005685
# 3 -0.001694 -0.002558 0.005925 0.001826 0.001390 -0.002924
# 4 -0.002924 -0.001096 0.001826 0.030083 -0.001489 -0.002316
# 5 0.003132 0.006683 0.001390 -0.001489 0.024887 0.003626
# 6 0.002056 0.005685 -0.002924 -0.002316 0.003626 0.033745
#
#
# Mechanical properties :
#
#
# Convention : Reuss Voigt Hill
#
# Bulk Modulus (GPa) = 38.56099 70.74766 54.65433
# Shear Modulus (GPa) = 33.98405 43.72468 38.85437
#
# Velocity S-wave (km/s) = 3.70057 4.19754 3.95686
# Velocity P-wave (km/s) = 5.81356 7.21117 6.54975
#
# Compressibility (1/GPa) = 0.02593294
#
# Stress axis : x y z
#
# Youngs Moduli (GPa) = 114.90663 43.06145 168.76718
#
# Poissons Ratio (x) = 0.07350 0.28592
# Poissons Ratio (y) = 0.19614 0.43167
# Poissons Ratio (z) = 0.19467 0.11014
#
# Static dielectric constant tensor:
#      x y z
#    x 1.883620 -0.234400 0.252330 
#    y -0.234400 1.774220 0.462330 
#    z 0.252330 0.462330 1.438730 
# 
# From -- ./inp_files/161650.got.cif
#   From: 2010.05.17/outbox.cif.g08.bks.cpg/sg2_81_cif.got.tgz:161650.got - 2010.06.03 11:33:40.
