data_PCOD9044520
_publ_section_title
;
Structure prediction by ZEFSAII (Michael W. Deem and Ramdas Pophale) SiO2 
 PCOD9044520
Probable space group: P -1
;
_chemical_formula_sum "Si O2"
_cell_formula_units_Z 13
_cell_length_a 8.553007
_cell_length_b 7.448363
_cell_length_c 8.673293
_cell_angle_alpha 68.752285
_cell_angle_beta 113.140434
_cell_angle_gamma 90.906603
_cell_volume 468.351838
_symmetry_space_group_name_H-M "P -1"
_symmetry_group_IT_number 2
_symmetry_cell_setting 'triclinic'
loop_
_space_group_symop_operation_xyz
x,y,z
-x,-y,-z
loop_
_atom_site_type_symbol
_atom_site_label
_atom_site_fract_x
_atom_site_fract_y
_atom_site_fract_z
Si Si1 0.168609 0.342659 0.987916
Si Si2 0.781568 0.959376 0.362286
Si Si3 0.405841 0.922882 0.203773
Si Si4 0.369872 0.712395 0.569368
Si Si5 0.085398 0.862969 0.935467
Si Si6 0.500000 0.500000 0.000000
Si Si7 0.886144 0.527821 0.596853
O O1 0.289211 0.500887 0.936034
O O2 0.004117 0.389026 0.799681
O O3 0.305935 0.144084 0.089124
O O4 0.048358 0.289309 0.100272
O O5 0.845010 0.756724 0.530137
O O6 0.598109 0.933300 0.219655
O O7 0.750130 0.129631 0.422437
O O8 0.896041 0.015874 0.249090
O O9 0.432211 0.842229 0.414093
O O10 0.282283 0.804060 0.092656
O O11 0.479199 0.591378 0.784002
O O12 0.285145 0.557445 0.485573
O O13 0.000000 0.000000 0.000000
O O14 0.000000 0.500000 0.500000
#
# Coordination Sequence:
#
# PCOD9044520 Si02
#       7
#     2   2   2   2   2   1   2
#     4  11  24  49  81 117 165 221 266 349 414 480
#     4  12  28  50  87 123 164 229 279 333 428 495
#     4  11  24  51  85 120 169 223 276 342 418 505
#     4  12  28  52  83 124 168 216 278 348 415 490
#     4  10  23  46  80 115 164 220 270 337 415 490
#     4  12  26  48  84 116 168 208 274 350 404 486
#     4  12  26  51  80 119 173 214 274 350 408 491
#
# _framework density 27.756910999999999
#
# number of rings (size 3 to 8) (size 9 to 14) (size 15 to 20)
#    0.000    0.615    4.615    2.769    2.154    2.462 
#    2.769    1.538    0.000    0.000    0.000    0.000 
#    0.000    0.000    0.000    0.000    0.000    0.000 
#
# Total GULP energy -72432.331634 kJ/mol
# GULP energy per Si atom -5571.717818 kJ/mol
# Density = 2.769374 g / cm^3
# Si number density = 27.756911 Si / 1000 Ang^3
#
#
#
# Elastic Constant Matrix: (Units=GPa)
#
#
# Indices 1 2 3 4 5 6 
#
# 1 122.8117 32.9763 9.1898 -5.2158 -2.0672 26.5275
# 2 32.9763 118.1211 55.4829 -20.9456 -12.5971 -1.2405
# 3 9.1898 55.4829 183.3478 -22.7047 12.2396 -23.6705
# 4 -5.2158 -20.9456 -22.7047 32.0076 -3.0232 8.1105
# 5 -2.0672 -12.5971 12.2396 -3.0232 62.0723 -1.7252
# 6 26.5275 -1.2405 -23.6705 8.1105 -1.7252 34.0584
#
#
#
# Elastic Compliance Matrix: (Units=1/GPa)
#
#
# Indices 1 2 3 4 5 6 
#
# 1 0.011058 -0.002458 -0.000804 0.002084 -0.000142 -0.009764
# 2 -0.002458 0.011984 -0.003137 0.005785 0.003221 -0.001044
# 3 -0.000804 -0.003137 0.007441 0.001595 -0.001908 0.005206
# 4 0.002084 0.005785 0.001595 0.039149 0.002572 -0.009497
# 5 -0.000142 0.003221 -0.001908 0.002572 0.017238 -0.000838
# 6 -0.009764 -0.001044 0.005206 -0.009497 -0.000838 0.042766
#
#
# Mechanical properties :
#
#
# Convention : Reuss Voigt Hill
#
# Bulk Modulus (GPa) = 56.53994 68.84206 62.69100
# Shear Modulus (GPa) = 33.70957 47.40307 40.55632
#
# Velocity S-wave (km/s) = 3.48869 4.13703 3.82661
# Velocity P-wave (km/s) = 6.05325 6.90475 6.49297
#
# Compressibility (1/GPa) = 0.01768661
#
# Stress axis : x y z
#
# Youngs Moduli (GPa) = 90.43377 83.44601 134.39791
#
# Poissons Ratio (x) = 0.20509 0.10799
# Poissons Ratio (y) = 0.22226 0.42155
# Poissons Ratio (z) = 0.07266 0.26174
#
# Static dielectric constant tensor:
#      x y z
#    x 2.214500 0.092640 -0.086440 
#    y 0.092640 2.396300 -0.102730 
#    z -0.086440 -0.102730 2.288210 
# 
# From -- ./inp_files/145026.got.cif
#   From: 2010.05.17/outbox.cif.g08.bks.cpg/sg2_73_cif.got.tgz:145026.got - 2010.06.03 11:33:40.
