data_PCOD9044367
_publ_section_title
;
Structure prediction by ZEFSAII (Michael W. Deem and Ramdas Pophale) SiO2 
 PCOD9044367
Probable space group: P -1
;
_chemical_formula_sum "Si O2"
_cell_formula_units_Z 12
_cell_length_a 9.298062
_cell_length_b 7.057220
_cell_length_c 16.708205
_cell_angle_alpha 50.465150
_cell_angle_beta 143.978948
_cell_angle_gamma 124.737733
_cell_volume 493.591474
_symmetry_space_group_name_H-M "P -1"
_symmetry_group_IT_number 2
_symmetry_cell_setting 'triclinic'
loop_
_space_group_symop_operation_xyz
x,y,z
-x,-y,-z
loop_
_atom_site_type_symbol
_atom_site_label
_atom_site_fract_x
_atom_site_fract_y
_atom_site_fract_z
Si Si1 0.244607 0.483210 0.665907
Si Si2 0.187384 0.924959 0.834687
Si Si3 0.382576 0.251458 0.361086
Si Si4 0.314620 0.762511 0.246727
Si Si5 0.608943 0.227240 0.191992
Si Si6 0.142272 0.037676 0.956506
O O1 0.244174 0.194345 0.750225
O O2 0.476224 0.626740 0.685422
O O3 0.258000 0.587114 0.734089
O O4 0.000000 0.500000 0.500000
O O5 0.253099 0.764380 0.832338
O O6 0.276494 0.969030 0.954447
O O7 0.904307 0.833908 0.751247
O O8 0.390807 0.488636 0.361374
O O9 0.500000 0.000000 0.500000
O O10 0.556633 0.960689 0.287088
O O11 0.153550 0.798360 0.083197
O O12 0.124176 0.864277 0.196522
O O13 0.328054 0.241531 0.033184
#
# Coordination Sequence:
#
# PCOD9044367 Si02
#       6
#     2   2   2   2   2   2
#     4  12  26  50  70 103 151 192 253 300 349 443
#     4  12  25  45  75 115 141 195 243 296 373 435
#     4  12  26  48  71 105 147 198 243 300 360 434
#     4   9  21  46  74 110 146 193 237 303 363 435
#     4  10  23  46  73 107 148 190 234 310 365 422
#     4   9  21  46  74 114 147 183 247 295 374 435
#
# _framework density 24.311605
#
# number of rings (size 3 to 8) (size 9 to 14) (size 15 to 20)
#    1.000    0.333    3.333    1.500    2.333    2.000 
#    3.000    4.167    0.000    0.000    0.000    0.000 
#    0.000    0.000    0.000    0.000    0.000    0.000 
#
# Total GULP energy -66870.033899 kJ/mol
# GULP energy per Si atom -5572.502825 kJ/mol
# Density = 2.425627 g / cm^3
# Si number density = 24.311605 Si / 1000 Ang^3
#
#
#
# Elastic Constant Matrix: (Units=GPa)
#
#
# Indices 1 2 3 4 5 6 
#
# 1 177.4496 43.8521 37.4749 2.5326 -0.8399 -16.4150
# 2 43.8521 131.5916 45.0606 -15.9527 0.2278 -4.6834
# 3 37.4749 45.0606 69.0453 1.6706 6.2292 -8.0640
# 4 2.5326 -15.9527 1.6706 38.8183 -6.8890 -10.8586
# 5 -0.8399 0.2278 6.2292 -6.8890 19.4109 0.3574
# 6 -16.4150 -4.6834 -8.0640 -10.8586 0.3574 44.6199
#
#
#
# Elastic Compliance Matrix: (Units=1/GPa)
#
#
# Indices 1 2 3 4 5 6 
#
# 1 0.006689 -0.001263 -0.002690 -0.000145 0.001083 0.001798
# 2 -0.001263 0.011171 -0.007025 0.005953 0.004166 0.000854
# 3 -0.002690 -0.007025 0.021554 -0.004891 -0.008706 0.001048
# 4 -0.000145 0.005953 -0.004891 0.032858 0.013015 0.007580
# 5 0.001083 0.004166 -0.008706 0.013015 0.058893 0.001958
# 6 0.001798 0.000854 0.001048 0.007580 0.001958 0.025181
#
#
# Mechanical properties :
#
#
# Convention : Reuss Voigt Hill
#
# Bulk Modulus (GPa) = 57.28302 70.09575 63.68939
# Shear Modulus (GPa) = 27.15601 37.34974 32.25288
#
# Velocity S-wave (km/s) = 3.34578 3.92381 3.64627
# Velocity P-wave (km/s) = 6.20796 7.03016 6.63182
#
# Compressibility (1/GPa) = 0.01745718
#
# Stress axis : x y z
#
# Youngs Moduli (GPa) = 149.49221 89.52051 46.39472
#
# Poissons Ratio (x) = 0.11309 0.12482
# Poissons Ratio (y) = 0.18885 0.32591
# Poissons Ratio (z) = 0.40220 0.62886
#
# Static dielectric constant tensor:
#      x y z
#    x 1.894970 -0.024600 0.021910 
#    y -0.024600 2.033780 0.011860 
#    z 0.021910 0.011860 1.975220 
# 
# From -- ./inp_files/553318.got.cif
#   From: 2010.05.17/outbox.cif.g08.bks.cpg/sg2_277_cif.got.tgz:553318.got - 2010.06.03 11:33:40.
