data_PCOD9044656
_publ_section_title
;
Structure prediction by ZEFSAII (Michael W. Deem and Ramdas Pophale) SiO2 
 PCOD9044656
Probable space group: P -1
;
_chemical_formula_sum "Si O2"
_cell_formula_units_Z 14
_cell_length_a 14.467234
_cell_length_b 4.942003
_cell_length_c 9.076462
_cell_angle_alpha 118.542356
_cell_angle_beta 70.933007
_cell_angle_gamma 110.144589
_cell_volume 524.755586
_symmetry_space_group_name_H-M "P -1"
_symmetry_group_IT_number 2
_symmetry_cell_setting 'triclinic'
loop_
_space_group_symop_operation_xyz
x,y,z
-x,-y,-z
loop_
_atom_site_type_symbol
_atom_site_label
_atom_site_fract_x
_atom_site_fract_y
_atom_site_fract_z
Si Si1 0.763958 0.704448 0.781940
Si Si2 0.129168 0.357603 0.014305
Si Si3 0.539528 0.202197 0.336723
Si Si4 0.166121 0.934469 0.442732
Si Si5 0.767690 0.422109 0.267784
Si Si6 0.045580 0.769827 0.724743
Si Si7 0.534659 0.521808 0.820654
O O1 0.798587 0.784486 0.952314
O O2 0.833967 0.918233 0.681011
O O3 0.650587 0.701438 0.801727
O O4 0.775980 0.345729 0.665106
O O5 0.051501 0.436336 0.196471
O O6 0.202313 0.577336 0.919880
O O7 0.057021 0.120081 0.878634
O O8 0.500000 0.500000 0.500000
O O9 0.656894 0.229329 0.311421
O O10 0.527664 0.280373 0.191054
O O11 0.480644 0.847780 0.315846
O O12 0.226978 0.218390 0.588095
O O13 0.061497 0.814254 0.553998
O O14 0.856402 0.332127 0.292050
O O15 0.500000 0.500000 0.000000
#
# Coordination Sequence:
#
# PCOD9044656 Si02
#       7
#     2   2   2   2   2   2   2
#     4  12  25  46  69 101 143 180 230 285 359 401
#     4  10  25  42  73 104 136 185 229 288 346 418
#     4  12  27  44  75 103 140 188 241 285 350 417
#     4  11  25  44  71  99 142 181 224 289 343 417
#     4  11  23  45  74  98 144 181 238 281 350 405
#     4  10  23  47  70 104 137 182 236 282 342 421
#     4  12  27  46  68 104 144 182 237 293 351 419
#
# _framework density 26.679086000000002
#
# number of rings (size 3 to 8) (size 9 to 14) (size 15 to 20)
#    0.000    0.857    1.429    4.714    8.000    1.143 
#    0.000    0.000    0.000    0.000    0.000    0.000 
#    0.000    0.000    0.000    0.000    0.000    0.000 
#
# Total GULP energy -78431.636709 kJ/mol
# GULP energy per Si atom -5602.259765 kJ/mol
# Density = 2.661836 g / cm^3
# Si number density = 26.679086 Si / 1000 Ang^3
#
#
#
# Elastic Constant Matrix: (Units=GPa)
#
#
# Indices 1 2 3 4 5 6 
#
# 1 111.0415 27.0644 -18.5989 -7.1166 -14.2523 18.6815
# 2 27.0644 126.3895 17.4588 -20.3403 9.0961 -1.4033
# 3 -18.5989 17.4588 106.5777 -21.0386 2.3276 3.1240
# 4 -7.1166 -20.3403 -21.0386 47.1050 -1.9204 0.9554
# 5 -14.2523 9.0961 2.3276 -1.9204 30.8040 -7.0137
# 6 18.6815 -1.4033 3.1240 0.9554 -7.0137 49.4649
#
#
#
# Elastic Compliance Matrix: (Units=1/GPa)
#
#
# Indices 1 2 3 4 5 6 
#
# 1 0.011719 -0.003007 0.002950 0.002087 0.005310 -0.003985
# 2 -0.003007 0.009489 -0.001469 0.002817 -0.003697 0.000919
# 3 0.002950 -0.001469 0.011132 0.004855 0.000843 -0.001833
# 4 0.002087 0.002817 0.004855 0.024998 0.001017 -0.001353
# 5 0.005310 -0.003697 0.000843 0.001017 0.036699 0.003020
# 6 -0.003985 0.000919 -0.001833 -0.001353 0.003020 0.022318
#
#
# Mechanical properties :
#
#
# Convention : Reuss Voigt Hill
#
# Bulk Modulus (GPa) = 34.14508 43.98414 39.06461
# Shear Modulus (GPa) = 38.70894 46.68043 42.69469
#
# Velocity S-wave (km/s) = 3.81321 4.18748 4.00472
# Velocity P-wave (km/s) = 5.67571 6.31682 6.00483
#
# Compressibility (1/GPa) = 0.02928679
#
# Stress axis : x y z
#
# Youngs Moduli (GPa) = 85.33509 105.38840 89.83063
#
# Poissons Ratio (x) = 0.31695 -0.26504
# Poissons Ratio (y) = 0.25664 0.13198
# Poissons Ratio (z) = -0.25178 0.15484
#
# Static dielectric constant tensor:
#      x y z
#    x 3.525800 0.985420 0.992040 
#    y 0.985420 2.711360 0.690690 
#    z 0.992040 0.690690 2.826320 
# 
# From -- ./inp_files/105600.got.cif
#   From: 2010.05.17/outbox.cif.g08.bks.cpg/sg2_53_cif.got.tgz:105600.got - 2010.06.03 11:33:40.
