data_PCOD9044120
_publ_section_title
;
Structure prediction by ZEFSAII (Michael W. Deem and Ramdas Pophale) SiO2 
 PCOD9044120
Probable space group: P -1
;
_chemical_formula_sum "Si O2"
_cell_formula_units_Z 16
_cell_length_a 18.125576
_cell_length_b 11.892985
_cell_length_c 9.449170
_cell_angle_alpha 129.202899
_cell_angle_beta 116.064474
_cell_angle_gamma 27.971001
_cell_volume 699.627297
_symmetry_space_group_name_H-M "P -1"
_symmetry_group_IT_number 2
_symmetry_cell_setting 'triclinic'
loop_
_space_group_symop_operation_xyz
x,y,z
-x,-y,-z
loop_
_atom_site_type_symbol
_atom_site_label
_atom_site_fract_x
_atom_site_fract_y
_atom_site_fract_z
Si Si1 0.629285 0.677743 0.216135
Si Si2 0.816329 0.852313 0.130125
Si Si3 0.340538 0.699746 0.120532
Si Si4 0.335201 0.692166 0.442732
Si Si5 0.775109 0.656161 0.100217
Si Si6 0.169528 0.652564 0.339010
Si Si7 0.251890 0.336904 0.434330
Si Si8 0.895212 0.737632 0.795786
O O1 0.648923 0.763266 0.175232
O O2 0.740448 0.564776 0.349835
O O3 0.431902 0.981518 0.319857
O O4 0.685827 0.430729 0.028272
O O5 0.705204 0.895065 0.137072
O O6 0.806321 0.001302 0.346612
O O7 0.785876 0.928518 0.000706
O O8 0.000000 0.500000 0.000000
O O9 0.352751 0.701679 0.300405
O O10 0.185950 0.031862 0.201716
O O11 0.500000 0.500000 0.000000
O O12 0.500000 0.500000 0.500000
O O13 0.301097 0.575511 0.347403
O O14 0.917991 0.503810 0.199638
O O15 0.852072 0.422336 0.870564
O O16 0.225754 0.470785 0.376653
O O17 0.000000 0.000000 0.500000
O O18 0.122607 0.402553 0.375004
#
# Coordination Sequence:
#
# PCOD9044120 Si02
#       8
#     2   2   2   2   2   2   2   2
#     4  11  27  48  69 108 140 189 243 297 365 423
#     4  10  23  46  70 103 146 189 238 298 364 435
#     4  12  26  47  72 105 153 191 244 306 369 435
#     4  12  29  45  76 112 141 196 249 302 373 440
#     4  11  25  45  72 103 142 185 242 299 351 433
#     4  12  27  47  72 108 147 187 243 302 366 433
#     4  11  27  46  74 100 146 192 236 295 364 436
#     4  11  24  45  71 103 141 195 233 299 366 430
#
# _framework density 22.869318
#
# number of rings (size 3 to 8) (size 9 to 14) (size 15 to 20)
#    0.000    0.750    3.750    2.250   10.500    2.500 
#    0.000    0.000    0.000    0.000    0.000    0.000 
#    0.000    0.000    0.000    0.000    0.000    0.000 
#
# Total GULP energy -89532.955073 kJ/mol
# GULP energy per Si atom -5595.809692 kJ/mol
# Density = 2.281727 g / cm^3
# Si number density = 22.869318 Si / 1000 Ang^3
#
#
#
# Elastic Constant Matrix: (Units=GPa)
#
#
# Indices 1 2 3 4 5 6 
#
# 1 110.7461 25.4269 25.9084 -10.5834 22.0749 8.1446
# 2 25.4269 82.4269 44.5416 -13.2403 9.0303 9.7647
# 3 25.9084 44.5416 138.3691 -26.6510 14.7193 -0.9004
# 4 -10.5834 -13.2403 -26.6510 31.9036 1.0410 -5.6939
# 5 22.0749 9.0303 14.7193 1.0410 38.3414 -5.1466
# 6 8.1446 9.7647 -0.9004 -5.6939 -5.1466 39.4949
#
#
#
# Elastic Compliance Matrix: (Units=1/GPa)
#
#
# Indices 1 2 3 4 5 6 
#
# 1 0.011196 -0.001911 -0.000371 0.002402 -0.006229 -0.002310
# 2 -0.001911 0.015915 -0.004277 0.001810 -0.001535 -0.003577
# 3 -0.000371 -0.004277 0.010360 0.007212 -0.002676 0.002061
# 4 0.002402 0.001810 0.007212 0.039851 -0.005082 0.004305
# 5 -0.006229 -0.001535 -0.002676 -0.005082 0.031869 0.005023
# 6 -0.002310 -0.003577 0.002061 0.004305 0.005023 0.028003
#
#
# Mechanical properties :
#
#
# Convention : Reuss Voigt Hill
#
# Bulk Modulus (GPa) = 41.06103 58.14397 49.60250
# Shear Modulus (GPa) = 31.55961 37.65902 34.60932
#
# Velocity S-wave (km/s) = 3.71886 4.06236 3.89440
# Velocity P-wave (km/s) = 6.03602 6.89082 6.47753
#
# Compressibility (1/GPa) = 0.02435399
#
# Stress axis : x y z
#
# Youngs Moduli (GPa) = 89.31474 62.83245 96.52274
#
# Poissons Ratio (x) = 0.12010 0.03580
# Poissons Ratio (y) = 0.17072 0.41279
# Poissons Ratio (z) = 0.03312 0.26871
#
# Static dielectric constant tensor:
#      x y z
#    x 1.911190 -0.041190 -0.062260 
#    y -0.041190 1.850650 0.020830 
#    z -0.062260 0.020830 1.890880 
# 
# From -- ./inp_files/333804.got.cif
#   From: 2010.05.17/outbox.cif.g08.bks.cpg/sg2_167_cif.got.tgz:333804.got - 2010.06.03 11:33:40.
