data_PCOD9044577
_publ_section_title
;
Structure prediction by ZEFSAII (Michael W. Deem and Ramdas Pophale) SiO2 
 PCOD9044577
Probable space group: P -1
;
_chemical_formula_sum "Si O2"
_cell_formula_units_Z 14
_cell_length_a 14.771912
_cell_length_b 6.743377
_cell_length_c 19.203152
_cell_angle_alpha 40.354174
_cell_angle_beta 151.345038
_cell_angle_gamma 130.150153
_cell_volume 592.187585
_symmetry_space_group_name_H-M "P -1"
_symmetry_group_IT_number 2
_symmetry_cell_setting 'triclinic'
loop_
_space_group_symop_operation_xyz
x,y,z
-x,-y,-z
loop_
_atom_site_type_symbol
_atom_site_label
_atom_site_fract_x
_atom_site_fract_y
_atom_site_fract_z
Si Si1 0.375840 0.667465 0.550737
Si Si2 0.047874 0.554120 0.937016
Si Si3 0.653755 0.401036 0.070551
Si Si4 0.401540 0.218868 0.197277
Si Si5 0.152140 0.198018 0.587825
Si Si6 0.031765 0.233725 0.744812
Si Si7 0.361159 0.547709 0.329426
O O1 0.434638 0.801722 0.628510
O O2 0.318340 0.318624 0.619384
O O3 0.547913 0.656113 0.617086
O O4 0.174865 0.815712 0.348371
O O5 0.848812 0.522137 0.773695
O O6 0.115410 0.892399 0.877507
O O7 0.000000 0.500000 0.000000
O O8 0.209380 0.313417 0.083406
O O9 0.834156 0.592431 0.160574
O O10 0.736763 0.044774 0.221150
O O11 0.500000 0.500000 0.000000
O O12 0.568061 0.519527 0.908253
O O13 0.369960 0.904038 0.221408
O O14 0.029658 0.531873 0.423691
O O15 0.000000 0.000000 0.500000
O O16 0.500000 0.500000 0.500000
#
# Coordination Sequence:
#
# PCOD9044577 Si02
#       7
#     2   2   2   2   2   2   2
#     4  10  23  47  68 100 141 173 239 270 337 420
#     4  12  25  44  67 101 143 179 225 288 344 394
#     4  11  23  44  73 100 138 178 226 291 347 394
#     4  12  27  43  70 107 136 175 236 283 340 411
#     4   8  19  41  68  92 132 180 213 277 338 393
#     4   9  23  43  69  97 137 181 225 281 331 423
#     4  12  27  43  72  99 138 189 225 278 345 409
#
# _framework density 23.641157
#
# number of rings (size 3 to 8) (size 9 to 14) (size 15 to 20)
#    0.857    0.571    1.429    3.000    6.000    1.714 
#    0.000    1.429    0.000    0.000    0.000    0.000 
#    0.000    0.000    0.000    0.000    0.000    0.000 
#
# Total GULP energy -78126.820510 kJ/mol
# GULP energy per Si atom -5580.487179 kJ/mol
# Density = 2.358735 g / cm^3
# Si number density = 23.641157 Si / 1000 Ang^3
#
#
#
# Elastic Constant Matrix: (Units=GPa)
#
#
# Indices 1 2 3 4 5 6 
#
# 1 66.0103 1.1283 11.2786 6.2633 -1.9975 -6.2270
# 2 1.1283 85.0749 18.8400 -10.2909 3.9533 11.9356
# 3 11.2786 18.8400 88.0076 -3.0972 -5.9981 -1.7325
# 4 6.2633 -10.2909 -3.0972 51.5040 15.9662 3.1119
# 5 -1.9975 3.9533 -5.9981 15.9662 41.8629 -0.2909
# 6 -6.2270 11.9356 -1.7325 3.1119 -0.2909 28.4769
#
#
#
# Elastic Compliance Matrix: (Units=1/GPa)
#
#
# Indices 1 2 3 4 5 6 
#
# 1 0.016206 -0.000850 -0.001799 -0.003054 0.001789 0.004143
# 2 -0.000850 0.014079 -0.003127 0.004214 -0.003473 -0.006773
# 3 -0.001799 -0.003127 0.012429 -0.000436 0.002169 0.001743
# 4 -0.003054 0.004214 -0.000436 0.023946 -0.009775 -0.005177
# 5 0.001789 -0.003473 0.002169 -0.009775 0.028363 0.003337
# 6 0.004143 -0.006773 0.001743 -0.005177 0.003337 0.039567
#
#
# Mechanical properties :
#
#
# Convention : Reuss Voigt Hill
#
# Bulk Modulus (GPa) = 32.08958 33.50964 32.79961
# Shear Modulus (GPa) = 31.94280 38.22514 35.08397
#
# Velocity S-wave (km/s) = 3.67979 4.02542 3.85648
# Velocity P-wave (km/s) = 5.62650 5.98418 5.80809
#
# Compressibility (1/GPa) = 0.03116277
#
# Stress axis : x y z
#
# Youngs Moduli (GPa) = 61.70663 71.02552 80.45498
#
# Poissons Ratio (x) = 0.06039 0.14472
# Poissons Ratio (y) = 0.05247 0.25156
# Poissons Ratio (z) = 0.11100 0.22208
#
# Static dielectric constant tensor:
#      x y z
#    x 1.902550 0.009940 -0.016960 
#    y 0.009940 1.944890 -0.050440 
#    z -0.016960 -0.050440 1.937160 
# 
# From -- ./inp_files/371038.got.cif
#   From: 2010.05.17/outbox.cif.g08.bks.cpg/sg2_186_cif.got.tgz:371038.got - 2010.06.03 11:33:40.
