data_PCOD9044658
_publ_section_title
;
Structure prediction by ZEFSAII (Michael W. Deem and Ramdas Pophale) SiO2 
 PCOD9044658
Probable space group: P -1
;
_chemical_formula_sum "Si O2"
_cell_formula_units_Z 16
_cell_length_a 13.492189
_cell_length_b 5.261055
_cell_length_c 13.846577
_cell_angle_alpha 75.482965
_cell_angle_beta 41.257499
_cell_angle_gamma 66.541048
_cell_volume 592.655953
_symmetry_space_group_name_H-M "P -1"
_symmetry_group_IT_number 2
_symmetry_cell_setting 'triclinic'
loop_
_space_group_symop_operation_xyz
x,y,z
-x,-y,-z
loop_
_atom_site_type_symbol
_atom_site_label
_atom_site_fract_x
_atom_site_fract_y
_atom_site_fract_z
Si Si1 0.902997 0.841061 0.028431
Si Si2 0.369731 0.267145 0.348771
Si Si3 0.804782 0.486897 0.349619
Si Si4 0.768329 0.908270 0.702352
Si Si5 0.897184 0.317801 0.843537
Si Si6 0.973818 0.022447 0.380237
Si Si7 0.578496 0.847305 0.357131
Si Si8 0.534212 0.594329 0.074172
O O1 0.731808 0.913419 0.197632
O O2 0.000000 0.500000 0.000000
O O3 0.878133 0.029007 0.929848
O O4 0.000000 0.000000 0.000000
O O5 0.281183 0.393914 0.498669
O O6 0.493052 0.406421 0.205272
O O7 0.254519 0.304137 0.338698
O O8 0.456350 0.946079 0.349245
O O9 0.675290 0.541622 0.354257
O O10 0.956128 0.601123 0.223733
O O11 0.868959 0.163801 0.352633
O O12 0.594461 0.100683 0.844238
O O13 0.856154 0.065361 0.551802
O O14 0.893021 0.842899 0.703209
O O15 0.933552 0.270904 0.706449
O O16 0.720433 0.544274 0.958288
O O17 0.500000 0.000000 0.500000
O O18 0.500000 0.500000 0.000000
#
# Coordination Sequence:
#
# PCOD9044658 Si02
#       8
#     2   2   2   2   2   2   2   2
#     4  12  26  48  73 109 152 196 249 313 374 446
#     4  11  24  45  69  98 141 184 238 296 367 435
#     4  11  23  44  73 101 138 187 241 294 362 446
#     4  11  25  43  70  99 140 187 240 295 368 443
#     4  12  25  43  72 102 140 183 240 300 372 434
#     4  11  24  43  69 104 135 187 242 297 363 448
#     4  10  23  47  70 104 144 191 247 302 372 450
#     4  12  26  45  65 102 144 177 234 298 360 432
#
# _framework density 26.997114
#
# number of rings (size 3 to 8) (size 9 to 14) (size 15 to 20)
#    0.000    0.750    6.250    0.750    1.750    3.000 
#    0.000    1.250    0.000    0.000    0.000    0.000 
#    0.000    0.000    0.000    0.000    0.000    0.000 
#
# Total GULP energy -89252.726732 kJ/mol
# GULP energy per Si atom -5578.295421 kJ/mol
# Density = 2.693567 g / cm^3
# Si number density = 26.997114 Si / 1000 Ang^3
#
#
#
# Elastic Constant Matrix: (Units=GPa)
#
#
# Indices 1 2 3 4 5 6 
#
# 1 72.4756 23.3140 37.5246 -5.6080 -3.8556 -10.3015
# 2 23.3140 81.6953 31.9652 -9.2603 -5.7158 -14.7557
# 3 37.5246 31.9652 203.4575 6.0039 -10.6151 -1.0801
# 4 -5.6080 -9.2603 6.0039 31.3946 3.9495 6.8359
# 5 -3.8556 -5.7158 -10.6151 3.9495 45.8256 -0.5294
# 6 -10.3015 -14.7557 -1.0801 6.8359 -0.5294 50.5733
#
#
#
# Elastic Compliance Matrix: (Units=1/GPa)
#
#
# Indices 1 2 3 4 5 6 
#
# 1 0.016623 -0.003079 -0.002618 0.002060 0.000255 0.002156
# 2 -0.003079 0.014850 -0.001799 0.003356 0.000925 0.003223
# 3 -0.002618 -0.001799 0.005795 -0.002102 0.001072 -0.000639
# 4 0.002060 0.003356 -0.002102 0.034714 -0.002926 -0.003369
# 5 0.000255 0.000925 0.001072 -0.002926 0.022470 0.000975
# 6 0.002156 0.003223 -0.000639 -0.003369 0.000975 0.021605
#
#
# Mechanical properties :
#
#
# Convention : Reuss Voigt Hill
#
# Bulk Modulus (GPa) = 44.88945 60.35956 52.62450
# Shear Modulus (GPa) = 36.10749 43.21370 39.66059
#
# Velocity S-wave (km/s) = 3.66109 4.00519 3.83700
# Velocity P-wave (km/s) = 5.87666 6.61778 6.25820
#
# Compressibility (1/GPa) = 0.02227695
#
# Stress axis : x y z
#
# Youngs Moduli (GPa) = 60.15713 67.33822 172.55898
#
# Poissons Ratio (x) = 0.20731 0.45180
# Poissons Ratio (y) = 0.18520 0.31044
# Poissons Ratio (z) = 0.15751 0.12114
#
# Static dielectric constant tensor:
#      x y z
#    x 2.229190 -0.051240 0.068500 
#    y -0.051240 2.294700 -0.056740 
#    z 0.068500 -0.056740 2.168780 
# 
# From -- ./inp_files/510990.got.cif
#   From: 2010.05.17/outbox.cif.g08.bks.cpg/sg2_256_cif.got.tgz:510990.got - 2010.06.03 11:33:40.
