data_PCOD9044882
_publ_section_title
;
Structure prediction by ZEFSAII (Michael W. Deem and Ramdas Pophale) SiO2 
 PCOD9044882
Probable space group: P -1
;
_chemical_formula_sum "Si O2"
_cell_formula_units_Z 14
_cell_length_a 5.529251
_cell_length_b 8.315570
_cell_length_c 16.742255
_cell_angle_alpha 123.618397
_cell_angle_beta 71.879034
_cell_angle_gamma 81.569236
_cell_volume 557.625422
_symmetry_space_group_name_H-M "P -1"
_symmetry_group_IT_number 2
_symmetry_cell_setting 'triclinic'
loop_
_space_group_symop_operation_xyz
x,y,z
-x,-y,-z
loop_
_atom_site_type_symbol
_atom_site_label
_atom_site_fract_x
_atom_site_fract_y
_atom_site_fract_z
Si Si1 0.185012 0.027605 0.561086
Si Si2 0.719072 0.463001 0.717654
Si Si3 0.016483 0.024017 0.866424
Si Si4 0.804182 0.748321 0.904968
Si Si5 0.244858 0.590969 0.488775
Si Si6 0.494716 0.900815 0.137515
Si Si7 0.757630 0.491077 0.101578
O O1 0.007420 0.274268 0.662549
O O2 0.500000 0.000000 0.500000
O O3 0.175000 0.843389 0.568769
O O4 0.000000 0.000000 0.500000
O O5 0.719613 0.677383 0.811813
O O6 0.671482 0.462746 0.628132
O O7 0.476590 0.444516 0.789423
O O8 0.834013 0.015230 0.807614
O O9 0.332187 0.984284 0.806036
O O10 0.003902 0.861108 0.889266
O O11 0.858057 0.261727 0.985006
O O12 0.970584 0.539999 0.883683
O O13 0.578275 0.884371 0.030176
O O14 0.500000 0.500000 0.500000
O O15 0.000000 0.500000 0.500000
O O16 0.633634 0.669910 0.098234
#
# Coordination Sequence:
#
# PCOD9044882 Si02
#       7
#     2   2   2   2   2   2   2
#     4  10  23  47  77  98 135 179 218 279 374 432
#     4  11  26  43  74 104 135 181 237 285 339 426
#     4  11  23  42  65  94 144 203 222 276 347 382
#     4  11  24  41  68  99 146 187 235 280 333 400
#     4  11  25  50  75 101 136 174 221 293 373 423
#     4  11  23  42  65  94 140 199 229 272 340 393
#     4  11  24  41  68  98 144 187 240 277 326 409
#
# _framework density 25.106460999999999
#
# number of rings (size 3 to 8) (size 9 to 14) (size 15 to 20)
#    0.000    1.143    1.429    6.000   10.000    0.000 
#    2.571    0.000    3.143    0.000    0.000    0.000 
#    0.000    0.000    0.000    0.000    0.000    0.000 
#
# Total GULP energy -78141.484220 kJ/mol
# GULP energy per Si atom -5581.534587 kJ/mol
# Density = 2.504932 g / cm^3
# Si number density = 25.106461 Si / 1000 Ang^3
#
#
#
# Elastic Constant Matrix: (Units=GPa)
#
#
# Indices 1 2 3 4 5 6 
#
# 1 198.2906 53.6056 45.3967 -7.0855 -2.1751 -10.5864
# 2 53.6056 160.2420 45.3214 -9.5063 5.0972 -20.2278
# 3 45.3967 45.3214 122.3856 -8.1705 -6.2381 3.8791
# 4 -7.0855 -9.5063 -8.1705 32.8818 -0.8602 -11.0266
# 5 -2.1751 5.0972 -6.2381 -0.8602 34.5360 0.9385
# 6 -10.5864 -20.2278 3.8791 -11.0266 0.9385 43.8268
#
#
#
# Elastic Compliance Matrix: (Units=1/GPa)
#
#
# Indices 1 2 3 4 5 6 
#
# 1 0.005873 -0.001301 -0.001662 0.000879 0.000251 0.001181
# 2 -0.001301 0.008204 -0.002596 0.002898 -0.001811 0.004470
# 3 -0.001662 -0.002596 0.009976 0.000632 0.002161 -0.002370
# 4 0.000879 0.002898 0.000632 0.035062 0.000335 0.010308
# 5 0.000251 -0.001811 0.002161 0.000335 0.029678 -0.001518
# 6 0.001181 0.004470 -0.002370 0.010308 -0.001518 0.028001
#
#
# Mechanical properties :
#
#
# Convention : Reuss Voigt Hill
#
# Bulk Modulus (GPa) = 77.31726 85.50729 81.41228
# Shear Modulus (GPa) = 37.81471 44.68855 41.25163
#
# Velocity S-wave (km/s) = 3.88516 4.22354 4.05788
# Velocity P-wave (km/s) = 7.14063 7.61027 7.37918
#
# Compressibility (1/GPa) = 0.01293372
#
# Stress axis : x y z
#
# Youngs Moduli (GPa) = 170.28031 121.89517 100.23783
#
# Poissons Ratio (x) = 0.15861 0.16664
# Poissons Ratio (y) = 0.22157 0.26020
# Poissons Ratio (z) = 0.28308 0.31642
#
# Static dielectric constant tensor:
#      x y z
#    x 2.088580 0.007100 -0.037710 
#    y 0.007100 2.064890 0.062430 
#    z -0.037710 0.062430 1.941570 
# 
# From -- ./inp_files/547446.got.cif
#   From: 2010.05.17/outbox.cif.g08.bks.cpg/sg2_274_cif.got.tgz:547446.got - 2010.06.03 11:33:40.
