data_PCOD9044606
_publ_section_title
;
Structure prediction by ZEFSAII (Michael W. Deem and Ramdas Pophale) SiO2 
 PCOD9044606
Probable space group: P -1
;
_chemical_formula_sum "Si O2"
_cell_formula_units_Z 14
_cell_length_a 7.657149
_cell_length_b 14.201057
_cell_length_c 14.652634
_cell_angle_alpha 28.306900
_cell_angle_beta 74.030303
_cell_angle_gamma 57.777586
_cell_volume 559.187526
_symmetry_space_group_name_H-M "P -1"
_symmetry_group_IT_number 2
_symmetry_cell_setting 'triclinic'
loop_
_space_group_symop_operation_xyz
x,y,z
-x,-y,-z
loop_
_atom_site_type_symbol
_atom_site_label
_atom_site_fract_x
_atom_site_fract_y
_atom_site_fract_z
Si Si1 0.006111 0.881643 0.322283
Si Si2 0.860340 0.626158 0.319293
Si Si3 0.576706 0.094526 0.550943
Si Si4 0.565763 0.364636 0.863307
Si Si5 0.811747 0.879620 0.512869
Si Si6 0.855345 0.607165 0.024189
Si Si7 0.345131 0.854584 0.166113
O O1 0.029167 0.627365 0.537952
O O2 0.234130 0.790907 0.311972
O O3 0.958729 0.944770 0.381996
O O4 0.788267 0.116399 0.095701
O O5 0.579814 0.786562 0.232885
O O6 0.000000 0.500000 0.500000
O O7 0.856966 0.843116 0.088536
O O8 0.447787 0.388720 0.340171
O O9 0.412113 0.028141 0.594638
O O10 0.737572 0.016915 0.504543
O O11 0.712230 0.911159 0.775663
O O12 0.583029 0.289526 0.818587
O O13 0.337145 0.426278 0.892830
O O14 0.943541 0.580066 0.772119
O O15 0.000000 0.500000 0.000000
#
# Coordination Sequence:
#
# PCOD9044606 Si02
#       7
#     2   2   2   2   2   2   2
#     4  12  25  45  72 109 147 189 245 295 361 437
#     4  11  25  49  74  98 147 193 237 298 354 427
#     4  10  24  48  72 101 147 189 244 305 356 426
#     4  12  25  45  73 109 147 194 242 296 365 431
#     4  10  23  48  71 103 143 192 243 299 363 422
#     4  10  23  47  69 100 141 190 244 294 358 422
#     4  11  27  48  71 109 146 192 241 292 365 434
#
# _framework density 25.036322999999999
#
# number of rings (size 3 to 8) (size 9 to 14) (size 15 to 20)
#    0.000    1.143    2.857    1.714    2.000    4.000 
#    5.143    0.000    0.000    0.000    0.000    0.000 
#    0.000    0.000    0.000    0.000    0.000    0.000 
#
# Total GULP energy -78305.577857 kJ/mol
# GULP energy per Si atom -5593.255561 kJ/mol
# Density = 2.497934 g / cm^3
# Si number density = 25.036323 Si / 1000 Ang^3
#
#
#
# Elastic Constant Matrix: (Units=GPa)
#
#
# Indices 1 2 3 4 5 6 
#
# 1 49.7991 41.5595 25.0227 10.1287 0.7505 -4.9531
# 2 41.5595 137.1404 48.8789 32.9000 -5.3195 -24.0495
# 3 25.0227 48.8789 169.1599 8.4818 7.8325 14.6805
# 4 10.1287 32.9000 8.4818 47.9946 2.8932 -7.2186
# 5 0.7505 -5.3195 7.8325 2.8932 43.1009 -1.2225
# 6 -4.9531 -24.0495 14.6805 -7.2186 -1.2225 29.0901
#
#
#
# Elastic Compliance Matrix: (Units=1/GPa)
#
#
# Indices 1 2 3 4 5 6 
#
# 1 0.027467 -0.007977 -0.001590 -0.000156 -0.001198 -0.001205
# 2 -0.007977 0.014721 -0.003908 -0.006210 0.003406 0.011386
# 3 -0.001590 -0.003908 0.007994 0.000607 -0.002160 -0.007476
# 4 -0.000156 -0.006210 0.000607 0.025277 -0.002551 0.000698
# 5 -0.001198 0.003406 -0.002160 -0.002551 0.024322 0.004091
# 6 -0.001205 0.011386 -0.007476 0.000698 0.004091 0.047702
#
#
# Mechanical properties :
#
#
# Convention : Reuss Voigt Hill
#
# Bulk Modulus (GPa) = 43.04537 65.22463 54.13500
# Shear Modulus (GPa) = 27.44576 40.07967 33.76272
#
# Velocity S-wave (km/s) = 3.31454 4.00542 3.67624
# Velocity P-wave (km/s) = 5.64612 6.89200 6.29994
#
# Compressibility (1/GPa) = 0.02323130
#
# Stress axis : x y z
#
# Youngs Moduli (GPa) = 36.40733 67.93216 125.08793
#
# Poissons Ratio (x) = 0.54191 0.19891
# Poissons Ratio (y) = 0.29043 0.48884
# Poissons Ratio (z) = 0.05789 0.26548
#
# Static dielectric constant tensor:
#      x y z
#    x 2.041870 -0.024580 -0.019240 
#    y -0.024580 2.088150 -0.058500 
#    z -0.019240 -0.058500 1.963210 
# 
# From -- ./inp_files/504932.got.cif
#   From: 2010.05.17/outbox.cif.g08.bks.cpg/sg2_253_cif.got.tgz:504932.got - 2010.06.03 11:33:40.
