data_PCOD9044327
_publ_section_title
;
Structure prediction by ZEFSAII (Michael W. Deem and Ramdas Pophale) SiO2 
 PCOD9044327
Probable space group: P -1
;
_chemical_formula_sum "Si O2"
_cell_formula_units_Z 16
_cell_length_a 8.550044
_cell_length_b 11.398304
_cell_length_c 11.745149
_cell_angle_alpha 128.727867
_cell_angle_beta 70.132671
_cell_angle_gamma 128.479461
_cell_volume 696.742540
_symmetry_space_group_name_H-M "P -1"
_symmetry_group_IT_number 2
_symmetry_cell_setting 'triclinic'
loop_
_space_group_symop_operation_xyz
x,y,z
-x,-y,-z
loop_
_atom_site_type_symbol
_atom_site_label
_atom_site_fract_x
_atom_site_fract_y
_atom_site_fract_z
Si Si1 0.750415 0.568156 0.698346
Si Si2 0.807906 0.094972 0.219928
Si Si3 0.276913 0.243398 0.366410
Si Si4 0.927057 0.122344 0.544000
Si Si5 0.503687 0.166150 0.458973
Si Si6 0.283531 0.955015 0.049183
Si Si7 0.708536 0.688671 0.031294
Si Si8 0.984224 0.317228 0.876997
O O1 0.627310 0.581328 0.631288
O O2 0.657143 0.354394 0.601292
O O3 0.733126 0.644516 0.868674
O O4 0.981476 0.710781 0.691829
O O5 0.756190 0.893349 0.142425
O O6 0.633447 0.103501 0.328066
O O7 0.811333 0.104790 0.087599
O O8 0.398556 0.211548 0.411793
O O9 0.076351 0.208179 0.453286
O O10 0.238851 0.099171 0.191390
O O11 0.979781 0.268424 0.717432
O O12 0.685407 0.989510 0.513724
O O13 0.000000 0.000000 0.500000
O O14 0.217622 0.826584 0.096350
O O15 0.500000 0.000000 0.000000
O O16 0.856270 0.693966 0.093575
O O17 0.500000 0.500000 0.000000
O O18 0.000000 0.500000 0.000000
#
# Coordination Sequence:
#
# PCOD9044327 Si02
#       8
#     2   2   2   2   2   2   2   2
#     4  12  26  46  71 111 146 192 243 301 372 436
#     4  12  25  49  75 106 152 190 243 312 369 429
#     4  11  23  44  78 102 147 196 245 299 359 438
#     4  10  23  46  73 100 144 191 243 292 365 425
#     4  11  25  45  73 110 145 197 243 295 369 445
#     4  12  22  44  78 107 140 195 249 297 365 439
#     4  12  30  47  75 107 149 194 244 304 377 435
#     4  12  27  48  76 108 145 191 251 305 359 439
#
# _framework density 22.964006999999999
#
# number of rings (size 3 to 8) (size 9 to 14) (size 15 to 20)
#    0.000    0.500    6.250    1.875    7.000    1.000 
#    2.250    1.250    0.000    0.000    0.000    0.000 
#    0.000    0.000    0.000    0.000    0.000    0.000 
#
# Total GULP energy -89219.970156 kJ/mol
# GULP energy per Si atom -5576.248135 kJ/mol
# Density = 2.291174 g / cm^3
# Si number density = 22.964007 Si / 1000 Ang^3
#
#
#
# Elastic Constant Matrix: (Units=GPa)
#
#
# Indices 1 2 3 4 5 6 
#
# 1 85.7304 46.4479 62.5703 -3.4293 -6.1910 22.6952
# 2 46.4479 86.3969 71.4402 -4.6222 -22.6079 12.2487
# 3 62.5703 71.4402 173.7995 9.0176 -25.1225 12.0460
# 4 -3.4293 -4.6222 9.0176 46.9154 -2.6876 -5.3654
# 5 -6.1910 -22.6079 -25.1225 -2.6876 42.2796 -6.6127
# 6 22.6952 12.2487 12.0460 -5.3654 -6.6127 34.6708
#
#
#
# Elastic Compliance Matrix: (Units=1/GPa)
#
#
# Indices 1 2 3 4 5 6 
#
# 1 0.021762 -0.007651 -0.004725 0.000189 -0.005405 -0.010902
# 2 -0.007651 0.022366 -0.005537 0.003282 0.007922 0.001049
# 3 -0.004725 -0.005537 0.010102 -0.002508 0.002444 0.001617
# 4 0.000189 0.003282 -0.002508 0.022669 0.002286 0.003532
# 5 -0.005405 0.007922 0.002444 0.002286 0.029616 0.005893
# 6 -0.010902 0.001049 0.001617 0.003532 0.005893 0.036717
#
#
# Mechanical properties :
#
#
# Convention : Reuss Voigt Hill
#
# Bulk Modulus (GPa) = 54.33714 78.53816 66.43765
# Shear Modulus (GPa) = 26.99905 35.80438 31.40171
#
# Velocity S-wave (km/s) = 3.43259 3.95289 3.70189
# Velocity P-wave (km/s) = 6.27881 7.42352 6.87503
#
# Compressibility (1/GPa) = 0.01840362
#
# Stress axis : x y z
#
# Youngs Moduli (GPa) = 45.95270 44.71078 98.98965
#
# Poissons Ratio (x) = 0.34208 0.46773
# Poissons Ratio (y) = 0.35158 0.54811
# Poissons Ratio (z) = 0.21713 0.24756
#
# Static dielectric constant tensor:
#      x y z
#    x 1.921490 0.041280 0.042720 
#    y 0.041280 1.870300 0.087950 
#    z 0.042720 0.087950 1.940920 
# 
# From -- ./inp_files/393077.got.cif
#   From: 2010.05.17/outbox.cif.g08.bks.cpg/sg2_197_cif.got.tgz:393077.got - 2010.06.03 11:33:40.
