data_PCOD9044959
_publ_section_title
;
Structure prediction by ZEFSAII (Michael W. Deem and Ramdas Pophale) SiO2 
 PCOD9044959
Probable space group: P -1
;
_chemical_formula_sum "Si O2"
_cell_formula_units_Z 10
_cell_length_a 6.522430
_cell_length_b 11.696556
_cell_length_c 6.067835
_cell_angle_alpha 86.893268
_cell_angle_beta 77.251884
_cell_angle_gamma 78.398858
_cell_volume 442.256857
_symmetry_space_group_name_H-M "P -1"
_symmetry_group_IT_number 2
_symmetry_cell_setting 'triclinic'
loop_
_space_group_symop_operation_xyz
x,y,z
-x,-y,-z
loop_
_atom_site_type_symbol
_atom_site_label
_atom_site_fract_x
_atom_site_fract_y
_atom_site_fract_z
Si Si1 0.329355 0.258251 0.921840
Si Si2 0.034501 0.085713 0.178241
Si Si3 0.353080 0.916936 0.441227
Si Si4 0.452666 0.602207 0.815687
Si Si5 0.807820 0.524771 0.370458
O O1 0.492344 0.183724 0.717492
O O2 0.199081 0.372257 0.815998
O O3 0.160544 0.183518 0.056430
O O4 0.479780 0.291708 0.078791
O O5 0.805394 0.129325 0.345214
O O6 0.193189 0.002388 0.312109
O O7 0.000000 0.000000 0.000000
O O8 0.500000 0.000000 0.500000
O O9 0.613722 0.572013 0.577568
O O10 0.231770 0.586576 0.751406
O O11 0.500000 0.500000 0.000000
O O12 0.000000 0.500000 0.500000
#
# Coordination Sequence:
#
# PCOD9044959 Si02
#       5
#     2   2   2   2   2
#     4  11  24  45  73 101 143 192 223 287 362 399
#     4  11  25  46  68 105 142 185 235 284 347 414
#     4  11  25  46  69 102 148 178 238 290 333 427
#     4   9  22  46  66  98 138 177 233 286 350 405
#     4  10  23  48  70 103 138 176 239 290 339 425
#
# _framework density 22.611297
#
# number of rings (size 3 to 8) (size 9 to 14) (size 15 to 20)
#    0.000    1.600    2.000    0.600    2.800    3.200 
#   28.800    0.000    0.000    0.000    0.000    0.000 
#    0.000    0.000    0.000    0.000    0.000    0.000 
#
# Total GULP energy -55886.430792 kJ/mol
# GULP energy per Si atom -5588.643079 kJ/mol
# Density = 2.255983 g / cm^3
# Si number density = 22.611297 Si / 1000 Ang^3
#
#
#
# Elastic Constant Matrix: (Units=GPa)
#
#
# Indices 1 2 3 4 5 6 
#
# 1 193.6415 92.1493 94.6722 8.2097 23.5713 31.7721
# 2 92.1493 124.9151 72.2850 5.9469 -1.4542 36.2158
# 3 94.6722 72.2850 141.1681 7.2084 -1.5585 31.8088
# 4 8.2097 5.9469 7.2084 57.2257 6.3898 7.5828
# 5 23.5713 -1.4542 -1.5585 6.3898 73.5275 3.0611
# 6 31.7721 36.2158 31.8088 7.5828 3.0611 45.6403
#
#
#
# Elastic Compliance Matrix: (Units=1/GPa)
#
#
# Indices 1 2 3 4 5 6 
#
# 1 0.010002 -0.005040 -0.004209 -0.000028 -0.003401 0.000202
# 2 -0.005040 0.015444 -0.002970 0.000162 0.002129 -0.006846
# 3 -0.004209 -0.002970 0.012203 -0.000383 0.001719 -0.003269
# 4 -0.000028 0.000162 -0.000383 0.018035 -0.001449 -0.002741
# 5 -0.003401 0.002129 0.001719 -0.001449 0.014949 -0.001281
# 6 0.000202 -0.006846 -0.003269 -0.002741 -0.001281 0.030022
#
#
# Mechanical properties :
#
#
# Convention : Reuss Voigt Hill
#
# Bulk Modulus (GPa) = 75.69739 108.65974 92.17856
# Shear Modulus (GPa) = 38.61101 48.65325 43.63213
#
# Velocity S-wave (km/s) = 4.13679 4.64370 4.39756
# Velocity P-wave (km/s) = 7.50785 8.76993 8.16332
#
# Compressibility (1/GPa) = 0.01321049
#
# Stress axis : x y z
#
# Youngs Moduli (GPa) = 99.97562 64.74902 81.95029
#
# Poissons Ratio (x) = 0.32634 0.34492
# Poissons Ratio (y) = 0.50389 0.24342
# Poissons Ratio (z) = 0.42079 0.19232
#
# Static dielectric constant tensor:
#      x y z
#    x 1.849270 0.057640 -0.015090 
#    y 0.057640 1.759320 -0.005480 
#    z -0.015090 -0.005480 1.817600 
# 
# From -- ./inp_files/1463.got.cif
#   From: 2010.05.17/outbox.cif.g08.bks.cpg/sg2_1_cif.got.tgz:1463.got - 2010.06.03 11:33:40.
