data_PCOD9044187
_publ_section_title
;
Structure prediction by ZEFSAII (Michael W. Deem and Ramdas Pophale) SiO2 
 PCOD9044187
Probable space group: P -1
;
_chemical_formula_sum "Si O2"
_cell_formula_units_Z 16
_cell_length_a 7.756317
_cell_length_b 15.808201
_cell_length_c 12.608646
_cell_angle_alpha 133.485951
_cell_angle_beta 44.881682
_cell_angle_gamma 143.977779
_cell_volume 616.399525
_symmetry_space_group_name_H-M "P -1"
_symmetry_group_IT_number 2
_symmetry_cell_setting 'triclinic'
loop_
_space_group_symop_operation_xyz
x,y,z
-x,-y,-z
loop_
_atom_site_type_symbol
_atom_site_label
_atom_site_fract_x
_atom_site_fract_y
_atom_site_fract_z
Si Si1 0.927058 0.892363 0.123624
Si Si2 0.699151 0.587679 0.883934
Si Si3 0.868554 0.868735 0.359173
Si Si4 0.700721 0.369908 0.357102
Si Si5 0.388330 0.861335 0.640106
Si Si6 0.667109 0.569062 0.290732
Si Si7 0.139108 0.197523 0.304421
Si Si8 0.739015 0.183759 0.665541
O O1 0.040041 0.910272 0.210307
O O2 0.571901 0.833437 0.229201
O O3 0.914269 0.765338 0.963966
O O4 0.126030 0.062406 0.147392
O O5 0.473975 0.542502 0.842243
O O6 0.932612 0.547534 0.733870
O O7 0.500000 0.500000 0.000000
O O8 0.524475 0.820652 0.452553
O O9 0.812622 0.727050 0.307606
O O10 0.000000 0.000000 0.500000
O O11 0.580888 0.217057 0.340916
O O12 0.603368 0.455592 0.539137
O O13 0.492011 0.320681 0.298687
O O14 0.033236 0.781306 0.692974
O O15 0.584327 0.041277 0.694309
O O16 0.984560 0.638570 0.276905
O O17 0.910655 0.155829 0.472699
#
# Coordination Sequence:
#
# PCOD9044187 Si02
#       8
#     2   2   2   2   2   2   2   2
#     4  11  20  35  59  92 128 156 203 245 313 372
#     4  12  26  43  60  84 125 176 205 255 315 373
#     4  11  16  30  62  95 114 153 199 249 299 354
#     4  10  24  40  65  91 119 165 218 256 312 366
#     4  10  17  33  63  97 128 143 200 268 311 350
#     4  10  21  38  63  89 124 160 213 246 298 372
#     4  10  19  36  63  99 124 156 205 266 312 363
#     4  10  18  34  63  97 124 158 202 257 307 370
#
# _framework density 25.957189
#
# number of rings (size 3 to 8) (size 9 to 14) (size 15 to 20)
#    0.000    1.500    5.000    2.625    0.000    1.000 
#    0.000    5.000    0.000    4.500    0.000    0.000 
#    0.000    0.000    0.000    0.000    0.000    0.000 
#
# Total GULP energy -89190.316449 kJ/mol
# GULP energy per Si atom -5574.394778 kJ/mol
# Density = 2.589811 g / cm^3
# Si number density = 25.957189 Si / 1000 Ang^3
#
#
#
# Elastic Constant Matrix: (Units=GPa)
#
#
# Indices 1 2 3 4 5 6 
#
# 1 39.4663 6.1530 9.0438 9.4146 -1.0745 17.5783
# 2 6.1530 109.8230 21.6807 17.4868 10.4880 7.5208
# 3 9.0438 21.6807 57.2718 18.9534 16.7711 9.8037
# 4 9.4146 17.4868 18.9534 50.3706 8.9478 3.1503
# 5 -1.0745 10.4880 16.7711 8.9478 27.6631 9.6110
# 6 17.5783 7.5208 9.8037 3.1503 9.6110 24.5632
#
#
#
# Elastic Compliance Matrix: (Units=1/GPa)
#
#
# Indices 1 2 3 4 5 6 
#
# 1 0.045564 0.000228 -0.003874 -0.008300 0.019863 -0.037838
# 2 0.000228 0.010172 -0.002552 -0.002338 -0.001000 -0.001568
# 3 -0.003874 -0.002552 0.024485 -0.005422 -0.011983 -0.000834
# 4 -0.008300 -0.002338 -0.005422 0.025001 -0.007159 0.008414
# 5 0.019863 -0.001000 -0.011983 -0.007159 0.057556 -0.030728
# 6 -0.037838 -0.001568 -0.000834 0.008414 -0.030728 0.079547
#
#
# Mechanical properties :
#
#
# Convention : Reuss Voigt Hill
#
# Bulk Modulus (GPa) = 14.74389 31.14622 22.94506
# Shear Modulus (GPa) = 18.02911 31.83162 24.93037
#
# Velocity S-wave (km/s) = 2.63833 3.50567 3.10246
# Velocity P-wave (km/s) = 3.86956 5.33024 4.65752
#
# Compressibility (1/GPa) = 0.06782471
#
# Stress axis : x y z
#
# Youngs Moduli (GPa) = 21.94712 98.31247 40.84176
#
# Poissons Ratio (x) = -0.02240 0.15822
# Poissons Ratio (y) = -0.00500 0.10422
# Poissons Ratio (z) = 0.08502 0.25086
#
# Static dielectric constant tensor:
#      x y z
#    x 2.511870 0.255650 0.028100 
#    y 0.255650 2.272890 -0.048490 
#    z 0.028100 -0.048490 2.058660 
# 
# From -- ./inp_files/507925.got.cif
#   From: 2010.05.17/outbox.cif.g08.bks.cpg/sg2_254_cif.got.tgz:507925.got - 2010.06.03 11:33:40.
