data_PCOD9044343
_publ_section_title
;
Structure prediction by ZEFSAII (Michael W. Deem and Ramdas Pophale) SiO2 
 PCOD9044343
Probable space group: P -1
;
_chemical_formula_sum "Si O2"
_cell_formula_units_Z 14
_cell_length_a 9.656828
_cell_length_b 10.154512
_cell_length_c 9.202885
_cell_angle_alpha 47.128209
_cell_angle_beta 94.089697
_cell_angle_gamma 117.029175
_cell_volume 548.639041
_symmetry_space_group_name_H-M "P -1"
_symmetry_group_IT_number 2
_symmetry_cell_setting 'triclinic'
loop_
_space_group_symop_operation_xyz
x,y,z
-x,-y,-z
loop_
_atom_site_type_symbol
_atom_site_label
_atom_site_fract_x
_atom_site_fract_y
_atom_site_fract_z
Si Si1 0.270202 0.605200 0.148126
Si Si2 0.548269 0.726272 0.273641
Si Si3 0.899672 0.129685 0.998581
Si Si4 0.241355 0.412015 0.977245
Si Si5 0.306151 0.065455 0.344273
Si Si6 0.521349 0.168869 0.519643
Si Si7 0.993396 0.691837 0.431951
O O1 0.462135 0.715565 0.124426
O O2 0.235504 0.515920 0.050020
O O3 0.169989 0.413542 0.403225
O O4 0.195362 0.748641 0.065175
O O5 0.500000 0.500000 0.500000
O O6 0.468662 0.798861 0.333176
O O7 0.745419 0.884793 0.171936
O O8 0.055213 0.238485 0.036966
O O9 0.975395 0.170477 0.811908
O O10 0.318817 0.272143 0.124001
O O11 0.344564 0.605057 0.722230
O O12 0.340613 0.100010 0.494492
O O13 0.448737 0.021790 0.353473
O O14 0.141962 0.847844 0.437621
O O15 0.000000 0.500000 0.500000
#
# Coordination Sequence:
#
# PCOD9044343 Si02
#       7
#     2   2   2   2   2   2   2
#     4  11  25  47  75 107 152 191 251 304 373 445
#     4  12  28  47  74 111 151 193 250 306 371 448
#     4  11  26  46  76 108 149 194 246 309 379 435
#     4  12  27  47  78 112 147 196 253 306 372 449
#     4  11  26  44  81 102 152 194 253 296 384 428
#     4  11  26  49  74 110 152 196 245 312 371 443
#     4  10  23  46  73 103 146 194 243 303 366 441
#
# _framework density 25.517686999999999
#
# number of rings (size 3 to 8) (size 9 to 14) (size 15 to 20)
#    0.000    0.857    0.000    6.429   12.000    1.143 
#    0.000    0.000    0.000    0.000    0.000    0.000 
#    0.000    0.000    0.000    0.000    0.000    0.000 
#
# Total GULP energy -78408.113386 kJ/mol
# GULP energy per Si atom -5600.579528 kJ/mol
# Density = 2.545961 g / cm^3
# Si number density = 25.517687 Si / 1000 Ang^3
#
#
#
# Elastic Constant Matrix: (Units=GPa)
#
#
# Indices 1 2 3 4 5 6 
#
# 1 107.9485 43.4142 49.8132 -10.6910 13.1926 18.9933
# 2 43.4142 159.4058 49.6394 -2.4109 -15.9511 51.1731
# 3 49.8132 49.6394 146.0299 -14.6640 -7.8992 16.7113
# 4 -10.6910 -2.4109 -14.6640 47.9837 -7.0034 4.0217
# 5 13.1926 -15.9511 -7.8992 -7.0034 43.2769 10.7129
# 6 18.9933 51.1731 16.7113 4.0217 10.7129 39.8679
#
#
#
# Elastic Compliance Matrix: (Units=1/GPa)
#
#
# Indices 1 2 3 4 5 6 
#
# 1 0.012888 -0.003397 -0.003665 0.000581 -0.006086 0.001333
# 2 -0.003397 0.015940 -0.000632 0.003617 0.012929 -0.022415
# 3 -0.003665 -0.000632 0.009054 0.002647 0.003576 -0.002466
# 4 0.000581 0.003617 0.002647 0.024045 0.008166 -0.010649
# 5 -0.006086 0.012929 0.003576 0.008166 0.038209 -0.026286
# 6 0.001333 -0.022415 -0.002466 -0.010649 -0.026286 0.062391
#
#
# Mechanical properties :
#
#
# Convention : Reuss Voigt Hill
#
# Bulk Modulus (GPa) = 44.45581 77.67975 61.06778
# Shear Modulus (GPa) = 26.96701 44.26020 35.61360
#
# Velocity S-wave (km/s) = 3.25437 4.16924 3.73988
# Velocity P-wave (km/s) = 5.61966 7.32696 6.52936
#
# Compressibility (1/GPa) = 0.02249425
#
# Stress axis : x y z
#
# Youngs Moduli (GPa) = 77.59314 62.73693 110.44393
#
# Poissons Ratio (x) = 0.21311 0.40477
# Poissons Ratio (y) = 0.26358 0.06978
# Poissons Ratio (z) = 0.28438 0.03964
#
# Static dielectric constant tensor:
#      x y z
#    x 2.038970 -0.098060 -0.010940 
#    y -0.098060 2.267170 0.025810 
#    z -0.010940 0.025810 2.048730 
# 
# From -- ./inp_files/256425.got.cif
#   From: 2010.05.17/outbox.cif.g08.bks.cpg/sg2_129_cif.got.tgz:256425.got - 2010.06.03 11:33:40.
