data_PCOD9044555
_publ_section_title
;
Structure prediction by ZEFSAII (Michael W. Deem and Ramdas Pophale) SiO2 
 PCOD9044555
Probable space group: P -1
;
_chemical_formula_sum "Si O2"
_cell_formula_units_Z 9
_cell_length_a 11.314739
_cell_length_b 8.991777
_cell_length_c 6.977718
_cell_angle_alpha 51.187846
_cell_angle_beta 63.217296
_cell_angle_gamma 38.775931
_cell_volume 345.381463
_symmetry_space_group_name_H-M "P -1"
_symmetry_group_IT_number 2
_symmetry_cell_setting 'triclinic'
loop_
_space_group_symop_operation_xyz
x,y,z
-x,-y,-z
loop_
_atom_site_type_symbol
_atom_site_label
_atom_site_fract_x
_atom_site_fract_y
_atom_site_fract_z
Si Si1 0.755277 0.354068 0.340907
Si Si2 0.101777 0.622210 0.423292
Si Si3 0.961481 0.702663 0.077487
Si Si4 0.638140 0.069940 0.709137
Si Si5 0.500000 0.000000 0.500000
O O1 0.849966 0.259488 0.560436
O O2 0.720159 0.172393 0.456962
O O3 0.554153 0.660362 0.269168
O O4 0.878867 0.354882 0.111408
O O5 0.011553 0.544806 0.678461
O O6 0.301347 0.332175 0.430688
O O7 0.961502 0.805654 0.201239
O O8 0.777251 0.882621 0.934231
O O9 0.586723 0.967074 0.672773
#
# Coordination Sequence:
#
# PCOD9044555 Si02
#       5
#     2   2   2   2   1
#     4  10  23  47  66  99 134 173 219 277 323 398
#     4  10  25  41  67 103 130 171 229 259 337 392
#     4  11  24  42  71  99 132 177 215 278 325 396
#     4  10  24  45  70  95 137 173 221 270 336 382
#     4  10  24  44  66  98 134 174 222 268 322 406
#
# _framework density 26.058143999999999
#
# number of rings (size 3 to 8) (size 9 to 14) (size 15 to 20)
#    0.000    1.778    0.000    1.333   12.444    2.667 
#    4.000    3.333    0.000    0.000    0.000    0.000 
#    0.000    0.000    0.000    0.000    0.000    0.000 
#
# Total GULP energy -50198.914226 kJ/mol
# GULP energy per Si atom -5577.657136 kJ/mol
# Density = 2.599883 g / cm^3
# Si number density = 26.058144 Si / 1000 Ang^3
#
#
#
# Elastic Constant Matrix: (Units=GPa)
#
#
# Indices 1 2 3 4 5 6 
#
# 1 114.0318 30.1609 94.3286 2.6883 31.0504 -7.3463
# 2 30.1609 100.4148 55.3687 5.0990 1.3421 -9.0801
# 3 94.3286 55.3687 162.8480 8.1583 44.9060 -3.6753
# 4 2.6883 5.0990 8.1583 23.6136 -7.2945 7.8077
# 5 31.0504 1.3421 44.9060 -7.2945 61.8928 -4.3762
# 6 -7.3463 -9.0801 -3.6753 7.8077 -4.3762 50.3176
#
#
#
# Elastic Compliance Matrix: (Units=1/GPa)
#
#
# Indices 1 2 3 4 5 6 
#
# 1 0.017131 0.000300 -0.009590 0.000282 -0.001491 0.001681
# 2 0.000300 0.013148 -0.005584 -0.000597 0.003717 0.002424
# 3 -0.009590 -0.005584 0.015809 -0.005027 -0.007208 -0.001100
# 4 0.000282 -0.000597 -0.005027 0.049326 0.008815 -0.007321
# 5 -0.001491 0.003717 -0.007208 0.008815 0.023133 0.000571
# 6 0.001681 0.002424 -0.001100 -0.007321 0.000571 0.021662
#
#
# Mechanical properties :
#
#
# Convention : Reuss Voigt Hill
#
# Bulk Modulus (GPa) = 61.20423 81.89012 71.54718
# Shear Modulus (GPa) = 28.50572 40.32725 34.41648
#
# Velocity S-wave (km/s) = 3.31105 3.93821 3.63817
# Velocity P-wave (km/s) = 6.17705 7.22312 6.72047
#
# Compressibility (1/GPa) = 0.01633874
#
# Stress axis : x y z
#
# Youngs Moduli (GPa) = 58.37517 76.05898 63.25468
#
# Poissons Ratio (x) = -0.02283 0.60661
# Poissons Ratio (y) = -0.01752 0.35325
# Poissons Ratio (z) = 0.55982 0.42475
#
# Static dielectric constant tensor:
#      x y z
#    x 2.095980 -0.053890 0.058750 
#    y -0.053890 2.193240 -0.071730 
#    z 0.058750 -0.071730 2.130970 
# 
# From -- ./inp_files/58138.got.cif
#   From: 2010.05.17/outbox.cif.g08.bks.cpg/sg2_30_cif.got.tgz:58138.got - 2010.06.03 11:33:40.
