data_PCOD9044742
_publ_section_title
;
Structure prediction by ZEFSAII (Michael W. Deem and Ramdas Pophale) SiO2 
 PCOD9044742
Probable space group: P -1
;
_chemical_formula_sum "Si O2"
_cell_formula_units_Z 10
_cell_length_a 7.841774
_cell_length_b 5.639286
_cell_length_c 10.438136
_cell_angle_alpha 83.517335
_cell_angle_beta 94.156949
_cell_angle_gamma 62.664600
_cell_volume 403.366380
_symmetry_space_group_name_H-M "P -1"
_symmetry_group_IT_number 2
_symmetry_cell_setting 'triclinic'
loop_
_space_group_symop_operation_xyz
x,y,z
-x,-y,-z
loop_
_atom_site_type_symbol
_atom_site_label
_atom_site_fract_x
_atom_site_fract_y
_atom_site_fract_z
Si Si1 0.925243 0.967599 0.851363
Si Si2 0.967991 0.801079 0.393059
Si Si3 0.325022 0.653452 0.580539
Si Si4 0.486295 0.352779 0.877986
Si Si5 0.889947 0.658845 0.135180
O O1 0.699436 0.141035 0.858531
O O2 0.959357 0.017688 0.700130
O O3 0.044716 0.115087 0.909495
O O4 0.998327 0.648654 0.888551
O O5 0.933003 0.637328 0.289712
O O6 0.144645 0.632422 0.506538
O O7 0.768037 0.019945 0.431929
O O8 0.500000 0.500000 0.500000
O O9 0.392680 0.544462 0.735749
O O10 0.335760 0.239481 0.904965
O O11 0.500000 0.500000 0.000000
#
# Coordination Sequence:
#
# PCOD9044742 Si02
#       5
#     2   2   2   2   2
#     4  10  23  47  72 107 140 192 233 302 357 425
#     4   9  22  42  74 100 138 185 236 294 356 409
#     4  11  20  44  72 104 143 183 242 295 356 427
#     4  12  26  44  73 108 145 192 239 292 364 433
#     4  10  23  48  71 105 147 183 245 294 361 423
#
# _framework density 24.791356
#
# number of rings (size 3 to 8) (size 9 to 14) (size 15 to 20)
#    1.200    0.400    4.000    0.000    0.000    7.200 
#    0.000    7.000    0.000    0.000    0.000    0.000 
#    0.000    0.000    0.000    0.000    0.000    0.000 
#
# Total GULP energy -55851.794945 kJ/mol
# GULP energy per Si atom -5585.179494 kJ/mol
# Density = 2.473493 g / cm^3
# Si number density = 24.791356 Si / 1000 Ang^3
#
#
#
# Elastic Constant Matrix: (Units=GPa)
#
#
# Indices 1 2 3 4 5 6 
#
# 1 178.5851 93.9464 62.6979 -17.3092 7.0817 -5.8027
# 2 93.9464 156.3946 93.2876 -0.2217 -4.1182 -23.6092
# 3 62.6979 93.2876 187.0713 8.4979 28.0385 8.3655
# 4 -17.3092 -0.2217 8.4979 58.3012 3.2222 -1.5389
# 5 7.0817 -4.1182 28.0385 3.2222 56.2309 -5.5143
# 6 -5.8027 -23.6092 8.3655 -1.5389 -5.5143 61.1261
#
#
#
# Elastic Compliance Matrix: (Units=1/GPa)
#
#
# Indices 1 2 3 4 5 6 
#
# 1 0.008797 -0.005572 0.000048 0.002647 -0.001831 -0.001422
# 2 -0.005572 0.014888 -0.006692 -0.000769 0.005824 0.006643
# 3 0.000048 -0.006692 0.009783 -0.001238 -0.005742 -0.004468
# 4 0.002647 -0.000769 -0.001238 0.018171 -0.000764 0.000512
# 5 -0.001831 0.005824 -0.005742 -0.000764 0.021819 0.004811
# 6 -0.001422 0.006643 -0.004468 0.000512 0.004811 0.019849
#
#
# Mechanical properties :
#
#
# Convention : Reuss Voigt Hill
#
# Bulk Modulus (GPa) = 110.66522 113.54608 112.10565
# Shear Modulus (GPa) = 41.40725 53.27292 47.34009
#
# Velocity S-wave (km/s) = 4.09128 4.64060 4.37457
# Velocity P-wave (km/s) = 8.18863 8.63792 8.41627
#
# Compressibility (1/GPa) = 0.00903626
#
# Stress axis : x y z
#
# Youngs Moduli (GPa) = 113.67544 67.16763 102.21774
#
# Poissons Ratio (x) = 0.37428 -0.00493
# Poissons Ratio (y) = 0.63343 0.68403
# Poissons Ratio (z) = -0.00548 0.44948
#
# Static dielectric constant tensor:
#      x y z
#    x 1.984440 0.092980 -0.113590 
#    y 0.092980 1.997850 -0.065140 
#    z -0.113590 -0.065140 2.131880 
# 
# From -- ./inp_files/371932.got.cif
#   From: 2010.05.17/outbox.cif.g08.bks.cpg/sg2_186_cif.got.tgz:371932.got - 2010.06.03 11:33:40.
