data_PCOD9044876
_publ_section_title
;
Structure prediction by ZEFSAII (Michael W. Deem and Ramdas Pophale) SiO2 
 PCOD9044876
Probable space group: P -1
;
_chemical_formula_sum "Si O2"
_cell_formula_units_Z 12
_cell_length_a 7.343226
_cell_length_b 9.737980
_cell_length_c 11.386401
_cell_angle_alpha 138.125703
_cell_angle_beta 75.732792
_cell_angle_gamma 79.979750
_cell_volume 438.989992
_symmetry_space_group_name_H-M "P -1"
_symmetry_group_IT_number 2
_symmetry_cell_setting 'triclinic'
loop_
_space_group_symop_operation_xyz
x,y,z
-x,-y,-z
loop_
_atom_site_type_symbol
_atom_site_label
_atom_site_fract_x
_atom_site_fract_y
_atom_site_fract_z
Si Si1 0.783576 0.897809 0.524234
Si Si2 0.852992 0.511777 0.641310
Si Si3 0.640494 0.203023 0.094911
Si Si4 0.265632 0.175066 0.785723
Si Si5 0.271061 0.642895 0.057518
Si Si6 0.143848 0.866322 0.744509
O O1 0.757312 0.901789 0.391075
O O2 0.840678 0.085635 0.693297
O O3 0.971914 0.625767 0.368330
O O4 0.528677 0.001990 0.673464
O O5 0.604641 0.754569 0.858791
O O6 0.000000 0.500000 0.500000
O O7 0.778495 0.328335 0.495036
O O8 0.659249 0.360492 0.089862
O O9 0.682264 0.250349 0.250736
O O10 0.890840 0.948582 0.874592
O O11 0.195550 0.455807 0.971964
O O12 0.132800 0.105113 0.849398
O O13 0.500000 0.500000 0.000000
#
# Coordination Sequence:
#
# PCOD9044876 Si02
#       6
#     2   2   2   2   2   2
#     4  10  23  48  77 114 153 203 255 315 373 459
#     4  12  27  46  76 112 155 201 256 317 385 454
#     4  11  26  49  75 108 156 198 257 315 379 458
#     4  10  24  46  83 109 157 203 253 311 389 448
#     4  10  23  47  77 115 150 201 253 314 377 456
#     4  11  26  50  74 111 154 206 253 317 382 456
#
# _framework density 27.335477999999998
#
# number of rings (size 3 to 8) (size 9 to 14) (size 15 to 20)
#    0.000    1.333    1.667    1.500    9.333    3.333 
#   12.000    0.000    0.000    1.000    0.000    0.000 
#    0.000    0.000    0.000    0.000    0.000    0.000 
#
# Total GULP energy -67113.302989 kJ/mol
# GULP energy per Si atom -5592.775249 kJ/mol
# Density = 2.727326 g / cm^3
# Si number density = 27.335478 Si / 1000 Ang^3
#
#
#
# Elastic Constant Matrix: (Units=GPa)
#
#
# Indices 1 2 3 4 5 6 
#
# 1 154.9723 73.2603 60.1660 -13.8158 -37.0639 6.1321
# 2 73.2603 161.3013 57.3584 0.7513 -8.8382 -22.9437
# 3 60.1660 57.3584 135.3864 1.5296 -28.7699 10.0986
# 4 -13.8158 0.7513 1.5296 36.4152 -1.0226 -1.7656
# 5 -37.0639 -8.8382 -28.7699 -1.0226 74.7506 2.2161
# 6 6.1321 -22.9437 10.0986 -1.7656 2.2161 54.1964
#
#
#
# Elastic Compliance Matrix: (Units=1/GPa)
#
#
# Indices 1 2 3 4 5 6 
#
# 1 0.010758 -0.004409 -0.001853 0.004235 0.004240 -0.002774
# 2 -0.004409 0.009960 -0.003152 -0.001554 -0.002402 0.005350
# 3 -0.001853 -0.003152 0.010390 -0.001152 0.002787 -0.003212
# 4 0.004235 -0.001554 -0.001152 0.029198 0.001874 -0.000048
# 5 0.004240 -0.002402 0.002787 0.001874 0.016372 -0.002624
# 6 -0.002774 0.005350 -0.003212 -0.000048 -0.002624 0.021734
#
#
# Mechanical properties :
#
#
# Convention : Reuss Voigt Hill
#
# Bulk Modulus (GPa) = 81.43627 92.58106 87.00867
# Shear Modulus (GPa) = 41.20889 50.46414 45.83651
#
# Velocity S-wave (km/s) = 3.88690 4.30129 4.09933
# Velocity P-wave (km/s) = 7.07107 7.65573 7.36920
#
# Compressibility (1/GPa) = 0.01227954
#
# Stress axis : x y z
#
# Youngs Moduli (GPa) = 92.95659 100.40558 96.24782
#
# Poissons Ratio (x) = 0.44270 0.17832
# Poissons Ratio (y) = 0.40986 0.30337
# Poissons Ratio (z) = 0.17222 0.31647
#
# Static dielectric constant tensor:
#      x y z
#    x 2.159030 0.026750 -0.041540 
#    y 0.026750 2.088530 0.031050 
#    z -0.041540 0.031050 2.200600 
# 
# From -- ./inp_files/228728.got.cif
#   From: 2010.05.17/outbox.cif.g08.bks.cpg/sg2_115_cif.got.tgz:228728.got - 2010.06.03 11:33:40.
