data_PCOD9044743
_publ_section_title
;
Structure prediction by ZEFSAII (Michael W. Deem and Ramdas Pophale) SiO2 
 PCOD9044743
Probable space group: P -1
;
_chemical_formula_sum "Si O2"
_cell_formula_units_Z 13
_cell_length_a 9.656308
_cell_length_b 10.368141
_cell_length_c 7.142728
_cell_angle_alpha 101.659141
_cell_angle_beta 131.533821
_cell_angle_gamma 67.492778
_cell_volume 493.150485
_symmetry_space_group_name_H-M "P -1"
_symmetry_group_IT_number 2
_symmetry_cell_setting 'triclinic'
loop_
_space_group_symop_operation_xyz
x,y,z
-x,-y,-z
loop_
_atom_site_type_symbol
_atom_site_label
_atom_site_fract_x
_atom_site_fract_y
_atom_site_fract_z
Si Si1 0.254047 0.219925 0.709697
Si Si2 0.770498 0.901511 0.737274
Si Si3 0.518702 0.774607 0.734288
Si Si4 0.884970 0.165978 0.457073
Si Si5 0.782068 0.202330 0.943395
Si Si6 0.500000 0.500000 0.500000
Si Si7 0.596110 0.558947 0.268578
O O1 0.272542 0.113485 0.524524
O O2 0.270451 0.358322 0.666171
O O3 0.056267 0.232577 0.645734
O O4 0.427081 0.178479 0.001773
O O5 0.628198 0.840227 0.704250
O O6 0.747111 0.057104 0.829143
O O7 0.002731 0.812730 0.942182
O O8 0.282878 0.819355 0.536892
O O9 0.595837 0.607449 0.730599
O O10 0.791985 0.215143 0.181857
O O11 0.000000 0.000000 0.500000
O O12 0.596986 0.337819 0.753455
O O13 0.680168 0.459499 0.486582
O O14 0.500000 0.500000 0.000000
#
# Coordination Sequence:
#
# PCOD9044743 Si02
#       7
#     2   2   2   2   2   1   2
#     4  11  24  45  72 103 142 191 230 288 360 417
#     4  10  24  45  74 109 140 183 237 295 365 418
#     4  12  25  48  71 106 145 188 237 294 354 423
#     4  11  25  44  71 111 147 182 237 292 357 433
#     4  10  23  47  72 107 146 185 238 297 357 431
#     4  12  26  44  74 102 138 192 242 292 346 422
#     4  12  24  48  73 101 146 190 241 294 353 420
#
# _framework density 26.361122999999999
#
# number of rings (size 3 to 8) (size 9 to 14) (size 15 to 20)
#    0.000    0.923    4.615    0.923    2.154    6.769 
#    2.769    5.385    0.000    0.000    0.000    0.000 
#    0.000    0.000    0.000    0.000    0.000    0.000 
#
# Total GULP energy -72631.189868 kJ/mol
# GULP energy per Si atom -5587.014605 kJ/mol
# Density = 2.630112 g / cm^3
# Si number density = 26.361123 Si / 1000 Ang^3
#
#
#
# Elastic Constant Matrix: (Units=GPa)
#
#
# Indices 1 2 3 4 5 6 
#
# 1 230.7403 41.4607 21.8910 4.3878 55.5565 15.8550
# 2 41.4607 105.3381 14.5153 14.9692 37.9895 1.6393
# 3 21.8910 14.5153 90.7444 14.1425 20.8839 -5.5914
# 4 4.3878 14.9692 14.1425 44.6021 0.2323 9.5908
# 5 55.5565 37.9895 20.8839 0.2323 61.2404 3.8833
# 6 15.8550 1.6393 -5.5914 9.5908 3.8833 41.8776
#
#
#
# Elastic Compliance Matrix: (Units=1/GPa)
#
#
# Indices 1 2 3 4 5 6 
#
# 1 0.005690 -0.000522 -0.000362 0.000138 -0.004602 -0.001787
# 2 -0.000522 0.013166 0.000736 -0.004914 -0.008031 0.001650
# 3 -0.000362 0.000736 0.013099 -0.005085 -0.004796 0.003467
# 4 0.000138 -0.004914 -0.005085 0.027198 0.005012 -0.007233
# 5 -0.004602 -0.008031 -0.004796 0.005012 0.027246 -0.002258
# 6 -0.001787 0.001650 0.003467 -0.007233 -0.002258 0.026820
#
#
# Mechanical properties :
#
#
# Convention : Reuss Voigt Hill
#
# Bulk Modulus (GPa) = 31.58598 64.72854 48.15726
# Shear Modulus (GPa) = 40.30050 52.80774 46.55412
#
# Velocity S-wave (km/s) = 3.91421 4.48062 4.20696
# Velocity P-wave (km/s) = 5.69527 7.16769 6.47348
#
# Compressibility (1/GPa) = 0.03165961
#
# Stress axis : x y z
#
# Youngs Moduli (GPa) = 175.73959 75.95237 76.33939
#
# Poissons Ratio (x) = 0.03964 0.02762
# Poissons Ratio (y) = 0.09172 -0.05615
# Poissons Ratio (z) = 0.06357 -0.05587
#
# Static dielectric constant tensor:
#      x y z
#    x 1.900950 -0.268470 0.090710 
#    y -0.268470 1.820430 0.226020 
#    z 0.090710 0.226020 1.974920 
# 
# From -- ./inp_files/172484.got.cif
#   From: 2010.05.17/outbox.cif.g08.bks.cpg/sg2_87_cif.got.tgz:172484.got - 2010.06.03 11:33:40.
