data_PCOD9044159
_publ_section_title
;
Structure prediction by ZEFSAII (Michael W. Deem and Ramdas Pophale) SiO2 
 PCOD9044159
Probable space group: P -1
;
_chemical_formula_sum "Si O2"
_cell_formula_units_Z 15
_cell_length_a 8.859595
_cell_length_b 11.880563
_cell_length_c 8.008601
_cell_angle_alpha 107.681955
_cell_angle_beta 128.184867
_cell_angle_gamma 76.974240
_cell_volume 630.485045
_symmetry_space_group_name_H-M "P -1"
_symmetry_group_IT_number 2
_symmetry_cell_setting 'triclinic'
loop_
_space_group_symop_operation_xyz
x,y,z
-x,-y,-z
loop_
_atom_site_type_symbol
_atom_site_label
_atom_site_fract_x
_atom_site_fract_y
_atom_site_fract_z
Si Si1 0.663668 0.019998 0.354406
Si Si2 0.699974 0.801867 0.779967
Si Si3 0.706857 0.765552 0.364386
Si Si4 0.546117 0.397682 0.356028
Si Si5 0.308706 0.693477 0.018348
Si Si6 0.143310 0.778639 0.595360
Si Si7 0.910282 0.100099 0.858166
Si Si8 0.500000 0.500000 0.000000
O O1 0.460958 0.091569 0.265399
O O2 0.790959 0.088838 0.339210
O O3 0.798469 0.030222 0.612629
O O4 0.621901 0.882738 0.262498
O O5 0.718914 0.775999 0.580308
O O6 0.620191 0.693102 0.775267
O O7 0.897113 0.833702 0.015939
O O8 0.547368 0.669896 0.169950
O O9 0.920292 0.754888 0.434909
O O10 0.500000 0.500000 0.500000
O O11 0.737150 0.312695 0.482922
O O12 0.564184 0.450982 0.210267
O O13 0.244311 0.793510 0.150293
O O14 0.219066 0.751213 0.819204
O O15 0.278167 0.556486 0.951816
O O16 0.000000 0.000000 0.000000
#
# Coordination Sequence:
#
# PCOD9044159 Si02
#       8
#     2   2   2   2   2   2   2   1
#     4  11  23  38  63  99 139 175 219 277 339 409
#     4  11  22  39  67  99 131 179 228 267 344 403
#     4  12  21  39  68  97 133 182 220 273 345 408
#     4  10  23  46  70  96 133 178 229 292 336 401
#     4  11  23  42  66  90 134 175 221 283 333 395
#     4  10  24  41  62  96 136 171 223 279 338 407
#     4  12  22  39  67  99 135 175 218 275 330 406
#     4  10  24  46  68  92 136 176 222 290 344 382
#
# _framework density 23.791205999999999
#
# number of rings (size 3 to 8) (size 9 to 14) (size 15 to 20)
#    0.000    1.067    4.000    2.400    1.867    3.733 
#    2.400    2.667    0.000    0.000    0.000    0.000 
#    0.000    0.000    0.000    0.000    0.000    0.000 
#
# Total GULP energy -83590.812032 kJ/mol
# GULP energy per Si atom -5572.720802 kJ/mol
# Density = 2.373706 g / cm^3
# Si number density = 23.791206 Si / 1000 Ang^3
#
#
#
# Elastic Constant Matrix: (Units=GPa)
#
#
# Indices 1 2 3 4 5 6 
#
# 1 87.4932 20.9230 9.0126 9.1667 33.9638 -8.8048
# 2 20.9230 109.2621 0.2599 -9.0661 6.6958 -2.3549
# 3 9.0126 0.2599 59.9771 0.3415 18.6602 -1.1818
# 4 9.1667 -9.0661 0.3415 29.5322 8.1069 -4.5824
# 5 33.9638 6.6958 18.6602 8.1069 38.8278 5.6760
# 6 -8.8048 -2.3549 -1.1818 -4.5824 5.6760 18.6151
#
#
#
# Elastic Compliance Matrix: (Units=1/GPa)
#
#
# Indices 1 2 3 4 5 6 
#
# 1 0.022972 -0.002293 0.004757 0.001978 -0.025182 0.019043
# 2 -0.002293 0.010066 0.000691 0.004392 -0.001226 0.001688
# 3 0.004757 0.000691 0.021426 0.004723 -0.017033 0.010054
# 4 0.001978 0.004392 0.004723 0.041519 -0.015891 0.016857
# 5 -0.025182 -0.001226 -0.017033 -0.015891 0.064883 -0.036842
# 6 0.019043 0.001688 0.010054 0.016857 -0.036842 0.078962
#
#
# Mechanical properties :
#
#
# Convention : Reuss Voigt Hill
#
# Bulk Modulus (GPa) = 16.45483 35.23593 25.84538
# Shear Modulus (GPa) = 19.70249 32.49749 26.09999
#
# Velocity S-wave (km/s) = 2.88087 3.69988 3.31576
# Velocity P-wave (km/s) = 4.24231 5.75281 5.05431
#
# Compressibility (1/GPa) = 0.06077242
#
# Stress axis : x y z
#
# Youngs Moduli (GPa) = 43.53125 99.34796 46.67288
#
# Poissons Ratio (x) = 0.22776 -0.22200
# Poissons Ratio (y) = 0.09980 -0.03223
# Poissons Ratio (z) = -0.20706 -0.06861
#
# Static dielectric constant tensor:
#      x y z
#    x 2.083360 0.154690 0.018450 
#    y 0.154690 3.458260 0.500200 
#    z 0.018450 0.500200 2.025680 
# 
# From -- ./inp_files/177237.got.cif
#   From: 2010.05.17/outbox.cif.g08.bks.cpg/sg2_89_cif.got.tgz:177237.got - 2010.06.03 11:33:40.
