data_PCOD9044795
_publ_section_title
;
Structure prediction by ZEFSAII (Michael W. Deem and Ramdas Pophale) SiO2 
 PCOD9044795
Probable space group: P -1
;
_chemical_formula_sum "Si O2"
_cell_formula_units_Z 13
_cell_length_a 6.682363
_cell_length_b 8.168925
_cell_length_c 16.677337
_cell_angle_alpha 45.367873
_cell_angle_beta 101.500901
_cell_angle_gamma 75.671857
_cell_volume 527.777095
_symmetry_space_group_name_H-M "P -1"
_symmetry_group_IT_number 2
_symmetry_cell_setting 'triclinic'
loop_
_space_group_symop_operation_xyz
x,y,z
-x,-y,-z
loop_
_atom_site_type_symbol
_atom_site_label
_atom_site_fract_x
_atom_site_fract_y
_atom_site_fract_z
Si Si1 0.976121 0.623398 0.619712
Si Si2 0.954581 0.013241 0.616662
Si Si3 0.583198 0.791605 0.312910
Si Si4 0.594259 0.305167 0.150262
Si Si5 0.152166 0.792886 0.208485
Si Si6 0.500000 0.500000 0.500000
Si Si7 0.359219 0.843005 0.041134
O O1 0.829248 0.490405 0.681627
O O2 0.987755 0.762618 0.654568
O O3 0.234662 0.363988 0.692615
O O4 0.921510 0.860572 0.469632
O O5 0.113454 0.898591 0.749770
O O6 0.676520 0.240546 0.537800
O O7 0.340808 0.772738 0.299080
O O8 0.694173 0.604211 0.464786
O O9 0.500738 0.102877 0.208507
O O10 0.511471 0.520020 0.142155
O O11 0.500000 0.500000 0.000000
O O12 0.259404 0.854102 0.117910
O O13 0.862471 0.012262 0.091783
O O14 0.500000 0.000000 0.000000
#
# Coordination Sequence:
#
# PCOD9044795 Si02
#       7
#     2   2   2   2   2   1   2
#     4  10  23  47  74 102 139 196 245 302 359 427
#     4  10  24  47  73 104 146 189 246 304 360 431
#     4  11  26  43  69 108 145 189 237 299 363 427
#     4  12  26  43  72 104 151 192 230 302 372 432
#     4  11  23  42  75  98 145 194 242 292 354 445
#     4  10  26  44  70 106 142 184 240 302 358 422
#     4  11  25  46  69 107 145 194 242 297 356 435
#
# _framework density 24.631610999999999
#
# number of rings (size 3 to 8) (size 9 to 14) (size 15 to 20)
#    0.000    1.231    0.000    4.615    8.615    3.077 
#    0.000    3.077    0.000    0.000    0.000    0.000 
#    0.000    0.000    0.000    0.000    0.000    0.000 
#
# Total GULP energy -72398.042037 kJ/mol
# GULP energy per Si atom -5569.080157 kJ/mol
# Density = 2.457555 g / cm^3
# Si number density = 24.631611 Si / 1000 Ang^3
#
#
#
# Elastic Constant Matrix: (Units=GPa)
#
#
# Indices 1 2 3 4 5 6 
#
# 1 168.4961 75.6335 55.4007 -27.8028 -36.3487 23.5808
# 2 75.6335 102.5192 37.0560 -21.3638 -20.9192 22.9176
# 3 55.4007 37.0560 128.8946 -12.4823 -13.6266 13.6045
# 4 -27.8028 -21.3638 -12.4823 45.4364 7.3241 -21.2668
# 5 -36.3487 -20.9192 -13.6266 7.3241 64.6429 -9.4665
# 6 23.5808 22.9176 13.6045 -21.2668 -9.4665 36.6281
#
#
#
# Elastic Compliance Matrix: (Units=1/GPa)
#
#
# Indices 1 2 3 4 5 6 
#
# 1 0.010296 -0.005608 -0.002229 0.002539 0.003219 0.000014
# 2 -0.005608 0.015937 -0.001446 0.001242 0.000843 -0.004885
# 3 -0.002229 -0.001446 0.009253 -0.000025 0.000072 -0.001093
# 4 0.002539 0.001242 -0.000025 0.031570 0.000603 0.016083
# 5 0.003219 0.000843 0.000072 0.000603 0.017841 0.002334
# 6 0.000014 -0.004885 -0.001093 0.016083 0.002334 0.040696
#
#
# Mechanical properties :
#
#
# Convention : Reuss Voigt Hill
#
# Bulk Modulus (GPa) = 59.09984 81.78782 70.44383
# Shear Modulus (GPa) = 33.37801 44.79615 39.08708
#
# Velocity S-wave (km/s) = 3.68515 4.26918 3.98787
# Velocity P-wave (km/s) = 6.49251 7.58800 7.06153
#
# Compressibility (1/GPa) = 0.01692052
#
# Stress axis : x y z
#
# Youngs Moduli (GPa) = 97.12313 62.74679 108.07868
#
# Poissons Ratio (x) = 0.35186 0.24086
# Poissons Ratio (y) = 0.54463 0.15633
# Poissons Ratio (z) = 0.21644 0.09076
#
# Static dielectric constant tensor:
#      x y z
#    x 1.964900 -0.012990 -0.107660 
#    y -0.012990 1.750580 -0.673480 
#    z -0.107660 -0.673480 0.191810 
# 
# From -- ./inp_files/116209.got.cif
#   From: 2010.05.17/outbox.cif.g08.bks.cpg/sg2_59_cif.got.tgz:116209.got - 2010.06.03 11:33:40.
