data_PCOD9044745
_publ_section_title
;
Structure prediction by ZEFSAII (Michael W. Deem and Ramdas Pophale) SiO2 
 PCOD9044745
Probable space group: P -1
;
_chemical_formula_sum "Si O2"
_cell_formula_units_Z 16
_cell_length_a 22.939338
_cell_length_b 8.697842
_cell_length_c 5.040903
_cell_angle_alpha 91.427869
_cell_angle_beta 75.625975
_cell_angle_gamma 139.842890
_cell_volume 606.044152
_symmetry_space_group_name_H-M "P -1"
_symmetry_group_IT_number 2
_symmetry_cell_setting 'triclinic'
loop_
_space_group_symop_operation_xyz
x,y,z
-x,-y,-z
loop_
_atom_site_type_symbol
_atom_site_label
_atom_site_fract_x
_atom_site_fract_y
_atom_site_fract_z
Si Si1 0.774248 0.490397 0.785330
Si Si2 0.610428 0.166041 0.355186
Si Si3 0.891287 0.839224 0.166096
Si Si4 0.944414 0.270410 0.236414
Si Si5 0.858848 0.341201 0.713249
Si Si6 0.350975 0.464141 0.359831
Si Si7 0.450880 0.271112 0.724583
Si Si8 0.287797 0.158029 0.941219
O O1 0.843726 0.712916 0.500916
O O2 0.793315 0.349276 0.689661
O O3 0.663489 0.288726 0.015210
O O4 0.827935 0.628364 0.010083
O O5 0.659931 0.382823 0.515052
O O6 0.500000 0.000000 0.500000
O O7 0.603396 0.968993 0.396311
O O8 0.894760 0.030011 0.136492
O O9 0.000000 0.000000 0.000000
O O10 0.874866 0.234242 0.488658
O O11 0.033761 0.385237 0.321648
O O12 0.000000 0.500000 0.000000
O O13 0.802756 0.136249 0.997218
O O14 0.464995 0.649051 0.205111
O O15 0.290433 0.299924 0.161024
O O16 0.317443 0.292420 0.636890
O O17 0.500000 0.500000 0.500000
O O18 0.370355 0.207114 0.964147
#
# Coordination Sequence:
#
# PCOD9044745 Si02
#       8
#     2   2   2   2   2   2   2   2
#     4  12  27  48  74 111 145 202 243 299 373 438
#     4  10  23  47  72 107 150 191 245 304 358 433
#     4  12  27  48  78 107 153 189 248 305 369 442
#     4  11  27  46  72 104 143 191 234 305 368 436
#     4  11  26  44  70 102 143 185 243 291 365 428
#     4  10  24  40  67  98 142 178 231 285 358 401
#     4   9  19  44  68 100 137 186 229 291 354 417
#     4  11  23  42  67 101 133 183 233 289 337 433
#
# _framework density 26.400715999999999
#
# number of rings (size 3 to 8) (size 9 to 14) (size 15 to 20)
#    0.000    1.250    2.500    1.500    8.750    0.000 
#    0.000   18.125    0.000    0.000    0.000    0.000 
#    0.000    0.000    0.000    0.000    0.000    0.000 
#
# Total GULP energy -89483.906686 kJ/mol
# GULP energy per Si atom -5592.744168 kJ/mol
# Density = 2.634063 g / cm^3
# Si number density = 26.400716 Si / 1000 Ang^3
#
#
#
# Elastic Constant Matrix: (Units=GPa)
#
#
# Indices 1 2 3 4 5 6 
#
# 1 55.0093 22.8071 44.7848 -8.7400 -29.0072 -11.1287
# 2 22.8071 102.5385 9.8374 -12.1533 -17.2164 -24.6777
# 3 44.7848 9.8374 130.7322 -22.1696 -22.3373 3.7441
# 4 -8.7400 -12.1533 -22.1696 44.3846 -4.1365 1.0404
# 5 -29.0072 -17.2164 -22.3373 -4.1365 49.9521 -2.8553
# 6 -11.1287 -24.6777 3.7441 1.0404 -2.8553 60.1741
#
#
#
# Elastic Compliance Matrix: (Units=1/GPa)
#
#
# Indices 1 2 3 4 5 6 
#
# 1 0.038552 -0.002381 -0.009537 0.003680 0.018037 0.007539
# 2 -0.002381 0.012417 0.001050 0.003712 0.003943 0.004709
# 3 -0.009537 0.001050 0.011679 0.004319 0.000282 -0.002121
# 4 0.003680 0.003712 0.004319 0.027103 0.007697 0.001831
# 5 0.018037 0.003943 0.000282 0.007697 0.032980 0.006367
# 6 0.007539 0.004709 -0.002121 0.001831 0.006367 0.020347
#
#
# Mechanical properties :
#
#
# Convention : Reuss Voigt Hill
#
# Bulk Modulus (GPa) = 24.44378 49.23762 36.84070
# Shear Modulus (GPa) = 28.01889 44.95888 36.48889
#
# Velocity S-wave (km/s) = 3.26128 4.13115 3.72172
# Velocity P-wave (km/s) = 4.84357 6.43784 5.69675
#
# Compressibility (1/GPa) = 0.04091020
#
# Stress axis : x y z
#
# Youngs Moduli (GPa) = 25.93912 80.53636 85.62485
#
# Poissons Ratio (x) = 0.19174 0.81665
# Poissons Ratio (y) = 0.06175 -0.08988
# Poissons Ratio (z) = 0.24739 -0.08453
#
# Static dielectric constant tensor:
#      x y z
#    x 2.702990 0.011770 0.122380 
#    y 0.011770 2.119120 -0.095890 
#    z 0.122380 -0.095890 2.278840 
# 
# From -- ./inp_files/126468.got.cif
#   From: 2010.05.17/outbox.cif.g08.bks.cpg/sg2_64_cif.got.tgz:126468.got - 2010.06.03 11:33:40.
