data_PCOD9044695
_publ_section_title
;
Structure prediction by ZEFSAII (Michael W. Deem and Ramdas Pophale) SiO2 
 PCOD9044695
Probable space group: P -1
;
_chemical_formula_sum "Si O2"
_cell_formula_units_Z 15
_cell_length_a 15.692256
_cell_length_b 8.792437
_cell_length_c 8.728769
_cell_angle_alpha 47.306623
_cell_angle_beta 131.271308
_cell_angle_gamma 117.722984
_cell_volume 664.945098
_symmetry_space_group_name_H-M "P -1"
_symmetry_group_IT_number 2
_symmetry_cell_setting 'triclinic'
loop_
_space_group_symop_operation_xyz
x,y,z
-x,-y,-z
loop_
_atom_site_type_symbol
_atom_site_label
_atom_site_fract_x
_atom_site_fract_y
_atom_site_fract_z
Si Si1 0.114925 0.133119 0.038114
Si Si2 0.518792 0.269283 0.236095
Si Si3 0.683121 0.044232 0.769348
Si Si4 0.214313 0.800333 0.909096
Si Si5 0.773624 0.675360 0.662865
Si Si6 0.392336 0.985863 0.771325
Si Si7 0.000000 0.500000 0.500000
Si Si8 0.028609 0.360019 0.279831
O O1 0.151849 0.214762 0.191300
O O2 0.211018 0.982962 0.196298
O O3 0.093765 0.322794 0.769395
O O4 0.000000 0.000000 0.000000
O O5 0.607231 0.238511 0.500374
O O6 0.569650 0.127985 0.258425
O O7 0.399302 0.156802 0.211404
O O8 0.500000 0.500000 0.000000
O O9 0.732477 0.064227 0.983600
O O10 0.237709 0.564568 0.145165
O O11 0.284696 0.858324 0.801995
O O12 0.078252 0.803868 0.727298
O O13 0.845351 0.708258 0.568689
O O14 0.654467 0.784840 0.454308
O O15 0.500000 0.000000 0.000000
O O16 0.024065 0.477600 0.355717
O O17 0.000000 0.500000 0.000000
#
# Coordination Sequence:
#
# PCOD9044695 Si02
#       8
#     2   2   2   2   2   2   1   2
#     4  12  27  45  72 111 151 194 244 307 364 452
#     4  11  27  48  73  99 142 189 246 307 364 437
#     4  11  26  47  70 107 142 189 244 300 373 434
#     4  11  25  45  74 102 144 188 236 306 366 436
#     4  11  26  49  71 103 155 187 240 313 362 437
#     4  12  27  47  69 108 137 192 251 295 371 440
#     4  12  26  44  76 108 150 202 244 286 378 446
#     4  10  23  47  71 110 146 190 244 295 370 441
#
# _framework density 22.558252
#
# number of rings (size 3 to 8) (size 9 to 14) (size 15 to 20)
#    0.000    0.800    5.333    0.800    9.333    2.133 
#    0.000    0.000    0.000    0.000    0.000    0.000 
#    0.000    0.000    0.000    0.000    0.000    0.000 
#
# Total GULP energy -83643.066712 kJ/mol
# GULP energy per Si atom -5576.204447 kJ/mol
# Density = 2.250691 g / cm^3
# Si number density = 22.558252 Si / 1000 Ang^3
#
#
#
# Elastic Constant Matrix: (Units=GPa)
#
#
# Indices 1 2 3 4 5 6 
#
# 1 101.1694 14.2259 14.3368 9.3409 1.7082 1.8637
# 2 14.2259 36.8263 27.1387 1.3822 4.7054 1.8482
# 3 14.3368 27.1387 101.8709 -12.3614 12.2858 -9.3667
# 4 9.3409 1.3822 -12.3614 35.8262 -10.7297 -8.7482
# 5 1.7082 4.7054 12.2858 -10.7297 43.3577 4.1438
# 6 1.8637 1.8482 -9.3667 -8.7482 4.1438 38.2296
#
#
#
# Elastic Compliance Matrix: (Units=1/GPa)
#
#
# Indices 1 2 3 4 5 6 
#
# 1 0.010856 -0.002999 -0.001246 -0.003658 -0.000514 -0.001471
# 2 -0.002999 0.036681 -0.010348 -0.006086 -0.001926 -0.005346
# 3 -0.001246 -0.010348 0.014286 0.006514 -0.001813 0.005748
# 4 -0.003658 -0.006086 0.006514 0.035733 0.006894 0.009498
# 5 -0.000514 -0.001926 -0.001813 0.006894 0.025659 -0.001530
# 6 -0.001471 -0.005346 0.005748 0.009498 -0.001530 0.030236
#
#
# Mechanical properties :
#
#
# Convention : Reuss Voigt Hill
#
# Bulk Modulus (GPa) = 30.63876 39.02994 34.83435
# Shear Modulus (GPa) = 25.83767 35.76037 30.79902
#
# Velocity S-wave (km/s) = 3.38801 3.98583 3.69902
# Velocity P-wave (km/s) = 5.37739 6.20660 5.80682
#
# Compressibility (1/GPa) = 0.03263840
#
# Stress axis : x y z
#
# Youngs Moduli (GPa) = 92.11365 27.26175 69.99799
#
# Poissons Ratio (x) = 0.08175 0.08723
# Poissons Ratio (y) = 0.27621 0.72433
# Poissons Ratio (z) = 0.11479 0.28210
#
# Static dielectric constant tensor:
#      x y z
#    x 2.106850 -0.170150 0.247750 
#    y -0.170150 1.928720 -0.174710 
#    z 0.247750 -0.174710 2.122990 
# 
# From -- ./inp_files/294346.got.cif
#   From: 2010.05.17/outbox.cif.g08.bks.cpg/sg2_148_cif.got.tgz:294346.got - 2010.06.03 11:33:40.
