data_PCOD9044790
_publ_section_title
;
Structure prediction by ZEFSAII (Michael W. Deem and Ramdas Pophale) SiO2 
 PCOD9044790
Probable space group: P -1
;
_chemical_formula_sum "Si O2"
_cell_formula_units_Z 14
_cell_length_a 13.418738
_cell_length_b 5.293701
_cell_length_c 8.001576
_cell_angle_alpha 96.936001
_cell_angle_beta 97.387106
_cell_angle_gamma 86.204176
_cell_volume 558.805710
_symmetry_space_group_name_H-M "P -1"
_symmetry_group_IT_number 2
_symmetry_cell_setting 'triclinic'
loop_
_space_group_symop_operation_xyz
x,y,z
-x,-y,-z
loop_
_atom_site_type_symbol
_atom_site_label
_atom_site_fract_x
_atom_site_fract_y
_atom_site_fract_z
Si Si1 0.508246 0.961148 0.255138
Si Si2 0.594975 0.661965 0.996577
Si Si3 0.642521 0.235976 0.554594
Si Si4 0.951222 0.001016 0.172293
Si Si5 0.222592 0.288426 0.424640
Si Si6 0.186765 0.341899 0.037092
Si Si7 0.076641 0.467661 0.712004
O O1 0.559069 0.165670 0.396348
O O2 0.440609 0.121496 0.123257
O O3 0.430409 0.772023 0.301979
O O4 0.603550 0.805183 0.186107
O O5 0.702825 0.560102 0.955459
O O6 0.500000 0.500000 0.000000
O O7 0.724132 0.995129 0.568161
O O8 0.693823 0.497362 0.550710
O O9 0.837400 0.917441 0.091912
O O10 0.006434 0.240460 0.727313
O O11 0.961205 0.246365 0.308629
O O12 0.000000 0.000000 0.000000
O O13 0.171450 0.306720 0.228666
O O14 0.152140 0.367112 0.574536
O O15 0.118751 0.522686 0.915610
#
# Coordination Sequence:
#
# PCOD9044790 Si02
#       7
#     2   2   2   2   2   2   2
#     4  10  24  36  59  85 129 176 230 271 329 371
#     4  11  22  39  60  92 129 178 228 273 322 388
#     4  11  25  40  59  89 133 177 224 280 319 380
#     4  10  23  47  74 100 134 169 213 273 338 400
#     4  12  24  43  66  98 133 172 229 265 332 391
#     4  10  25  40  70  96 136 175 224 272 335 384
#     4  10  24  41  72  99 133 169 216 267 338 393
#
# _framework density 25.053429000000001
#
# number of rings (size 3 to 8) (size 9 to 14) (size 15 to 20)
#    0.857    0.571    1.429    3.000    8.000    2.286 
#    0.000    1.429    0.000    0.000    0.000    0.000 
#    0.000    0.000    0.000    0.000    0.000    0.000 
#
# Total GULP energy -78040.814196 kJ/mol
# GULP energy per Si atom -5574.343871 kJ/mol
# Density = 2.499641 g / cm^3
# Si number density = 25.053429 Si / 1000 Ang^3
#
#
#
# Elastic Constant Matrix: (Units=GPa)
#
#
# Indices 1 2 3 4 5 6 
#
# 1 61.1090 3.3675 25.9664 2.2465 -9.8922 5.4141
# 2 3.3675 83.3497 16.9823 0.1139 -7.0163 6.9426
# 3 25.9664 16.9823 93.5272 -8.4795 -22.2371 -7.4656
# 4 2.2465 0.1139 -8.4795 20.0398 1.4755 -11.7163
# 5 -9.8922 -7.0163 -22.2371 1.4755 41.1376 -1.3126
# 6 5.4141 6.9426 -7.4656 -11.7163 -1.3126 34.8011
#
#
#
# Elastic Compliance Matrix: (Units=1/GPa)
#
#
# Indices 1 2 3 4 5 6 
#
# 1 0.020791 0.001512 -0.007370 -0.010609 0.001378 -0.008637
# 2 0.001512 0.013147 -0.003485 -0.004811 0.000729 -0.005198
# 3 -0.007370 -0.003485 0.017012 0.013585 0.006671 0.010317
# 4 -0.010609 -0.004811 0.013585 0.074677 0.002274 0.030751
# 5 0.001378 0.000729 0.006671 0.002274 0.028382 0.002908
# 6 -0.008637 -0.005198 0.010317 0.030751 0.002908 0.043791
#
#
# Mechanical properties :
#
#
# Convention : Reuss Voigt Hill
#
# Bulk Modulus (GPa) = 30.99441 36.73539 33.86490
# Shear Modulus (GPa) = 22.00294 31.97369 26.98831
#
# Velocity S-wave (km/s) = 2.96673 3.57630 3.28568
# Velocity P-wave (km/s) = 4.91258 5.63452 5.28589
#
# Compressibility (1/GPa) = 0.03226388
#
# Stress axis : x y z
#
# Youngs Moduli (GPa) = 48.09769 76.06026 58.78043
#
# Poissons Ratio (x) = -0.11497 0.43323
# Poissons Ratio (y) = -0.07270 0.20484
# Poissons Ratio (z) = 0.35450 0.26505
#
# Static dielectric constant tensor:
#      x y z
#    x 2.035320 0.001720 -0.053580 
#    y 0.001720 2.092300 0.006770 
#    z -0.053580 0.006770 2.102930 
# 
# From -- ./inp_files/56832.got.cif
#   From: 2010.05.17/outbox.cif.g08.bks.cpg/sg2_29_cif.got.tgz:56832.got - 2010.06.03 11:33:40.
