data_PCOD9044425
_publ_section_title
;
Structure prediction by ZEFSAII (Michael W. Deem and Ramdas Pophale) SiO2 
 PCOD9044425
Probable space group: P -1
;
_chemical_formula_sum "Si O2"
_cell_formula_units_Z 10
_cell_length_a 8.054256
_cell_length_b 9.331544
_cell_length_c 8.876340
_cell_angle_alpha 86.028291
_cell_angle_beta 55.796913
_cell_angle_gamma 118.846093
_cell_volume 426.589760
_symmetry_space_group_name_H-M "P -1"
_symmetry_group_IT_number 2
_symmetry_cell_setting 'triclinic'
loop_
_space_group_symop_operation_xyz
x,y,z
-x,-y,-z
loop_
_atom_site_type_symbol
_atom_site_label
_atom_site_fract_x
_atom_site_fract_y
_atom_site_fract_z
Si Si1 0.478600 0.053394 0.673765
Si Si2 0.485833 0.464035 0.183554
Si Si3 0.783850 0.327533 0.021264
Si Si4 0.292578 0.290876 0.693491
Si Si5 0.035230 0.720618 0.367696
O O1 0.393159 0.177883 0.679323
O O2 0.733319 0.161949 0.641106
O O3 0.500000 0.000000 0.500000
O O4 0.284078 0.861826 0.875635
O O5 0.531180 0.313031 0.181066
O O6 0.721230 0.647066 0.138270
O O7 0.222268 0.409824 0.390121
O O8 0.500000 0.500000 0.000000
O O9 0.884677 0.361162 0.794365
O O10 0.000000 0.500000 0.000000
O O11 0.500000 0.500000 0.500000
O O12 0.054956 0.190005 0.705000
#
# Coordination Sequence:
#
# PCOD9044425 Si02
#       5
#     2   2   2   2   2
#     4  12  28  46  77 116 150 201 260 309 379 451
#     4  11  25  45  78 114 146 203 256 303 389 451
#     4  12  27  50  76 110 153 202 252 313 383 451
#     4  10  23  46  74 109 148 195 250 306 377 449
#     4  11  26  49  79 105 162 193 253 320 374 446
#
# _framework density 23.441724000000001
#
# number of rings (size 3 to 8) (size 9 to 14) (size 15 to 20)
#    0.000    0.800    2.000    4.200    5.600    8.000 
#    0.000    0.000    0.000    0.000    0.000    0.000 
#    0.000    0.000    0.000    0.000    0.000    0.000 
#
# Total GULP energy -55797.555529 kJ/mol
# GULP energy per Si atom -5579.755553 kJ/mol
# Density = 2.338837 g / cm^3
# Si number density = 23.441724 Si / 1000 Ang^3
#
#
#
# Elastic Constant Matrix: (Units=GPa)
#
#
# Indices 1 2 3 4 5 6 
#
# 1 222.3520 107.2247 47.2584 4.6178 16.4188 17.4595
# 2 107.2247 139.3625 63.3173 22.3659 2.7132 -8.9780
# 3 47.2584 63.3173 120.6349 34.3048 10.8123 7.1452
# 4 4.6178 22.3659 34.3048 46.5182 5.0893 14.3502
# 5 16.4188 2.7132 10.8123 5.0893 41.6565 8.9487
# 6 17.4595 -8.9780 7.1452 14.3502 8.9487 66.4355
#
#
#
# Elastic Compliance Matrix: (Units=1/GPa)
#
#
# Indices 1 2 3 4 5 6 
#
# 1 0.008444 -0.007254 -0.000272 0.004283 -0.002501 -0.003759
# 2 -0.007254 0.016007 -0.004515 -0.005595 0.002506 0.005426
# 3 -0.000272 -0.004515 0.012981 -0.007111 -0.002074 -0.000119
# 4 0.004283 -0.005595 -0.007111 0.031568 -0.001679 -0.007709
# 5 -0.002501 0.002506 -0.002074 -0.001679 0.025984 -0.001918
# 6 -0.003759 0.005426 -0.000119 -0.007709 -0.001918 0.018710
#
#
# Mechanical properties :
#
#
# Convention : Reuss Voigt Hill
#
# Bulk Modulus (GPa) = 74.90394 101.99447 88.44921
# Shear Modulus (GPa) = 35.15573 48.55864 41.85719
#
# Velocity S-wave (km/s) = 3.87681 4.55627 4.23020
# Velocity P-wave (km/s) = 7.21541 8.44297 7.85321
#
# Compressibility (1/GPa) = 0.01335043
#
# Stress axis : x y z
#
# Youngs Moduli (GPa) = 118.42401 62.47352 77.03797
#
# Poissons Ratio (x) = 0.45321 0.02092
# Poissons Ratio (y) = 0.85909 0.34780
# Poissons Ratio (z) = 0.03217 0.28204
#
# Static dielectric constant tensor:
#      x y z
#    x 2.112290 0.012860 -0.107550 
#    y 0.012860 1.947950 -0.001200 
#    z -0.107550 -0.001200 2.016200 
# 
# From -- ./inp_files/146743.got.cif
#   From: 2010.05.17/outbox.cif.g08.bks.cpg/sg2_74_cif.got.tgz:146743.got - 2010.06.03 11:33:40.
