data_PCOD9044449
_publ_section_title
;
Structure prediction by ZEFSAII (Michael W. Deem and Ramdas Pophale) SiO2 
 PCOD9044449
Probable space group: P -1
;
_chemical_formula_sum "Si O2"
_cell_formula_units_Z 16
_cell_length_a 19.242437
_cell_length_b 8.694773
_cell_length_c 5.574740
_cell_angle_alpha 123.193222
_cell_angle_beta 100.014863
_cell_angle_gamma 65.361197
_cell_volume 707.637488
_symmetry_space_group_name_H-M "P -1"
_symmetry_group_IT_number 2
_symmetry_cell_setting 'triclinic'
loop_
_space_group_symop_operation_xyz
x,y,z
-x,-y,-z
loop_
_atom_site_type_symbol
_atom_site_label
_atom_site_fract_x
_atom_site_fract_y
_atom_site_fract_z
Si Si1 0.034142 0.757583 0.798824
Si Si2 0.189209 0.192111 0.849662
Si Si3 0.429023 0.977120 0.074113
Si Si4 0.806892 0.576626 0.444370
Si Si5 0.340992 0.796970 0.610107
Si Si6 0.025920 0.188254 0.691137
Si Si7 0.653869 0.598028 0.552694
Si Si8 0.489745 0.703437 0.295437
O O1 0.124007 0.640825 0.702268
O O2 0.994291 0.713386 0.500611
O O3 0.017301 0.692562 0.996897
O O4 0.000000 0.000000 0.000000
O O5 0.187492 0.316539 0.710920
O O6 0.114514 0.137293 0.751713
O O7 0.263593 0.986810 0.691007
O O8 0.187882 0.307546 0.203134
O O9 0.472042 0.884862 0.262797
O O10 0.361596 0.189809 0.157218
O O11 0.380847 0.834435 0.905368
O O12 0.500000 0.000000 0.000000
O O13 0.724850 0.558268 0.386163
O O14 0.328152 0.593093 0.434642
O O15 0.413412 0.769264 0.463755
O O16 0.000000 0.000000 0.500000
O O17 0.570352 0.649938 0.431993
O O18 0.500000 0.500000 0.000000
#
# Coordination Sequence:
#
# PCOD9044449 Si02
#       8
#     2   2   2   2   2   2   2   2
#     4  10  23  46  75 106 148 188 250 295 382 451
#     4  12  28  49  77 113 156 192 256 316 377 454
#     4  12  24  45  73 101 147 195 250 310 379 443
#     4  12  28  48  77 116 150 199 252 314 385 449
#     4  12  27  47  72 105 151 198 256 313 375 451
#     4  10  23  46  75 107 145 194 245 297 385 445
#     4  12  26  46  73 106 147 199 252 312 378 446
#     4  12  25  46  72 108 146 201 257 310 375 450
#
# _framework density 22.610447000000001
#
# number of rings (size 3 to 8) (size 9 to 14) (size 15 to 20)
#    0.000    0.500    3.750    3.750    5.250    4.000 
#    4.500    0.000    0.000    0.000    0.000    0.000 
#    0.000    0.000    0.000    0.000    0.000    0.000 
#
# Total GULP energy -89141.912968 kJ/mol
# GULP energy per Si atom -5571.369561 kJ/mol
# Density = 2.255898 g / cm^3
# Si number density = 22.610447 Si / 1000 Ang^3
#
#
#
# Elastic Constant Matrix: (Units=GPa)
#
#
# Indices 1 2 3 4 5 6 
#
# 1 136.5589 38.1356 61.1545 19.4779 -60.5069 6.9689
# 2 38.1356 128.6636 49.0627 17.2667 -18.5815 -7.8594
# 3 61.1545 49.0627 46.5367 -24.5472 31.7420 -46.3468
# 4 19.4779 17.2667 -24.5472 36.9638 11.2236 -23.8535
# 5 -60.5069 -18.5815 31.7420 11.2236 -19.5395 58.0507
# 6 6.9689 -7.8594 -46.3468 -23.8535 58.0507 9.5829
#
#
#
# Elastic Compliance Matrix: (Units=1/GPa)
#
#
# Indices 1 2 3 4 5 6 
#
# 1 0.006785 -0.002194 0.000409 0.001580 -0.001042 0.005490
# 2 -0.002194 0.010199 -0.004388 -0.003570 -0.003787 0.002792
# 3 0.000409 -0.004388 0.013887 0.003922 0.012880 -0.004995
# 4 0.001580 -0.003570 0.003922 0.025160 0.013140 -0.002082
# 5 -0.001042 -0.003787 0.012880 0.013140 0.013654 0.009941
# 6 0.005490 0.002792 -0.004995 -0.002082 0.009941 0.013096
#
#
# Mechanical properties :
#
#
# Convention : Reuss Voigt Hill
#
# Bulk Modulus (GPa) = 53.98434 67.60721 60.79577
# Shear Modulus (GPa) = 49.35781 16.29519 32.82650
#
# Velocity S-wave (km/s) = 4.67729 2.68748 3.81442
# Velocity P-wave (km/s) = 7.28677 6.29253 6.80782
#
# Compressibility (1/GPa) = 0.01852389
#
# Stress axis : x y z
#
# Youngs Moduli (GPa) = 147.37956 98.05318 72.01155
#
# Poissons Ratio (x) = 0.21515 -0.02944
# Poissons Ratio (y) = 0.32339 0.31598
# Poissons Ratio (z) = -0.06026 0.43025
#
# Static dielectric constant tensor:
#      x y z
#    x 1.804360 -0.006820 0.039250 
#    y -0.006820 1.831140 0.026570 
#    z 0.039250 0.026570 1.941250 
# 
# From -- ./inp_files/107635.got.cif
#   From: 2010.05.17/outbox.cif.g08.bks.cpg/sg2_54_cif.got.tgz:107635.got - 2010.06.03 11:33:40.
