data_PCOD9044694
_publ_section_title
;
Structure prediction by ZEFSAII (Michael W. Deem and Ramdas Pophale) SiO2 
 PCOD9044694
Probable space group: P -1
;
_chemical_formula_sum "Si O2"
_cell_formula_units_Z 11
_cell_length_a 12.391151
_cell_length_b 5.991312
_cell_length_c 6.706401
_cell_angle_alpha 109.833803
_cell_angle_beta 115.338235
_cell_angle_gamma 67.949572
_cell_volume 407.474104
_symmetry_space_group_name_H-M "P -1"
_symmetry_group_IT_number 2
_symmetry_cell_setting 'triclinic'
loop_
_space_group_symop_operation_xyz
x,y,z
-x,-y,-z
loop_
_atom_site_type_symbol
_atom_site_label
_atom_site_fract_x
_atom_site_fract_y
_atom_site_fract_z
Si Si1 0.229290 0.446615 0.933320
Si Si2 0.973065 0.130859 0.303251
Si Si3 0.391166 0.788004 0.294565
Si Si4 0.614157 0.070173 0.214308
Si Si5 0.500000 0.500000 0.000000
Si Si6 0.148115 0.212754 0.150163
O O1 0.352354 0.537008 0.115926
O O2 0.162192 0.438730 0.092882
O O3 0.141877 0.632219 0.767300
O O4 0.271853 0.169610 0.801545
O O5 0.086247 0.218453 0.320007
O O6 0.000000 0.000000 0.500000
O O7 0.937593 0.917840 0.083929
O O8 0.404624 0.817704 0.546264
O O9 0.514717 0.722451 0.244816
O O10 0.284448 0.025189 0.217605
O O11 0.614034 0.300605 0.145599
O O12 0.500000 0.000000 0.000000
#
# Coordination Sequence:
#
# PCOD9044694 Si02
#       6
#     2   2   2   2   1   2
#     4  11  24  48  75 109 150 200 250 302 379 442
#     4  10  24  46  75 109 150 193 249 310 366 451
#     4  11  26  46  73 109 151 194 253 314 356 458
#     4  12  27  47  72 110 146 201 249 307 380 438
#     4  12  24  46  70 102 152 190 256 306 362 436
#     4  10  23  47  71 109 150 195 248 303 377 440
#
# _framework density 26.995581999999999
#
# number of rings (size 3 to 8) (size 9 to 14) (size 15 to 20)
#    0.000    1.091    3.636    1.091    2.545    2.909 
#    9.818    0.000    0.000    0.000    0.000    0.000 
#    0.000    0.000    0.000    0.000    0.000    0.000 
#
# Total GULP energy -61291.207438 kJ/mol
# GULP energy per Si atom -5571.927949 kJ/mol
# Density = 2.693414 g / cm^3
# Si number density = 26.995582 Si / 1000 Ang^3
#
#
#
# Elastic Constant Matrix: (Units=GPa)
#
#
# Indices 1 2 3 4 5 6 
#
# 1 62.7661 36.3866 42.0764 -19.0152 -18.9462 -1.0200
# 2 36.3866 186.1801 86.9962 -35.6875 -16.2711 -34.7743
# 3 42.0764 86.9962 222.3097 -24.3529 -33.5663 3.0090
# 4 -19.0152 -35.6875 -24.3529 56.4357 6.4702 -1.5646
# 5 -18.9462 -16.2711 -33.5663 6.4702 41.0688 -2.4772
# 6 -1.0200 -34.7743 3.0090 -1.5646 -2.4772 53.9043
#
#
#
# Elastic Compliance Matrix: (Units=1/GPa)
#
#
# Indices 1 2 3 4 5 6 
#
# 1 0.021773 -0.002014 -0.001770 0.004479 0.007075 -0.000333
# 2 -0.002014 0.008933 -0.002749 0.003939 0.000105 0.005998
# 3 -0.001770 -0.002749 0.006424 0.000012 0.003221 -0.002017
# 4 0.004479 0.003939 0.000012 0.021769 0.000405 0.003275
# 5 0.007075 0.000105 0.003221 0.000405 0.030310 0.001426
# 6 -0.000333 0.005998 -0.002017 0.003275 0.001426 0.022687
#
#
# Mechanical properties :
#
#
# Convention : Reuss Voigt Hill
#
# Bulk Modulus (GPa) = 41.55234 89.13045 65.34140
# Shear Modulus (GPa) = 37.59908 50.66823 44.13365
#
# Velocity S-wave (km/s) = 3.73605 4.33703 4.04771
# Velocity P-wave (km/s) = 5.83408 7.62680 6.78987
#
# Compressibility (1/GPa) = 0.02406603
#
# Stress axis : x y z
#
# Youngs Moduli (GPa) = 45.92891 111.93896 155.67116
#
# Poissons Ratio (x) = 0.22543 0.27546
# Poissons Ratio (y) = 0.09250 0.42788
# Poissons Ratio (z) = 0.08127 0.30767
#
# Static dielectric constant tensor:
#      x y z
#    x 1.458900 0.031410 0.254920 
#    y 0.031410 2.134560 0.010170 
#    z 0.254920 0.010170 1.968060 
# 
# From -- ./inp_files/85795.got.cif
#   From: 2010.05.17/outbox.cif.g08.bks.cpg/sg2_43_cif.got.tgz:85795.got - 2010.06.03 11:33:40.
