data_PCOD9044014
_publ_section_title
;
Structure prediction by ZEFSAII (Michael W. Deem and Ramdas Pophale) SiO2 
 PCOD9044014
Probable space group: P -1
;
_chemical_formula_sum "Si O2"
_cell_formula_units_Z 12
_cell_length_a 7.847711
_cell_length_b 7.340351
_cell_length_c 13.317161
_cell_angle_alpha 61.732909
_cell_angle_beta 61.242269
_cell_angle_gamma 100.013495
_cell_volume 505.835653
_symmetry_space_group_name_H-M "P -1"
_symmetry_group_IT_number 2
_symmetry_cell_setting 'triclinic'
loop_
_space_group_symop_operation_xyz
x,y,z
-x,-y,-z
loop_
_atom_site_type_symbol
_atom_site_label
_atom_site_fract_x
_atom_site_fract_y
_atom_site_fract_z
Si Si1 0.024171 0.145751 0.587370
Si Si2 0.308818 0.839428 0.015780
Si Si3 0.783979 0.234793 0.155064
Si Si4 0.469044 0.611213 0.669878
Si Si5 0.082409 0.163332 0.782748
Si Si6 0.795325 0.611840 0.717576
O O1 0.285197 0.204369 0.494963
O O2 0.989085 0.204905 0.693438
O O3 0.033796 0.307886 0.447925
O O4 0.858482 0.866263 0.681936
O O5 0.199948 0.564629 0.157326
O O6 0.111738 0.900760 0.064144
O O7 0.373238 0.855014 0.877250
O O8 0.500000 0.000000 0.000000
O O9 0.652075 0.261077 0.278714
O O10 0.869919 0.050134 0.193751
O O11 0.000000 0.500000 0.000000
O O12 0.306290 0.405397 0.692881
O O13 0.545742 0.497867 0.767894
#
# Coordination Sequence:
#
# PCOD9044014 Si02
#       6
#     2   2   2   2   2   2
#     4   9  22  44  70 100 131 170 227 277 327 394
#     4  12  27  42  68 100 136 178 220 274 331 399
#     4  12  26  44  68  96 138 181 218 275 326 399
#     4  10  23  46  68  98 131 175 220 275 331 390
#     4  12  25  44  67 102 133 171 228 274 329 395
#     4   9  22  46  66 101 129 177 222 271 336 386
#
# _framework density 23.723120999999999
#
# number of rings (size 3 to 8) (size 9 to 14) (size 15 to 20)
#    1.000    0.333    1.667    3.000    4.667    2.000 
#    3.000    0.000    0.000    0.000    0.000    0.000 
#    0.000    0.000    0.000    0.000    0.000    0.000 
#
# Total GULP energy -67093.750585 kJ/mol
# GULP energy per Si atom -5591.145882 kJ/mol
# Density = 2.366913 g / cm^3
# Si number density = 23.723121 Si / 1000 Ang^3
#
#
#
# Elastic Constant Matrix: (Units=GPa)
#
#
# Indices 1 2 3 4 5 6 
#
# 1 51.5318 11.9750 2.0077 -13.0693 16.1405 10.5025
# 2 11.9750 90.8140 20.2867 -0.9400 17.2632 4.8815
# 3 2.0077 20.2867 50.9924 -2.3413 8.0884 -9.0311
# 4 -13.0693 -0.9400 -2.3413 30.6021 -3.0578 0.3116
# 5 16.1405 17.2632 8.0884 -3.0578 35.9781 -3.7454
# 6 10.5025 4.8815 -9.0311 0.3116 -3.7454 59.0338
#
#
#
# Elastic Compliance Matrix: (Units=1/GPa)
#
#
# Indices 1 2 3 4 5 6 
#
# 1 0.026950 -0.001160 0.000734 0.010449 -0.011369 -0.005363
# 2 -0.001160 0.013300 -0.004832 -0.000942 -0.005058 -0.001949
# 3 0.000734 -0.004832 0.022618 0.001600 -0.002589 0.003556
# 4 0.010449 -0.000942 0.001600 0.037089 -0.001634 -0.001836
# 5 -0.011369 -0.005058 -0.002589 -0.001634 0.036218 0.004351
# 6 -0.005363 -0.001949 0.003556 -0.001836 0.004351 0.018884
#
#
# Mechanical properties :
#
#
# Convention : Reuss Voigt Hill
#
# Bulk Modulus (GPa) = 19.10116 29.09744 24.09930
# Shear Modulus (GPa) = 27.31826 35.72739 31.52283
#
# Velocity S-wave (km/s) = 3.39713 3.88495 3.64920
# Velocity P-wave (km/s) = 4.84319 5.69349 5.28547
#
# Compressibility (1/GPa) = 0.05235283
#
# Stress axis : x y z
#
# Youngs Moduli (GPa) = 37.10512 75.18608 44.21214
#
# Poissons Ratio (x) = 0.08722 -0.03244
# Poissons Ratio (y) = 0.04304 0.21362
# Poissons Ratio (z) = -0.02722 0.36328
#
# Static dielectric constant tensor:
#      x y z
#    x 1.927270 0.012430 0.037630 
#    y 0.012430 1.888410 0.035030 
#    z 0.037630 0.035030 1.907630 
# 
# From -- ./inp_files/38268.got.cif
#   From: 2010.05.17/outbox.cif.g08.bks.cpg/sg2_20_cif.got.tgz:38268.got - 2010.06.03 11:33:40.
