data_PCOD9044594
_publ_section_title
;
Structure prediction by ZEFSAII (Michael W. Deem and Ramdas Pophale) SiO2 
 PCOD9044594
Probable space group: P -1
;
_chemical_formula_sum "Si O2"
_cell_formula_units_Z 16
_cell_length_a 16.916321
_cell_length_b 8.281750
_cell_length_c 11.617631
_cell_angle_alpha 112.609775
_cell_angle_beta 32.049741
_cell_angle_gamma 124.933655
_cell_volume 688.759514
_symmetry_space_group_name_H-M "P -1"
_symmetry_group_IT_number 2
_symmetry_cell_setting 'triclinic'
loop_
_space_group_symop_operation_xyz
x,y,z
-x,-y,-z
loop_
_atom_site_type_symbol
_atom_site_label
_atom_site_fract_x
_atom_site_fract_y
_atom_site_fract_z
Si Si1 0.159286 0.561113 0.237387
Si Si2 0.821579 0.953107 0.143017
Si Si3 0.532818 0.879278 0.659817
Si Si4 0.325637 0.295896 0.968833
Si Si5 0.928487 0.682167 0.197092
Si Si6 0.351653 0.035672 0.054192
Si Si7 0.840977 0.458090 0.027674
Si Si8 0.636898 0.686453 0.677479
O O1 0.116908 0.470911 0.135847
O O2 0.000000 0.500000 0.500000
O O3 0.251803 0.804632 0.164799
O O4 0.258947 0.448996 0.131909
O O5 0.684084 0.945205 0.400507
O O6 0.729599 0.773018 0.113921
O O7 0.000000 0.000000 0.000000
O O8 0.892608 0.143023 0.023685
O O9 0.551668 0.731808 0.685847
O O10 0.341267 0.751267 0.807963
O O11 0.524817 0.052146 0.791400
O O12 0.531712 0.446384 0.762302
O O13 0.271341 0.106868 0.069681
O O14 0.831029 0.755203 0.421258
O O15 0.985923 0.541244 0.149801
O O16 0.815002 0.582977 0.195462
O O17 0.374444 0.185928 0.169333
#
# Coordination Sequence:
#
# PCOD9044594 Si02
#       8
#     2   2   2   2   2   2   2   2
#     4  11  26  45  75 106 151 196 241 309 375 439
#     4  12  25  42  73 114 143 192 254 308 376 441
#     4  11  24  47  76  99 154 193 242 313 372 443
#     4  12  27  48  75 109 148 202 249 303 380 435
#     4  11  25  42  74 110 147 191 249 315 365 440
#     4  11  27  49  74 109 147 198 256 299 366 458
#     4  10  23  47  68 107 145 191 248 302 379 438
#     4  12  25  47  76 107 151 200 252 302 372 444
#
# _framework density 23.230167999999999
#
# number of rings (size 3 to 8) (size 9 to 14) (size 15 to 20)
#    0.000    0.750    3.750    3.750    3.500    6.500 
#    0.000    0.000    0.000    0.000    0.000    0.000 
#    0.000    0.000    0.000    0.000    0.000    0.000 
#
# Total GULP energy -89270.478799 kJ/mol
# GULP energy per Si atom -5579.404925 kJ/mol
# Density = 2.317730 g / cm^3
# Si number density = 23.230168 Si / 1000 Ang^3
#
#
#
# Elastic Constant Matrix: (Units=GPa)
#
#
# Indices 1 2 3 4 5 6 
#
# 1 87.1682 39.9858 46.1059 2.1924 0.1128 -3.1265
# 2 39.9858 101.4002 61.2284 15.6843 15.2111 -2.9182
# 3 46.1059 61.2284 192.3753 16.0772 15.0746 7.6425
# 4 2.1924 15.6843 16.0772 30.2057 -1.2009 5.4689
# 5 0.1128 15.2111 15.0746 -1.2009 22.5443 8.6518
# 6 -3.1265 -2.9182 7.6425 5.4689 8.6518 40.1410
#
#
#
# Elastic Compliance Matrix: (Units=1/GPa)
#
#
# Indices 1 2 3 4 5 6 
#
# 1 0.015490 -0.006091 -0.002546 0.003745 0.006161 -0.000590
# 2 -0.006091 0.017061 -0.002507 -0.008477 -0.012184 0.005024
# 3 -0.002546 -0.002507 0.007045 -0.002228 -0.002814 -0.000812
# 4 0.003745 -0.008477 -0.002228 0.040380 0.012444 -0.008084
# 5 0.006161 -0.012184 -0.002814 0.012444 0.060715 -0.014652
# 6 -0.000590 0.005024 -0.000812 -0.008084 -0.014652 0.029645
#
#
# Mechanical properties :
#
#
# Convention : Reuss Voigt Hill
#
# Bulk Modulus (GPa) = 57.77661 75.06489 66.42075
# Shear Modulus (GPa) = 25.20247 34.15311 29.67779
#
# Velocity S-wave (km/s) = 3.29736 3.83849 3.57817
# Velocity P-wave (km/s) = 6.27870 7.21311 6.76207
#
# Compressibility (1/GPa) = 0.01730804
#
# Stress axis : x y z
#
# Youngs Moduli (GPa) = 64.55965 58.61306 141.94183
#
# Poissons Ratio (x) = 0.35703 0.36138
# Poissons Ratio (y) = 0.39325 0.35580
# Poissons Ratio (z) = 0.16437 0.14692
#
# Static dielectric constant tensor:
#      x y z
#    x 1.924130 -0.011010 -0.004100 
#    y -0.011010 1.965190 -0.010530 
#    z -0.004100 -0.010530 1.853240 
# 
# From -- ./inp_files/462327.got.cif
#   From: 2010.05.17/outbox.cif.g08.bks.cpg/sg2_232_cif.got.tgz:462327.got - 2010.06.03 11:33:40.
