data_PCOD9044260
_publ_section_title
;
Structure prediction by ZEFSAII (Michael W. Deem and Ramdas Pophale) SiO2 
 PCOD9044260
Probable space group: P -1
;
_chemical_formula_sum "Si O2"
_cell_formula_units_Z 14
_cell_length_a 5.565838
_cell_length_b 12.166946
_cell_length_c 11.611909
_cell_angle_alpha 122.547799
_cell_angle_beta 121.021054
_cell_angle_gamma 70.119719
_cell_volume 565.895894
_symmetry_space_group_name_H-M "P -1"
_symmetry_group_IT_number 2
_symmetry_cell_setting 'triclinic'
loop_
_space_group_symop_operation_xyz
x,y,z
-x,-y,-z
loop_
_atom_site_type_symbol
_atom_site_label
_atom_site_fract_x
_atom_site_fract_y
_atom_site_fract_z
Si Si1 0.084162 0.372544 0.596291
Si Si2 0.981774 0.537354 0.881206
Si Si3 0.884030 0.916848 0.322202
Si Si4 0.581682 0.964606 0.871156
Si Si5 0.348975 0.619669 0.691337
Si Si6 0.896477 0.212769 0.072655
Si Si7 0.484441 0.851003 0.368391
O O1 0.197622 0.496492 0.632318
O O2 0.314449 0.250247 0.564093
O O3 0.075265 0.415994 0.752229
O O4 0.779803 0.354374 0.453612
O O5 0.670511 0.579837 0.779609
O O6 0.140010 0.665952 0.957036
O O7 0.000000 0.500000 0.000000
O O8 0.713875 0.021198 0.257948
O O9 0.644723 0.839556 0.279521
O O10 0.151164 0.835248 0.284738
O O11 0.000000 0.000000 0.500000
O O12 0.769143 0.077471 0.931864
O O13 0.776161 0.830183 0.843076
O O14 0.500000 0.000000 0.000000
O O15 0.246537 0.738555 0.816548
O O16 0.500000 0.000000 0.500000
#
# Coordination Sequence:
#
# PCOD9044260 Si02
#       7
#     2   2   2   2   2   2   2
#     4  10  24  44  73 103 139 194 252 304 377 445
#     4  11  25  46  72 107 147 192 247 313 374 450
#     4  10  25  44  70 105 148 191 242 302 377 441
#     4  11  25  45  72 104 146 193 245 308 375 463
#     4  10  23  46  72 100 142 189 250 310 367 447
#     4  10  25  43  71 106 141 195 245 302 379 447
#     4  10  24  43  68 111 148 190 237 311 376 446
#
# _framework density 24.739532000000001
#
# number of rings (size 3 to 8) (size 9 to 14) (size 15 to 20)
#    0.000    1.714    0.000    1.286   10.000    9.143 
#    0.000    0.000    0.000    0.000    0.000    0.000 
#    0.000    0.000    0.000    0.000    0.000    0.000 
#
# Total GULP energy -78198.150485 kJ/mol
# GULP energy per Si atom -5585.582177 kJ/mol
# Density = 2.468322 g / cm^3
# Si number density = 24.739532 Si / 1000 Ang^3
#
#
#
# Elastic Constant Matrix: (Units=GPa)
#
#
# Indices 1 2 3 4 5 6 
#
# 1 134.4320 38.5512 23.2788 -6.4280 -0.5200 -19.1349
# 2 38.5512 139.8462 66.2854 -6.7225 -9.7638 -23.5802
# 3 23.2788 66.2854 101.1479 -21.7497 1.3624 -4.1104
# 4 -6.4280 -6.7225 -21.7497 36.9762 -6.2993 -1.8011
# 5 -0.5200 -9.7638 1.3624 -6.2993 34.6399 -2.8789
# 6 -19.1349 -23.5802 -4.1104 -1.8011 -2.8789 57.1412
#
#
#
# Elastic Compliance Matrix: (Units=1/GPa)
#
#
# Indices 1 2 3 4 5 6 
#
# 1 0.008350 -0.001629 -0.000569 0.000929 0.000033 0.002114
# 2 -0.001629 0.012202 -0.007913 -0.001889 0.003719 0.004049
# 3 -0.000569 -0.007913 0.016862 0.008004 -0.001619 -0.002072
# 4 0.000929 -0.001889 0.008004 0.032524 0.005197 0.001395
# 5 0.000033 0.003719 -0.001619 0.005197 0.031189 0.003165
# 6 0.002114 0.004049 -0.002072 0.001395 0.003165 0.019933
#
#
# Mechanical properties :
#
#
# Convention : Reuss Voigt Hill
#
# Bulk Modulus (GPa) = 58.16679 70.18412 64.17546
# Shear Modulus (GPa) = 34.01071 42.23882 38.12477
#
# Velocity S-wave (km/s) = 3.71179 4.13648 3.92988
# Velocity P-wave (km/s) = 6.47553 7.15855 6.82559
#
# Compressibility (1/GPa) = 0.01719194
#
# Stress axis : x y z
#
# Youngs Moduli (GPa) = 119.76393 81.95433 59.30523
#
# Poissons Ratio (x) = 0.13346 0.03375
# Poissons Ratio (y) = 0.19504 0.46929
# Poissons Ratio (z) = 0.06816 0.64852
#
# Static dielectric constant tensor:
#      x y z
#    x 1.927460 0.065310 0.005760 
#    y 0.065310 1.963420 -0.009440 
#    z 0.005760 -0.009440 1.948500 
# 
# From -- ./inp_files/365329.got.cif
#   From: 2010.05.17/outbox.cif.g08.bks.cpg/sg2_183_cif.got.tgz:365329.got - 2010.06.03 11:33:40.
