data_PCOD9044079
_publ_section_title
;
Structure prediction by ZEFSAII (Michael W. Deem and Ramdas Pophale) SiO2 
 PCOD9044079
Probable space group: P -1
;
_chemical_formula_sum "Si O2"
_cell_formula_units_Z 12
_cell_length_a 7.781810
_cell_length_b 12.078578
_cell_length_c 7.520108
_cell_angle_alpha 51.748739
_cell_angle_beta 76.897101
_cell_angle_gamma 97.312914
_cell_volume 506.451666
_symmetry_space_group_name_H-M "P -1"
_symmetry_group_IT_number 2
_symmetry_cell_setting 'triclinic'
loop_
_space_group_symop_operation_xyz
x,y,z
-x,-y,-z
loop_
_atom_site_type_symbol
_atom_site_label
_atom_site_fract_x
_atom_site_fract_y
_atom_site_fract_z
Si Si1 0.129452 0.242666 0.778055
Si Si2 0.778011 0.399487 0.141274
Si Si3 0.757467 0.694774 0.921455
Si Si4 0.745668 0.007682 0.048389
Si Si5 0.918521 0.224800 0.511715
Si Si6 0.540248 0.140421 0.215826
O O1 0.055661 0.310270 0.558607
O O2 0.275801 0.164442 0.752659
O O3 0.204304 0.325517 0.859326
O O4 0.937840 0.104194 0.012660
O O5 0.711886 0.282788 0.112101
O O6 0.765901 0.297660 0.418930
O O7 0.679657 0.522703 0.042042
O O8 0.000000 0.500000 0.000000
O O9 0.948437 0.775739 0.683791
O O10 0.624659 0.791671 0.831037
O O11 0.596439 0.076724 0.085549
O O12 0.807963 0.062067 0.779758
O O13 0.500000 0.000000 0.500000
#
# Coordination Sequence:
#
# PCOD9044079 Si02
#       6
#     2   2   2   2   2   2
#     4   9  20  38  67  94 131 167 228 261 322 389
#     4  10  23  46  69  94 131 184 222 259 326 409
#     4  11  23  42  66  96 138 170 214 278 338 380
#     4   9  20  40  61 101 130 170 225 268 316 396
#     4   9  20  41  68  93 126 181 225 259 314 405
#     4  12  26  41  70 101 136 171 216 281 338 377
#
# _framework density 23.694265000000001
#
# number of rings (size 3 to 8) (size 9 to 14) (size 15 to 20)
#    1.000    1.000    0.000    3.500    2.333    2.000 
#    6.000    0.833    0.000    0.000    0.000    0.000 
#    0.000    0.000    0.000    0.000    0.000    0.000 
#
# Total GULP energy -66887.216403 kJ/mol
# GULP energy per Si atom -5573.934700 kJ/mol
# Density = 2.364034 g / cm^3
# Si number density = 23.694265 Si / 1000 Ang^3
#
#
#
# Elastic Constant Matrix: (Units=GPa)
#
#
# Indices 1 2 3 4 5 6 
#
# 1 118.0572 50.3878 26.0178 0.1648 9.1497 -21.8328
# 2 50.3878 131.3020 25.7264 5.2200 -1.5653 -10.0184
# 3 26.0178 25.7264 27.0007 4.2770 16.7155 -12.4610
# 4 0.1648 5.2200 4.2770 30.7079 4.0619 2.2251
# 5 9.1497 -1.5653 16.7155 4.0619 26.3006 -8.5527
# 6 -21.8328 -10.0184 -12.4610 2.2251 -8.5527 50.2069
#
#
#
# Elastic Compliance Matrix: (Units=1/GPa)
#
#
# Indices 1 2 3 4 5 6 
#
# 1 0.011968 -0.002520 -0.009623 0.001180 0.002493 0.002686
# 2 -0.002520 0.011977 -0.016608 -0.001260 0.012109 -0.000709
# 3 -0.009623 -0.016608 0.103986 -0.004212 -0.060411 0.008206
# 4 0.001180 -0.001260 -0.004212 0.034111 -0.004047 -0.002985
# 5 0.002493 0.012109 -0.060411 -0.004047 0.077509 0.001890
# 6 0.002686 -0.000709 0.008206 -0.002985 0.001890 0.023435
#
#
# Mechanical properties :
#
#
# Convention : Reuss Voigt Hill
#
# Bulk Modulus (GPa) = 14.19842 53.40266 33.80054
# Shear Modulus (GPa) = 14.53635 33.05828 23.79731
#
# Velocity S-wave (km/s) = 2.47957 3.73929 3.17258
# Velocity P-wave (km/s) = 3.76870 6.42108 5.26466
#
# Compressibility (1/GPa) = 0.07043040
#
# Stress axis : x y z
#
# Youngs Moduli (GPa) = 83.55285 83.49073 9.61667
#
# Poissons Ratio (x) = 0.21038 0.09254
# Poissons Ratio (y) = 0.21053 0.15971
# Poissons Ratio (z) = 0.80402 1.38662
#
# Static dielectric constant tensor:
#      x y z
#    x 2.021800 0.000500 0.019160 
#    y 0.000500 1.940310 -0.037170 
#    z 0.019160 -0.037170 1.987260 
# 
# From -- ./inp_files/167072.got.cif
#   From: 2010.05.17/outbox.cif.g08.bks.cpg/sg2_84_cif.got.tgz:167072.got - 2010.06.03 11:33:40.
