data_PCOD9044651
_publ_section_title
;
Structure prediction by ZEFSAII (Michael W. Deem and Ramdas Pophale) SiO2 
 PCOD9044651
Probable space group: P -1
;
_chemical_formula_sum "Si O2"
_cell_formula_units_Z 16
_cell_length_a 16.692159
_cell_length_b 9.070796
_cell_length_c 8.398874
_cell_angle_alpha 68.985333
_cell_angle_beta 100.005186
_cell_angle_gamma 142.320206
_cell_volume 711.982784
_symmetry_space_group_name_H-M "P -1"
_symmetry_group_IT_number 2
_symmetry_cell_setting 'triclinic'
loop_
_space_group_symop_operation_xyz
x,y,z
-x,-y,-z
loop_
_atom_site_type_symbol
_atom_site_label
_atom_site_fract_x
_atom_site_fract_y
_atom_site_fract_z
Si Si1 0.632306 0.880760 0.713196
Si Si2 0.381757 0.684838 0.833602
Si Si3 0.877231 0.470131 0.647254
Si Si4 0.898463 0.814905 0.682025
Si Si5 0.919959 0.419216 0.161462
Si Si6 0.903622 0.704074 0.236006
Si Si7 0.371269 0.472145 0.217569
Si Si8 0.377833 0.052257 0.683152
O O1 0.497873 0.761895 0.764276
O O2 0.632107 0.694686 0.817935
O O3 0.643627 0.916247 0.513201
O O4 0.757559 0.161433 0.726135
O O5 0.236007 0.430709 0.806189
O O6 0.408774 0.912729 0.736131
O O7 0.377259 0.627158 0.037818
O O8 0.860094 0.573478 0.740668
O O9 0.876578 0.559922 0.443704
O O10 0.016007 0.594326 0.675669
O O11 0.765990 0.715825 0.661146
O O12 0.000000 0.000000 0.500000
O O13 0.978476 0.994104 0.796115
O O14 0.938464 0.627313 0.145706
O O15 0.762464 0.147672 0.196893
O O16 0.000000 0.500000 0.000000
O O17 0.500411 0.675561 0.293843
#
# Coordination Sequence:
#
# PCOD9044651 Si02
#       8
#     2   2   2   2   2   2   2   2
#     4  12  25  45  74 101 142 190 237 292 352 424
#     4  11  25  45  73 101 142 185 234 292 361 413
#     4  11  23  44  74  99 139 187 245 283 355 416
#     4  10  25  42  74 100 139 186 238 290 350 417
#     4  11  25  42  72 108 143 180 233 300 359 411
#     4  10  23  47  70 103 138 186 243 289 348 427
#     4  12  27  45  67 108 147 180 236 298 356 413
#     4  11  26  46  73 102 141 190 239 284 348 438
#
# _framework density 22.472453999999999
#
# number of rings (size 3 to 8) (size 9 to 14) (size 15 to 20)
#    0.000    1.000    2.500    3.375   12.250    1.500 
#    4.500    0.000    0.000    0.000    0.000    0.000 
#    0.000    0.000    0.000    0.000    0.000    0.000 
#
# Total GULP energy -89594.654196 kJ/mol
# GULP energy per Si atom -5599.665887 kJ/mol
# Density = 2.242131 g / cm^3
# Si number density = 22.472454 Si / 1000 Ang^3
#
#
#
# Elastic Constant Matrix: (Units=GPa)
#
#
# Indices 1 2 3 4 5 6 
#
# 1 127.1627 57.5471 -4.5174 -6.8533 -21.9728 21.3505
# 2 57.5471 182.1189 -7.7176 13.0782 -16.7204 -0.9293
# 3 -4.5174 -7.7176 48.2028 -1.6847 -14.5611 8.7531
# 4 -6.8533 13.0782 -1.6847 20.0818 1.4296 -0.0473
# 5 -21.9728 -16.7204 -14.5611 1.4296 43.6779 -5.3639
# 6 21.3505 -0.9293 8.7531 -0.0473 -5.3639 36.8167
#
#
#
# Elastic Compliance Matrix: (Units=1/GPa)
#
#
# Indices 1 2 3 4 5 6 
#
# 1 0.012049 -0.003731 0.003488 0.006483 0.004698 -0.007218
# 2 -0.003731 0.007297 0.000660 -0.006080 0.001633 0.002421
# 3 0.003488 0.000660 0.025351 0.002191 0.009572 -0.006636
# 4 0.006483 -0.006080 0.002191 0.056193 -0.000724 -0.004467
# 5 0.004698 0.001633 0.009572 -0.000724 0.029008 -0.000734
# 6 -0.007218 0.002421 -0.006636 -0.004467 -0.000734 0.032874
#
#
# Mechanical properties :
#
#
# Convention : Reuss Voigt Hill
#
# Bulk Modulus (GPa) = 21.96256 49.78986 35.87621
# Shear Modulus (GPa) = 28.23031 40.92676 34.57853
#
# Velocity S-wave (km/s) = 3.54816 4.27218 3.92689
# Velocity P-wave (km/s) = 5.15560 6.82198 6.04647
#
# Compressibility (1/GPa) = 0.04553203
#
# Stress axis : x y z
#
# Youngs Moduli (GPa) = 82.99301 137.05042 39.44550
#
# Poissons Ratio (x) = 0.51129 -0.13760
# Poissons Ratio (y) = 0.30962 -0.02602
# Poissons Ratio (z) = -0.28951 -0.09041
#
# Static dielectric constant tensor:
#      x y z
#    x 1.793550 -0.016290 0.012910 
#    y -0.016290 1.821040 -0.012440 
#    z 0.012910 -0.012440 1.870650 
# 
# From -- ./inp_files/297940.got.cif
#   From: 2010.05.17/outbox.cif.g08.bks.cpg/sg2_149_cif.got.tgz:297940.got - 2010.06.03 11:33:40.
