data_PCOD9044624
_publ_section_title
;
Structure prediction by ZEFSAII (Michael W. Deem and Ramdas Pophale) SiO2 
 PCOD9044624
Probable space group: P -1
;
_chemical_formula_sum "Si O2"
_cell_formula_units_Z 14
_cell_length_a 16.319395
_cell_length_b 8.121865
_cell_length_c 5.131276
_cell_angle_alpha 119.169046
_cell_angle_beta 96.228014
_cell_angle_gamma 69.180511
_cell_volume 553.344286
_symmetry_space_group_name_H-M "P -1"
_symmetry_group_IT_number 2
_symmetry_cell_setting 'triclinic'
loop_
_space_group_symop_operation_xyz
x,y,z
-x,-y,-z
loop_
_atom_site_type_symbol
_atom_site_label
_atom_site_fract_x
_atom_site_fract_y
_atom_site_fract_z
Si Si1 0.410040 0.557912 0.856001
Si Si2 0.332820 0.948519 0.863819
Si Si3 0.951883 0.626251 0.832126
Si Si4 0.137617 0.941683 0.699430
Si Si5 0.239790 0.648848 0.152243
Si Si6 0.813320 0.479483 0.472513
Si Si7 0.396968 0.122718 0.520276
O O1 0.394339 0.349004 0.649244
O O2 0.500000 0.500000 0.000000
O O3 0.326276 0.679025 0.101488
O O4 0.400344 0.715189 0.738777
O O5 0.255998 0.540157 0.353202
O O6 0.354755 0.057779 0.205580
O O7 0.233992 0.942762 0.820550
O O8 0.854713 0.626983 0.729739
O O9 0.000000 0.500000 0.500000
O O10 0.935777 0.853949 0.085993
O O11 0.000000 0.500000 0.000000
O O12 0.161372 0.861558 0.346700
O O13 0.118627 0.751415 0.665567
O O14 0.212636 0.510539 0.828023
O O15 0.350671 0.066242 0.711984
O O16 0.500000 0.000000 0.500000
#
# Coordination Sequence:
#
# PCOD9044624 Si02
#       7
#     2   2   2   2   2   2   2
#     4  12  26  47  76 107 160 199 260 324 372 434
#     4  12  27  49  71 109 145 201 261 307 382 447
#     4  12  29  47  74 114 144 186 239 309 384 450
#     4  10  27  46  79  99 149 191 246 302 373 454
#     4  10  23  47  69 108 138 202 248 294 368 433
#     4  10  24  47  72 102 145 189 248 289 374 450
#     4  12  29  45  70 109 150 201 256 322 380 438
#
# _framework density 25.300702000000001
#
# number of rings (size 3 to 8) (size 9 to 14) (size 15 to 20)
#    0.857    0.000    2.857    2.143    6.000    4.000 
#    0.000    0.000    0.000    0.000    0.000    0.000 
#    0.000    0.000    0.000    0.000    0.000    0.000 
#
# Total GULP energy -78170.123992 kJ/mol
# GULP energy per Si atom -5583.580285 kJ/mol
# Density = 2.524312 g / cm^3
# Si number density = 25.300702 Si / 1000 Ang^3
#
#
#
# Elastic Constant Matrix: (Units=GPa)
#
#
# Indices 1 2 3 4 5 6 
#
# 1 48.7401 -2.8112 20.7837 -4.5910 7.4905 8.6837
# 2 -2.8112 136.6078 66.6883 11.0655 3.3561 9.6265
# 3 20.7837 66.6883 157.0588 -20.8214 16.9897 10.3807
# 4 -4.5910 11.0655 -20.8214 61.4112 1.6100 3.4426
# 5 7.4905 3.3561 16.9897 1.6100 46.7337 6.3995
# 6 8.6837 9.6265 10.3807 3.4426 6.3995 33.0907
#
#
#
# Elastic Compliance Matrix: (Units=1/GPa)
#
#
# Indices 1 2 3 4 5 6 
#
# 1 0.023519 0.002647 -0.003613 0.000414 -0.001910 -0.005483
# 2 0.002647 0.010259 -0.005135 -0.003312 0.001085 -0.001934
# 3 -0.003613 -0.005135 0.009902 0.004116 -0.002716 -0.000567
# 4 0.000414 -0.003312 0.004116 0.018465 -0.001683 -0.002032
# 5 -0.001910 0.001085 -0.002716 -0.001683 0.023118 -0.003258
# 6 -0.005483 -0.001934 -0.000567 -0.002032 -0.003258 0.033241
#
#
# Mechanical properties :
#
#
# Convention : Reuss Voigt Hill
#
# Bulk Modulus (GPa) = 31.76562 56.85869 44.31215
# Shear Modulus (GPa) = 35.41110 45.43018 40.42064
#
# Velocity S-wave (km/s) = 3.74519 4.24206 4.00135
# Velocity P-wave (km/s) = 5.59325 6.82022 6.23698
#
# Compressibility (1/GPa) = 0.03148057
#
# Stress axis : x y z
#
# Youngs Moduli (GPa) = 42.51797 97.47157 100.98516
#
# Poissons Ratio (x) = -0.25804 0.36482
# Poissons Ratio (y) = -0.11256 0.51857
# Poissons Ratio (z) = 0.15360 0.50053
#
# Static dielectric constant tensor:
#      x y z
#    x 2.021720 -0.039880 -0.038490 
#    y -0.039880 2.031950 0.048750 
#    z -0.038490 0.048750 2.054200 
# 
# From -- ./inp_files/107811.got.cif
#   From: 2010.05.17/outbox.cif.g08.bks.cpg/sg2_54_cif.got.tgz:107811.got - 2010.06.03 11:33:40.
