data_PCOD9044319
_publ_section_title
;
Structure prediction by ZEFSAII (Michael W. Deem and Ramdas Pophale) SiO2 
 PCOD9044319
Probable space group: P -1
;
_chemical_formula_sum "Si O2"
_cell_formula_units_Z 16
_cell_length_a 12.120637
_cell_length_b 11.919585
_cell_length_c 5.951007
_cell_angle_alpha 64.100591
_cell_angle_beta 110.721407
_cell_angle_gamma 93.876863
_cell_volume 719.505239
_symmetry_space_group_name_H-M "P -1"
_symmetry_group_IT_number 2
_symmetry_cell_setting 'triclinic'
loop_
_space_group_symop_operation_xyz
x,y,z
-x,-y,-z
loop_
_atom_site_type_symbol
_atom_site_label
_atom_site_fract_x
_atom_site_fract_y
_atom_site_fract_z
Si Si1 0.332767 0.294681 0.544629
Si Si2 0.986555 0.322099 0.061082
Si Si3 0.913857 0.460831 0.277615
Si Si4 0.048282 0.037400 0.249783
Si Si5 0.518756 0.382415 0.281942
Si Si6 0.311862 0.055414 0.468421
Si Si7 0.753243 0.453018 0.541945
Si Si8 0.489718 0.155389 0.154983
O O1 0.397945 0.367605 0.337858
O O2 0.280189 0.177233 0.495617
O O3 0.252797 0.400556 0.528714
O O4 0.433535 0.232638 0.838597
O O5 0.967366 0.335710 0.301315
O O6 0.024233 0.187966 0.108326
O O7 0.857435 0.374760 0.822881
O O8 0.081434 0.420178 0.985110
O O9 0.790547 0.442716 0.316846
O O10 0.000000 0.500000 0.500000
O O11 0.189675 0.999501 0.380242
O O12 0.000000 0.000000 0.500000
O O13 0.000000 0.000000 0.000000
O O14 0.625051 0.404950 0.507822
O O15 0.543998 0.252975 0.276263
O O16 0.500000 0.500000 0.000000
O O17 0.382047 0.099574 0.261443
O O18 0.409382 0.954636 0.738882
#
# Coordination Sequence:
#
# PCOD9044319 Si02
#       8
#     2   2   2   2   2   2   2   2
#     4  11  24  41  69 106 130 187 236 296 364 431
#     4  10  25  44  68 100 140 180 243 289 361 434
#     4   9  22  41  68  99 130 178 233 288 356 422
#     4  12  32  51  75 109 149 201 247 303 371 442
#     4  11  24  39  61 103 142 175 229 289 365 434
#     4  10  26  46  74  99 140 186 250 300 360 435
#     4  11  24  37  69  99 142 179 222 295 362 430
#     4  10  23  46  72  99 137 187 242 302 364 427
#
# _framework density 22.237501000000002
#
# number of rings (size 3 to 8) (size 9 to 14) (size 15 to 20)
#    0.000    1.500    1.250    0.750   15.750    1.000 
#    0.000    0.000    0.000    0.000    0.000    0.000 
#    0.000    0.000    0.000    0.000    0.000    0.000 
#
# Total GULP energy -89354.020536 kJ/mol
# GULP energy per Si atom -5584.626283 kJ/mol
# Density = 2.218689 g / cm^3
# Si number density = 22.237501 Si / 1000 Ang^3
#
#
#
# Elastic Constant Matrix: (Units=GPa)
#
#
# Indices 1 2 3 4 5 6 
#
# 1 70.2198 23.2705 21.9784 5.1941 13.0877 0.4137
# 2 23.2705 88.8186 14.2433 14.3066 -1.4171 -15.4515
# 3 21.9784 14.2433 88.7552 2.4610 9.8696 1.9577
# 4 5.1941 14.3066 2.4610 38.6937 0.1801 3.5711
# 5 13.0877 -1.4171 9.8696 0.1801 33.0477 5.6450
# 6 0.4137 -15.4515 1.9577 3.5711 5.6450 32.9398
#
#
#
# Elastic Compliance Matrix: (Units=1/GPa)
#
#
# Indices 1 2 3 4 5 6 
#
# 1 0.017822 -0.004388 -0.002987 -0.000459 -0.006182 -0.000996
# 2 -0.004388 0.014851 -0.001484 -0.005501 0.001578 0.007436
# 3 -0.002987 -0.001484 0.012533 0.000257 -0.002452 -0.001011
# 4 -0.000459 -0.005501 0.000257 0.028455 0.000704 -0.005796
# 5 -0.006182 0.001578 -0.002452 0.000704 0.034358 -0.005001
# 6 -0.000996 0.007436 -0.001011 -0.005796 -0.005001 0.035404
#
#
# Mechanical properties :
#
#
# Convention : Reuss Voigt Hill
#
# Bulk Modulus (GPa) = 36.37885 40.75312 38.56598
# Shear Modulus (GPa) = 29.35930 33.48966 31.42448
#
# Velocity S-wave (km/s) = 3.63748 3.88493 3.76324
# Velocity P-wave (km/s) = 5.83408 6.20400 6.02188
#
# Compressibility (1/GPa) = 0.02748850
#
# Stress axis : x y z
#
# Youngs Moduli (GPa) = 56.11001 67.33345 79.79217
#
# Poissons Ratio (x) = 0.29548 0.23834
# Poissons Ratio (y) = 0.24623 0.11838
# Poissons Ratio (z) = 0.16760 0.09989
#
# Static dielectric constant tensor:
#      x y z
#    x 1.874290 -0.017830 -0.032330 
#    y -0.017830 1.825830 0.029560 
#    z -0.032330 0.029560 1.881330 
# 
# From -- ./inp_files/69327.got.cif
#   From: 2010.05.17/outbox.cif.g08.bks.cpg/sg2_35_cif.got.tgz:69327.got - 2010.06.03 11:33:40.
