data_PCOD9044361
_publ_section_title
;
Structure prediction by ZEFSAII (Michael W. Deem and Ramdas Pophale) SiO2 
 PCOD9044361
Probable space group: P -1
;
_chemical_formula_sum "Si O2"
_cell_formula_units_Z 16
_cell_length_a 15.983675
_cell_length_b 8.660205
_cell_length_c 5.485356
_cell_angle_alpha 85.358467
_cell_angle_beta 122.681560
_cell_angle_gamma 101.527860
_cell_volume 625.858326
_symmetry_space_group_name_H-M "P -1"
_symmetry_group_IT_number 2
_symmetry_cell_setting 'triclinic'
loop_
_space_group_symop_operation_xyz
x,y,z
-x,-y,-z
loop_
_atom_site_type_symbol
_atom_site_label
_atom_site_fract_x
_atom_site_fract_y
_atom_site_fract_z
Si Si1 0.996605 0.828198 0.639903
Si Si2 0.670851 0.791820 0.220261
Si Si3 0.412172 0.941842 0.171564
Si Si4 0.796437 0.607838 0.137018
Si Si5 0.853237 0.828764 0.803663
Si Si6 0.800435 0.133524 0.883005
Si Si7 0.563848 0.515773 0.349900
Si Si8 0.305051 0.689660 0.685454
O O1 0.904358 0.697950 0.404377
O O2 0.963520 0.838275 0.869189
O O3 0.000000 0.000000 0.500000
O O4 0.104786 0.774456 0.826067
O O5 0.700195 0.685231 0.062159
O O6 0.782725 0.870052 0.468734
O O7 0.625347 0.691833 0.393629
O O8 0.597569 0.905889 0.020230
O O9 0.306487 0.902397 0.151389
O O10 0.359966 0.605597 0.566662
O O11 0.500000 0.000000 0.500000
O O12 0.759439 0.437020 0.216160
O O13 0.815716 0.655342 0.879468
O O14 0.835483 0.964988 0.937823
O O15 0.772260 0.214349 0.579376
O O16 0.500000 0.500000 0.500000
O O17 0.500000 0.500000 0.000000
O O18 0.394825 0.796472 0.971274
#
# Coordination Sequence:
#
# PCOD9044361 Si02
#       8
#     2   2   2   2   2   2   2   2
#     4  11  23  41  78 117 149 203 269 320 400 499
#     4  10  23  46  73 106 148 206 265 326 405 485
#     4  12  28  49  77 112 159 211 273 344 415 486
#     4  10  23  46  74 112 151 203 261 323 405 493
#     4  11  21  43  79 107 150 205 262 323 401 495
#     4  12  25  44  76 111 161 198 266 334 407 478
#     4  11  29  50  79 112 156 213 279 344 412 497
#     4  11  29  50  74 115 162 206 266 346 417 476
#
# _framework density 25.564892
#
# number of rings (size 3 to 8) (size 9 to 14) (size 15 to 20)
#    0.000    1.000    3.750    1.125    7.000    4.000 
#    0.000    2.500    0.000    0.000    0.000    0.000 
#    0.000    0.000    0.000    0.000    0.000    0.000 
#
# Total GULP energy -89350.255114 kJ/mol
# GULP energy per Si atom -5584.390945 kJ/mol
# Density = 2.550671 g / cm^3
# Si number density = 25.564892 Si / 1000 Ang^3
#
#
#
# Elastic Constant Matrix: (Units=GPa)
#
#
# Indices 1 2 3 4 5 6 
#
# 1 138.9203 71.7173 48.2512 -11.6788 -6.6589 30.5213
# 2 71.7173 132.3372 71.0422 -13.2006 7.2100 21.1317
# 3 48.2512 71.0422 156.1035 8.6122 18.2049 16.9678
# 4 -11.6788 -13.2006 8.6122 48.7441 19.1420 -2.7241
# 5 -6.6589 7.2100 18.2049 19.1420 41.3931 -0.5335
# 6 30.5213 21.1317 16.9678 -2.7241 -0.5335 42.4602
#
#
#
# Elastic Compliance Matrix: (Units=1/GPa)
#
#
# Indices 1 2 3 4 5 6 
#
# 1 0.011435 -0.004931 -0.001078 0.000098 0.003059 -0.005291
# 2 -0.004931 0.013325 -0.004276 0.004410 -0.003288 -0.001137
# 3 -0.001078 -0.004276 0.009196 -0.002108 -0.002511 -0.000939
# 4 0.000098 0.004410 -0.002108 0.026936 -0.012280 0.000151
# 5 0.003059 -0.003288 -0.002511 -0.012280 0.032007 0.000055
# 6 -0.005291 -0.001137 -0.000939 0.000151 0.000055 0.028306
#
#
# Mechanical properties :
#
#
# Convention : Reuss Voigt Hill
#
# Bulk Modulus (GPa) = 74.69961 89.93136 82.31549
# Shear Modulus (GPa) = 34.19091 42.27617 38.23354
#
# Velocity S-wave (km/s) = 3.66104 4.07096 3.87143
# Velocity P-wave (km/s) = 6.86688 7.57304 7.22859
#
# Compressibility (1/GPa) = 0.01338695
#
# Stress axis : x y z
#
# Youngs Moduli (GPa) = 87.44759 75.04856 108.73800
#
# Poissons Ratio (x) = 0.37004 0.11720
# Poissons Ratio (y) = 0.43117 0.46500
# Poissons Ratio (z) = 0.09425 0.32093
#
# Static dielectric constant tensor:
#      x y z
#    x 2.062600 -0.023390 -0.074550 
#    y -0.023390 2.154840 0.121130 
#    z -0.074550 0.121130 2.163170 
# 
# From -- ./inp_files/108900.got.cif
#   From: 2010.05.17/outbox.cif.g08.bks.cpg/sg2_55_cif.got.tgz:108900.got - 2010.06.03 11:33:40.
