data_PCOD9044949
_publ_section_title
;
Structure prediction by ZEFSAII (Michael W. Deem and Ramdas Pophale) SiO2 
 PCOD9044949
Probable space group: P -1
;
_chemical_formula_sum "Si O2"
_cell_formula_units_Z 16
_cell_length_a 14.290790
_cell_length_b 11.469319
_cell_length_c 11.637682
_cell_angle_alpha 96.623368
_cell_angle_beta 31.412618
_cell_angle_gamma 117.235605
_cell_volume 711.157647
_symmetry_space_group_name_H-M "P -1"
_symmetry_group_IT_number 2
_symmetry_cell_setting 'triclinic'
loop_
_space_group_symop_operation_xyz
x,y,z
-x,-y,-z
loop_
_atom_site_type_symbol
_atom_site_label
_atom_site_fract_x
_atom_site_fract_y
_atom_site_fract_z
Si Si1 0.513916 0.630421 0.827544
Si Si2 0.183039 0.619966 0.987459
Si Si3 0.247094 0.827422 0.520659
Si Si4 0.730869 0.324183 0.737345
Si Si5 0.634150 0.291800 0.444877
Si Si6 0.269916 0.288410 0.966623
Si Si7 0.955798 0.020706 0.677399
Si Si8 0.336636 0.880002 0.008123
O O1 0.327942 0.608380 0.928802
O O2 0.791031 0.799955 0.526904
O O3 0.451362 0.656542 0.022025
O O4 0.447397 0.463107 0.865883
O O5 0.350047 0.705743 0.708131
O O6 0.156779 0.731291 0.091970
O O7 0.912656 0.453214 0.213943
O O8 0.251138 0.719872 0.414057
O O9 0.397743 0.848418 0.475124
O O10 0.970824 0.747552 0.829496
O O11 0.391904 0.996012 0.320231
O O12 0.680463 0.192266 0.860980
O O13 0.000000 0.500000 0.500000
O O14 0.434092 0.294848 0.700676
O O15 0.149990 0.133816 0.154812
O O16 0.747120 0.025314 0.888063
O O17 0.000000 0.000000 0.500000
#
# Coordination Sequence:
#
# PCOD9044949 Si02
#       8
#     2   2   2   2   2   2   2   2
#     4  11  24  43  70 100 140 185 228 287 346 413
#     4  10  23  48  69  98 135 180 235 287 352 402
#     4  12  22  44  67 100 141 177 229 286 345 411
#     4  11  21  40  67  96 133 182 224 274 349 411
#     4  11  24  45  72  99 135 179 234 291 340 418
#     4  12  24  44  70 107 137 182 237 280 349 413
#     4  12  26  44  65 108 147 180 232 284 342 421
#     4  11  23  43  66  95 142 182 225 289 347 405
#
# _framework density 22.498526999999999
#
# number of rings (size 3 to 8) (size 9 to 14) (size 15 to 20)
#    0.000    0.750    3.750    4.875    0.000    1.500 
#    2.250    1.250    0.000    0.000    0.000    0.000 
#    0.000    0.000    0.000    0.000    0.000    0.000 
#
# Total GULP energy -89460.954366 kJ/mol
# GULP energy per Si atom -5591.309648 kJ/mol
# Density = 2.244732 g / cm^3
# Si number density = 22.498527 Si / 1000 Ang^3
#
#
#
# Elastic Constant Matrix: (Units=GPa)
#
#
# Indices 1 2 3 4 5 6 
#
# 1 77.3965 32.4595 38.8980 18.1931 12.6824 -1.2352
# 2 32.4595 86.4494 24.1241 2.3619 3.4475 -21.8860
# 3 38.8980 24.1241 120.3038 5.8483 2.0820 -10.3401
# 4 18.1931 2.3619 5.8483 51.8493 4.0021 -0.3972
# 5 12.6824 3.4475 2.0820 4.0021 39.9890 -3.3341
# 6 -1.2352 -21.8860 -10.3401 -0.3972 -3.3341 27.4222
#
#
#
# Elastic Compliance Matrix: (Units=1/GPa)
#
#
# Indices 1 2 3 4 5 6 
#
# 1 0.021486 -0.008260 -0.005625 -0.006138 -0.005908 -0.008553
# 2 -0.008260 0.018150 0.000139 0.002008 0.002051 0.014445
# 3 -0.005625 0.000139 0.010384 0.000712 0.001491 0.003965
# 4 -0.006138 0.002008 0.000712 0.021301 -0.000239 0.001874
# 5 -0.005908 0.002051 0.001491 -0.000239 0.027086 0.005223
# 6 -0.008553 0.014445 0.003965 0.001874 0.005223 0.049767
#
#
# Mechanical properties :
#
#
# Convention : Reuss Voigt Hill
#
# Bulk Modulus (GPa) = 44.38784 52.79033 48.58908
# Shear Modulus (GPa) = 27.29635 36.42998 31.86316
#
# Velocity S-wave (km/s) = 3.48695 4.02831 3.76737
# Velocity P-wave (km/s) = 5.99865 6.71947 6.36927
#
# Compressibility (1/GPa) = 0.02252869
#
# Stress axis : x y z
#
# Youngs Moduli (GPa) = 46.54168 55.09604 96.30620
#
# Poissons Ratio (x) = 0.45508 0.54175
# Poissons Ratio (y) = 0.38442 -0.01343
# Poissons Ratio (z) = 0.26181 -0.00768
#
# Static dielectric constant tensor:
#      x y z
#    x 1.813600 -0.017260 -0.017850 
#    y -0.017260 1.871760 -0.053810 
#    z -0.017850 -0.053810 1.881790 
# 
# From -- ./inp_files/433667.got.cif
#   From: 2010.05.17/outbox.cif.g08.bks.cpg/sg2_217_cif.got.tgz:433667.got - 2010.06.03 11:33:40.
