data_PCOD9044547
_publ_section_title
;
Structure prediction by ZEFSAII (Michael W. Deem and Ramdas Pophale) SiO2 
 PCOD9044547
Probable space group: P -1
;
_chemical_formula_sum "Si O2"
_cell_formula_units_Z 14
_cell_length_a 11.061884
_cell_length_b 14.942606
_cell_length_c 9.463139
_cell_angle_alpha 120.627961
_cell_angle_beta 100.212517
_cell_angle_gamma 128.068890
_cell_volume 729.348325
_symmetry_space_group_name_H-M "P -1"
_symmetry_group_IT_number 2
_symmetry_cell_setting 'triclinic'
loop_
_space_group_symop_operation_xyz
x,y,z
-x,-y,-z
loop_
_atom_site_type_symbol
_atom_site_label
_atom_site_fract_x
_atom_site_fract_y
_atom_site_fract_z
Si Si1 0.807448 0.296673 0.219174
Si Si2 0.172414 0.000045 0.670177
Si Si3 0.329901 0.295880 0.740767
Si Si4 0.693131 0.052229 0.566756
Si Si5 0.522404 0.753937 0.496202
Si Si6 0.326342 0.033478 0.017308
Si Si7 0.989654 0.575146 0.931301
O O1 0.570554 0.171873 0.122803
O O2 0.000000 0.500000 0.500000
O O3 0.848634 0.340992 0.096356
O O4 0.802027 0.167052 0.139881
O O5 0.264909 0.957821 0.589677
O O6 0.914364 0.829968 0.439202
O O7 0.297316 0.182556 0.761943
O O8 0.209032 0.017088 0.857552
O O9 0.417446 0.310815 0.621756
O O10 0.500000 0.500000 0.000000
O O11 0.500000 0.000000 0.500000
O O12 0.615264 0.901981 0.522809
O O13 0.918596 0.255589 0.843305
O O14 0.633612 0.866359 0.756664
O O15 0.256571 0.583029 0.308349
O O16 0.000000 0.500000 0.000000
#
# Coordination Sequence:
#
# PCOD9044547 Si02
#       7
#     2   2   2   2   2   2   2
#     4  11  24  39  58  94 144 171 204 251 321 390
#     4  10  24  41  67  90 121 171 213 262 323 374
#     4  10  23  47  66  90 121 162 225 274 310 370
#     4  11  21  38  60  92 128 163 210 257 314 376
#     4  11  23  40  62  92 127 166 212 263 315 382
#     4  11  24  41  62  93 134 172 206 258 324 389
#     4  12  23  35  61  94 127 171 211 252 310 375
#
# _framework density 19.195218000000001
#
# number of rings (size 3 to 8) (size 9 to 14) (size 15 to 20)
#    0.000    1.143    4.286    1.714    6.000    1.714 
#    0.000    0.714    0.000    0.000    0.000    0.000 
#    0.000    0.000    0.000    0.000    0.000    0.000 
#
# Total GULP energy -78154.307739 kJ/mol
# GULP energy per Si atom -5582.450553 kJ/mol
# Density = 1.915153 g / cm^3
# Si number density = 19.195218 Si / 1000 Ang^3
#
#
#
# Elastic Constant Matrix: (Units=GPa)
#
#
# Indices 1 2 3 4 5 6 
#
# 1 80.0679 32.6797 44.9077 -6.5457 -18.5570 3.8121
# 2 32.6797 91.2605 54.8598 -9.8338 -7.1135 10.0511
# 3 44.9077 54.8598 159.6949 1.3363 -20.0463 -5.1983
# 4 -6.5457 -9.8338 1.3363 43.2614 3.9583 -1.9844
# 5 -18.5570 -7.1135 -20.0463 3.9583 27.3225 -9.8186
# 6 3.8121 10.0511 -5.1983 -1.9844 -9.8186 21.6733
#
#
#
# Elastic Compliance Matrix: (Units=1/GPa)
#
#
# Indices 1 2 3 4 5 6 
#
# 1 0.017865 -0.004650 -0.002000 0.000899 0.010545 0.003394
# 2 -0.004650 0.017356 -0.006065 0.003604 -0.007901 -0.011935
# 3 -0.002000 -0.006065 0.010254 -0.002330 0.008204 0.009127
# 4 0.000899 0.003604 -0.002330 0.024453 -0.004488 -0.002183
# 5 0.010545 -0.007901 0.008204 -0.004488 0.059226 0.030197
# 6 0.003394 -0.011935 0.009127 -0.002183 0.030197 0.066747
#
#
# Mechanical properties :
#
#
# Convention : Reuss Voigt Hill
#
# Bulk Modulus (GPa) = 49.88734 66.21306 58.05020
# Shear Modulus (GPa) = 21.92878 31.68984 26.80931
#
# Velocity S-wave (km/s) = 3.38362 4.06756 3.74125
# Velocity P-wave (km/s) = 6.42737 7.52526 6.99788
#
# Compressibility (1/GPa) = 0.02004517
#
# Stress axis : x y z
#
# Youngs Moduli (GPa) = 55.97600 57.61797 97.52237
#
# Poissons Ratio (x) = 0.26794 0.19500
# Poissons Ratio (y) = 0.26031 0.59146
# Poissons Ratio (z) = 0.11192 0.34945
#
# Static dielectric constant tensor:
#      x y z
#    x 1.692600 0.002190 -0.030280 
#    y 0.002190 1.659830 0.000560 
#    z -0.030280 0.000560 1.677160 
# 
# From -- ./inp_files/68202.got.cif
#   From: 2010.05.17/outbox.cif.g08.bks.cpg/sg2_35_cif.got.tgz:68202.got - 2010.06.03 11:33:40.
