data_PCOD9044774
_publ_section_title
;
Structure prediction by ZEFSAII (Michael W. Deem and Ramdas Pophale) SiO2 
 PCOD9044774
Probable space group: P -1
;
_chemical_formula_sum "Si O2"
_cell_formula_units_Z 13
_cell_length_a 13.733856
_cell_length_b 7.603870
_cell_length_c 6.904920
_cell_angle_alpha 67.643073
_cell_angle_beta 58.151143
_cell_angle_gamma 52.962353
_cell_volume 486.854044
_symmetry_space_group_name_H-M "P -1"
_symmetry_group_IT_number 2
_symmetry_cell_setting 'triclinic'
loop_
_space_group_symop_operation_xyz
x,y,z
-x,-y,-z
loop_
_atom_site_type_symbol
_atom_site_label
_atom_site_fract_x
_atom_site_fract_y
_atom_site_fract_z
Si Si1 0.226294 0.569904 0.702070
Si Si2 0.600385 0.116628 0.997100
Si Si3 0.905939 0.308420 0.601802
Si Si4 0.152898 0.334559 0.177265
Si Si5 0.242156 0.906928 0.805053
Si Si6 0.000000 0.000000 0.000000
Si Si7 0.509458 0.191857 0.663343
O O1 0.186560 0.667498 0.491150
O O2 0.179522 0.768183 0.826799
O O3 0.385101 0.405960 0.609692
O O4 0.166165 0.429670 0.916337
O O5 0.720641 0.909379 0.848998
O O6 0.512341 0.265323 0.851233
O O7 0.522365 0.006531 0.224053
O O8 0.673130 0.183561 0.051049
O O9 0.833257 0.519241 0.731405
O O10 0.025889 0.318621 0.368518
O O11 0.956474 0.098642 0.774790
O O12 0.096831 0.122013 0.873336
O O13 0.351276 0.890433 0.551210
#
# Coordination Sequence:
#
# PCOD9044774 Si02
#       7
#     2   2   2   2   2   1   2
#     4  11  25  44  75 107 147 188 245 300 368 428
#     4  10  24  44  75 102 146 188 244 299 356 444
#     4  11  25  46  73 104 151 192 247 301 356 441
#     4  10  23  47  73 106 141 200 245 293 366 427
#     4  12  26  44  69 108 146 189 237 301 365 426
#     4  12  28  46  70 112 142 194 236 304 370 418
#     4  10  24  46  69 106 140 199 240 292 362 430
#
# _framework density 26.702048999999999
#
# number of rings (size 3 to 8) (size 9 to 14) (size 15 to 20)
#    0.000    1.231    1.538    2.308    4.308   12.308 
#    0.000    0.000    0.000    0.000    0.000    0.000 
#    0.000    0.000    0.000    0.000    0.000    0.000 
#
# Total GULP energy -72658.223846 kJ/mol
# GULP energy per Si atom -5589.094142 kJ/mol
# Density = 2.664127 g / cm^3
# Si number density = 26.702049 Si / 1000 Ang^3
#
#
#
# Elastic Constant Matrix: (Units=GPa)
#
#
# Indices 1 2 3 4 5 6 
#
# 1 192.9526 40.3309 97.6179 -12.0995 25.4802 -23.3075
# 2 40.3309 74.9810 40.8415 -2.9695 1.9613 -10.0132
# 3 97.6179 40.8415 186.0451 -19.8801 12.8496 -28.6203
# 4 -12.0995 -2.9695 -19.8801 33.3040 -19.9691 6.0121
# 5 25.4802 1.9613 12.8496 -19.9691 50.7543 3.6416
# 6 -23.3075 -10.0132 -28.6203 6.0121 3.6416 34.6670
#
#
#
# Elastic Compliance Matrix: (Units=1/GPa)
#
#
# Indices 1 2 3 4 5 6 
#
# 1 0.008049 -0.002145 -0.003249 -0.002286 -0.004246 0.002952
# 2 -0.002145 0.015854 -0.002264 -0.000498 0.000750 0.001276
# 3 -0.003249 -0.002264 0.008427 0.003440 0.000691 0.003450
# 4 -0.002286 -0.000498 0.003440 0.043492 0.018001 -0.008274
# 5 -0.004246 0.000750 0.000691 0.018001 0.029306 -0.008268
# 6 0.002952 0.001276 0.003450 -0.008274 -0.008268 0.036351
#
#
# Mechanical properties :
#
#
# Convention : Reuss Voigt Hill
#
# Bulk Modulus (GPa) = 58.77083 90.17325 74.47204
# Shear Modulus (GPa) = 30.77548 42.09096 36.43322
#
# Velocity S-wave (km/s) = 3.39861 3.97460 3.69783
# Velocity P-wave (km/s) = 6.12032 7.40990 6.79577
#
# Compressibility (1/GPa) = 0.01701524
#
# Stress axis : x y z
#
# Youngs Moduli (GPa) = 124.24364 63.07376 118.66021
#
# Poissons Ratio (x) = 0.13527 0.38555
# Poissons Ratio (y) = 0.26646 0.26862
# Poissons Ratio (z) = 0.40369 0.14279
#
# Static dielectric constant tensor:
#      x y z
#    x 2.208470 -0.088300 -0.040310 
#    y -0.088300 2.344740 0.136730 
#    z -0.040310 0.136730 2.115460 
# 
# From -- ./inp_files/60228.got.cif
#   From: 2010.05.17/outbox.cif.g08.bks.cpg/sg2_31_cif.got.tgz:60228.got - 2010.06.03 11:33:40.
