data_PCOD9044546
_publ_section_title
;
Structure prediction by ZEFSAII (Michael W. Deem and Ramdas Pophale) SiO2 
 PCOD9044546
Probable space group: P -1
;
_chemical_formula_sum "Si O2"
_cell_formula_units_Z 15
_cell_length_a 11.340241
_cell_length_b 11.343749
_cell_length_c 11.271955
_cell_angle_alpha 116.826876
_cell_angle_beta 108.668351
_cell_angle_gamma 26.150793
_cell_volume 556.817922
_symmetry_space_group_name_H-M "P -1"
_symmetry_group_IT_number 2
_symmetry_cell_setting 'triclinic'
loop_
_space_group_symop_operation_xyz
x,y,z
-x,-y,-z
loop_
_atom_site_type_symbol
_atom_site_label
_atom_site_fract_x
_atom_site_fract_y
_atom_site_fract_z
Si Si1 0.101801 0.826667 0.284880
Si Si2 0.589368 0.265863 0.442122
Si Si3 0.858379 0.335147 0.341703
Si Si4 0.000000 0.500000 0.500000
Si Si5 0.440156 0.179367 0.185082
Si Si6 0.107876 0.153737 0.983923
Si Si7 0.154517 0.355790 0.761589
Si Si8 0.630093 0.362085 0.107851
O O1 0.420473 0.540810 0.231349
O O2 0.030017 0.781762 0.145616
O O3 0.918869 0.955279 0.396947
O O4 0.993469 0.075838 0.326025
O O5 0.500000 0.500000 0.500000
O O6 0.429981 0.361033 0.546684
O O7 0.478542 0.284229 0.307141
O O8 0.786943 0.343531 0.194091
O O9 0.024629 0.313470 0.399977
O O10 0.857358 0.647808 0.385940
O O11 0.629722 0.009023 0.052182
O O12 0.576411 0.954562 0.227030
O O13 0.119101 0.459916 0.195749
O O14 0.211711 0.924995 0.978399
O O15 0.906149 0.440835 0.117720
O O16 0.500000 0.500000 0.000000
#
# Coordination Sequence:
#
# PCOD9044546 Si02
#       8
#     2   2   2   1   2   2   2   2
#     4   9  22  42  74 105 141 191 247 324 379 451
#     4   9  19  45  71 104 145 188 256 313 386 444
#     4  10  23  47  66 109 147 198 254 310 385 471
#     4  12  28  48  72 106 162 208 246 310 400 478
#     4  11  25  48  73 112 149 202 265 323 382 459
#     4  10  25  45  74 106 148 196 260 321 391 444
#     4  12  28  47  75 108 159 204 259 315 389 479
#     4  11  26  43  74 112 151 195 258 322 396 470
#
# _framework density 26.938787999999999
#
# number of rings (size 3 to 8) (size 9 to 14) (size 15 to 20)
#    0.000    1.600    1.333    1.600    9.333    3.200 
#    0.000    0.000    0.000    0.000    0.000    0.000 
#    0.000    0.000    0.000    0.000    0.000    0.000 
#
# Total GULP energy -83687.674840 kJ/mol
# GULP energy per Si atom -5579.178323 kJ/mol
# Density = 2.687747 g / cm^3
# Si number density = 26.938788 Si / 1000 Ang^3
#
#
#
# Elastic Constant Matrix: (Units=GPa)
#
#
# Indices 1 2 3 4 5 6 
#
# 1 102.6507 28.1612 37.3621 14.5804 19.7265 15.8119
# 2 28.1612 82.8007 61.6506 11.3757 4.2095 16.7314
# 3 37.3621 61.6506 121.3405 -8.8078 20.3699 30.2095
# 4 14.5804 11.3757 -8.8078 51.7607 -1.8461 -3.3790
# 5 19.7265 4.2095 20.3699 -1.8461 63.8949 9.3149
# 6 15.8119 16.7314 30.2095 -3.3790 9.3149 48.9417
#
#
#
# Elastic Compliance Matrix: (Units=1/GPa)
#
#
# Indices 1 2 3 4 5 6 
#
# 1 0.012366 -0.001309 -0.002524 -0.003837 -0.002786 -0.001724
# 2 -0.001309 0.021950 -0.011398 -0.006367 0.002549 -0.000970
# 3 -0.002524 -0.011398 0.016911 0.005675 -0.003003 -0.004763
# 4 -0.003837 -0.006367 0.005675 0.022869 0.000245 0.001445
# 5 -0.002786 0.002549 -0.003003 0.000245 0.017517 -0.001435
# 6 -0.001724 -0.000970 -0.004763 0.001445 -0.001435 0.024634
#
#
# Mechanical properties :
#
#
# Convention : Reuss Voigt Hill
#
# Bulk Modulus (GPa) = 48.15720 62.34884 55.25302
# Shear Modulus (GPa) = 32.54567 44.89398 38.71983
#
# Velocity S-wave (km/s) = 3.47959 4.08673 3.79532
# Velocity P-wave (km/s) = 5.83599 6.74265 6.30564
#
# Compressibility (1/GPa) = 0.02076533
#
# Stress axis : x y z
#
# Youngs Moduli (GPa) = 80.86958 45.55771 59.13192
#
# Poissons Ratio (x) = 0.05965 0.14923
# Poissons Ratio (y) = 0.10589 0.67397
# Poissons Ratio (z) = 0.20409 0.51926
#
# Static dielectric constant tensor:
#      x y z
#    x 2.162800 -0.035890 -0.026290 
#    y -0.035890 2.166380 -0.040440 
#    z -0.026290 -0.040440 2.102830 
# 
# From -- ./inp_files/428762.got.cif
#   From: 2010.05.17/outbox.cif.g08.bks.cpg/sg2_215_cif.got.tgz:428762.got - 2010.06.03 11:33:40.
