data_PCOD9044197
_publ_section_title
;
Structure prediction by ZEFSAII (Michael W. Deem and Ramdas Pophale) SiO2 
 PCOD9044197
Probable space group: P -1
;
_chemical_formula_sum "Si O2"
_cell_formula_units_Z 16
_cell_length_a 9.195188
_cell_length_b 12.404324
_cell_length_c 12.145299
_cell_angle_alpha 145.280014
_cell_angle_beta 101.306808
_cell_angle_gamma 101.151248
_cell_volume 597.811683
_symmetry_space_group_name_H-M "P -1"
_symmetry_group_IT_number 2
_symmetry_cell_setting 'triclinic'
loop_
_space_group_symop_operation_xyz
x,y,z
-x,-y,-z
loop_
_atom_site_type_symbol
_atom_site_label
_atom_site_fract_x
_atom_site_fract_y
_atom_site_fract_z
Si Si1 0.070558 0.505065 0.134868
Si Si2 0.428993 0.720927 0.250026
Si Si3 0.602429 0.904958 0.130784
Si Si4 0.923724 0.063867 0.441437
Si Si5 0.268614 0.914401 0.117232
Si Si6 0.718746 0.691283 0.653089
Si Si7 0.893201 0.160421 0.198166
Si Si8 0.671719 0.579679 0.247778
O O1 0.265656 0.557145 0.180639
O O2 0.118370 0.749018 0.391681
O O3 0.898498 0.270973 0.978035
O O4 0.000000 0.500000 0.000000
O O5 0.599059 0.721541 0.312300
O O6 0.500000 0.000000 0.500000
O O7 0.719309 0.853382 0.184590
O O8 0.473258 0.976813 0.213127
O O9 0.434745 0.618717 0.836918
O O10 0.349019 0.577659 0.998545
O O11 0.759474 0.103892 0.234207
O O12 0.106526 0.216352 0.519041
O O13 0.000000 0.000000 0.500000
O O14 0.185410 0.794847 0.883575
O O15 0.290515 0.156308 0.315046
O O16 0.500000 0.500000 0.500000
O O17 0.875685 0.657201 0.619416
O O18 0.825320 0.887876 0.936135
#
# Coordination Sequence:
#
# PCOD9044197 Si02
#       8
#     2   2   2   2   2   2   2   2
#     4  12  24  43  72 101 143 193 240 299 380 433
#     4  11  23  44  74 103 142 202 249 304 388 441
#     4  12  24  45  71 106 141 198 244 304 384 437
#     4  12  26  45  70 102 148 193 253 308 364 455
#     4  10  23  46  71 102 147 185 239 313 367 446
#     4   9  21  45  73 106 144 182 245 301 370 455
#     4   9  23  44  73 104 144 183 234 307 378 430
#     4  11  24  45  67 104 151 184 250 319 355 449
#
# _framework density 26.764282999999999
#
# number of rings (size 3 to 8) (size 9 to 14) (size 15 to 20)
#    0.750    0.500    2.500    3.375    1.750    2.000 
#    0.000    6.250    0.000    0.000    0.000    0.000 
#    0.000    0.000    0.000    0.000    0.000    0.000 
#
# Total GULP energy -89328.613701 kJ/mol
# GULP energy per Si atom -5583.038356 kJ/mol
# Density = 2.670337 g / cm^3
# Si number density = 26.764283 Si / 1000 Ang^3
#
#
#
# Elastic Constant Matrix: (Units=GPa)
#
#
# Indices 1 2 3 4 5 6 
#
# 1 217.3104 67.4024 60.0841 12.6540 36.9690 15.8459
# 2 67.4024 152.3557 24.0108 15.2312 21.6703 26.8466
# 3 60.0841 24.0108 83.0620 17.6230 11.5261 4.6838
# 4 12.6540 15.2312 17.6230 41.8623 0.0228 10.5702
# 5 36.9690 21.6703 11.5261 0.0228 65.7081 8.5080
# 6 15.8459 26.8466 4.6838 10.5702 8.5080 53.3085
#
#
#
# Elastic Compliance Matrix: (Units=1/GPa)
#
#
# Indices 1 2 3 4 5 6 
#
# 1 0.006743 -0.001990 -0.004055 0.000486 -0.002379 -0.000362
# 2 -0.001990 0.008360 -0.000315 -0.001524 -0.001180 -0.003100
# 3 -0.004055 -0.000315 0.016321 -0.005829 -0.000629 0.001186
# 4 0.000486 -0.001524 -0.005829 0.027935 0.001851 -0.004699
# 5 -0.002379 -0.001180 -0.000629 0.001851 0.017285 -0.001769
# 6 -0.000362 -0.003100 0.001186 -0.004699 -0.001769 0.021538
#
#
# Mechanical properties :
#
#
# Convention : Reuss Voigt Hill
#
# Bulk Modulus (GPa) = 53.46550 83.96917 68.71734
# Shear Modulus (GPa) = 42.68500 52.25785 47.47143
#
# Velocity S-wave (km/s) = 3.99789 4.42353 4.21608
# Velocity P-wave (km/s) = 6.42889 7.58498 7.03074
#
# Compressibility (1/GPa) = 0.01870365
#
# Stress axis : x y z
#
# Youngs Moduli (GPa) = 148.29975 119.61227 61.27242
#
# Poissons Ratio (x) = 0.23808 0.24845
# Poissons Ratio (y) = 0.29518 0.01930
# Poissons Ratio (z) = 0.60132 0.03768
#
# Static dielectric constant tensor:
#      x y z
#    x 2.160260 0.091680 0.020980 
#    y 0.091680 2.212620 -0.038000 
#    z 0.020980 -0.038000 2.078630 
# 
# From -- ./inp_files/505865.got.cif
#   From: 2010.05.17/outbox.cif.g08.bks.cpg/sg2_253_cif.got.tgz:505865.got - 2010.06.03 11:33:40.
