data_PCOD9044507
_publ_section_title
;
Structure prediction by ZEFSAII (Michael W. Deem and Ramdas Pophale) SiO2 
 PCOD9044507
Probable space group: P -1
;
_chemical_formula_sum "Si O2"
_cell_formula_units_Z 14
_cell_length_a 10.902657
_cell_length_b 5.173858
_cell_length_c 24.868200
_cell_angle_alpha 83.935282
_cell_angle_beta 22.342305
_cell_angle_gamma 87.514565
_cell_volume 524.758578
_symmetry_space_group_name_H-M "P -1"
_symmetry_group_IT_number 2
_symmetry_cell_setting 'triclinic'
loop_
_space_group_symop_operation_xyz
x,y,z
-x,-y,-z
loop_
_atom_site_type_symbol
_atom_site_label
_atom_site_fract_x
_atom_site_fract_y
_atom_site_fract_z
Si Si1 0.328844 0.207376 0.723105
Si Si2 0.345415 0.581653 0.886594
Si Si3 0.776994 0.358581 0.864291
Si Si4 0.361772 0.716973 0.585499
Si Si5 0.550428 0.709170 0.688372
Si Si6 0.816280 0.934385 0.480545
Si Si7 0.408828 0.937658 0.158811
O O1 0.396654 0.425768 0.736193
O O2 0.027234 0.249649 0.806653
O O3 0.313181 0.924106 0.765028
O O4 0.653500 0.192763 0.554803
O O5 0.452660 0.319036 0.871166
O O6 0.586473 0.700845 0.737700
O O7 0.000000 0.500000 0.000000
O O8 0.640296 0.200183 0.077469
O O9 0.984899 0.603962 0.742781
O O10 0.661000 0.127834 0.873868
O O11 0.500000 0.500000 0.500000
O O12 0.504535 0.741198 0.586930
O O13 0.500000 0.000000 0.500000
O O14 0.917326 0.053674 0.673652
O O15 0.868416 0.800360 0.519854
O O16 0.500000 0.500000 0.000000
#
# Coordination Sequence:
#
# PCOD9044507 Si02
#       7
#     2   2   2   2   2   2   2
#     4  10  23  46  78 118 159 207 250 334 404 481
#     4  12  30  56  76 108 164 219 270 337 408 486
#     4  12  28  53  83 131 170 216 270 342 413 511
#     4  12  25  45  76 114 169 211 253 326 413 482
#     4  10  24  47  81 108 150 210 263 317 403 466
#     4  10  25  43  82 116 157 197 271 319 410 468
#     4  12  30  48  85 119 155 210 280 336 403 490
#
# _framework density 26.678934000000002
#
# number of rings (size 3 to 8) (size 9 to 14) (size 15 to 20)
#    0.857    0.000    2.857    2.143    6.000    2.286 
#    2.571    8.571    0.000    0.000    0.000    0.000 
#    0.000    0.000    0.000    0.000    0.000    0.000 
#
# Total GULP energy -78466.831567 kJ/mol
# GULP energy per Si atom -5604.773683 kJ/mol
# Density = 2.661821 g / cm^3
# Si number density = 26.678934 Si / 1000 Ang^3
#
#
#
# Elastic Constant Matrix: (Units=GPa)
#
#
# Indices 1 2 3 4 5 6 
#
# 1 159.4928 70.0681 38.9041 16.4455 -7.9445 46.1433
# 2 70.0681 218.7498 50.2014 24.1192 -7.5662 38.1266
# 3 38.9041 50.2014 137.3972 9.4052 12.7380 17.1640
# 4 16.4455 24.1192 9.4052 41.2892 -1.8589 -3.7056
# 5 -7.9445 -7.5662 12.7380 -1.8589 50.0293 -2.7422
# 6 46.1433 38.1266 17.1640 -3.7056 -2.7422 60.4389
#
#
#
# Elastic Compliance Matrix: (Units=1/GPa)
#
#
# Indices 1 2 3 4 5 6 
#
# 1 0.009269 -0.001218 -0.001311 -0.003174 0.001170 -0.006077
# 2 -0.001218 0.006109 -0.001430 -0.002959 0.000839 -0.002661
# 3 -0.001311 -0.001430 0.008560 -0.000775 -0.002671 -0.000696
# 4 -0.003174 -0.002959 -0.000775 0.027978 0.000628 0.006254
# 5 0.001170 0.000839 -0.002671 0.000628 0.021022 0.000328
# 6 -0.006077 -0.002661 -0.000696 0.006254 0.000328 0.023460
#
#
# Mechanical properties :
#
#
# Convention : Reuss Voigt Hill
#
# Bulk Modulus (GPa) = 62.43030 92.66522 77.54776
# Shear Modulus (GPa) = 45.59741 54.11589 49.85665
#
# Velocity S-wave (km/s) = 4.13863 4.50868 4.32761
# Velocity P-wave (km/s) = 6.80361 7.86849 7.35534
#
# Compressibility (1/GPa) = 0.01601786
#
# Stress axis : x y z
#
# Youngs Moduli (GPa) = 107.89028 163.69884 116.82830
#
# Poissons Ratio (x) = 0.19943 0.15321
# Poissons Ratio (y) = 0.13144 0.16705
# Poissons Ratio (z) = 0.14149 0.23407
#
# Static dielectric constant tensor:
#      x y z
#    x 2.124510 -0.091130 0.013990 
#    y -0.091130 2.085810 -0.034950 
#    z 0.013990 -0.034950 2.216490 
# 
# From -- ./inp_files/616257.got.cif
#   From: 2010.05.17/outbox.cif.g08.bks.cpg/sg2_309_cif.got.tgz:616257.got - 2010.06.03 11:33:40.
