data_PCOD9044639
_publ_section_title
;
Structure prediction by ZEFSAII (Michael W. Deem and Ramdas Pophale) SiO2 
 PCOD9044639
Probable space group: P -1
;
_chemical_formula_sum "Si O2"
_cell_formula_units_Z 14
_cell_length_a 6.620417
_cell_length_b 15.358119
_cell_length_c 9.201705
_cell_angle_alpha 85.185643
_cell_angle_beta 55.733626
_cell_angle_gamma 55.831612
_cell_volume 601.699032
_symmetry_space_group_name_H-M "P -1"
_symmetry_group_IT_number 2
_symmetry_cell_setting 'triclinic'
loop_
_space_group_symop_operation_xyz
x,y,z
-x,-y,-z
loop_
_atom_site_type_symbol
_atom_site_label
_atom_site_fract_x
_atom_site_fract_y
_atom_site_fract_z
Si Si1 0.309932 0.685675 0.297067
Si Si2 0.324744 0.970041 0.674209
Si Si3 0.651234 0.889392 0.863310
Si Si4 0.730174 0.531467 0.388180
Si Si5 0.176710 0.875766 0.517530
Si Si6 0.253305 0.327073 0.390623
Si Si7 0.655803 0.206628 0.983169
O O1 0.629447 0.581934 0.259038
O O2 0.282771 0.790555 0.357290
O O3 0.326599 0.704868 0.117854
O O4 0.008073 0.690902 0.457978
O O5 0.973860 0.081093 0.837215
O O6 0.500000 0.000000 0.500000
O O7 0.480917 0.927857 0.771840
O O8 0.375804 0.875369 0.563162
O O9 0.985951 0.848311 0.692409
O O10 0.612732 0.802544 0.957537
O O11 0.500000 0.000000 0.000000
O O12 0.500000 0.500000 0.500000
O O13 0.679684 0.624716 0.506017
O O14 0.061821 0.422861 0.327370
O O15 0.000000 0.000000 0.500000
O O16 0.570653 0.237574 0.182733
#
# Coordination Sequence:
#
# PCOD9044639 Si02
#       7
#     2   2   2   2   2   2   2
#     4  11  23  42  68 101 135 181 223 273 343 398
#     4  12  26  42  63  93 140 187 229 275 329 393
#     4  12  24  42  61  93 140 180 232 281 325 395
#     4   9  22  47  75  97 132 172 219 290 350 402
#     4  12  22  42  65  95 142 181 223 278 327 398
#     4  10  23  47  70 100 134 170 228 285 341 406
#     4  12  25  42  66 102 135 180 230 276 334 404
#
# _framework density 23.267448000000002
#
# number of rings (size 3 to 8) (size 9 to 14) (size 15 to 20)
#    0.000    0.857    5.714    0.429    2.000    0.571 
#    0.000    6.429    0.000    0.000    0.000    0.000 
#    0.000    0.000    0.000    0.000    0.000    0.000 
#
# Total GULP energy -77983.318525 kJ/mol
# GULP energy per Si atom -5570.237038 kJ/mol
# Density = 2.321449 g / cm^3
# Si number density = 23.267448 Si / 1000 Ang^3
#
#
#
# Elastic Constant Matrix: (Units=GPa)
#
#
# Indices 1 2 3 4 5 6 
#
# 1 119.5420 20.1626 27.4482 -8.1720 10.8242 17.1206
# 2 20.1626 73.3772 23.9733 -22.6415 -4.1242 18.3949
# 3 27.4482 23.9733 116.6864 -22.1096 -4.4437 18.3497
# 4 -8.1720 -22.6415 -22.1096 35.9694 5.8853 2.1346
# 5 10.8242 -4.1242 -4.4437 5.8853 36.3022 0.9089
# 6 17.1206 18.3949 18.3497 2.1346 0.9089 40.9971
#
#
#
# Elastic Compliance Matrix: (Units=1/GPa)
#
#
# Indices 1 2 3 4 5 6 
#
# 1 0.009710 -0.001306 -0.001478 0.001189 -0.003347 -0.002795
# 2 -0.001306 0.020347 0.000083 0.012977 0.000840 -0.009315
# 3 -0.001478 0.000083 0.010909 0.006561 0.000839 -0.004663
# 4 0.001189 0.012977 0.006561 0.041690 -0.004552 -0.011326
# 5 -0.003347 0.000840 0.000839 -0.004552 0.029475 0.000229
# 6 -0.002795 -0.009315 -0.004663 -0.011326 0.000229 0.032410
#
#
# Mechanical properties :
#
#
# Convention : Reuss Voigt Hill
#
# Bulk Modulus (GPa) = 28.11938 50.30820 39.21379
# Shear Modulus (GPa) = 30.90276 38.52184 34.71230
#
# Velocity S-wave (km/s) = 3.64834 4.07333 3.86668
# Velocity P-wave (km/s) = 5.46431 6.61751 6.06836
#
# Compressibility (1/GPa) = 0.03556266
#
# Stress axis : x y z
#
# Youngs Moduli (GPa) = 102.99120 49.14798 91.66616
#
# Poissons Ratio (x) = 0.06417 0.13552
# Poissons Ratio (y) = 0.13447 -0.00758
# Poissons Ratio (z) = 0.15227 -0.00406
#
# Static dielectric constant tensor:
#      x y z
#    x 1.392740 -0.296970 0.393530 
#    y -0.296970 1.944970 0.156930 
#    z 0.393530 0.156930 1.372270 
# 
# From -- ./inp_files/135226.got.cif
#   From: 2010.05.17/outbox.cif.g08.bks.cpg/sg2_68_cif.got.tgz:135226.got - 2010.06.03 11:33:40.
