data_PCOD9044584
_publ_section_title
;
Structure prediction by ZEFSAII (Michael W. Deem and Ramdas Pophale) SiO2 
 PCOD9044584
Probable space group: P -1
;
_chemical_formula_sum "Si O2"
_cell_formula_units_Z 16
_cell_length_a 19.818763
_cell_length_b 9.100883
_cell_length_c 12.201009
_cell_angle_alpha 75.809670
_cell_angle_beta 38.040824
_cell_angle_gamma 46.194068
_cell_volume 722.411973
_symmetry_space_group_name_H-M "P -1"
_symmetry_group_IT_number 2
_symmetry_cell_setting 'triclinic'
loop_
_space_group_symop_operation_xyz
x,y,z
-x,-y,-z
loop_
_atom_site_type_symbol
_atom_site_label
_atom_site_fract_x
_atom_site_fract_y
_atom_site_fract_z
Si Si1 0.125385 0.096784 0.551773
Si Si2 0.264849 0.435107 0.172060
Si Si3 0.877166 0.215970 0.016661
Si Si4 0.243847 0.933036 0.946683
Si Si5 0.418041 0.267652 0.561820
Si Si6 0.884419 0.529477 0.233786
Si Si7 0.644182 0.870751 0.688923
Si Si8 0.480733 0.503957 0.896355
O O1 0.242714 0.117767 0.404110
O O2 0.960064 0.298477 0.631788
O O3 0.294387 0.773755 0.382579
O O4 0.012501 0.185346 0.790968
O O5 0.289583 0.347674 0.280868
O O6 0.358578 0.492352 0.032369
O O7 0.408451 0.165913 0.959616
O O8 0.820689 0.147919 0.016026
O O9 0.679053 0.537101 0.245894
O O10 0.000000 0.000000 0.000000
O O11 0.403179 0.833558 0.685427
O O12 0.356664 0.775034 0.944424
O O13 0.055542 0.259259 0.138488
O O14 0.229546 0.471477 0.684499
O O15 0.500000 0.000000 0.500000
O O16 0.719228 0.784957 0.482975
O O17 0.000000 0.500000 0.000000
O O18 0.500000 0.500000 0.000000
#
# Coordination Sequence:
#
# PCOD9044584 Si02
#       8
#     2   2   2   2   2   2   2   2
#     4  11  24  44  71 100 136 189 241 285 367 424
#     4  10  23  47  68 102 135 190 240 295 363 422
#     4  12  25  47  73 100 146 191 238 296 361 445
#     4  12  27  46  71 105 145 192 240 293 370 429
#     4  12  27  44  71 106 145 189 242 296 360 432
#     4  12  26  46  70 111 144 186 237 297 371 435
#     4  10  25  42  71 100 142 183 241 298 356 435
#     4  11  27  45  69 104 140 182 243 299 356 433
#
# _framework density 22.148026999999999
#
# number of rings (size 3 to 8) (size 9 to 14) (size 15 to 20)
#    0.000    0.750    3.750    2.250    5.250    0.500 
#    0.000    0.000    0.000    0.000    0.000    0.000 
#    0.000    0.000    0.000    0.000    0.000    0.000 
#
# Total GULP energy -89399.670758 kJ/mol
# GULP energy per Si atom -5587.479422 kJ/mol
# Density = 2.209762 g / cm^3
# Si number density = 22.148027 Si / 1000 Ang^3
#
#
#
# Elastic Constant Matrix: (Units=GPa)
#
#
# Indices 1 2 3 4 5 6 
#
# 1 45.5425 -0.1634 -0.8468 16.3503 0.6299 -15.0408
# 2 -0.1634 100.2097 13.0879 13.1629 2.3906 -21.5183
# 3 -0.8468 13.0879 83.6919 -0.4794 -1.8910 -1.0042
# 4 16.3503 13.1629 -0.4794 30.3617 -5.8855 -3.8335
# 5 0.6299 2.3906 -1.8910 -5.8855 39.4722 1.6747
# 6 -15.0408 -21.5183 -1.0042 -3.8335 1.6747 29.0814
#
#
#
# Elastic Compliance Matrix: (Units=1/GPa)
#
#
# Indices 1 2 3 4 5 6 
#
# 1 0.037346 0.008026 -0.000850 -0.021777 -0.005331 0.022661
# 2 0.008026 0.014557 -0.002155 -0.009533 -0.003119 0.013771
# 3 -0.000850 -0.002155 0.012292 0.001603 0.001034 -0.001458
# 4 -0.021777 -0.009533 0.001603 0.048978 0.008827 -0.012313
# 5 -0.005331 -0.003119 0.001034 0.008827 0.027204 -0.005432
# 6 0.022661 0.013771 -0.001458 -0.012313 -0.005432 0.054935
#
#
# Mechanical properties :
#
#
# Convention : Reuss Voigt Hill
#
# Bulk Modulus (GPa) = 13.47069 28.17774 20.82421
# Shear Modulus (GPa) = 23.80753 34.27416 29.04085
#
# Velocity S-wave (km/s) = 3.28217 3.93810 3.62500
# Velocity P-wave (km/s) = 4.52314 5.78172 5.19072
#
# Compressibility (1/GPa) = 0.07423525
#
# Stress axis : x y z
#
# Youngs Moduli (GPa) = 26.77654 68.69458 81.35348
#
# Poissons Ratio (x) = -0.55131 0.06919
# Poissons Ratio (y) = -0.21490 0.17533
# Poissons Ratio (z) = 0.02277 0.14804
#
# Static dielectric constant tensor:
#      x y z
#    x 1.562440 -0.097300 -0.412630 
#    y -0.097300 1.796880 -0.165300 
#    z -0.412630 -0.165300 0.891700 
# 
# From -- ./inp_files/462100.got.cif
#   From: 2010.05.17/outbox.cif.g08.bks.cpg/sg2_232_cif.got.tgz:462100.got - 2010.06.03 11:33:40.
