data_PCOD9044929
_publ_section_title
;
Structure prediction by ZEFSAII (Michael W. Deem and Ramdas Pophale) SiO2 
 PCOD9044929
Probable space group: P -1
;
_chemical_formula_sum "Si O2"
_cell_formula_units_Z 16
_cell_length_a 17.067314
_cell_length_b 5.287897
_cell_length_c 22.090039
_cell_angle_alpha 100.010032
_cell_angle_beta 23.376864
_cell_angle_gamma 111.599534
_cell_volume 658.732631
_symmetry_space_group_name_H-M "P -1"
_symmetry_group_IT_number 2
_symmetry_cell_setting 'triclinic'
loop_
_space_group_symop_operation_xyz
x,y,z
-x,-y,-z
loop_
_atom_site_type_symbol
_atom_site_label
_atom_site_fract_x
_atom_site_fract_y
_atom_site_fract_z
Si Si1 0.326576 0.271845 0.183223
Si Si2 0.023418 0.817424 0.922588
Si Si3 0.604954 0.237253 0.754705
Si Si4 0.466623 0.594111 0.789837
Si Si5 0.632340 0.270450 0.369743
Si Si6 0.920335 0.636120 0.447263
Si Si7 0.856465 0.871338 0.282872
Si Si8 0.159637 0.392288 0.185067
O O1 0.343974 0.564616 0.213428
O O2 0.231206 0.249268 0.182441
O O3 0.130544 0.954305 0.336984
O O4 0.584471 0.331175 0.004256
O O5 0.239100 0.776072 0.778518
O O6 0.768328 0.520426 0.084215
O O7 0.097790 0.991324 0.811964
O O8 0.000000 0.000000 0.000000
O O9 0.432382 0.317439 0.844835
O O10 0.175056 0.603654 0.440186
O O11 0.517988 0.887905 0.802831
O O12 0.699520 0.669884 0.591155
O O13 0.844979 0.558682 0.266413
O O14 0.500000 0.000000 0.500000
O O15 0.590481 0.718080 0.491331
O O16 0.005821 0.515259 0.327180
O O17 0.026211 0.136169 0.218555
#
# Coordination Sequence:
#
# PCOD9044929 Si02
#       8
#     2   2   2   2   2   2   2   2
#     4  11  24  43  66 107 135 194 238 299 346 428
#     4  11  25  44  73 103 137 179 237 304 357 435
#     4  10  24  46  73 100 147 189 241 295 349 429
#     4  10  25  44  72 106 143 190 236 292 369 415
#     4   9  22  44  71  99 134 179 234 284 362 428
#     4  10  24  43  67  98 143 186 238 292 348 422
#     4  10  23  48  68 101 137 190 226 302 357 433
#     4  11  25  41  70  97 147 183 243 289 362 425
#
# _framework density 24.289066999999999
#
# number of rings (size 3 to 8) (size 9 to 14) (size 15 to 20)
#    0.750    1.000    0.000    2.250    7.000    3.500 
#   13.500    0.000    0.000    0.000    0.000    0.000 
#    0.000    0.000    0.000    0.000    0.000    0.000 
#
# Total GULP energy -89309.816365 kJ/mol
# GULP energy per Si atom -5581.863523 kJ/mol
# Density = 2.423378 g / cm^3
# Si number density = 24.289067 Si / 1000 Ang^3
#
#
#
# Elastic Constant Matrix: (Units=GPa)
#
#
# Indices 1 2 3 4 5 6 
#
# 1 51.5899 32.5976 33.7135 1.4487 7.2803 21.7178
# 2 32.5976 137.4778 63.8469 12.1225 7.9063 27.7633
# 3 33.7135 63.8469 167.2864 18.2464 -3.5893 27.7736
# 4 1.4487 12.1225 18.2464 44.3631 7.7863 1.4371
# 5 7.2803 7.9063 -3.5893 7.7863 17.6768 2.1385
# 6 21.7178 27.7633 27.7736 1.4371 2.1385 40.8078
#
#
#
# Elastic Compliance Matrix: (Units=1/GPa)
#
#
# Indices 1 2 3 4 5 6 
#
# 1 0.029819 -0.002721 -0.003844 0.003849 -0.012221 -0.010897
# 2 -0.002721 0.010130 -0.002725 -0.000894 -0.003159 -0.003392
# 3 -0.003844 -0.002725 0.008717 -0.003785 0.006510 -0.002241
# 4 0.003849 -0.000894 -0.003785 0.026606 -0.013785 0.000922
# 5 -0.012221 -0.003159 0.006510 -0.013785 0.070288 0.001025
# 6 -0.010897 -0.003392 -0.002241 0.000922 0.001025 0.034052
#
#
# Mechanical properties :
#
#
# Convention : Reuss Voigt Hill
#
# Bulk Modulus (GPa) = 33.23753 68.51888 50.87820
# Shear Modulus (GPa) = 24.01302 35.64929 29.83115
#
# Velocity S-wave (km/s) = 3.14767 3.83523 3.50833
# Velocity P-wave (km/s) = 5.18886 6.91975 6.11585
#
# Compressibility (1/GPa) = 0.03008647
#
# Stress axis : x y z
#
# Youngs Moduli (GPa) = 33.53577 98.71435 114.71763
#
# Poissons Ratio (x) = 0.26862 0.44094
# Poissons Ratio (y) = 0.09126 0.31261
# Poissons Ratio (z) = 0.12890 0.26900
#
# Static dielectric constant tensor:
#      x y z
#    x 2.034990 -0.079300 -0.038440 
#    y -0.079300 1.987700 0.033770 
#    z -0.038440 0.033770 1.992640 
# 
# From -- ./inp_files/620587.got.cif
#   From: 2010.05.17/outbox.cif.g08.bks.cpg/sg2_311_cif.got.tgz:620587.got - 2010.06.03 11:33:40.
