data_PCOD9044657
_publ_section_title
;
Structure prediction by ZEFSAII (Michael W. Deem and Ramdas Pophale) SiO2 
 PCOD9044657
Probable space group: P -1
;
_chemical_formula_sum "Si O2"
_cell_formula_units_Z 12
_cell_length_a 11.011820
_cell_length_b 9.254270
_cell_length_c 5.459539
_cell_angle_alpha 61.165126
_cell_angle_beta 108.450584
_cell_angle_gamma 102.736321
_cell_volume 460.784789
_symmetry_space_group_name_H-M "P -1"
_symmetry_group_IT_number 2
_symmetry_cell_setting 'triclinic'
loop_
_space_group_symop_operation_xyz
x,y,z
-x,-y,-z
loop_
_atom_site_type_symbol
_atom_site_label
_atom_site_fract_x
_atom_site_fract_y
_atom_site_fract_z
Si Si1 0.793352 0.016432 0.130260
Si Si2 0.118097 0.509202 0.878317
Si Si3 0.497300 0.602446 0.666421
Si Si4 0.359595 0.063304 0.406081
Si Si5 0.077845 0.292836 0.636988
Si Si6 0.765192 0.374543 0.723636
O O1 0.717584 0.015205 0.342268
O O2 0.900518 0.883875 0.311735
O O3 0.710206 0.952793 0.889614
O O4 0.836249 0.206441 0.940233
O O5 0.112665 0.326376 0.914802
O O6 0.063543 0.644675 0.550099
O O7 0.247219 0.577180 0.035505
O O8 0.000000 0.500000 0.000000
O O9 0.500000 0.500000 0.500000
O O10 0.607395 0.748629 0.638849
O O11 0.358207 0.673894 0.478271
O O12 0.500000 0.500000 0.000000
O O13 0.500000 0.000000 0.500000
O O14 0.178059 0.443247 0.479323
#
# Coordination Sequence:
#
# PCOD9044657 Si02
#       6
#     2   2   2   2   2   2
#     4  12  28  44  75 103 143 190 234 290 351 419
#     4   9  22  44  73 101 141 180 232 299 355 420
#     4  12  27  43  71 102 138 188 236 285 346 417
#     4  12  26  48  64 103 148 182 232 293 344 408
#     4  10  23  47  70 104 141 182 234 298 358 415
#     4  11  25  43  72 102 136 188 239 285 354 423
#
# _framework density 26.042528000000001
#
# number of rings (size 3 to 8) (size 9 to 14) (size 15 to 20)
#    0.000    1.000    1.667    3.500   14.000    0.667 
#    0.000    7.500    0.000    0.000    0.000    0.000 
#    0.000    0.000    0.000    0.000    0.000    0.000 
#
# Total GULP energy -66947.603310 kJ/mol
# GULP energy per Si atom -5578.966942 kJ/mol
# Density = 2.598325 g / cm^3
# Si number density = 26.042528 Si / 1000 Ang^3
#
#
#
# Elastic Constant Matrix: (Units=GPa)
#
#
# Indices 1 2 3 4 5 6 
#
# 1 57.2140 20.4570 38.5054 -5.6618 -9.6923 -14.6178
# 2 20.4570 127.9781 35.0999 -7.6721 -6.3799 -13.9438
# 3 38.5054 35.0999 115.9914 8.1487 -9.3260 1.8078
# 4 -5.6618 -7.6721 8.1487 64.9681 5.5528 8.2879
# 5 -9.6923 -6.3799 -9.3260 5.5528 55.4781 1.8482
# 6 -14.6178 -13.9438 1.8078 8.2879 1.8482 61.2089
#
#
#
# Elastic Compliance Matrix: (Units=1/GPa)
#
#
# Indices 1 2 3 4 5 6 
#
# 1 0.025446 -0.000935 -0.008202 0.002187 0.002549 0.005733
# 2 -0.000935 0.008903 -0.002460 0.001033 0.000286 0.001729
# 3 -0.008202 -0.002460 0.012343 -0.002280 0.000674 -0.002595
# 4 0.002187 0.001033 -0.002280 0.016287 -0.001468 -0.001336
# 5 0.002549 0.000286 0.000674 -0.001468 0.018754 0.000287
# 6 0.005733 0.001729 -0.002595 -0.001336 0.000287 0.018349
#
#
# Mechanical properties :
#
#
# Convention : Reuss Voigt Hill
#
# Bulk Modulus (GPa) = 42.55868 54.36756 48.46312
# Shear Modulus (GPa) = 38.13620 50.13909 44.13765
#
# Velocity S-wave (km/s) = 3.83088 4.39256 4.12130
# Velocity P-wave (km/s) = 5.99541 6.82992 6.42623
#
# Compressibility (1/GPa) = 0.02349697
#
# Stress axis : x y z
#
# Youngs Moduli (GPa) = 39.29935 112.32669 81.01454
#
# Poissons Ratio (x) = 0.10503 0.66450
# Poissons Ratio (y) = 0.03675 0.19931
# Poissons Ratio (z) = 0.32234 0.27634
#
# Static dielectric constant tensor:
#      x y z
#    x 2.182880 -0.069300 -0.041630 
#    y -0.069300 2.120280 0.157480 
#    z -0.041630 0.157480 2.365480 
# 
# From -- ./inp_files/35335.got.cif
#   From: 2010.05.17/outbox.cif.g08.bks.cpg/sg2_18_cif.got.tgz:35335.got - 2010.06.03 11:33:40.
