data_PCOD9044018
_publ_section_title
;
Structure prediction by ZEFSAII (Michael W. Deem and Ramdas Pophale) SiO2 
 PCOD9044018
Probable space group: P -1
;
_chemical_formula_sum "Si O2"
_cell_formula_units_Z 16
_cell_length_a 12.367066
_cell_length_b 6.639252
_cell_length_c 26.847484
_cell_angle_alpha 42.896232
_cell_angle_beta 28.331737
_cell_angle_gamma 48.855048
_cell_volume 711.498893
_symmetry_space_group_name_H-M "P -1"
_symmetry_group_IT_number 2
_symmetry_cell_setting 'triclinic'
loop_
_space_group_symop_operation_xyz
x,y,z
-x,-y,-z
loop_
_atom_site_type_symbol
_atom_site_label
_atom_site_fract_x
_atom_site_fract_y
_atom_site_fract_z
Si Si1 0.876929 0.873294 0.884749
Si Si2 0.051346 0.342935 0.427053
Si Si3 0.754576 0.418264 0.277171
Si Si4 0.346181 0.389325 0.389903
Si Si5 0.984294 0.020959 0.081481
Si Si6 0.672901 0.270126 0.444754
Si Si7 0.155351 0.469221 0.251651
Si Si8 0.342766 0.740792 0.914219
O O1 0.082642 0.823674 0.771430
O O2 0.790736 0.211063 0.850770
O O3 0.715500 0.601823 0.989066
O O4 0.966076 0.835202 0.911971
O O5 0.273961 0.390964 0.361685
O O6 0.078780 0.498197 0.335014
O O7 0.848679 0.469114 0.521220
O O8 0.000000 0.000000 0.500000
O O9 0.578256 0.532244 0.285775
O O10 0.893663 0.695897 0.187623
O O11 0.636321 0.296094 0.395954
O O12 0.372042 0.048000 0.457159
O O13 0.789063 0.182792 0.097815
O O14 0.212816 0.954971 0.968167
O O15 0.500000 0.500000 0.500000
O O16 0.937347 0.338269 0.336292
O O17 0.383710 0.256213 0.196921
#
# Coordination Sequence:
#
# PCOD9044018 Si02
#       8
#     2   2   2   2   2   2   2   2
#     4  11  23  46  67 100 131 178 227 280 344 406
#     4  11  25  44  64  98 140 175 232 279 339 402
#     4  11  24  40  71  96 132 179 232 268 343 410
#     4  11  25  42  66  97 137 183 225 281 331 408
#     4  10  23  46  68  98 136 172 223 284 341 409
#     4  12  24  43  69  99 142 186 227 283 334 404
#     4  12  24  43  72  97 137 183 219 284 344 396
#     4  10  25  43  69 101 131 170 232 281 339 413
#
# _framework density 22.487736999999999
#
# number of rings (size 3 to 8) (size 9 to 14) (size 15 to 20)
#    0.000    1.000    2.500    3.375    3.500    0.500 
#    4.500    0.000    0.000    0.000    0.000    0.000 
#    0.000    0.000    0.000    0.000    0.000    0.000 
#
# Total GULP energy -89503.241829 kJ/mol
# GULP energy per Si atom -5593.952614 kJ/mol
# Density = 2.243655 g / cm^3
# Si number density = 22.487737 Si / 1000 Ang^3
#
#
#
# Elastic Constant Matrix: (Units=GPa)
#
#
# Indices 1 2 3 4 5 6 
#
# 1 103.7515 13.3464 22.8112 5.0810 -3.7833 6.9589
# 2 13.3464 80.0039 15.7998 9.3407 -8.2920 0.5338
# 3 22.8112 15.7998 56.3848 8.1904 -10.4576 -0.4900
# 4 5.0810 9.3407 8.1904 28.9328 -13.0619 -0.0802
# 5 -3.7833 -8.2920 -10.4576 -13.0619 39.8904 -0.0851
# 6 6.9589 0.5338 -0.4900 -0.0802 -0.0851 32.5628
#
#
#
# Elastic Compliance Matrix: (Units=1/GPa)
#
#
# Indices 1 2 3 4 5 6 
#
# 1 0.010843 -0.000950 -0.004134 -0.000646 -0.000469 -0.002367
# 2 -0.000950 0.013671 -0.002822 -0.002980 0.001036 -0.000068
# 3 -0.004134 -0.002822 0.021293 -0.002708 0.003719 0.001253
# 4 -0.000646 -0.002980 -0.002708 0.041985 0.012358 0.000282
# 5 -0.000469 0.001036 0.003719 0.012358 0.030262 0.000249
# 6 -0.002367 -0.000068 0.001253 0.000282 0.000249 0.031237
#
#
# Mechanical properties :
#
#
# Convention : Reuss Voigt Hill
#
# Bulk Modulus (GPa) = 33.33989 38.22832 35.78411
# Shear Modulus (GPa) = 28.55511 32.82272 30.68892
#
# Velocity S-wave (km/s) = 3.56730 3.82459 3.69819
# Velocity P-wave (km/s) = 5.64141 6.04482 5.84660
#
# Compressibility (1/GPa) = 0.02999410
#
# Stress axis : x y z
#
# Youngs Moduli (GPa) = 92.22701 73.14781 46.96450
#
# Poissons Ratio (x) = 0.06948 0.19416
# Poissons Ratio (y) = 0.08760 0.13254
# Poissons Ratio (z) = 0.38129 0.20643
#
# Static dielectric constant tensor:
#      x y z
#    x 1.824450 -0.024890 -0.043750 
#    y -0.024890 1.810550 -0.006330 
#    z -0.043750 -0.006330 1.849820 
# 
# From -- ./inp_files/47520.got.cif
#   From: 2010.05.17/outbox.cif.g08.bks.cpg/sg2_24_cif.got.tgz:47520.got - 2010.06.03 11:33:40.
