data_PCOD9044059
_publ_section_title
;
Structure prediction by ZEFSAII (Michael W. Deem and Ramdas Pophale) SiO2 
 PCOD9044059
Probable space group: P -1
;
_chemical_formula_sum "Si O2"
_cell_formula_units_Z 12
_cell_length_a 11.321733
_cell_length_b 8.609906
_cell_length_c 9.167615
_cell_angle_alpha 48.439247
_cell_angle_beta 130.729789
_cell_angle_gamma 124.682874
_cell_volume 491.893020
_symmetry_space_group_name_H-M "P -1"
_symmetry_group_IT_number 2
_symmetry_cell_setting 'triclinic'
loop_
_space_group_symop_operation_xyz
x,y,z
-x,-y,-z
loop_
_atom_site_type_symbol
_atom_site_label
_atom_site_fract_x
_atom_site_fract_y
_atom_site_fract_z
Si Si1 0.525445 0.284741 0.725242
Si Si2 0.364006 0.976499 0.531721
Si Si3 0.991705 0.152444 0.631950
Si Si4 0.922803 0.575637 0.191241
Si Si5 0.892131 0.261134 0.018355
Si Si6 0.587808 0.398345 0.013724
O O1 0.500000 0.500000 0.500000
O O2 0.427237 0.120418 0.633209
O O3 0.706444 0.255130 0.892214
O O4 0.483615 0.288385 0.861455
O O5 0.500000 0.000000 0.500000
O O6 0.179177 0.973010 0.356543
O O7 0.343492 0.749286 0.730713
O O8 0.966068 0.341431 0.383190
O O9 0.090353 0.306208 0.740485
O O10 0.066842 0.959434 0.754909
O O11 0.750676 0.553092 0.988112
O O12 0.066029 0.730826 0.123886
O O13 0.000000 0.500000 0.000000
O O14 0.500000 0.500000 0.000000
#
# Coordination Sequence:
#
# PCOD9044059 Si02
#       6
#     2   2   2   2   2   2
#     4  12  26  46  68 105 143 185 239 293 360 425
#     4  11  24  44  70 105 142 184 233 289 362 423
#     4  10  24  44  72 102 140 187 232 296 354 433
#     4  10  23  46  69 106 137 182 246 281 362 426
#     4  12  24  43  72 100 141 181 236 296 355 423
#     4  11  25  44  71 101 141 187 234 296 352 427
#
# _framework density 24.395548000000002
#
# number of rings (size 3 to 8) (size 9 to 14) (size 15 to 20)
#    0.000    1.000    1.667    4.000    4.667    3.333 
#    3.000    0.000    0.000    0.000    0.000    0.000 
#    0.000    0.000    0.000    0.000    0.000    0.000 
#
# Total GULP energy -66868.907663 kJ/mol
# GULP energy per Si atom -5572.408972 kJ/mol
# Density = 2.434002 g / cm^3
# Si number density = 24.395548 Si / 1000 Ang^3
#
#
#
# Elastic Constant Matrix: (Units=GPa)
#
#
# Indices 1 2 3 4 5 6 
#
# 1 99.3194 43.0580 30.4686 7.9077 0.3405 -21.8763
# 2 43.0580 129.3471 35.9860 11.3592 35.1197 -14.9541
# 3 30.4686 35.9860 82.3444 -18.0094 12.2861 -10.0937
# 4 7.9077 11.3592 -18.0094 55.5569 -9.1664 -5.0203
# 5 0.3405 35.1197 12.2861 -9.1664 42.8372 -4.8150
# 6 -21.8763 -14.9541 -10.0937 -5.0203 -4.8150 35.6691
#
#
#
# Elastic Compliance Matrix: (Units=1/GPa)
#
#
# Indices 1 2 3 4 5 6 
#
# 1 0.014599 -0.004373 -0.003634 -0.000926 0.005060 0.006645
# 2 -0.004373 0.013793 -0.003930 -0.005367 -0.011328 -0.000296
# 3 -0.003634 -0.003930 0.016959 0.007009 0.000102 0.001923
# 4 -0.000926 -0.005367 0.007009 0.023088 0.007727 0.003458
# 5 0.005060 -0.011328 0.000102 0.007727 0.034682 0.004152
# 6 0.006645 -0.000296 0.001923 0.003458 0.004152 0.033578
#
#
# Mechanical properties :
#
#
# Convention : Reuss Voigt Hill
#
# Bulk Modulus (GPa) = 46.55871 58.89289 52.72580
# Shear Modulus (GPa) = 29.80932 40.24586 35.02759
#
# Velocity S-wave (km/s) = 3.49938 4.06608 3.79333
# Velocity P-wave (km/s) = 5.95432 6.79980 6.39106
#
# Compressibility (1/GPa) = 0.02147826
#
# Stress axis : x y z
#
# Youngs Moduli (GPa) = 68.49666 72.50010 58.96430
#
# Poissons Ratio (x) = 0.31706 0.21427
# Poissons Ratio (y) = 0.29955 0.23171
# Poissons Ratio (z) = 0.24891 0.28490
#
# Static dielectric constant tensor:
#      x y z
#    x 2.424400 0.118430 -0.028360 
#    y 0.118430 2.029970 0.052400 
#    z -0.028360 0.052400 1.863320 
# 
# From -- ./inp_files/150570.got.cif
#   From: 2010.05.17/outbox.cif.g08.bks.cpg/sg2_76_cif.got.tgz:150570.got - 2010.06.03 11:33:40.
