data_PCOD9044951
_publ_section_title
;
Structure prediction by ZEFSAII (Michael W. Deem and Ramdas Pophale) SiO2 
 PCOD9044951
Probable space group: P -1
;
_chemical_formula_sum "Si O2"
_cell_formula_units_Z 16
_cell_length_a 6.359315
_cell_length_b 24.920046
_cell_length_c 28.113776
_cell_angle_alpha 10.676125
_cell_angle_beta 56.635631
_cell_angle_gamma 55.994409
_cell_volume 684.223055
_symmetry_space_group_name_H-M "P -1"
_symmetry_group_IT_number 2
_symmetry_cell_setting 'triclinic'
loop_
_space_group_symop_operation_xyz
x,y,z
-x,-y,-z
loop_
_atom_site_type_symbol
_atom_site_label
_atom_site_fract_x
_atom_site_fract_y
_atom_site_fract_z
Si Si1 0.519548 0.708577 0.037359
Si Si2 0.937867 0.792055 0.345979
Si Si3 0.221298 0.185980 0.375110
Si Si4 0.648323 0.815057 0.534325
Si Si5 0.427875 0.637698 0.219251
Si Si6 0.832208 0.740661 0.781414
Si Si7 0.879320 0.168041 0.606853
Si Si8 0.428237 0.842382 0.195533
O O1 0.515510 0.447607 0.228551
O O2 0.445115 0.606589 0.187630
O O3 0.298219 0.963329 0.830348
O O4 0.772189 0.863521 0.874222
O O5 0.818964 0.490423 0.618086
O O6 0.091347 0.791339 0.376271
O O7 0.122432 0.875823 0.208898
O O8 0.210201 0.259516 0.367881
O O9 0.200379 0.392949 0.151182
O O10 0.500000 0.000000 0.500000
O O11 0.003193 0.998646 0.548140
O O12 0.860775 0.821333 0.462511
O O13 0.450908 0.109438 0.301691
O O14 0.673707 0.433007 0.385748
O O15 0.451596 0.964098 0.948153
O O16 0.000000 0.500000 0.000000
O O17 0.500000 0.500000 0.500000
O O18 0.500000 0.000000 0.000000
#
# Coordination Sequence:
#
# PCOD9044951 Si02
#       8
#     2   2   2   2   2   2   2   2
#     4  11  25  44  73 107 141 190 241 310 376 444
#     4  11  25  47  74 102 153 197 237 319 382 430
#     4   9  22  46  65  95 140 183 229 295 358 429
#     4  11  24  44  71 104 141 183 249 300 369 458
#     4  11  25  47  74 102 154 191 251 308 385 435
#     4  10  23  48  69  99 140 191 235 295 370 438
#     4  11  24  46  71 108 144 193 240 308 382 439
#     4  12  28  47  76 115 153 208 261 306 372 465
#
# _framework density 23.384188999999999
#
# number of rings (size 3 to 8) (size 9 to 14) (size 15 to 20)
#    0.000    1.250    2.500    1.500    5.250    3.000 
#   18.000    0.000    0.000    0.000    0.000    0.000 
#    0.000    0.000    0.000    0.000    0.000    0.000 
#
# Total GULP energy -89353.021990 kJ/mol
# GULP energy per Si atom -5584.563874 kJ/mol
# Density = 2.333097 g / cm^3
# Si number density = 23.384189 Si / 1000 Ang^3
#
#
#
# Elastic Constant Matrix: (Units=GPa)
#
#
# Indices 1 2 3 4 5 6 
#
# 1 150.7962 45.3845 48.1014 17.2515 16.6020 -16.8613
# 2 45.3845 85.7680 45.7865 9.5276 -8.3082 7.7464
# 3 48.1014 45.7865 131.5004 -3.3628 -22.4370 11.0908
# 4 17.2515 9.5276 -3.3628 28.3744 11.3939 -11.8929
# 5 16.6020 -8.3082 -22.4370 11.3939 67.9094 -4.0802
# 6 -16.8613 7.7464 11.0908 -11.8929 -4.0802 64.1139
#
#
#
# Elastic Compliance Matrix: (Units=1/GPa)
#
#
# Indices 1 2 3 4 5 6 
#
# 1 0.009732 -0.003794 -0.003105 -0.002485 -0.003279 0.002885
# 2 -0.003794 0.017054 -0.003991 -0.006336 0.002555 -0.003381
# 3 -0.003105 -0.003991 0.010897 0.002528 0.003354 -0.001537
# 4 -0.002485 -0.006336 0.002528 0.044944 -0.006416 0.007603
# 5 -0.003279 0.002555 0.003354 -0.006416 0.017916 -0.001801
# 6 0.002885 -0.003381 -0.001537 0.007603 -0.001801 0.018326
#
#
# Mechanical properties :
#
#
# Convention : Reuss Voigt Hill
#
# Bulk Modulus (GPa) = 62.88511 71.84549 67.36530
# Shear Modulus (GPa) = 34.25812 47.33234 40.79523
#
# Velocity S-wave (km/s) = 3.83170 4.50390 4.18133
# Velocity P-wave (km/s) = 6.82103 7.60510 7.22371
#
# Compressibility (1/GPa) = 0.01590202
#
# Stress axis : x y z
#
# Youngs Moduli (GPa) = 102.75659 58.63602 91.77176
#
# Poissons Ratio (x) = 0.22248 0.28495
# Poissons Ratio (y) = 0.38988 0.36627
# Poissons Ratio (z) = 0.31906 0.23402
#
# Static dielectric constant tensor:
#      x y z
#    x 1.895190 -0.089740 -0.171200 
#    y -0.089740 2.477010 0.956840 
#    z -0.171200 0.956840 3.484080 
# 
# From -- ./inp_files/622061.got.cif
#   From: 2010.05.17/outbox.cif.g08.bks.cpg/sg2_312_cif.got.tgz:622061.got - 2010.06.03 11:33:40.
