data_PCOD9044777
_publ_section_title
;
Structure prediction by ZEFSAII (Michael W. Deem and Ramdas Pophale) SiO2 
 PCOD9044777
Probable space group: P -1
;
_chemical_formula_sum "Si O2"
_cell_formula_units_Z 16
_cell_length_a 5.570858
_cell_length_b 12.340667
_cell_length_c 10.631128
_cell_angle_alpha 73.338985
_cell_angle_beta 69.376993
_cell_angle_gamma 112.457246
_cell_volume 552.119429
_symmetry_space_group_name_H-M "P -1"
_symmetry_group_IT_number 2
_symmetry_cell_setting 'triclinic'
loop_
_space_group_symop_operation_xyz
x,y,z
-x,-y,-z
loop_
_atom_site_type_symbol
_atom_site_label
_atom_site_fract_x
_atom_site_fract_y
_atom_site_fract_z
Si Si1 0.727871 0.565784 0.579073
Si Si2 0.244874 0.828506 0.528182
Si Si3 0.863833 0.667147 0.871331
Si Si4 0.771615 0.890654 0.252722
Si Si5 0.916829 0.211397 0.957053
Si Si6 0.227960 0.677815 0.263204
Si Si7 0.676864 0.938079 0.740393
Si Si8 0.600363 0.358559 0.215516
O O1 0.681853 0.425758 0.672960
O O2 0.474429 0.594814 0.656873
O O3 0.013487 0.681163 0.566285
O O4 0.877506 0.610425 0.399587
O O5 0.114409 0.804066 0.700807
O O6 0.573877 0.853254 0.430986
O O7 0.228215 0.942211 0.416856
O O8 0.052990 0.595976 0.863398
O O9 0.554103 0.597577 0.874111
O O10 0.846835 0.705781 0.003971
O O11 0.474348 0.820418 0.235674
O O12 0.951406 0.834982 0.161282
O O13 0.924846 0.976335 0.791843
O O14 0.789969 0.294815 0.887975
O O15 0.628403 0.090677 0.122577
O O16 0.582183 0.800472 0.732889
#
# Coordination Sequence:
#
# PCOD9044777 Si02
#       8
#     2   2   2   2   2   2   2   2
#     4   9  21  48  74 105 146 187 250 307 366 430
#     4  10  24  45  71 106 141 195 244 309 358 444
#     4  10  25  45  71 103 151 189 246 297 371 433
#     4  11  24  42  75 104 139 197 246 294 371 436
#     4  11  26  44  67 107 151 193 237 306 373 442
#     4  10  23  47  73 107 146 190 250 304 365 437
#     4  11  26  44  71 105 151 189 245 303 370 440
#     4  10  24  46  72 105 145 196 241 301 368 439
#
# _framework density 28.979237999999999
#
# number of rings (size 3 to 8) (size 9 to 14) (size 15 to 20)
#    0.000    1.750    0.000    1.875   12.250    5.000 
#    6.750   10.625    0.000    0.000    0.000    0.000 
#    0.000    0.000    0.000    0.000    0.000    0.000 
#
# Total GULP energy -89444.389510 kJ/mol
# GULP energy per Si atom -5590.274344 kJ/mol
# Density = 2.891328 g / cm^3
# Si number density = 28.979238 Si / 1000 Ang^3
#
#
#
# Elastic Constant Matrix: (Units=GPa)
#
#
# Indices 1 2 3 4 5 6 
#
# 1 177.4897 47.0720 51.9872 15.3791 -9.8156 1.0586
# 2 47.0720 174.1592 56.8388 16.1763 1.1978 9.2161
# 3 51.9872 56.8388 131.6911 -8.2879 -1.7807 -9.8743
# 4 15.3791 16.1763 -8.2879 48.0430 -10.2504 -5.2202
# 5 -9.8156 1.1978 -1.7807 -10.2504 58.8934 11.9393
# 6 1.0586 9.2161 -9.8743 -5.2202 11.9393 58.4340
#
#
#
# Elastic Compliance Matrix: (Units=1/GPa)
#
#
# Indices 1 2 3 4 5 6 
#
# 1 0.006836 -0.000762 -0.002563 -0.002282 0.000845 -0.000813
# 2 -0.000762 0.007396 -0.003235 -0.003123 -0.000540 -0.001868
# 3 -0.002563 -0.003235 0.010456 0.004027 0.000117 0.002660
# 4 -0.002282 -0.003123 0.004027 0.024328 0.003497 0.002673
# 5 0.000845 -0.000540 0.000117 0.003497 0.018426 -0.003363
# 6 -0.000813 -0.001868 0.002660 0.002673 -0.003363 0.018798
#
#
# Mechanical properties :
#
#
# Convention : Reuss Voigt Hill
#
# Bulk Modulus (GPa) = 86.44586 88.34842 87.39714
# Shear Modulus (GPa) = 48.44147 54.90354 51.67250
#
# Velocity S-wave (km/s) = 4.09295 4.35740 4.22724
# Velocity P-wave (km/s) = 7.22712 7.47455 7.35188
#
# Compressibility (1/GPa) = 0.01156793
#
# Stress axis : x y z
#
# Youngs Moduli (GPa) = 146.27890 135.20143 95.63724
#
# Poissons Ratio (x) = 0.10303 0.24512
# Poissons Ratio (y) = 0.11148 0.30942
# Poissons Ratio (z) = 0.37491 0.43743
#
# Static dielectric constant tensor:
#      x y z
#    x 2.235400 -0.069510 -0.013370 
#    y -0.069510 2.257490 -0.033220 
#    z -0.013370 -0.033220 2.369790 
# 
# From -- ./inp_files/367582.got.cif
#   From: 2010.05.17/outbox.cif.g08.bks.cpg/sg2_184_cif.got.tgz:367582.got - 2010.06.03 11:33:40.
