data_PCOD9044200
_publ_section_title
;
Structure prediction by ZEFSAII (Michael W. Deem and Ramdas Pophale) SiO2 
 PCOD9044200
Probable space group: P -1
;
_chemical_formula_sum "Si O2"
_cell_formula_units_Z 13
_cell_length_a 15.895663
_cell_length_b 12.591231
_cell_length_c 9.912042
_cell_angle_alpha 37.294780
_cell_angle_beta 37.909176
_cell_angle_gamma 25.140090
_cell_volume 492.083399
_symmetry_space_group_name_H-M "P -1"
_symmetry_group_IT_number 2
_symmetry_cell_setting 'triclinic'
loop_
_space_group_symop_operation_xyz
x,y,z
-x,-y,-z
loop_
_atom_site_type_symbol
_atom_site_label
_atom_site_fract_x
_atom_site_fract_y
_atom_site_fract_z
Si Si1 0.074810 0.700844 0.135200
Si Si2 0.500000 0.000000 0.000000
Si Si3 0.745027 0.765892 0.424563
Si Si4 0.297123 0.855984 0.277964
Si Si5 0.559285 0.425351 0.156104
Si Si6 0.380798 0.232525 0.684203
Si Si7 0.145476 0.635342 0.798267
O O1 0.169597 0.475382 0.351757
O O2 0.838522 0.857706 0.267624
O O3 0.198123 0.763887 0.944657
O O4 0.125221 0.627223 0.988467
O O5 0.380405 0.922256 0.205023
O O6 0.442519 0.053691 0.189069
O O7 0.776587 0.695517 0.296573
O O8 0.500000 0.000000 0.500000
O O9 0.437640 0.681555 0.145496
O O10 0.265637 0.701327 0.550610
O O11 0.073129 0.129303 0.233448
O O12 0.466245 0.331749 0.421255
O O13 0.500000 0.500000 0.000000
O O14 0.270314 0.359464 0.844770
#
# Coordination Sequence:
#
# PCOD9044200 Si02
#       7
#     2   1   2   2   2   2   2
#     4  11  24  44  76  95 142 198 231 297 368 421
#     4  12  24  38  68 106 132 188 232 300 362 406
#     4  11  27  47  67 109 146 186 243 304 365 436
#     4  10  24  44  71 107 148 181 246 299 357 428
#     4  11  23  46  73 102 145 197 235 293 358 440
#     4  11  25  43  70 105 146 184 244 301 356 426
#     4  10  23  46  71 103 140 194 242 294 355 437
#
# _framework density 26.418285999999998
#
# number of rings (size 3 to 8) (size 9 to 14) (size 15 to 20)
#    0.000    1.231    1.538    2.769    6.462    6.154 
#    2.769    3.077    0.000    0.000    0.000    0.000 
#    0.000    0.000    0.000    0.000    0.000    0.000 
#
# Total GULP energy -72630.539615 kJ/mol
# GULP energy per Si atom -5586.964586 kJ/mol
# Density = 2.635816 g / cm^3
# Si number density = 26.418286 Si / 1000 Ang^3
#
#
#
# Elastic Constant Matrix: (Units=GPa)
#
#
# Indices 1 2 3 4 5 6 
#
# 1 216.0888 39.6282 61.8323 -6.8712 -15.9859 -20.1939
# 2 39.6282 61.1043 11.1936 0.6645 -19.4736 -18.0276
# 3 61.8323 11.1936 135.3287 -23.2221 -2.8586 4.2353
# 4 -6.8712 0.6645 -23.2221 45.9684 -4.2307 -9.8677
# 5 -15.9859 -19.4736 -2.8586 -4.2307 77.5001 -5.5513
# 6 -20.1939 -18.0276 4.2353 -9.8677 -5.5513 42.9862
#
#
#
# Elastic Compliance Matrix: (Units=1/GPa)
#
#
# Indices 1 2 3 4 5 6 
#
# 1 0.006111 -0.002647 -0.002599 0.000159 0.000661 0.002138
# 2 -0.002647 0.022884 -0.000586 0.001573 0.005952 0.009541
# 3 -0.002599 -0.000586 0.009354 0.004003 -0.000227 -0.001499
# 4 0.000159 0.001573 0.004003 0.025392 0.002426 0.006482
# 5 0.000661 0.005952 -0.000227 0.002426 0.015041 0.005328
# 6 0.002138 0.009541 -0.001499 0.006482 0.005328 0.030593
#
#
# Mechanical properties :
#
#
# Convention : Reuss Voigt Hill
#
# Bulk Modulus (GPa) = 37.47429 70.87004 54.17216
# Shear Modulus (GPa) = 38.48106 53.28211 45.88159
#
# Velocity S-wave (km/s) = 3.82069 4.49582 4.17194
# Velocity P-wave (km/s) = 5.80339 7.33718 6.61489
#
# Compressibility (1/GPa) = 0.02668496
#
# Stress axis : x y z
#
# Youngs Moduli (GPa) = 163.65122 43.69836 106.90286
#
# Poissons Ratio (x) = 0.11567 0.27781
# Poissons Ratio (y) = 0.43317 0.06268
# Poissons Ratio (z) = 0.42528 0.02562
#
# Static dielectric constant tensor:
#      x y z
#    x 2.653220 -0.585590 0.372000 
#    y -0.585590 3.238940 -0.358740 
#    z 0.372000 -0.358740 2.327030 
# 
# From -- ./inp_files/306404.got.cif
#   From: 2010.05.17/outbox.cif.g08.bks.cpg/sg2_154_cif.got.tgz:306404.got - 2010.06.03 11:33:40.
