data_PCOD9044040
_publ_section_title
;
Structure prediction by ZEFSAII (Michael W. Deem and Ramdas Pophale) SiO2 
 PCOD9044040
Probable space group: P -1
;
_chemical_formula_sum "Si O2"
_cell_formula_units_Z 16
_cell_length_a 5.474604
_cell_length_b 7.958654
_cell_length_c 20.072589
_cell_angle_alpha 57.687167
_cell_angle_beta 117.663726
_cell_angle_gamma 117.728625
_cell_volume 626.504519
_symmetry_space_group_name_H-M "P -1"
_symmetry_group_IT_number 2
_symmetry_cell_setting 'triclinic'
loop_
_space_group_symop_operation_xyz
x,y,z
-x,-y,-z
loop_
_atom_site_type_symbol
_atom_site_label
_atom_site_fract_x
_atom_site_fract_y
_atom_site_fract_z
Si Si1 0.883129 0.152181 0.905247
Si Si2 0.743321 0.333795 0.037859
Si Si3 0.563995 0.684469 0.593770
Si Si4 0.140355 0.685601 0.695954
Si Si5 0.200521 0.073093 0.831975
Si Si6 0.359598 0.504902 0.883581
Si Si7 0.069062 0.336542 0.645919
Si Si8 0.556883 0.934397 0.423957
O O1 0.544100 0.113101 0.874827
O O2 0.013429 0.151163 0.847137
O O3 0.035532 0.391896 0.891638
O O4 0.000000 0.000000 0.000000
O O5 0.538916 0.340414 0.074771
O O6 0.900673 0.170260 0.117430
O O7 0.512501 0.324320 0.950817
O O8 0.000000 0.500000 0.000000
O O9 0.313961 0.468466 0.598359
O O10 0.693753 0.788836 0.517552
O O11 0.808906 0.653334 0.680673
O O12 0.464777 0.869311 0.575881
O O13 0.340503 0.616327 0.789173
O O14 0.088392 0.519679 0.663765
O O15 0.269605 0.931223 0.643571
O O16 0.156089 0.161659 0.736178
O O17 0.756258 0.220092 0.601705
#
# Coordination Sequence:
#
# PCOD9044040 Si02
#       8
#     2   2   2   2   2   2   2   2
#     4  12  24  45  69  96 136 189 234 294 356 422
#     4  11  27  43  66  94 138 186 237 295 356 426
#     4  10  23  46  69 101 141 182 227 294 361 435
#     4  11  24  43  70 101 141 178 236 294 360 425
#     4  12  27  44  70 102 140 185 245 291 359 428
#     4  11  25  44  64  98 136 183 233 300 357 422
#     4  11  25  42  68 105 138 185 234 297 352 438
#     4  10  24  44  71 102 138 182 232 286 365 436
#
# _framework density 25.538523000000001
#
# number of rings (size 3 to 8) (size 9 to 14) (size 15 to 20)
#    0.000    1.000    2.500    2.625    7.000    2.500 
#    0.000    0.000    0.000    0.000    0.000    0.000 
#    0.000    0.000    0.000    0.000    0.000    0.000 
#
# Total GULP energy -89178.981100 kJ/mol
# GULP energy per Si atom -5573.686319 kJ/mol
# Density = 2.548040 g / cm^3
# Si number density = 25.538523 Si / 1000 Ang^3
#
#
#
# Elastic Constant Matrix: (Units=GPa)
#
#
# Indices 1 2 3 4 5 6 
#
# 1 57.1120 11.2572 18.2863 -7.9221 -3.2092 16.0309
# 2 11.2572 76.8612 45.4450 -16.8229 -10.4354 34.6608
# 3 18.2863 45.4450 163.7472 -19.5358 11.6453 12.9623
# 4 -7.9221 -16.8229 -19.5358 28.5116 7.2781 -3.1852
# 5 -3.2092 -10.4354 11.6453 7.2781 35.3760 -2.3827
# 6 16.0309 34.6608 12.9623 -3.1852 -2.3827 39.6314
#
#
#
# Elastic Compliance Matrix: (Units=1/GPa)
#
#
# Indices 1 2 3 4 5 6 
#
# 1 0.021458 0.005077 -0.002394 0.005409 0.002327 -0.011762
# 2 0.005077 0.031079 -0.006466 0.010425 0.007874 -0.025809
# 3 -0.002394 -0.006466 0.008642 0.003232 -0.005383 0.003733
# 4 0.005409 0.010425 0.003232 0.045848 -0.007546 -0.009132
# 5 0.002327 0.007874 -0.005383 -0.007546 0.033813 -0.004641
# 6 -0.011762 -0.025809 0.003733 -0.009132 -0.004641 0.050328
#
#
# Mechanical properties :
#
#
# Convention : Reuss Voigt Hill
#
# Bulk Modulus (GPa) = 18.65218 49.74416 34.19817
# Shear Modulus (GPa) = 23.08346 35.55261 29.31803
#
# Velocity S-wave (km/s) = 3.00970 3.73516 3.39188
# Velocity P-wave (km/s) = 4.40422 6.17432 5.36281
#
# Compressibility (1/GPa) = 0.05361304
#
# Stress axis : x y z
#
# Youngs Moduli (GPa) = 46.60260 32.17596 115.71846
#
# Poissons Ratio (x) = -0.16336 0.27708
# Poissons Ratio (y) = -0.23661 0.74818
# Poissons Ratio (z) = 0.11159 0.20804
#
# Static dielectric constant tensor:
#      x y z
#    x 2.183410 -0.142220 0.045060 
#    y -0.142220 2.316150 -0.074670 
#    z 0.045060 -0.074670 2.118990 
# 
# From -- ./inp_files/47353.got.cif
#   From: 2010.05.17/outbox.cif.g08.bks.cpg/sg2_24_cif.got.tgz:47353.got - 2010.06.03 11:33:40.
