data_PCOD9044366
_publ_section_title
;
Structure prediction by ZEFSAII (Michael W. Deem and Ramdas Pophale) SiO2 
 PCOD9044366
Probable space group: P -1
;
_chemical_formula_sum "Si O2"
_cell_formula_units_Z 12
_cell_length_a 14.565399
_cell_length_b 5.820087
_cell_length_c 12.033618
_cell_angle_alpha 131.725071
_cell_angle_beta 38.833058
_cell_angle_gamma 115.841244
_cell_volume 469.922094
_symmetry_space_group_name_H-M "P -1"
_symmetry_group_IT_number 2
_symmetry_cell_setting 'triclinic'
loop_
_space_group_symop_operation_xyz
x,y,z
-x,-y,-z
loop_
_atom_site_type_symbol
_atom_site_label
_atom_site_fract_x
_atom_site_fract_y
_atom_site_fract_z
Si Si1 0.405727 0.841611 0.701745
Si Si2 0.666049 0.212064 0.999465
Si Si3 0.904273 0.051958 0.289810
Si Si4 0.423283 0.606683 0.228993
Si Si5 0.150608 0.248648 0.966141
Si Si6 0.056351 0.154962 0.388448
O O1 0.500000 0.500000 0.500000
O O2 0.510273 0.099117 0.689163
O O3 0.272902 0.930808 0.769030
O O4 0.334823 0.857673 0.893705
O O5 0.769238 0.896246 0.761341
O O6 0.503859 0.326119 0.141290
O O7 0.762593 0.488378 0.982654
O O8 0.751745 0.254995 0.547912
O O9 0.007112 0.951957 0.267266
O O10 0.874511 0.769928 0.147764
O O11 0.003209 0.234663 0.173073
O O12 0.500000 0.500000 0.000000
O O13 0.000000 0.500000 0.500000
O O14 0.000000 0.000000 0.500000
#
# Coordination Sequence:
#
# PCOD9044366 Si02
#       6
#     2   2   2   2   2   2
#     4  11  23  45  71 103 146 195 244 311 387 457
#     4  11  24  47  71  99 144 199 244 304 382 463
#     4  11  23  46  74 110 146 189 259 320 373 452
#     4  11  26  46  70 106 149 197 253 312 383 465
#     4  10  23  46  73 107 146 191 257 314 388 446
#     4  12  27  48  75 106 152 203 249 311 392 464
#
# _framework density 25.536145999999999
#
# number of rings (size 3 to 8) (size 9 to 14) (size 15 to 20)
#    0.000    1.000    1.667    4.000    4.667    4.000 
#   21.000    0.000    0.000    0.000    0.000    0.000 
#    0.000    0.000    0.000    0.000    0.000    0.000 
#
# Total GULP energy -66977.455555 kJ/mol
# GULP energy per Si atom -5581.454630 kJ/mol
# Density = 2.547802 g / cm^3
# Si number density = 25.536146 Si / 1000 Ang^3
#
#
#
# Elastic Constant Matrix: (Units=GPa)
#
#
# Indices 1 2 3 4 5 6 
#
# 1 153.2142 20.1378 45.5473 -1.4701 -21.9253 -12.8603
# 2 20.1378 68.5403 34.9220 13.9852 -12.7560 -2.0129
# 3 45.5473 34.9220 129.1961 -9.9324 -38.4842 0.1202
# 4 -1.4701 13.9852 -9.9324 49.5685 -5.6755 0.4562
# 5 -21.9253 -12.7560 -38.4842 -5.6755 62.9519 -5.6502
# 6 -12.8603 -2.0129 0.1202 0.4562 -5.6502 46.6615
#
#
#
# Elastic Compliance Matrix: (Units=1/GPa)
#
#
# Indices 1 2 3 4 5 6 
#
# 1 0.007643 -0.000944 -0.001980 0.000246 0.001484 0.002248
# 2 -0.000944 0.018878 -0.005360 -0.006469 -0.000310 0.000594
# 3 -0.001980 -0.005360 0.012014 0.004545 0.005967 -0.000130
# 4 0.000246 -0.006469 0.004545 0.023336 0.003656 -0.000009
# 5 0.001484 -0.000310 0.005967 0.003656 0.020571 0.002835
# 6 0.002248 0.000594 -0.000130 -0.000009 0.002835 0.022420
#
#
# Mechanical properties :
#
#
# Convention : Reuss Voigt Hill
#
# Bulk Modulus (GPa) = 45.52666 61.35164 53.43915
# Shear Modulus (GPa) = 38.83361 48.52594 43.67978
#
# Velocity S-wave (km/s) = 3.90389 4.36395 4.14032
# Velocity P-wave (km/s) = 6.17960 7.03347 6.62032
#
# Compressibility (1/GPa) = 0.02196515
#
# Stress axis : x y z
#
# Youngs Moduli (GPa) = 130.83714 52.97106 83.23506
#
# Poissons Ratio (x) = 0.05003 0.16484
# Poissons Ratio (y) = 0.12357 0.44616
# Poissons Ratio (z) = 0.25912 0.28394
#
# Static dielectric constant tensor:
#      x y z
#    x 2.115070 0.172370 -0.036730 
#    y 0.172370 2.220620 -0.015460 
#    z -0.036730 -0.015460 2.124540 
# 
# From -- ./inp_files/28826.got.cif
#   From: 2010.05.17/outbox.cif.g08.bks.cpg/sg2_15_cif.got.tgz:28826.got - 2010.06.03 11:33:40.
