data_PCOD9044477
_publ_section_title
;
Structure prediction by ZEFSAII (Michael W. Deem and Ramdas Pophale) SiO2 
 PCOD9044477
Probable space group: P -1
;
_chemical_formula_sum "Si O2"
_cell_formula_units_Z 16
_cell_length_a 12.196534
_cell_length_b 9.046747
_cell_length_c 8.958932
_cell_angle_alpha 48.790691
_cell_angle_beta 93.715461
_cell_angle_gamma 100.700560
_cell_volume 728.523262
_symmetry_space_group_name_H-M "P -1"
_symmetry_group_IT_number 2
_symmetry_cell_setting 'triclinic'
loop_
_space_group_symop_operation_xyz
x,y,z
-x,-y,-z
loop_
_atom_site_type_symbol
_atom_site_label
_atom_site_fract_x
_atom_site_fract_y
_atom_site_fract_z
Si Si1 0.104819 0.828150 0.212216
Si Si2 0.146004 0.440341 0.139824
Si Si3 0.876089 0.722583 0.090996
Si Si4 0.667266 0.709309 0.551498
Si Si5 0.448361 0.768800 0.622061
Si Si6 0.263711 0.825888 0.764320
Si Si7 0.949066 0.182095 0.442317
Si Si8 0.722209 0.423530 0.501862
O O1 0.048597 0.815724 0.381137
O O2 0.196846 0.690117 0.320967
O O3 0.004066 0.763482 0.131634
O O4 0.158361 0.060744 0.040348
O O5 0.230480 0.332487 0.311576
O O6 0.026465 0.376963 0.249869
O O7 0.137053 0.350887 0.031308
O O8 0.193767 0.676989 0.975625
O O9 0.801049 0.563625 0.297598
O O10 0.554176 0.667680 0.667007
O O11 0.663558 0.562873 0.509063
O O12 0.691248 0.942408 0.346459
O O13 0.363838 0.719563 0.786235
O O14 0.370218 0.728572 0.496452
O O15 0.500000 0.000000 0.500000
O O16 0.176884 0.834710 0.615212
O O17 0.000000 0.000000 0.500000
#
# Coordination Sequence:
#
# PCOD9044477 Si02
#       8
#     2   2   2   2   2   2   2   2
#     4  11  24  43  65 102 145 182 218 280 347 409
#     4  12  24  41  69 102 136 183 226 280 338 410
#     4  11  24  40  68 101 142 183 223 276 342 414
#     4  11  26  44  71  99 137 178 231 286 335 400
#     4  10  23  46  76  97 130 185 233 283 341 398
#     4  11  23  44  67 101 134 178 231 281 335 408
#     4  12  21  40  70  96 139 179 226 280 338 405
#     4  12  24  46  68 102 138 179 227 283 345 402
#
# _framework density 21.962236000000001
#
# number of rings (size 3 to 8) (size 9 to 14) (size 15 to 20)
#    0.000    0.750    5.000    1.875    1.750    3.500 
#    0.000    0.000    0.000    3.750    0.000    0.000 
#    0.000    0.000    0.000    0.000    0.000    0.000 
#
# Total GULP energy -89560.979550 kJ/mol
# GULP energy per Si atom -5597.561222 kJ/mol
# Density = 2.191225 g / cm^3
# Si number density = 21.962236 Si / 1000 Ang^3
#
#
#
# Elastic Constant Matrix: (Units=GPa)
#
#
# Indices 1 2 3 4 5 6 
#
# 1 80.8266 42.3691 -1.7791 -11.9476 -8.3990 -0.9662
# 2 42.3691 126.2904 42.2244 -9.0973 1.0655 -7.2725
# 3 -1.7791 42.2244 70.4268 -23.5824 -0.0583 8.5739
# 4 -11.9476 -9.0973 -23.5824 32.5793 3.0321 5.9159
# 5 -8.3990 1.0655 -0.0583 3.0321 15.2581 -6.0333
# 6 -0.9662 -7.2725 8.5739 5.9159 -6.0333 35.5615
#
#
#
# Elastic Compliance Matrix: (Units=1/GPa)
#
#
# Indices 1 2 3 4 5 6 
#
# 1 0.020821 -0.010403 0.012054 0.013778 0.007314 -0.005519
# 2 -0.010403 0.015955 -0.014590 -0.011262 -0.001445 0.008126
# 3 0.012054 -0.014590 0.035066 0.029204 -0.004641 -0.016756
# 4 0.013778 -0.011262 0.029204 0.058539 -0.011306 -0.020626
# 5 0.007314 -0.001445 -0.004641 -0.011306 0.078295 0.016186
# 6 -0.005519 0.008126 -0.016756 -0.020626 0.016186 0.039850
#
#
# Mechanical properties :
#
#
# Convention : Reuss Voigt Hill
#
# Bulk Modulus (GPa) = 21.75538 49.24139 35.49839
# Shear Modulus (GPa) = 17.25768 29.66174 23.45971
#
# Velocity S-wave (km/s) = 2.80623 3.67901 3.27185
# Velocity P-wave (km/s) = 4.51965 6.36525 5.52013
#
# Compressibility (1/GPa) = 0.04596563
#
# Stress axis : x y z
#
# Youngs Moduli (GPa) = 48.02802 62.67481 28.51732
#
# Poissons Ratio (x) = 0.65199 -0.34376
# Poissons Ratio (y) = 0.49962 0.41608
# Poissons Ratio (z) = -0.57895 0.91445
#
# Static dielectric constant tensor:
#      x y z
#    x 1.791770 -0.025770 -0.008740 
#    y -0.025770 1.833740 -0.025700 
#    z -0.008740 -0.025700 1.789180 
# 
# From -- ./inp_files/242130.got.cif
#   From: 2010.05.17/outbox.cif.g08.bks.cpg/sg2_122_cif.got.tgz:242130.got - 2010.06.03 11:33:40.
