data_PCOD9044453
_publ_section_title
;
Structure prediction by ZEFSAII (Michael W. Deem and Ramdas Pophale) SiO2 
 PCOD9044453
Probable space group: P -1
;
_chemical_formula_sum "Si O2"
_cell_formula_units_Z 14
_cell_length_a 9.531349
_cell_length_b 7.584353
_cell_length_c 9.489425
_cell_angle_alpha 120.265411
_cell_angle_beta 103.992350
_cell_angle_gamma 64.824057
_cell_volume 535.871040
_symmetry_space_group_name_H-M "P -1"
_symmetry_group_IT_number 2
_symmetry_cell_setting 'triclinic'
loop_
_space_group_symop_operation_xyz
x,y,z
-x,-y,-z
loop_
_atom_site_type_symbol
_atom_site_label
_atom_site_fract_x
_atom_site_fract_y
_atom_site_fract_z
Si Si1 0.299120 0.226773 0.787599
Si Si2 0.967719 0.875801 0.726670
Si Si3 0.562415 0.283523 0.023702
Si Si4 0.167967 0.851774 0.533873
Si Si5 0.602760 0.572899 0.663134
Si Si6 0.664628 0.826563 0.526589
Si Si7 0.886873 0.298088 0.033104
O O1 0.297636 0.319315 0.665024
O O2 0.500000 0.000000 0.500000
O O3 0.253513 0.014630 0.669617
O O4 0.465807 0.151294 0.873283
O O5 0.809030 0.903088 0.618729
O O6 0.117756 0.748800 0.617685
O O7 0.964428 0.118501 0.860597
O O8 0.992148 0.745438 0.826999
O O9 0.494588 0.332060 0.183308
O O10 0.183544 0.446384 0.924531
O O11 0.500000 0.500000 0.000000
O O12 0.745881 0.220208 0.023743
O O13 0.258135 0.658382 0.371530
O O14 0.000000 0.000000 0.500000
O O15 0.500000 0.500000 0.500000
O O16 0.653989 0.726370 0.634402
#
# Coordination Sequence:
#
# PCOD9044453 Si02
#       7
#     2   2   2   2   2   2   2
#     4  11  24  43  73 103 147 192 245 298 376 433
#     4  11  25  46  70 101 151 187 250 302 380 430
#     4  10  23  46  75 107 149 193 248 305 368 440
#     4  12  27  44  71 108 148 192 243 303 365 445
#     4  12  27  47  76 109 149 195 254 303 367 445
#     4  12  26  47  75 105 143 199 254 308 368 437
#     4  10  24  44  70 105 143 195 234 310 366 447
#
# _framework density 26.125689000000001
#
# number of rings (size 3 to 8) (size 9 to 14) (size 15 to 20)
#    0.000    0.857    1.429    5.143    6.000    4.000 
#    0.000    4.286    0.000    0.000    0.000    0.000 
#    0.000    0.000    0.000    0.000    0.000    0.000 
#
# Total GULP energy -78271.405573 kJ/mol
# GULP energy per Si atom -5590.814684 kJ/mol
# Density = 2.606623 g / cm^3
# Si number density = 26.125689 Si / 1000 Ang^3
#
#
#
# Elastic Constant Matrix: (Units=GPa)
#
#
# Indices 1 2 3 4 5 6 
#
# 1 122.7478 26.3922 37.7928 -8.5039 12.4258 0.4657
# 2 26.3922 100.8035 10.4172 -0.0571 -0.8993 -13.4347
# 3 37.7928 10.4172 124.3630 -13.2816 4.4025 -1.6715
# 4 -8.5039 -0.0571 -13.2816 46.8241 -7.5228 -0.9151
# 5 12.4258 -0.8993 4.4025 -7.5228 52.1304 -11.0406
# 6 0.4657 -13.4347 -1.6715 -0.9151 -11.0406 41.7540
#
#
#
# Elastic Compliance Matrix: (Units=1/GPa)
#
#
# Indices 1 2 3 4 5 6 
#
# 1 0.009797 -0.002535 -0.002637 0.000607 -0.002419 -0.001657
# 2 -0.002535 0.011156 -0.000185 -0.000156 0.001646 0.004042
# 3 -0.002637 -0.000185 0.009084 0.002149 0.000264 0.000450
# 4 0.000607 -0.000156 0.002149 0.022622 0.003227 0.001378
# 5 -0.002419 0.001646 0.000264 0.003227 0.021575 0.006343
# 6 -0.001657 0.004042 0.000450 0.001378 0.006343 0.026994
#
#
# Mechanical properties :
#
#
# Convention : Reuss Voigt Hill
#
# Bulk Modulus (GPa) = 51.74648 55.23542 53.49095
# Shear Modulus (GPa) = 42.23647 46.36250 44.29949
#
# Velocity S-wave (km/s) = 4.02514 4.21716 4.12227
# Velocity P-wave (km/s) = 6.43833 6.70080 6.57087
#
# Compressibility (1/GPa) = 0.01932499
#
# Stress axis : x y z
#
# Youngs Moduli (GPa) = 102.07402 89.63526 110.08485
#
# Poissons Ratio (x) = 0.22719 0.29025
# Poissons Ratio (y) = 0.25871 0.02035
# Poissons Ratio (z) = 0.26913 0.01657
#
# Static dielectric constant tensor:
#      x y z
#    x 2.107280 -0.340840 -0.053130 
#    y -0.340840 1.058750 0.007170 
#    z -0.053130 0.007170 2.080510 
# 
# From -- ./inp_files/376923.got.cif
#   From: 2010.05.17/outbox.cif.g08.bks.cpg/sg2_189_cif.got.tgz:376923.got - 2010.06.03 11:33:40.
