data_PCOD9044667
_publ_section_title
;
Structure prediction by ZEFSAII (Michael W. Deem and Ramdas Pophale) SiO2 
 PCOD9044667
Probable space group: P -1
;
_chemical_formula_sum "Si O2"
_cell_formula_units_Z 16
_cell_length_a 23.209037
_cell_length_b 15.431726
_cell_length_c 8.526400
_cell_angle_alpha 125.744716
_cell_angle_beta 145.092008
_cell_angle_gamma 27.821429
_cell_volume 692.500387
_symmetry_space_group_name_H-M "P -1"
_symmetry_group_IT_number 2
_symmetry_cell_setting 'triclinic'
loop_
_space_group_symop_operation_xyz
x,y,z
-x,-y,-z
loop_
_atom_site_type_symbol
_atom_site_label
_atom_site_fract_x
_atom_site_fract_y
_atom_site_fract_z
Si Si1 0.582513 0.038764 0.170878
Si Si2 0.054832 0.889293 0.346153
Si Si3 0.723989 0.033693 0.778514
Si Si4 0.787370 0.306959 0.029543
Si Si5 0.573706 0.488277 0.420230
Si Si6 0.789734 0.530378 0.390519
Si Si7 0.117544 0.359926 0.774155
Si Si8 0.429399 0.184166 0.489633
O O1 0.695303 0.988028 0.513629
O O2 0.735396 0.873835 0.194959
O O3 0.392310 0.283869 0.946518
O O4 0.500000 0.000000 0.000000
O O5 0.292033 0.662089 0.590737
O O6 0.000000 0.000000 0.500000
O O7 0.953186 0.867301 0.113796
O O8 0.941370 0.066037 0.147767
O O9 0.576302 0.273366 0.687589
O O10 0.632796 0.054555 0.743625
O O11 0.731403 0.370109 0.788803
O O12 0.571338 0.474284 0.807710
O O13 0.868825 0.338516 0.327648
O O14 0.685708 0.648691 0.450534
O O15 0.958691 0.464346 0.659189
O O16 0.000000 0.500000 0.500000
O O17 0.263116 0.318879 0.121374
O O18 0.500000 0.000000 0.500000
#
# Coordination Sequence:
#
# PCOD9044667 Si02
#       8
#     2   2   2   2   2   2   2   2
#     4  12  22  46  68  99 137 180 237 283 337 410
#     4  11  27  44  69 104 137 174 232 289 347 419
#     4  11  25  44  73  97 135 191 225 278 352 410
#     4  10  24  44  70 100 131 176 222 288 348 405
#     4  10  23  47  70  97 134 171 232 283 340 414
#     4  12  25  43  72 102 136 183 230 287 354 406
#     4  12  26  44  71  98 138 187 237 283 333 419
#     4  12  26  47  67 102 149 186 226 291 350 404
#
# _framework density 23.104680999999999
#
# number of rings (size 3 to 8) (size 9 to 14) (size 15 to 20)
#    0.000    0.750    5.000    0.750    5.250    3.000 
#    0.000    0.000    0.000    0.000    0.000    0.000 
#    0.000    0.000    0.000    0.000    0.000    0.000 
#
# Total GULP energy -89604.427983 kJ/mol
# GULP energy per Si atom -5600.276749 kJ/mol
# Density = 2.305209 g / cm^3
# Si number density = 23.104681 Si / 1000 Ang^3
#
#
#
# Elastic Constant Matrix: (Units=GPa)
#
#
# Indices 1 2 3 4 5 6 
#
# 1 82.4539 16.9549 8.7478 8.2551 6.3846 -10.3425
# 2 16.9549 52.6456 2.1616 6.9730 8.7493 -10.0735
# 3 8.7478 2.1616 68.3468 13.6274 3.7184 -2.2419
# 4 8.2551 6.9730 13.6274 35.4697 1.5146 -4.4577
# 5 6.3846 8.7493 3.7184 1.5146 30.3368 -0.8413
# 6 -10.3425 -10.0735 -2.2419 -4.4577 -0.8413 47.7650
#
#
#
# Elastic Compliance Matrix: (Units=1/GPa)
#
#
# Indices 1 2 3 4 5 6 
#
# 1 0.013493 -0.003436 -0.001126 -0.001719 -0.001571 0.001956
# 2 -0.003436 0.022080 0.000787 -0.003162 -0.005485 0.003558
# 3 -0.001126 0.000787 0.016034 -0.005971 -0.001655 0.000088
# 4 -0.001719 -0.003162 -0.005971 0.031696 0.000469 0.001647
# 5 -0.001571 -0.005485 -0.001655 0.000469 0.035030 -0.000914
# 6 0.001956 0.003558 0.000088 0.001647 -0.000914 0.022251
#
#
# Mechanical properties :
#
#
# Convention : Reuss Voigt Hill
#
# Bulk Modulus (GPa) = 22.69775 28.79722 25.74749
# Shear Modulus (GPa) = 30.70858 34.41974 32.56416
#
# Velocity S-wave (km/s) = 3.64965 3.86389 3.75830
# Velocity P-wave (km/s) = 5.25406 5.69184 5.47732
#
# Compressibility (1/GPa) = 0.04405723
#
# Stress axis : x y z
#
# Youngs Moduli (GPa) = 74.11170 45.28884 62.36763
#
# Poissons Ratio (x) = 0.15563 0.07022
# Poissons Ratio (y) = 0.25467 -0.04909
# Poissons Ratio (z) = 0.08344 -0.03565
#
# Static dielectric constant tensor:
#      x y z
#    x 1.873940 0.022760 -0.018250 
#    y 0.022760 1.848600 -0.032480 
#    z -0.018250 -0.032480 1.897440 
# 
# From -- ./inp_files/306321.got.cif
#   From: 2010.05.17/outbox.cif.g08.bks.cpg/sg2_154_cif.got.tgz:306321.got - 2010.06.03 11:33:40.
