data_PCOD9044609
_publ_section_title
;
Structure prediction by ZEFSAII (Michael W. Deem and Ramdas Pophale) SiO2 
 PCOD9044609
Probable space group: P -1
;
_chemical_formula_sum "Si O2"
_cell_formula_units_Z 12
_cell_length_a 14.624555
_cell_length_b 14.228966
_cell_length_c 10.069595
_cell_angle_alpha 38.622811
_cell_angle_beta 40.272515
_cell_angle_gamma 21.085871
_cell_volume 465.119961
_symmetry_space_group_name_H-M "P -1"
_symmetry_group_IT_number 2
_symmetry_cell_setting 'triclinic'
loop_
_space_group_symop_operation_xyz
x,y,z
-x,-y,-z
loop_
_atom_site_type_symbol
_atom_site_label
_atom_site_fract_x
_atom_site_fract_y
_atom_site_fract_z
Si Si1 0.306120 0.531191 0.684007
Si Si2 0.520949 0.546779 0.071058
Si Si3 0.564911 0.896588 0.891986
Si Si4 0.972343 0.922102 0.850548
Si Si5 0.900217 0.420959 0.699945
Si Si6 0.138939 0.504342 0.632297
O O1 0.500000 0.500000 0.500000
O O2 0.954494 0.193827 0.250015
O O3 0.224666 0.524479 0.643658
O O4 0.438199 0.281742 0.902137
O O5 0.244016 0.748447 0.791752
O O6 0.623642 0.626233 0.842339
O O7 0.500000 0.500000 0.000000
O O8 0.270960 0.762268 0.198815
O O9 0.355632 0.180699 0.730074
O O10 0.141840 0.317221 0.227091
O O11 0.500000 0.000000 0.000000
O O12 0.935000 0.822999 0.110182
O O13 0.890187 0.382699 0.599489
O O14 0.000000 0.500000 0.500000
#
# Coordination Sequence:
#
# PCOD9044609 Si02
#       6
#     2   2   2   2   2   2
#     4  11  25  47  74 110 144 194 246 299 358 436
#     4  10  24  47  72  97 148 189 235 291 368 418
#     4  10  23  47  69 101 147 189 232 295 360 426
#     4  10  25  44  74 101 149 181 237 297 366 417
#     4  10  25  44  75 109 138 184 245 295 354 428
#     4  11  25  46  76 104 146 189 239 295 370 429
#
# _framework density 25.799797000000002
#
# number of rings (size 3 to 8) (size 9 to 14) (size 15 to 20)
#    1.000    0.667    0.000    3.500    4.667    6.000 
#    6.000   10.000    0.000    0.000    0.000    0.000 
#    0.000    0.000    0.000    0.000    0.000    0.000 
#
# Total GULP energy -67072.562735 kJ/mol
# GULP energy per Si atom -5589.380228 kJ/mol
# Density = 2.574108 g / cm^3
# Si number density = 25.799797 Si / 1000 Ang^3
#
#
#
# Elastic Constant Matrix: (Units=GPa)
#
#
# Indices 1 2 3 4 5 6 
#
# 1 171.6045 62.7239 59.1123 6.3909 11.1059 8.8951
# 2 62.7239 225.6835 56.6647 4.2055 -23.2047 -6.1127
# 3 59.1123 56.6647 151.1337 21.6499 -11.5270 -3.5564
# 4 6.3909 4.2055 21.6499 22.5732 3.2980 5.7713
# 5 11.1059 -23.2047 -11.5270 3.2980 37.1959 12.9751
# 6 8.8951 -6.1127 -3.5564 5.7713 12.9751 32.4576
#
#
#
# Elastic Compliance Matrix: (Units=1/GPa)
#
#
# Indices 1 2 3 4 5 6 
#
# 1 0.007828 -0.001930 -0.002972 0.001989 -0.004098 -0.001550
# 2 -0.001930 0.005621 -0.001063 -0.000024 0.003766 -0.000030
# 3 -0.002972 -0.001063 0.009831 -0.009399 0.003406 0.002001
# 4 0.001989 -0.000024 -0.009399 0.055930 -0.005183 -0.009452
# 5 -0.004098 0.003766 0.003406 -0.005183 0.035886 -0.011219
# 6 -0.001550 -0.000030 0.002001 -0.009452 -0.011219 0.037613
#
#
# Mechanical properties :
#
#
# Convention : Reuss Voigt Hill
#
# Bulk Modulus (GPa) = 88.10096 100.60262 94.35179
# Shear Modulus (GPa) = 29.68735 43.10672 36.39704
#
# Velocity S-wave (km/s) = 3.39585 4.09200 3.76007
# Velocity P-wave (km/s) = 7.04257 7.83608 7.44990
#
# Compressibility (1/GPa) = 0.01135061
#
# Stress axis : x y z
#
# Youngs Moduli (GPa) = 127.74670 177.90357 101.72115
#
# Poissons Ratio (x) = 0.34331 0.30233
# Poissons Ratio (y) = 0.24652 0.10810
# Poissons Ratio (z) = 0.37968 0.18906
#
# Static dielectric constant tensor:
#      x y z
#    x 2.109170 -0.030560 0.021090 
#    y -0.030560 2.130780 -0.129030 
#    z 0.021090 -0.129030 2.227540 
# 
# From -- ./inp_files/466532.got.cif
#   From: 2010.05.17/outbox.cif.g08.bks.cpg/sg2_234_cif.got.tgz:466532.got - 2010.06.03 11:33:40.
