data_PCOD9044832
_publ_section_title
;
Structure prediction by ZEFSAII (Michael W. Deem and Ramdas Pophale) SiO2 
 PCOD9044832
Probable space group: P -1
;
_chemical_formula_sum "Si O2"
_cell_formula_units_Z 14
_cell_length_a 6.200896
_cell_length_b 16.742951
_cell_length_c 15.315825
_cell_angle_alpha 154.088928
_cell_angle_beta 78.819209
_cell_angle_gamma 110.256688
_cell_volume 624.506433
_symmetry_space_group_name_H-M "P -1"
_symmetry_group_IT_number 2
_symmetry_cell_setting 'triclinic'
loop_
_space_group_symop_operation_xyz
x,y,z
-x,-y,-z
loop_
_atom_site_type_symbol
_atom_site_label
_atom_site_fract_x
_atom_site_fract_y
_atom_site_fract_z
Si Si1 0.299569 0.058262 0.120076
Si Si2 0.006785 0.066027 0.464519
Si Si3 0.413985 0.186957 0.851187
Si Si4 0.765991 0.337597 0.812504
Si Si5 0.526447 0.395724 0.722126
Si Si6 0.025389 0.287500 0.299589
Si Si7 0.372065 0.847721 0.655923
O O1 0.261192 0.248688 0.270041
O O2 0.393987 0.109133 0.260511
O O3 0.067763 0.855273 0.918562
O O4 0.500000 0.000000 0.000000
O O5 0.276123 0.203788 0.554259
O O6 0.854698 0.201541 0.611987
O O7 0.000000 0.000000 0.500000
O O8 0.857533 0.885039 0.235273
O O9 0.585762 0.211341 0.778003
O O10 0.416851 0.028464 0.764903
O O11 0.504922 0.404017 0.099600
O O12 0.631326 0.423090 0.838993
O O13 0.000000 0.500000 0.000000
O O14 0.684475 0.347429 0.590380
O O15 0.000000 0.500000 0.500000
O O16 0.845797 0.185829 0.294456
#
# Coordination Sequence:
#
# PCOD9044832 Si02
#       7
#     2   2   2   2   2   2   2
#     4   9  22  45  73 101 137 181 228 279 356 440
#     4  12  23  42  69  91 137 190 245 299 348 422
#     4  12  25  45  66  99 144 186 238 304 356 412
#     4  12  23  45  67  94 137 192 248 285 354 423
#     4  12  26  44  65 101 140 191 240 294 360 413
#     4  10  23  47  75 103 140 183 228 283 363 445
#     4  11  26  43  66 107 140 173 235 294 358 430
#
# _framework density 22.417701000000001
#
# number of rings (size 3 to 8) (size 9 to 14) (size 15 to 20)
#    0.000    0.857    4.286    2.571    2.000    6.857 
#    2.571    0.000    0.000    0.000    0.000    0.000 
#    0.000    0.000    0.000    0.000    0.000    0.000 
#
# Total GULP energy -78210.188014 kJ/mol
# GULP energy per Si atom -5586.442001 kJ/mol
# Density = 2.236668 g / cm^3
# Si number density = 22.417701 Si / 1000 Ang^3
#
#
#
# Elastic Constant Matrix: (Units=GPa)
#
#
# Indices 1 2 3 4 5 6 
#
# 1 87.1095 33.0117 27.2602 6.3789 3.2388 -15.5166
# 2 33.0117 84.5558 41.6702 -4.9961 -1.0377 -24.3505
# 3 27.2602 41.6702 83.8198 4.2310 -2.7073 -4.8286
# 4 6.3789 -4.9961 4.2310 33.1462 -5.3785 -3.2326
# 5 3.2388 -1.0377 -2.7073 -5.3785 51.0184 -1.3012
# 6 -15.5166 -24.3505 -4.8286 -3.2326 -1.3012 41.3430
#
#
#
# Elastic Compliance Matrix: (Units=1/GPa)
#
#
# Indices 1 2 3 4 5 6 
#
# 1 0.014464 -0.003848 -0.002535 -0.003012 -0.001383 0.002587
# 2 -0.003848 0.021135 -0.008932 0.006272 0.001129 0.010487
# 3 -0.002535 -0.008932 0.017123 -0.003412 0.000414 -0.004466
# 4 -0.003012 0.006272 -0.003412 0.033217 0.003764 0.004881
# 5 -0.001383 0.001129 0.000414 0.003764 0.020159 0.001123
# 6 0.002587 0.010487 -0.004466 0.004881 0.001123 0.031231
#
#
# Mechanical properties :
#
#
# Convention : Reuss Voigt Hill
#
# Bulk Modulus (GPa) = 45.26107 51.04104 48.15105
# Shear Modulus (GPa) = 28.51904 35.33771 31.92838
#
# Velocity S-wave (km/s) = 3.57061 3.97461 3.77802
# Velocity P-wave (km/s) = 6.10186 6.62427 6.36843
#
# Compressibility (1/GPa) = 0.02209404
#
# Stress axis : x y z
#
# Youngs Moduli (GPa) = 69.13720 47.31549 58.39968
#
# Poissons Ratio (x) = 0.18205 0.14803
# Poissons Ratio (y) = 0.26601 0.52160
# Poissons Ratio (z) = 0.17525 0.42260
#
# Static dielectric constant tensor:
#      x y z
#    x 1.947850 -0.024330 -0.002400 
#    y -0.024330 1.805460 -0.003260 
#    z -0.002400 -0.003260 1.883830 
# 
# From -- ./inp_files/98354.got.cif
#   From: 2010.05.17/outbox.cif.g08.bks.cpg/sg2_50_cif.got.tgz:98354.got - 2010.06.03 11:33:40.
