data_PCOD9044871
_publ_section_title
;
Structure prediction by ZEFSAII (Michael W. Deem and Ramdas Pophale) SiO2 
 PCOD9044871
Probable space group: P -1
;
_chemical_formula_sum "Si O2"
_cell_formula_units_Z 12
_cell_length_a 9.507238
_cell_length_b 10.496245
_cell_length_c 5.350264
_cell_angle_alpha 84.526195
_cell_angle_beta 100.390346
_cell_angle_gamma 119.107672
_cell_volume 458.808554
_symmetry_space_group_name_H-M "P -1"
_symmetry_group_IT_number 2
_symmetry_cell_setting 'triclinic'
loop_
_space_group_symop_operation_xyz
x,y,z
-x,-y,-z
loop_
_atom_site_type_symbol
_atom_site_label
_atom_site_fract_x
_atom_site_fract_y
_atom_site_fract_z
Si Si1 0.791632 0.405207 0.635966
Si Si2 0.804468 0.823314 0.415923
Si Si3 0.403792 0.494696 0.723137
Si Si4 0.036334 0.721050 0.594977
Si Si5 0.670282 0.137861 0.956120
Si Si6 0.808842 0.949689 0.900819
O O1 0.677421 0.403157 0.370649
O O2 0.924339 0.355934 0.608752
O O3 0.671511 0.279362 0.807766
O O4 0.893741 0.576021 0.720842
O O5 0.745019 0.666309 0.303671
O O6 0.745865 0.893247 0.170257
O O7 0.989165 0.850305 0.511874
O O8 0.747909 0.837078 0.672204
O O9 0.500000 0.500000 0.500000
O O10 0.500000 0.500000 0.000000
O O11 0.199847 0.795166 0.793099
O O12 0.500000 0.000000 0.000000
O O13 0.753808 0.069860 0.809101
O O14 0.000000 0.000000 0.000000
#
# Coordination Sequence:
#
# PCOD9044871 Si02
#       6
#     2   2   2   2   2   2
#     4  10  25  47  77 105 150 199 260 316 381 464
#     4  11  25  46  75 109 143 201 256 314 366 461
#     4  11  26  47  75 107 146 193 253 318 386 444
#     4  10  23  47  77 108 144 199 265 315 380 450
#     4  12  28  44  74 113 159 202 247 320 393 453
#     4  12  25  46  76 104 155 198 259 301 379 461
#
# _framework density 26.154700999999999
#
# number of rings (size 3 to 8) (size 9 to 14) (size 15 to 20)
#    0.000    1.000    1.667    3.000    7.000    2.000 
#    0.000    0.000    0.000    0.000    0.000    0.000 
#    0.000    0.000    0.000    0.000    0.000    0.000 
#
# Total GULP energy -66991.275992 kJ/mol
# GULP energy per Si atom -5582.606333 kJ/mol
# Density = 2.609517 g / cm^3
# Si number density = 26.154701 Si / 1000 Ang^3
#
#
#
# Elastic Constant Matrix: (Units=GPa)
#
#
# Indices 1 2 3 4 5 6 
#
# 1 100.1474 23.5961 28.0448 -4.0010 8.0189 -14.4053
# 2 23.5961 107.0292 56.9902 -19.8284 14.3437 1.1561
# 3 28.0448 56.9902 178.9936 1.4717 22.9431 -7.7941
# 4 -4.0010 -19.8284 1.4717 44.4343 -12.0801 -0.8830
# 5 8.0189 14.3437 22.9431 -12.0801 35.8476 -0.6772
# 6 -14.4053 1.1561 -7.7941 -0.8830 -0.6772 50.3490
#
#
#
# Elastic Compliance Matrix: (Units=1/GPa)
#
#
# Indices 1 2 3 4 5 6 
#
# 1 0.011212 -0.001900 -0.000868 -0.000062 -0.001154 0.003100
# 2 -0.001900 0.012928 -0.003870 0.005587 -0.000414 -0.001347
# 3 -0.000868 -0.003870 0.007551 -0.003162 -0.004139 0.000898
# 4 -0.000062 0.005587 -0.003162 0.027569 0.009092 -0.000030
# 5 -0.001154 -0.000414 -0.004139 0.009092 0.034026 -0.000344
# 6 0.003100 -0.001347 0.000898 -0.000030 -0.000344 0.020913
#
#
# Mechanical properties :
#
#
# Convention : Reuss Voigt Hill
#
# Bulk Modulus (GPa) = 54.30580 67.04804 60.67692
# Shear Modulus (GPa) = 37.42176 44.62877 41.02526
#
# Velocity S-wave (km/s) = 3.78668 4.13527 3.96480
# Velocity P-wave (km/s) = 6.31878 6.96358 6.64900
#
# Compressibility (1/GPa) = 0.01841424
#
# Stress axis : x y z
#
# Youngs Moduli (GPa) = 89.19027 77.35311 132.43962
#
# Poissons Ratio (x) = 0.14694 0.11501
# Poissons Ratio (y) = 0.16943 0.51254
# Poissons Ratio (z) = 0.07745 0.29936
#
# Static dielectric constant tensor:
#      x y z
#    x 2.566210 0.241670 0.738970 
#    y 0.241670 2.354520 0.250870 
#    z 0.738970 0.250870 3.656570 
# 
# From -- ./inp_files/69401.got.cif
#   From: 2010.05.17/outbox.cif.g08.bks.cpg/sg2_35_cif.got.tgz:69401.got - 2010.06.03 11:33:40.
