data_PCOD9044815
_publ_section_title
;
Structure prediction by ZEFSAII (Michael W. Deem and Ramdas Pophale) SiO2 
 PCOD9044815
Probable space group: P -1
;
_chemical_formula_sum "Si O2"
_cell_formula_units_Z 12
_cell_length_a 10.262961
_cell_length_b 5.291905
_cell_length_c 11.762322
_cell_angle_alpha 76.428133
_cell_angle_beta 50.937017
_cell_angle_gamma 63.592802
_cell_volume 443.301040
_symmetry_space_group_name_H-M "P -1"
_symmetry_group_IT_number 2
_symmetry_cell_setting 'triclinic'
loop_
_space_group_symop_operation_xyz
x,y,z
-x,-y,-z
loop_
_atom_site_type_symbol
_atom_site_label
_atom_site_fract_x
_atom_site_fract_y
_atom_site_fract_z
Si Si1 0.849859 0.814807 0.145157
Si Si2 0.939407 0.852618 0.413449
Si Si3 0.765846 0.644790 0.979619
Si Si4 0.243749 0.504174 0.592599
Si Si5 0.550394 0.378296 0.257441
Si Si6 0.734498 0.708998 0.729606
O O1 0.835737 0.806855 0.017631
O O2 0.741868 0.634180 0.277363
O O3 0.740527 0.129470 0.212970
O O4 0.057233 0.655543 0.089016
O O5 0.837946 0.690422 0.412530
O O6 0.850416 0.860257 0.585786
O O7 0.146452 0.628443 0.319335
O O8 0.889698 0.168718 0.367160
O O9 0.595172 0.599409 0.133091
O O10 0.720793 0.761208 0.865580
O O11 0.421770 0.479033 0.427204
O O12 0.449988 0.235235 0.242607
#
# Coordination Sequence:
#
# PCOD9044815 Si02
#       6
#     2   2   2   2   2   2
#     4  11  26  47  70 108 143 201 234 301 367 443
#     4  10  24  47  78 110 141 195 246 301 364 431
#     4  11  25  47  70 105 147 195 239 296 372 439
#     4  11  25  48  79 107 146 192 249 301 359 437
#     4  11  26  44  73 109 144 186 247 306 363 423
#     4  10  23  47  74 109 142 190 245 305 359 433
#
# _framework density 27.069642999999999
#
# number of rings (size 3 to 8) (size 9 to 14) (size 15 to 20)
#    0.000    1.333    1.667    1.500    7.000   10.000 
#    6.000    0.000    0.000    0.000    0.000    0.000 
#    0.000    0.000    0.000    0.000    0.000    0.000 
#
# Total GULP energy -67314.215383 kJ/mol
# GULP energy per Si atom -5609.517949 kJ/mol
# Density = 2.700803 g / cm^3
# Si number density = 27.069643 Si / 1000 Ang^3
#
#
#
# Elastic Constant Matrix: (Units=GPa)
#
#
# Indices 1 2 3 4 5 6 
#
# 1 96.4284 3.2832 40.8121 -7.6908 20.0843 -5.5570
# 2 3.2832 118.3597 31.4371 -3.4148 14.9825 13.8204
# 3 40.8121 31.4371 166.1442 -26.5769 10.8625 -6.3333
# 4 -7.6908 -3.4148 -26.5769 41.5246 -13.2154 -7.7867
# 5 20.0843 14.9825 10.8625 -13.2154 56.4153 -6.9422
# 6 -5.5570 13.8204 -6.3333 -7.7867 -6.9422 31.0001
#
#
#
# Elastic Compliance Matrix: (Units=1/GPa)
#
#
# Indices 1 2 3 4 5 6 
#
# 1 0.012487 0.001022 -0.003142 -0.001020 -0.004362 -0.000092
# 2 0.001022 0.010371 -0.002726 -0.003309 -0.004201 -0.006770
# 3 -0.003142 -0.002726 0.008291 0.006012 0.002189 0.004346
# 4 -0.001020 -0.003309 0.006012 0.032864 0.009367 0.012873
# 5 -0.004362 -0.004201 0.002189 0.009367 0.023288 0.009106
# 6 -0.000092 -0.006770 0.004346 0.012873 0.009106 0.041420
#
#
# Mechanical properties :
#
#
# Convention : Reuss Voigt Hill
#
# Bulk Modulus (GPa) = 46.60629 59.11080 52.85855
# Shear Modulus (GPa) = 34.34849 46.14800 40.24824
#
# Velocity S-wave (km/s) = 3.56602 4.13339 3.86014
# Velocity P-wave (km/s) = 5.84892 6.68310 6.27988
#
# Compressibility (1/GPa) = 0.02145633
#
# Stress axis : x y z
#
# Youngs Moduli (GPa) = 80.08067 96.41910 120.61600
#
# Poissons Ratio (x) = -0.09851 0.37900
# Poissons Ratio (y) = -0.08182 0.32881
# Poissons Ratio (z) = 0.25163 0.26285
#
# Static dielectric constant tensor:
#      x y z
#    x 2.181050 0.008640 0.030860 
#    y 0.008640 2.030600 -0.001930 
#    z 0.030860 -0.001930 2.134750 
# 
# From -- ./inp_files/79794.got.cif
#   From: 2010.05.17/outbox.cif.g08.bks.cpg/sg2_40_cif.got.tgz:79794.got - 2010.06.03 11:33:40.
