data_PCOD9044936
_publ_section_title
;
Structure prediction by ZEFSAII (Michael W. Deem and Ramdas Pophale) SiO2 
 PCOD9044936
Probable space group: P -1
;
_chemical_formula_sum "Si O2"
_cell_formula_units_Z 16
_cell_length_a 25.002571
_cell_length_b 18.525437
_cell_length_c 14.286074
_cell_angle_alpha 20.742896
_cell_angle_beta 29.016137
_cell_angle_gamma 18.460765
_cell_volume 737.436306
_symmetry_space_group_name_H-M "P -1"
_symmetry_group_IT_number 2
_symmetry_cell_setting 'triclinic'
loop_
_space_group_symop_operation_xyz
x,y,z
-x,-y,-z
loop_
_atom_site_type_symbol
_atom_site_label
_atom_site_fract_x
_atom_site_fract_y
_atom_site_fract_z
Si Si1 0.989991 0.155313 0.734837
Si Si2 0.320102 0.241961 0.226449
Si Si3 0.147710 0.123835 0.241772
Si Si4 0.609742 0.879255 0.071055
Si Si5 0.346677 0.754386 0.731376
Si Si6 0.276674 0.726845 0.339468
Si Si7 0.333142 0.333618 0.311283
Si Si8 0.004961 0.921707 0.805532
O O1 0.833601 0.519886 0.559539
O O2 0.179135 0.978154 0.650289
O O3 0.942003 0.092744 0.794228
O O4 0.000000 0.000000 0.000000
O O5 0.320623 0.332220 0.219968
O O6 0.485483 0.060909 0.130966
O O7 0.322357 0.996299 0.531033
O O8 0.155607 0.551709 0.046177
O O9 0.219353 0.943422 0.251859
O O10 0.084125 0.010659 0.527531
O O11 0.290299 0.049674 0.169444
O O12 0.000000 0.500000 0.000000
O O13 0.727879 0.511319 0.344105
O O14 0.500000 0.000000 0.000000
O O15 0.526649 0.507772 0.702190
O O16 0.346514 0.556917 0.036172
O O17 0.146722 0.945586 0.187821
O O18 0.500000 0.000000 0.500000
#
# Coordination Sequence:
#
# PCOD9044936 Si02
#       8
#     2   2   2   2   2   2   2   2
#     4  10  23  48  69 102 143 183 241 295 352 417
#     4  11  25  44  71 104 139 183 239 286 357 427
#     4  12  27  44  72 105 146 187 234 290 366 419
#     4  11  26  45  72 103 143 186 235 293 353 435
#     4  10  24  46  71 100 139 182 238 285 362 415
#     4  11  26  47  69 107 144 183 242 291 354 435
#     4  11  25  46  73 103 146 182 236 301 354 421
#     4  12  25  44  75 101 144 190 237 299 353 429
#
# _framework density 21.696791000000001
#
# number of rings (size 3 to 8) (size 9 to 14) (size 15 to 20)
#    0.000    1.000    3.750    1.875    8.750    4.000 
#    2.250    0.000    0.000    0.000    0.000    0.000 
#    0.000    0.000    0.000    0.000    0.000    0.000 
#
# Total GULP energy -89425.480267 kJ/mol
# GULP energy per Si atom -5589.092517 kJ/mol
# Density = 2.164741 g / cm^3
# Si number density = 21.696791 Si / 1000 Ang^3
#
#
#
# Elastic Constant Matrix: (Units=GPa)
#
#
# Indices 1 2 3 4 5 6 
#
# 1 119.3095 64.5767 22.5964 4.0366 -4.9419 -10.0520
# 2 64.5767 131.6469 58.0041 -17.8990 -10.6929 -10.0138
# 3 22.5964 58.0041 83.4978 -6.9747 -0.3980 -16.6865
# 4 4.0366 -17.8990 -6.9747 31.6954 -6.2756 6.3572
# 5 -4.9419 -10.6929 -0.3980 -6.2756 28.7351 -9.3976
# 6 -10.0520 -10.0138 -16.6865 6.3572 -9.3976 28.0251
#
#
#
# Elastic Compliance Matrix: (Units=1/GPa)
#
#
# Indices 1 2 3 4 5 6 
#
# 1 0.012803 -0.007957 0.002392 -0.006631 -0.000724 0.004434
# 2 -0.007957 0.017500 -0.009596 0.010578 0.006491 -0.002538
# 3 0.002392 -0.009596 0.019657 -0.003445 -0.000446 0.009765
# 4 -0.006631 0.010578 -0.003445 0.040836 0.009463 -0.006740
# 5 -0.000724 0.006491 -0.000446 0.009463 0.043845 0.014350
# 6 0.004434 -0.002538 0.009765 -0.006740 0.014350 0.048521
#
#
# Mechanical properties :
#
#
# Convention : Reuss Voigt Hill
#
# Bulk Modulus (GPa) = 50.92403 69.42318 60.17361
# Shear Modulus (GPa) = 22.72411 30.30958 26.51685
#
# Velocity S-wave (km/s) = 3.23979 3.74165 3.49973
# Velocity P-wave (km/s) = 6.12509 7.12271 6.64265
#
# Compressibility (1/GPa) = 0.01963710
#
# Stress axis : x y z
#
# Youngs Moduli (GPa) = 78.10387 57.14352 50.87332
#
# Poissons Ratio (x) = 0.45471 -0.12167
# Poissons Ratio (y) = 0.62149 0.48817
# Poissons Ratio (z) = -0.18680 0.54834
#
# Static dielectric constant tensor:
#      x y z
#    x 1.768620 -0.017980 -0.017000 
#    y -0.017980 1.883530 0.004480 
#    z -0.017000 0.004480 1.810660 
# 
# From -- ./inp_files/543122.got.cif
#   From: 2010.05.17/outbox.cif.g08.bks.cpg/sg2_272_cif.got.tgz:543122.got - 2010.06.03 11:33:40.
