data_PCOD9044907
_publ_section_title
;
Structure prediction by ZEFSAII (Michael W. Deem and Ramdas Pophale) SiO2 
 PCOD9044907
Probable space group: P -1
;
_chemical_formula_sum "Si O2"
_cell_formula_units_Z 16
_cell_length_a 10.423404
_cell_length_b 9.368380
_cell_length_c 11.363965
_cell_angle_alpha 141.214814
_cell_angle_beta 111.759169
_cell_angle_gamma 57.727459
_cell_volume 585.559608
_symmetry_space_group_name_H-M "P -1"
_symmetry_group_IT_number 2
_symmetry_cell_setting 'triclinic'
loop_
_space_group_symop_operation_xyz
x,y,z
-x,-y,-z
loop_
_atom_site_type_symbol
_atom_site_label
_atom_site_fract_x
_atom_site_fract_y
_atom_site_fract_z
Si Si1 0.795764 0.421704 0.315055
Si Si2 0.673418 0.752982 0.826746
Si Si3 0.718146 0.939717 0.727508
Si Si4 0.013760 0.518173 0.773722
Si Si5 0.343784 0.858830 0.744116
Si Si6 0.171681 0.950691 0.498809
Si Si7 0.820235 0.331939 0.906787
Si Si8 0.576093 0.668619 0.189546
O O1 0.939492 0.334191 0.217839
O O2 0.756876 0.244862 0.277088
O O3 0.652421 0.548467 0.259871
O O4 0.802718 0.650218 0.537455
O O5 0.528075 0.695340 0.712985
O O6 0.721458 0.106994 0.388300
O O7 0.670672 0.954902 0.856657
O O8 0.666248 0.885680 0.033522
O O9 0.806675 0.106988 0.832477
O O10 0.557629 0.057502 0.678073
O O11 0.843397 0.540411 0.728896
O O12 0.134843 0.227354 0.610400
O O13 0.027052 0.646287 0.985364
O O14 0.220463 0.734689 0.277569
O O15 0.000000 0.000000 0.500000
O O16 0.704831 0.599218 0.089853
O O17 0.500000 0.500000 0.000000
#
# Coordination Sequence:
#
# PCOD9044907 Si02
#       8
#     2   2   2   2   2   2   2   2
#     4  11  24  47  80 115 153 206 270 325 390 466
#     4  11  27  49  76 112 170 206 260 322 413 460
#     4  11  23  44  76 117 152 203 264 334 383 472
#     4  11  26  52  83 116 154 214 265 327 387 472
#     4  11  28  52  76 116 166 210 257 331 401 473
#     4  12  28  51  81 116 160 210 267 320 400 475
#     4  10  23  47  81 112 151 206 272 324 380 473
#     4   9  20  40  73 111 147 197 259 321 387 452
#
# _framework density 27.324289
#
# number of rings (size 3 to 8) (size 9 to 14) (size 15 to 20)
#    0.000    1.250    1.250    3.375    5.250    8.000 
#    9.000    0.000    0.000    0.000    0.000    0.000 
#    0.000    0.000    0.000    0.000    0.000    0.000 
#
# Total GULP energy -89478.835765 kJ/mol
# GULP energy per Si atom -5592.427235 kJ/mol
# Density = 2.726210 g / cm^3
# Si number density = 27.324289 Si / 1000 Ang^3
#
#
#
# Elastic Constant Matrix: (Units=GPa)
#
#
# Indices 1 2 3 4 5 6 
#
# 1 124.3184 27.5464 37.6502 -1.0572 18.5108 -8.2331
# 2 27.5464 139.7825 31.2573 -11.8748 12.9503 6.2584
# 3 37.6502 31.2573 141.7247 -22.0353 19.6938 -11.1216
# 4 -1.0572 -11.8748 -22.0353 47.8514 -8.8447 11.1006
# 5 18.5108 12.9503 19.6938 -8.8447 37.1653 3.6097
# 6 -8.2331 6.2584 -11.1216 11.1006 3.6097 51.1476
#
#
#
# Elastic Compliance Matrix: (Units=1/GPa)
#
#
# Indices 1 2 3 4 5 6 
#
# 1 0.009642 -0.001388 -0.001874 -0.002228 -0.004058 0.002084
# 2 -0.001388 0.007988 -0.001144 0.001659 -0.000922 -0.001744
# 3 -0.001874 -0.001144 0.008738 0.002890 -0.002737 0.001304
# 4 -0.002228 0.001659 0.002890 0.024936 0.005491 -0.005733
# 5 -0.004058 -0.000922 -0.002737 0.005491 0.032455 -0.004618
# 6 0.002084 -0.001744 0.001304 -0.005733 -0.004618 0.021954
#
#
# Mechanical properties :
#
#
# Convention : Reuss Voigt Hill
#
# Bulk Modulus (GPa) = 56.95953 66.52593 61.74273
# Shear Modulus (GPa) = 41.53593 47.85763 44.69678
#
# Velocity S-wave (km/s) = 3.90309 4.18960 4.04888
# Velocity P-wave (km/s) = 6.41897 6.91399 6.67107
#
# Compressibility (1/GPa) = 0.01755632
#
# Stress axis : x y z
#
# Youngs Moduli (GPa) = 103.70860 125.19301 114.43977
#
# Poissons Ratio (x) = 0.17372 0.21451
# Poissons Ratio (y) = 0.14391 0.13091
# Poissons Ratio (z) = 0.19440 0.14321
#
# Static dielectric constant tensor:
#      x y z
#    x 2.434310 -0.028820 -0.025460 
#    y -0.028820 2.237820 0.006280 
#    z -0.025460 0.006280 2.113120 
# 
# From -- ./inp_files/530800.got.cif
#   From: 2010.05.17/outbox.cif.g08.bks.cpg/sg2_266_cif.got.tgz:530800.got - 2010.06.03 11:33:40.
