data_PCOD9044912
_publ_section_title
;
Structure prediction by ZEFSAII (Michael W. Deem and Ramdas Pophale) SiO2 
 PCOD9044912
Probable space group: P -1
;
_chemical_formula_sum "Si O2"
_cell_formula_units_Z 16
_cell_length_a 8.167192
_cell_length_b 16.648779
_cell_length_c 5.256992
_cell_angle_alpha 60.123755
_cell_angle_beta 90.577565
_cell_angle_gamma 75.524310
_cell_volume 592.377645
_symmetry_space_group_name_H-M "P -1"
_symmetry_group_IT_number 2
_symmetry_cell_setting 'triclinic'
loop_
_space_group_symop_operation_xyz
x,y,z
-x,-y,-z
loop_
_atom_site_type_symbol
_atom_site_label
_atom_site_fract_x
_atom_site_fract_y
_atom_site_fract_z
Si Si1 0.932738 0.351932 0.175008
Si Si2 0.220072 0.675979 0.278348
Si Si3 0.398333 0.800029 0.749415
Si Si4 0.071695 0.885294 0.253570
Si Si5 0.689909 0.706857 0.517706
Si Si6 0.073280 0.090497 0.297082
Si Si7 0.577084 0.914199 0.931658
Si Si8 0.193623 0.486458 0.414208
O O1 0.931497 0.312904 0.950850
O O2 0.056015 0.136070 0.505589
O O3 0.121489 0.331985 0.305957
O O4 0.838039 0.464911 0.944937
O O5 0.170551 0.690567 0.551135
O O6 0.339401 0.732320 0.059026
O O7 0.283243 0.557090 0.449923
O O8 0.549255 0.729018 0.701164
O O9 0.253081 0.854108 0.452187
O O10 0.450673 0.883268 0.779160
O O11 0.046671 0.850297 0.024763
O O12 0.000000 0.000000 0.000000
O O13 0.658850 0.812115 0.231330
O O14 0.694093 0.623721 0.442844
O O15 0.265186 0.065921 0.244916
O O16 0.000000 0.000000 0.500000
O O17 0.500000 0.000000 0.000000
O O18 0.000000 0.500000 0.500000
#
# Coordination Sequence:
#
# PCOD9044912 Si02
#       8
#     2   2   2   2   2   2   2   2
#     4  10  24  48  85 125 168 229 291 345 424 530
#     4  10  26  47  87 121 177 223 288 347 438 532
#     4  12  32  51  84 127 183 223 295 372 453 513
#     4  10  26  52  85 116 158 223 294 358 425 521
#     4  12  28  49  84 129 174 225 291 364 441 514
#     4  10  26  53  90 112 151 225 296 354 434 517
#     4  12  34  57  84 123 179 230 295 375 449 512
#     4  10  23  47  92 130 173 230 290 356 430 538
#
# _framework density 27.009796000000001
#
# number of rings (size 3 to 8) (size 9 to 14) (size 15 to 20)
#    0.750    0.500    1.250    0.375   15.750    3.000 
#    0.000    5.000    0.000    0.000    0.000    0.000 
#    0.000    0.000    0.000    0.000    0.000    0.000 
#
# Total GULP energy -89492.226436 kJ/mol
# GULP energy per Si atom -5593.264152 kJ/mol
# Density = 2.694832 g / cm^3
# Si number density = 27.009796 Si / 1000 Ang^3
#
#
#
# Elastic Constant Matrix: (Units=GPa)
#
#
# Indices 1 2 3 4 5 6 
#
# 1 149.6213 71.4567 61.0688 2.0548 -11.5846 9.5772
# 2 71.4567 227.2241 72.4535 5.6058 -16.4856 3.5060
# 3 61.0688 72.4535 184.9441 20.1154 -10.0955 -8.4729
# 4 2.0548 5.6058 20.1154 51.0771 -0.0638 -4.8996
# 5 -11.5846 -16.4856 -10.0955 -0.0638 60.5532 11.4767
# 6 9.5772 3.5060 -8.4729 -4.8996 11.4767 49.6247
#
#
#
# Elastic Compliance Matrix: (Units=1/GPa)
#
#
# Indices 1 2 3 4 5 6 
#
# 1 0.008734 -0.001934 -0.002218 0.000530 0.001183 -0.002149
# 2 -0.001934 0.005571 -0.001515 0.000016 0.000990 -0.000507
# 3 -0.002218 -0.001515 0.007064 -0.002383 0.000055 0.001493
# 4 0.000530 0.000016 -0.002383 0.020653 -0.000585 0.001664
# 5 0.001183 0.000990 0.000055 -0.000585 0.017868 -0.004479
# 6 -0.002149 -0.000507 0.001493 0.001664 -0.004479 0.022057
#
#
# Mechanical properties :
#
#
# Convention : Reuss Voigt Hill
#
# Bulk Modulus (GPa) = 99.64281 107.97195 103.80738
# Shear Modulus (GPa) = 51.74658 56.03838 53.89248
#
# Velocity S-wave (km/s) = 4.38179 4.55988 4.47172
# Velocity P-wave (km/s) = 7.91021 8.23318 8.07331
#
# Compressibility (1/GPa) = 0.01003585
#
# Stress axis : x y z
#
# Youngs Moduli (GPa) = 114.49363 179.48929 141.57135
#
# Poissons Ratio (x) = 0.34705 0.31401
# Poissons Ratio (y) = 0.22138 0.21448
# Poissons Ratio (z) = 0.25395 0.27193
#
# Static dielectric constant tensor:
#      x y z
#    x 2.095620 0.140550 -0.024380 
#    y 0.140550 2.902840 -0.318790 
#    z -0.024380 -0.318790 2.262590 
# 
# From -- ./inp_files/221678.got.cif
#   From: 2010.05.17/outbox.cif.g08.bks.cpg/sg2_111_cif.got.tgz:221678.got - 2010.06.03 11:33:40.
