data_PCOD9044674
_publ_section_title
;
Structure prediction by ZEFSAII (Michael W. Deem and Ramdas Pophale) SiO2 
 PCOD9044674
Probable space group: P -1
;
_chemical_formula_sum "Si O2"
_cell_formula_units_Z 14
_cell_length_a 9.528939
_cell_length_b 7.615285
_cell_length_c 10.542847
_cell_angle_alpha 113.259176
_cell_angle_beta 83.397071
_cell_angle_gamma 125.486103
_cell_volume 565.603315
_symmetry_space_group_name_H-M "P -1"
_symmetry_group_IT_number 2
_symmetry_cell_setting 'triclinic'
loop_
_space_group_symop_operation_xyz
x,y,z
-x,-y,-z
loop_
_atom_site_type_symbol
_atom_site_label
_atom_site_fract_x
_atom_site_fract_y
_atom_site_fract_z
Si Si1 0.398481 0.781524 0.113643
Si Si2 0.301127 0.396336 0.504695
Si Si3 0.765327 0.525516 0.192948
Si Si4 0.961506 0.636225 0.637650
Si Si5 0.253361 0.111187 0.817762
Si Si6 0.168751 0.957876 0.250076
Si Si7 0.823390 0.723030 0.884497
O O1 0.605189 0.922341 0.151816
O O2 0.311463 0.903832 0.212168
O O3 0.329314 0.538640 0.125750
O O4 0.325615 0.699629 0.953862
O O5 0.500000 0.500000 0.500000
O O6 0.260458 0.491465 0.658995
O O7 0.233111 0.464239 0.412526
O O8 0.195358 0.112960 0.415765
O O9 0.671375 0.648618 0.196420
O O10 0.973267 0.714984 0.198848
O O11 0.000000 0.500000 0.500000
O O12 0.951740 0.656690 0.796277
O O13 0.118100 0.908860 0.677494
O O14 0.150346 0.131041 0.949900
O O15 0.200349 0.130296 0.178183
#
# Coordination Sequence:
#
# PCOD9044674 Si02
#       7
#     2   2   2   2   2   2   2
#     4  11  27  42  75 108 136 181 240 292 339 421
#     4  11  27  45  69  98 144 188 228 287 353 414
#     4  11  23  47  70 100 141 186 233 285 357 412
#     4  11  26  43  69 101 137 188 232 284 349 420
#     4  11  24  45  71 100 143 187 224 298 352 406
#     4  11  25  46  71 105 140 187 228 292 350 411
#     4  10  23  47  71 100 143 182 232 284 355 406
#
# _framework density 24.752331999999999
#
# number of rings (size 3 to 8) (size 9 to 14) (size 15 to 20)
#    0.000    1.143    2.857    3.000   14.000    1.714 
#    0.000    1.429    0.000    0.000    0.000    0.000 
#    0.000    0.000    0.000    0.000    0.000    0.000 
#
# Total GULP energy -78021.274388 kJ/mol
# GULP energy per Si atom -5572.948171 kJ/mol
# Density = 2.469599 g / cm^3
# Si number density = 24.752332 Si / 1000 Ang^3
#
#
#
# Elastic Constant Matrix: (Units=GPa)
#
#
# Indices 1 2 3 4 5 6 
#
# 1 147.3842 20.1094 30.1224 16.6719 -3.0471 18.4386
# 2 20.1094 48.3580 28.3868 -5.2058 5.3109 -11.7360
# 3 30.1224 28.3868 125.5073 15.5579 -17.6262 10.2479
# 4 16.6719 -5.2058 15.5579 30.3826 -9.2093 -0.0487
# 5 -3.0471 5.3109 -17.6262 -9.2093 33.0316 3.2307
# 6 18.4386 -11.7360 10.2479 -0.0487 3.2307 23.5439
#
#
#
# Elastic Compliance Matrix: (Units=1/GPa)
#
#
# Indices 1 2 3 4 5 6 
#
# 1 0.010670 -0.011035 0.002691 -0.008102 0.003454 -0.015519
# 2 -0.011035 0.049123 -0.016542 0.017878 -0.016934 0.042689
# 3 0.002691 -0.016542 0.015116 -0.008968 0.010270 -0.018361
# 4 -0.008102 0.017878 -0.008968 0.045807 0.002514 0.018910
# 5 0.003454 -0.016934 0.010270 0.002514 0.041581 -0.021316
# 6 -0.015519 0.042689 -0.018361 0.018910 -0.021316 0.086862
#
#
# Mechanical properties :
#
#
# Convention : Reuss Voigt Hill
#
# Bulk Modulus (GPa) = 39.77972 53.16519 46.47246
# Shear Modulus (GPa) = 16.27027 33.56702 24.91864
#
# Velocity S-wave (km/s) = 2.56661 3.68654 3.17633
# Velocity P-wave (km/s) = 4.98892 6.29653 5.68048
#
# Compressibility (1/GPa) = 0.02513844
#
# Stress axis : x y z
#
# Youngs Moduli (GPa) = 93.72217 20.35727 66.15389
#
# Poissons Ratio (x) = 0.22463 -0.17805
# Poissons Ratio (y) = 1.03418 1.09431
# Poissons Ratio (z) = -0.25224 0.33675
#
# Static dielectric constant tensor:
#      x y z
#    x 2.043420 0.021990 0.025430 
#    y 0.021990 2.105090 -0.014850 
#    z 0.025430 -0.014850 2.007610 
# 
# From -- ./inp_files/380316.got.cif
#   From: 2010.05.17/outbox.cif.g08.bks.cpg/sg2_191_cif.got.tgz:380316.got - 2010.06.03 11:33:40.
