data_PCOD9044505
_publ_section_title
;
Structure prediction by ZEFSAII (Michael W. Deem and Ramdas Pophale) SiO2 
 PCOD9044505
Probable space group: P -1
;
_chemical_formula_sum "Si O2"
_cell_formula_units_Z 14
_cell_length_a 9.000430
_cell_length_b 8.343593
_cell_length_c 11.713970
_cell_angle_alpha 91.131148
_cell_angle_beta 40.528959
_cell_angle_gamma 102.857038
_cell_volume 541.591327
_symmetry_space_group_name_H-M "P -1"
_symmetry_group_IT_number 2
_symmetry_cell_setting 'triclinic'
loop_
_space_group_symop_operation_xyz
x,y,z
-x,-y,-z
loop_
_atom_site_type_symbol
_atom_site_label
_atom_site_fract_x
_atom_site_fract_y
_atom_site_fract_z
Si Si1 0.140729 0.234204 0.700487
Si Si2 0.887810 0.267271 0.447237
Si Si3 0.813533 0.602727 0.105041
Si Si4 0.664595 0.889686 0.613928
Si Si5 0.183309 0.879191 0.758527
Si Si6 0.374743 0.562553 0.220184
Si Si7 0.582657 0.188235 0.004059
O O1 0.275739 0.372631 0.716237
O O2 0.237417 0.240525 0.515656
O O3 0.154958 0.053772 0.733662
O O4 0.868516 0.237326 0.859198
O O5 0.830670 0.240500 0.345477
O O6 0.708601 0.332668 0.630007
O O7 0.146627 0.405178 0.316688
O O8 0.857369 0.077643 0.505288
O O9 0.602109 0.523442 0.139418
O O10 0.000000 0.500000 0.000000
O O11 0.966027 0.785707 0.968293
O O12 0.434443 0.906800 0.677003
O O13 0.567136 0.830857 0.793714
O O14 0.542950 0.315247 0.934857
O O15 0.500000 0.000000 0.000000
#
# Coordination Sequence:
#
# PCOD9044505 Si02
#       7
#     2   2   2   2   2   2   2
#     4  11  25  48  79 112 155 205 266 327 388 468
#     4  10  23  46  78 115 158 211 257 323 406 463
#     4  12  27  50  79 113 156 211 266 326 400 476
#     4  11  23  48  81 118 155 208 272 322 387 480
#     4  11  23  45  81 113 156 208 271 326 385 468
#     4  11  25  50  76 114 168 202 255 334 402 469
#     4  12  25  46  79 121 157 204 265 321 398 473
#
# _framework density 25.849751999999999
#
# number of rings (size 3 to 8) (size 9 to 14) (size 15 to 20)
#    0.000    0.857    2.857    4.714    2.000    1.143 
#   12.857    1.429    0.000    0.857    0.000    0.000 
#    0.000    0.000    0.000    0.000    0.000    0.000 
#
# Total GULP energy -78662.719418 kJ/mol
# GULP energy per Si atom -5618.765673 kJ/mol
# Density = 2.579092 g / cm^3
# Si number density = 25.849752 Si / 1000 Ang^3
#
#
#
# Elastic Constant Matrix: (Units=GPa)
#
#
# Indices 1 2 3 4 5 6 
#
# 1 148.6315 69.9126 63.6812 0.6710 22.8114 6.9701
# 2 69.9126 119.5853 49.4249 1.0853 19.4773 13.1456
# 3 63.6812 49.4249 176.6645 6.1433 46.2621 0.5300
# 4 0.6710 1.0853 6.1433 41.3202 10.9837 2.0626
# 5 22.8114 19.4773 46.2621 10.9837 45.9081 6.2238
# 6 6.9701 13.1456 0.5300 2.0626 6.2238 35.2042
#
#
#
# Elastic Compliance Matrix: (Units=1/GPa)
#
#
# Indices 1 2 3 4 5 6 
#
# 1 0.010035 -0.004878 -0.002001 0.000536 -0.001030 0.000016
# 2 -0.004878 0.012349 -0.001441 0.000405 -0.000989 -0.003473
# 3 -0.002001 -0.001441 0.008766 0.000704 -0.007684 0.002120
# 4 0.000536 0.000405 0.000704 0.026046 -0.007311 -0.000502
# 5 -0.001030 -0.000989 -0.007684 -0.007311 0.032842 -0.004689
# 6 0.000016 -0.003473 0.002120 -0.000502 -0.004689 0.030526
#
#
# Mechanical properties :
#
#
# Convention : Reuss Voigt Hill
#
# Bulk Modulus (GPa) = 68.92330 90.10208 79.51269
# Shear Modulus (GPa) = 35.20087 41.94400 38.57244
#
# Velocity S-wave (km/s) = 3.69419 4.03253 3.86706
# Velocity P-wave (km/s) = 6.70201 7.52419 7.12497
#
# Compressibility (1/GPa) = 0.01450888
#
# Stress axis : x y z
#
# Youngs Moduli (GPa) = 99.64910 80.97807 114.07331
#
# Poissons Ratio (x) = 0.39505 0.22831
# Poissons Ratio (y) = 0.48613 0.16437
# Poissons Ratio (z) = 0.19944 0.11668
#
# Static dielectric constant tensor:
#      x y z
#    x 2.018200 0.001230 0.022400 
#    y 0.001230 2.005900 0.007780 
#    z 0.022400 0.007780 2.010040 
# 
# From -- ./inp_files/382492.got.cif
#   From: 2010.05.17/outbox.cif.g08.bks.cpg/sg2_192_cif.got.tgz:382492.got - 2010.06.03 11:33:40.
