data_PCOD9044885
_publ_section_title
;
Structure prediction by ZEFSAII (Michael W. Deem and Ramdas Pophale) SiO2 
 PCOD9044885
Probable space group: P -1
;
_chemical_formula_sum "Si O2"
_cell_formula_units_Z 16
_cell_length_a 7.581378
_cell_length_b 9.177565
_cell_length_c 12.159809
_cell_angle_alpha 106.931287
_cell_angle_beta 71.625105
_cell_angle_gamma 132.403853
_cell_volume 589.142291
_symmetry_space_group_name_H-M "P -1"
_symmetry_group_IT_number 2
_symmetry_cell_setting 'triclinic'
loop_
_space_group_symop_operation_xyz
x,y,z
-x,-y,-z
loop_
_atom_site_type_symbol
_atom_site_label
_atom_site_fract_x
_atom_site_fract_y
_atom_site_fract_z
Si Si1 0.992014 0.725582 0.038303
Si Si2 0.349215 0.368925 0.716830
Si Si3 0.398503 0.780496 0.446764
Si Si4 0.763800 0.048756 0.165239
Si Si5 0.561682 0.353342 0.973627
Si Si6 0.090705 0.406982 0.581833
Si Si7 0.133850 0.217758 0.325082
Si Si8 0.393254 0.082204 0.162371
O O1 0.809135 0.695228 0.157977
O O2 0.853642 0.511664 0.962554
O O3 0.245402 0.868033 0.085393
O O4 0.048152 0.861495 0.953018
O O5 0.385756 0.220324 0.627415
O O6 0.080606 0.871531 0.738658
O O7 0.627537 0.567320 0.717084
O O8 0.252790 0.624540 0.541693
O O9 0.186733 0.684508 0.374956
O O10 0.500000 0.000000 0.500000
O O11 0.619810 0.130408 0.190923
O O12 0.564050 0.813326 0.132288
O O13 0.467750 0.233819 0.081496
O O14 0.500000 0.500000 0.000000
O O15 0.083519 0.265433 0.463041
O O16 0.221660 0.412984 0.663981
O O17 0.218905 0.086772 0.277383
#
# Coordination Sequence:
#
# PCOD9044885 Si02
#       8
#     2   2   2   2   2   2   2   2
#     4  11  24  46  73 105 150 194 247 296 367 443
#     4  11  25  49  76 109 149 200 242 304 382 441
#     4  10  23  47  78 109 141 189 252 305 371 438
#     4  11  27  47  74 112 149 195 255 307 362 443
#     4  11  22  45  74 101 146 198 246 301 365 434
#     4  10  25  50  75 106 154 191 245 311 370 446
#     4  11  23  47  76 107 147 198 244 307 375 434
#     4  11  25  46  73 108 147 196 253 303 368 437
#
# _framework density 27.158124999999998
#
# number of rings (size 3 to 8) (size 9 to 14) (size 15 to 20)
#    0.000    1.250    1.250    4.500    1.750    8.500 
#    4.500    2.500    0.000    0.000    0.000    0.000 
#    0.000    0.000    0.000    0.000    0.000    0.000 
#
# Total GULP energy -89733.206551 kJ/mol
# GULP energy per Si atom -5608.325409 kJ/mol
# Density = 2.709631 g / cm^3
# Si number density = 27.158125 Si / 1000 Ang^3
#
#
#
# Elastic Constant Matrix: (Units=GPa)
#
#
# Indices 1 2 3 4 5 6 
#
# 1 202.9689 58.5214 45.4925 -2.9337 25.0460 -11.1928
# 2 58.5214 163.7780 44.1223 17.7969 15.1920 7.4581
# 3 45.4925 44.1223 101.2686 2.5627 1.0727 -5.7586
# 4 -2.9337 17.7969 2.5627 40.6595 7.1691 -9.8306
# 5 25.0460 15.1920 1.0727 7.1691 37.7356 10.1545
# 6 -11.1928 7.4581 -5.7586 -9.8306 10.1545 44.8086
#
#
#
# Elastic Compliance Matrix: (Units=1/GPa)
#
#
# Indices 1 2 3 4 5 6 
#
# 1 0.006854 -0.001928 -0.002056 0.003305 -0.005339 0.003704
# 2 -0.001928 0.008163 -0.002754 -0.004222 -0.000305 -0.003051
# 3 -0.002056 -0.002754 0.012038 0.000264 0.001772 0.001148
# 4 0.003305 -0.004222 0.000264 0.030789 -0.009147 0.010390
# 5 -0.005339 -0.000305 0.001772 -0.009147 0.034800 -0.010948
# 6 0.003704 -0.003051 0.001148 0.010390 -0.010948 0.028658
#
#
# Mechanical properties :
#
#
# Convention : Reuss Voigt Hill
#
# Bulk Modulus (GPa) = 73.63679 84.92089 79.27884
# Shear Modulus (GPa) = 35.89264 45.96601 40.92932
#
# Velocity S-wave (km/s) = 3.63935 4.11850 3.88632
# Velocity P-wave (km/s) = 6.69573 7.34527 7.02801
#
# Compressibility (1/GPa) = 0.01358017
#
# Stress axis : x y z
#
# Youngs Moduli (GPa) = 145.89207 122.50897 83.07137
#
# Poissons Ratio (x) = 0.23619 0.17076
# Poissons Ratio (y) = 0.28127 0.22876
# Poissons Ratio (z) = 0.29990 0.33736
#
# Static dielectric constant tensor:
#      x y z
#    x 2.154030 -0.010950 -0.031240 
#    y -0.010950 2.190150 0.035610 
#    z -0.031240 0.035610 2.132590 
# 
# From -- ./inp_files/495413.got.cif
#   From: 2010.05.17/outbox.cif.g08.bks.cpg/sg2_248_cif.got.tgz:495413.got - 2010.06.03 11:33:40.
