data_PCOD9044094
_publ_section_title
;
Structure prediction by ZEFSAII (Michael W. Deem and Ramdas Pophale) SiO2 
 PCOD9044094
Probable space group: P -1
;
_chemical_formula_sum "Si O2"
_cell_formula_units_Z 16
_cell_length_a 17.358180
_cell_length_b 6.442967
_cell_length_c 13.834639
_cell_angle_alpha 113.730858
_cell_angle_beta 31.825038
_cell_angle_gamma 103.657085
_cell_volume 728.745148
_symmetry_space_group_name_H-M "P -1"
_symmetry_group_IT_number 2
_symmetry_cell_setting 'triclinic'
loop_
_space_group_symop_operation_xyz
x,y,z
-x,-y,-z
loop_
_atom_site_type_symbol
_atom_site_label
_atom_site_fract_x
_atom_site_fract_y
_atom_site_fract_z
Si Si1 0.952147 0.678342 0.433544
Si Si2 0.700603 0.559104 0.380504
Si Si3 0.063852 0.188241 0.746433
Si Si4 0.245852 0.684977 0.405971
Si Si5 0.244477 0.818976 0.219331
Si Si6 0.143052 0.937097 0.905216
Si Si7 0.377646 0.230787 0.700911
Si Si8 0.500218 0.573842 0.768202
O O1 0.962623 0.706545 0.312132
O O2 0.886508 0.455863 0.485945
O O3 0.112144 0.688456 0.308649
O O4 0.834398 0.909133 0.638910
O O5 0.850903 0.652660 0.252284
O O6 0.741744 0.283956 0.302981
O O7 0.642335 0.615841 0.345990
O O8 0.582698 0.670275 0.609203
O O9 0.174170 0.935835 0.573817
O O10 0.914933 0.150975 0.949751
O O11 0.301316 0.730447 0.248433
O O12 0.373481 0.540812 0.311162
O O13 0.374807 0.761043 0.991209
O O14 0.224765 0.147356 0.869369
O O15 0.000000 0.000000 0.000000
O O16 0.425503 0.375712 0.764172
O O17 0.500000 0.000000 0.500000
#
# Coordination Sequence:
#
# PCOD9044094 Si02
#       8
#     2   2   2   2   2   2   2   2
#     4  10  23  46  69  98 136 167 228 285 333 408
#     4  12  25  46  67 101 144 180 227 284 330 405
#     4  11  24  40  74  98 132 182 226 275 341 398
#     4  11  23  47  68  98 134 177 222 282 341 405
#     4  10  25  44  68 103 128 171 229 280 343 402
#     4  12  26  43  70 100 137 186 232 278 334 401
#     4  12  27  46  65 102 144 179 232 280 333 405
#     4  12  25  44  70  97 139 182 220 279 343 402
#
# _framework density 21.955548
#
# number of rings (size 3 to 8) (size 9 to 14) (size 15 to 20)
#    0.000    0.750    3.750    3.000    3.500    0.500 
#    4.500    0.000    0.000    0.000    0.000    0.000 
#    0.000    0.000    0.000    0.000    0.000    0.000 
#
# Total GULP energy -89622.674250 kJ/mol
# GULP energy per Si atom -5601.417141 kJ/mol
# Density = 2.190558 g / cm^3
# Si number density = 21.955548 Si / 1000 Ang^3
#
#
#
# Elastic Constant Matrix: (Units=GPa)
#
#
# Indices 1 2 3 4 5 6 
#
# 1 46.8305 -7.5239 5.9929 4.8697 -7.0993 3.8069
# 2 -7.5239 60.1331 4.2028 -13.8414 -5.4599 8.2165
# 3 5.9929 4.2028 96.6301 -17.9409 19.5993 -11.7762
# 4 4.8697 -13.8414 -17.9409 33.1503 -1.1584 -5.2320
# 5 -7.0993 -5.4599 19.5993 -1.1584 30.6934 -7.1736
# 6 3.8069 8.2165 -11.7762 -5.2320 -7.1736 31.0881
#
#
#
# Elastic Compliance Matrix: (Units=1/GPa)
#
#
# Indices 1 2 3 4 5 6 
#
# 1 0.024749 0.003635 -0.004920 -0.005261 0.008180 -0.004853
# 2 0.003635 0.019618 -0.001260 0.006502 0.004449 -0.003987
# 3 -0.004920 -0.001260 0.014954 0.008913 -0.009176 0.005983
# 4 -0.005261 0.006502 0.008913 0.039733 -0.002274 0.008465
# 5 0.008180 0.004449 -0.009176 -0.002274 0.041886 0.003629
# 6 -0.004853 -0.003987 0.005983 0.008465 0.003629 0.038343
#
#
# Mechanical properties :
#
#
# Convention : Reuss Voigt Hill
#
# Bulk Modulus (GPa) = 18.43946 23.21525 20.82736
# Shear Modulus (GPa) = 24.69758 32.38116 28.53937
#
# Velocity S-wave (km/s) = 3.35758 3.84454 3.60928
# Velocity P-wave (km/s) = 4.84230 5.50491 5.18420
#
# Compressibility (1/GPa) = 0.05423151
#
# Stress axis : x y z
#
# Youngs Moduli (GPa) = 40.40570 50.97392 66.87215
#
# Poissons Ratio (x) = -0.18531 0.32903
# Poissons Ratio (y) = -0.14689 0.08424
# Poissons Ratio (z) = 0.19881 0.06421
#
# Static dielectric constant tensor:
#      x y z
#    x 1.781950 -0.002310 0.001870 
#    y -0.002310 1.770970 -0.011960 
#    z 0.001870 -0.011960 1.818610 
# 
# From -- ./inp_files/39711.got.cif
#   From: 2010.05.17/outbox.cif.g08.bks.cpg/sg2_20_cif.got.tgz:39711.got - 2010.06.03 11:33:40.
