data_PCOD9044339
_publ_section_title
;
Structure prediction by ZEFSAII (Michael W. Deem and Ramdas Pophale) SiO2 
 PCOD9044339
Probable space group: P -1
;
_chemical_formula_sum "Si O2"
_cell_formula_units_Z 16
_cell_length_a 15.766036
_cell_length_b 19.511020
_cell_length_c 7.973750
_cell_angle_alpha 59.852031
_cell_angle_beta 131.117902
_cell_angle_gamma 157.652391
_cell_volume 652.735371
_symmetry_space_group_name_H-M "P -1"
_symmetry_group_IT_number 2
_symmetry_cell_setting 'triclinic'
loop_
_space_group_symop_operation_xyz
x,y,z
-x,-y,-z
loop_
_atom_site_type_symbol
_atom_site_label
_atom_site_fract_x
_atom_site_fract_y
_atom_site_fract_z
Si Si1 0.089437 0.802507 0.646462
Si Si2 0.405745 0.258962 0.873847
Si Si3 0.404064 0.528482 0.838297
Si Si4 0.563420 0.874473 0.518129
Si Si5 0.792672 0.728583 0.602904
Si Si6 0.709951 0.292997 0.289695
Si Si7 0.031732 0.443310 0.224654
Si Si8 0.957252 0.890800 0.952261
O O1 0.881989 0.653618 0.404041
O O2 0.979868 0.802954 0.621250
O O3 0.032867 0.679808 0.807785
O O4 0.372835 0.017754 0.670919
O O5 0.287606 0.232494 0.598114
O O6 0.142048 0.074172 0.875083
O O7 0.600273 0.437040 0.026343
O O8 0.558365 0.272919 0.036633
O O9 0.655775 0.724986 0.815001
O O10 0.500000 0.500000 0.000000
O O11 0.468999 0.848238 0.608980
O O12 0.332947 0.660125 0.430980
O O13 0.859465 0.025794 0.761722
O O14 0.500000 0.500000 0.500000
O O15 0.917876 0.803198 0.858034
O O16 0.000000 0.500000 0.500000
O O17 0.799747 0.295022 0.251848
O O18 0.000000 0.500000 0.000000
#
# Coordination Sequence:
#
# PCOD9044339 Si02
#       8
#     2   2   2   2   2   2   2   2
#     4  12  25  44  73 101 146 184 229 290 350 416
#     4  11  23  39  69  95 135 183 232 286 345 416
#     4  12  20  39  64 100 139 174 221 278 348 412
#     4  10  23  46  73 103 132 186 238 287 345 417
#     4  12  25  42  60 106 140 183 226 275 360 414
#     4   9  21  45  68 101 133 179 235 289 342 400
#     4  11  27  49  74 103 138 182 236 294 354 408
#     4  11  22  41  65  98 144 180 228 284 340 432
#
# _framework density 24.512228
#
# number of rings (size 3 to 8) (size 9 to 14) (size 15 to 20)
#    0.000    1.000    3.750    3.000    1.750    5.000 
#    0.000    0.000    0.000    0.000    0.000    0.000 
#    0.000    0.000    0.000    0.000    0.000    0.000 
#
# Total GULP energy -89325.485549 kJ/mol
# GULP energy per Si atom -5582.842847 kJ/mol
# Density = 2.445644 g / cm^3
# Si number density = 24.512228 Si / 1000 Ang^3
#
#
#
# Elastic Constant Matrix: (Units=GPa)
#
#
# Indices 1 2 3 4 5 6 
#
# 1 93.2614 19.3672 31.3842 14.6238 3.2423 1.1067
# 2 19.3672 120.2713 18.1482 -2.6546 12.5925 5.7596
# 3 31.3842 18.1482 87.1012 1.9791 11.9655 -9.3480
# 4 14.6238 -2.6546 1.9791 32.8771 -9.4234 -0.2284
# 5 3.2423 12.5925 11.9655 -9.4234 34.8981 4.9375
# 6 1.1067 5.7596 -9.3480 -0.2284 4.9375 30.0990
#
#
#
# Elastic Compliance Matrix: (Units=1/GPa)
#
#
# Indices 1 2 3 4 5 6 
#
# 1 0.013541 -0.001496 -0.004518 -0.006049 -0.000581 -0.001565
# 2 -0.001496 0.009078 -0.001243 0.000817 -0.002250 -0.001693
# 3 -0.004518 -0.001243 0.014700 -0.000397 -0.005100 0.005803
# 4 -0.006049 0.000817 -0.000397 0.036161 0.010378 -0.001485
# 5 -0.000581 -0.002250 -0.005100 0.010378 0.035034 -0.006800
# 6 -0.001565 -0.001693 0.005803 -0.001485 -0.006800 0.036512
#
#
# Mechanical properties :
#
#
# Convention : Reuss Voigt Hill
#
# Bulk Modulus (GPa) = 43.85281 48.71480 46.28381
# Shear Modulus (GPa) = 29.91447 35.02381 32.46914
#
# Velocity S-wave (km/s) = 3.49720 3.78409 3.64347
# Velocity P-wave (km/s) = 5.85117 6.24574 6.05167
#
# Compressibility (1/GPa) = 0.02280355
#
# Stress axis : x y z
#
# Youngs Moduli (GPa) = 73.84949 110.15860 68.02545
#
# Poissons Ratio (x) = 0.16485 0.30734
# Poissons Ratio (y) = 0.11052 0.08458
# Poissons Ratio (z) = 0.33365 0.13696
#
# Static dielectric constant tensor:
#      x y z
#    x 2.433830 -0.452110 -0.061230 
#    y -0.452110 2.367860 0.021170 
#    z -0.061230 0.021170 2.026090 
# 
# From -- ./inp_files/337693.got.cif
#   From: 2010.05.17/outbox.cif.g08.bks.cpg/sg2_169_cif.got.tgz:337693.got - 2010.06.03 11:33:40.
