data_PCOD9044779
_publ_section_title
;
Structure prediction by ZEFSAII (Michael W. Deem and Ramdas Pophale) SiO2 
 PCOD9044779
Probable space group: P -1
;
_chemical_formula_sum "Si O2"
_cell_formula_units_Z 12
_cell_length_a 18.923027
_cell_length_b 5.318038
_cell_length_c 7.178935
_cell_angle_alpha 108.943899
_cell_angle_beta 126.848473
_cell_angle_gamma 99.395590
_cell_volume 481.792567
_symmetry_space_group_name_H-M "P -1"
_symmetry_group_IT_number 2
_symmetry_cell_setting 'triclinic'
loop_
_space_group_symop_operation_xyz
x,y,z
-x,-y,-z
loop_
_atom_site_type_symbol
_atom_site_label
_atom_site_fract_x
_atom_site_fract_y
_atom_site_fract_z
Si Si1 0.617116 0.158755 0.758072
Si Si2 0.116931 0.596173 0.698953
Si Si3 0.606956 0.035017 0.121877
Si Si4 0.796528 0.308540 0.727659
Si Si5 0.697468 0.795077 0.938921
Si Si6 0.885130 0.852569 0.718054
O O1 0.500000 0.000000 0.500000
O O2 0.677936 0.459979 0.811012
O O3 0.640201 0.240437 0.035207
O O4 0.652323 0.905164 0.725838
O O5 0.000000 0.500000 0.500000
O O6 0.190043 0.929166 0.806900
O O7 0.156364 0.610326 0.972894
O O8 0.681408 0.128443 0.434187
O O9 0.622269 0.769495 0.984090
O O10 0.500000 0.000000 0.000000
O O11 0.829964 0.617546 0.740534
O O12 0.846551 0.097535 0.688755
O O13 0.871983 0.651663 0.466772
O O14 0.000000 0.000000 0.000000
#
# Coordination Sequence:
#
# PCOD9044779 Si02
#       6
#     2   2   2   2   2   2
#     4  10  23  47  73 107 149 209 259 330 398 467
#     4  12  28  51  83 122 160 223 271 332 418 491
#     4  10  26  47  76 110 157 210 266 332 406 474
#     4  12  29  51  78 118 163 214 270 338 408 484
#     4  10  25  46  74 107 160 201 266 333 395 473
#     4  12  27  53  80 115 168 207 273 348 398 484
#
# _framework density 24.906984999999999
#
# number of rings (size 3 to 8) (size 9 to 14) (size 15 to 20)
#    1.000    0.000    3.333    1.000    7.000    4.000 
#    0.000    1.667    0.000    0.000    0.000    0.000 
#    0.000    0.000    0.000    0.000    0.000    0.000 
#
# Total GULP energy -67004.923755 kJ/mol
# GULP energy per Si atom -5583.743646 kJ/mol
# Density = 2.485030 g / cm^3
# Si number density = 24.906985 Si / 1000 Ang^3
#
#
#
# Elastic Constant Matrix: (Units=GPa)
#
#
# Indices 1 2 3 4 5 6 
#
# 1 70.2129 -9.6717 62.1778 -7.6808 3.7243 1.0197
# 2 -9.6717 123.9503 37.5782 -12.6041 8.6165 -3.4979
# 3 62.1778 37.5782 208.3131 -26.1005 20.4718 -6.7295
# 4 -7.6808 -12.6041 -26.1005 37.0524 4.1436 -4.4428
# 5 3.7243 8.6165 20.4718 4.1436 77.1985 -8.1690
# 6 1.0197 -3.4979 -6.7295 -4.4428 -8.1690 30.6163
#
#
#
# Elastic Compliance Matrix: (Units=1/GPa)
#
#
# Indices 1 2 3 4 5 6 
#
# 1 0.020975 0.003732 -0.006946 0.000501 0.000210 -0.001670
# 2 0.003732 0.009401 -0.002425 0.002407 -0.000653 0.000592
# 3 -0.006946 -0.002425 0.007991 0.003756 -0.001519 0.001850
# 4 0.000501 0.002407 0.003756 0.031430 -0.002448 0.004992
# 5 0.000210 -0.000653 -0.001519 -0.002448 0.013860 0.002928
# 6 -0.001670 0.000592 0.001850 0.004992 0.002928 0.034698
#
#
# Mechanical properties :
#
#
# Convention : Reuss Voigt Hill
#
# Bulk Modulus (GPa) = 36.91511 64.73831 50.82671
# Shear Modulus (GPa) = 36.05892 49.79956 42.92924
#
# Velocity S-wave (km/s) = 3.80905 4.47634 4.15611
# Velocity P-wave (km/s) = 5.84795 7.26397 6.59408
#
# Compressibility (1/GPa) = 0.02708918
#
# Stress axis : x y z
#
# Youngs Moduli (GPa) = 47.67543 106.37241 125.14560
#
# Poissons Ratio (x) = -0.39694 0.86922
# Poissons Ratio (y) = -0.17791 0.30345
# Poissons Ratio (z) = 0.33114 0.25793
#
# Static dielectric constant tensor:
#      x y z
#    x 2.012510 -0.024700 0.015040 
#    y -0.024700 2.028270 0.003660 
#    z 0.015040 0.003660 1.928340 
# 
# From -- ./inp_files/340518.got.cif
#   From: 2010.05.17/outbox.cif.g08.bks.cpg/sg2_171_cif.got.tgz:340518.got - 2010.06.03 11:33:40.
