data_PCOD9044605
_publ_section_title
;
Structure prediction by ZEFSAII (Michael W. Deem and Ramdas Pophale) SiO2 
 PCOD9044605
Probable space group: P -1
;
_chemical_formula_sum "Si O2"
_cell_formula_units_Z 16
_cell_length_a 10.214530
_cell_length_b 9.965851
_cell_length_c 21.957529
_cell_angle_alpha 137.209754
_cell_angle_beta 27.700775
_cell_angle_gamma 133.995480
_cell_volume 698.677977
_symmetry_space_group_name_H-M "P -1"
_symmetry_group_IT_number 2
_symmetry_cell_setting 'triclinic'
loop_
_space_group_symop_operation_xyz
x,y,z
-x,-y,-z
loop_
_atom_site_type_symbol
_atom_site_label
_atom_site_fract_x
_atom_site_fract_y
_atom_site_fract_z
Si Si1 0.719976 0.651244 0.651307
Si Si2 0.741777 0.679695 0.409361
Si Si3 0.810680 0.872830 0.120477
Si Si4 0.200034 0.858686 0.069315
Si Si5 0.518992 0.496553 0.807496
Si Si6 0.831729 0.991101 0.373574
Si Si7 0.786348 0.259116 0.185368
Si Si8 0.880554 0.481503 0.400979
O O1 0.577038 0.504894 0.714001
O O2 0.472170 0.764632 0.764170
O O3 0.832346 0.550951 0.512384
O O4 0.975519 0.798344 0.624589
O O5 0.857900 0.863648 0.381264
O O6 0.792870 0.474740 0.285673
O O7 0.867338 0.660795 0.418262
O O8 0.399500 0.670937 0.550517
O O9 0.564916 0.723302 0.204660
O O10 0.057800 0.903473 0.079250
O O11 0.738698 0.081073 0.194344
O O12 0.929945 0.763167 0.976652
O O13 0.979741 0.892326 0.224016
O O14 0.276684 0.634150 0.964703
O O15 0.500000 0.000000 0.000000
O O16 0.813536 0.588858 0.749666
O O17 0.500000 0.000000 0.500000
#
# Coordination Sequence:
#
# PCOD9044605 Si02
#       8
#     2   2   2   2   2   2   2   2
#     4  11  24  45  69 101 147 178 239 294 349 426
#     4  10  24  46  70  99 146 183 241 294 354 414
#     4  11  25  42  73 101 136 190 233 284 365 421
#     4  12  26  45  70 105 149 180 237 297 352 422
#     4  12  24  44  71 105 138 189 234 293 355 426
#     4  12  27  44  74 109 140 190 238 295 355 427
#     4  10  23  47  69 100 141 181 236 295 351 423
#     4  10  25  44  70 100 137 193 234 292 356 419
#
# _framework density 22.900393000000001
#
# number of rings (size 3 to 8) (size 9 to 14) (size 15 to 20)
#    0.000    1.000    2.500    2.250    8.750    2.500 
#    0.000    1.250    0.000    0.000    0.000    0.000 
#    0.000    0.000    0.000    0.000    0.000    0.000 
#
# Total GULP energy -89582.524369 kJ/mol
# GULP energy per Si atom -5598.907773 kJ/mol
# Density = 2.284827 g / cm^3
# Si number density = 22.900393 Si / 1000 Ang^3
#
#
#
# Elastic Constant Matrix: (Units=GPa)
#
#
# Indices 1 2 3 4 5 6 
#
# 1 103.0136 44.4917 50.0619 -5.5417 5.0072 -27.5200
# 2 44.4917 122.0311 29.7204 -22.8932 5.9942 -39.9838
# 3 50.0619 29.7204 123.1454 -5.8249 5.1040 -10.0701
# 4 -5.5417 -22.8932 -5.8249 24.6314 -8.5031 2.6535
# 5 5.0072 5.9942 5.1040 -8.5031 44.5591 -2.9704
# 6 -27.5200 -39.9838 -10.0701 2.6535 -2.9704 45.3667
#
#
#
# Elastic Compliance Matrix: (Units=1/GPa)
#
#
# Indices 1 2 3 4 5 6 
#
# 1 0.014639 -0.002430 -0.004923 -0.000930 -0.000554 0.005664
# 2 -0.002430 0.015353 -0.001268 0.012752 0.001528 0.011131
# 3 -0.004923 -0.001268 0.010306 0.000162 -0.000550 -0.001861
# 4 -0.000930 0.012752 0.000162 0.054627 0.009337 0.008127
# 5 -0.000554 0.001528 -0.000550 0.009337 0.024272 0.001932
# 6 0.005664 0.011131 -0.001861 0.008127 0.001932 0.034527
#
#
# Mechanical properties :
#
#
# Convention : Reuss Voigt Hill
#
# Bulk Modulus (GPa) = 43.36845 66.30424 54.83634
# Shear Modulus (GPa) = 27.98749 37.83917 32.91333
#
# Velocity S-wave (km/s) = 3.49970 4.06930 3.79521
# Velocity P-wave (km/s) = 5.94218 7.14809 6.57285
#
# Compressibility (1/GPa) = 0.02305824
#
# Stress axis : x y z
#
# Youngs Moduli (GPa) = 68.30920 65.13185 97.03209
#
# Poissons Ratio (x) = 0.15827 0.47766
# Poissons Ratio (y) = 0.16599 0.12300
# Poissons Ratio (z) = 0.33626 0.08256
#
# Static dielectric constant tensor:
#      x y z
#    x 1.850200 0.009310 0.004820 
#    y 0.009310 1.865990 0.021010 
#    z 0.004820 0.021010 1.878030 
# 
# From -- ./inp_files/588006.got.cif
#   From: 2010.05.17/outbox.cif.g08.bks.cpg/sg2_295_cif.got.tgz:588006.got - 2010.06.03 11:33:40.
