data_PCOD9044194
_publ_section_title
;
Structure prediction by ZEFSAII (Michael W. Deem and Ramdas Pophale) SiO2 
 PCOD9044194
Probable space group: P -1
;
_chemical_formula_sum "Si O2"
_cell_formula_units_Z 12
_cell_length_a 7.742403
_cell_length_b 12.394558
_cell_length_c 5.139283
_cell_angle_alpha 112.452126
_cell_angle_beta 95.912395
_cell_angle_gamma 87.724154
_cell_volume 453.375890
_symmetry_space_group_name_H-M "P -1"
_symmetry_group_IT_number 2
_symmetry_cell_setting 'triclinic'
loop_
_space_group_symop_operation_xyz
x,y,z
-x,-y,-z
loop_
_atom_site_type_symbol
_atom_site_label
_atom_site_fract_x
_atom_site_fract_y
_atom_site_fract_z
Si Si1 0.089359 0.810448 0.580645
Si Si2 0.792183 0.517680 0.952667
Si Si3 0.296803 0.018586 0.063740
Si Si4 0.622713 0.175596 0.765885
Si Si5 0.732590 0.372529 0.310785
Si Si6 0.248890 0.207681 0.817420
O O1 0.160339 0.928691 0.824763
O O2 0.241052 0.773277 0.367660
O O3 0.086284 0.700288 0.677496
O O4 0.915920 0.828514 0.412191
O O5 0.711014 0.450170 0.633182
O O6 0.721483 0.461459 0.153713
O O7 0.756903 0.653539 0.037385
O O8 0.000000 0.500000 0.000000
O O9 0.249249 0.140926 0.033398
O O10 0.304690 0.953254 0.283513
O O11 0.500000 0.000000 0.000000
O O12 0.423791 0.174913 0.655108
O O13 0.620427 0.260153 0.098031
#
# Coordination Sequence:
#
# PCOD9044194 Si02
#       6
#     2   2   2   2   2   2
#     4  11  22  45  72  98 146 183 237 296 354 419
#     4  12  24  44  72 105 147 187 240 294 349 426
#     4   9  22  44  67 103 143 180 238 295 355 422
#     4  10  23  46  71 102 141 186 233 301 350 421
#     4  11  23  46  70 101 146 191 231 298 352 410
#     4  11  24  43  68 108 136 192 238 287 359 426
#
# _framework density 26.468104
#
# number of rings (size 3 to 8) (size 9 to 14) (size 15 to 20)
#    0.000    1.333    3.333    1.000    0.000    4.667 
#   12.000    0.000    0.000    0.000    0.000    0.000 
#    0.000    0.000    0.000    0.000    0.000    0.000 
#
# Total GULP energy -67127.263855 kJ/mol
# GULP energy per Si atom -5593.938655 kJ/mol
# Density = 2.640786 g / cm^3
# Si number density = 26.468104 Si / 1000 Ang^3
#
#
#
# Elastic Constant Matrix: (Units=GPa)
#
#
# Indices 1 2 3 4 5 6 
#
# 1 107.1878 38.8917 51.5957 8.5170 27.4660 -12.3401
# 2 38.8917 269.7999 62.6392 -19.4799 9.4239 -16.5625
# 3 51.5957 62.6392 113.3451 -10.5805 11.9170 -1.5809
# 4 8.5170 -19.4799 -10.5805 38.3169 10.0084 -1.4324
# 5 27.4660 9.4239 11.9170 10.0084 37.2362 -6.0365
# 6 -12.3401 -16.5625 -1.5809 -1.4324 -6.0365 32.7282
#
#
#
# Elastic Compliance Matrix: (Units=1/GPa)
#
#
# Indices 1 2 3 4 5 6 
#
# 1 0.015007 -0.000514 -0.005991 -0.003132 -0.007602 0.003570
# 2 -0.000514 0.004531 -0.002018 0.002025 -0.000338 0.002028
# 3 -0.005991 -0.002018 0.013084 0.004020 -0.000762 -0.002612
# 4 -0.003132 0.002025 0.004020 0.030975 -0.007822 -0.000049
# 5 -0.007602 -0.000338 -0.000762 -0.007822 0.035399 0.003113
# 6 0.003570 0.002028 -0.002612 -0.000049 0.003113 0.033373
#
#
# Mechanical properties :
#
#
# Convention : Reuss Voigt Hill
#
# Bulk Modulus (GPa) = 64.19393 88.50955 76.35174
# Shear Modulus (GPa) = 32.34012 44.13667 38.23839
#
# Velocity S-wave (km/s) = 3.49929 4.08798 3.80504
# Velocity P-wave (km/s) = 6.37438 7.46959 6.94361
#
# Compressibility (1/GPa) = 0.01557780
#
# Stress axis : x y z
#
# Youngs Moduli (GPa) = 66.63395 220.68034 76.43170
#
# Poissons Ratio (x) = 0.11341 0.45789
# Poissons Ratio (y) = 0.03424 0.15420
# Poissons Ratio (z) = 0.39919 0.44523
#
# Static dielectric constant tensor:
#      x y z
#    x 2.163750 -0.010860 -0.023940 
#    y -0.010860 2.086820 0.031690 
#    z -0.023940 0.031690 2.171320 
# 
# From -- ./inp_files/25318.got.cif
#   From: 2010.05.17/outbox.cif.g08.bks.cpg/sg2_13_cif.got.tgz:25318.got - 2010.06.03 11:33:40.
