data_PCOD9044033
_publ_section_title
;
Structure prediction by ZEFSAII (Michael W. Deem and Ramdas Pophale) SiO2 
 PCOD9044033
Probable space group: P -1
;
_chemical_formula_sum "Si O2"
_cell_formula_units_Z 16
_cell_length_a 25.226217
_cell_length_b 18.943271
_cell_length_c 5.127045
_cell_angle_alpha 118.266539
_cell_angle_beta 64.142770
_cell_angle_gamma 160.955360
_cell_volume 703.562874
_symmetry_space_group_name_H-M "P -1"
_symmetry_group_IT_number 2
_symmetry_cell_setting 'triclinic'
loop_
_space_group_symop_operation_xyz
x,y,z
-x,-y,-z
loop_
_atom_site_type_symbol
_atom_site_label
_atom_site_fract_x
_atom_site_fract_y
_atom_site_fract_z
Si Si1 0.449067 0.122218 0.470658
Si Si2 0.018243 0.850173 0.124310
Si Si3 0.999823 0.557336 0.856344
Si Si4 0.236554 0.978716 0.894699
Si Si5 0.516471 0.463767 0.156854
Si Si6 0.659503 0.188021 0.807020
Si Si7 0.118715 0.077881 0.820516
Si Si8 0.650569 0.348915 0.916562
O O1 0.524864 0.206856 0.171951
O O2 0.368212 0.938656 0.439321
O O3 0.591787 0.314143 0.713537
O O4 0.317712 0.025975 0.583402
O O5 0.084285 0.843766 0.945328
O O6 0.069480 0.962604 0.472533
O O7 0.825248 0.603933 0.071803
O O8 0.104288 0.002970 0.968831
O O9 0.836148 0.404645 0.942773
O O10 0.000000 0.500000 0.500000
O O11 0.000000 0.500000 0.000000
O O12 0.159777 0.815792 0.967416
O O13 0.381457 0.224503 0.067440
O O14 0.500000 0.500000 0.500000
O O15 0.697352 0.658080 0.123664
O O16 0.500000 0.500000 0.000000
O O17 0.663818 0.267890 0.737387
O O18 0.500000 0.000000 0.000000
O O19 0.000000 0.000000 0.000000
#
# Coordination Sequence:
#
# PCOD9044033 Si02
#       8
#     2   2   2   2   2   2   2   2
#     4  11  26  43  71 103 143 187 242 289 359 419
#     4  12  26  48  74 106 143 188 236 296 367 425
#     4  12  28  47  71 107 149 193 246 295 359 433
#     4  12  27  49  75 108 146 196 239 304 360 437
#     4  12  26  49  73 106 146 190 240 295 364 434
#     4  10  23  46  69 100 143 189 234 294 356 416
#     4  12  27  50  73 107 142 186 236 300 363 433
#     4  11  25  45  68 105 141 189 236 294 352 434
#
# _framework density 22.741394
#
# number of rings (size 3 to 8) (size 9 to 14) (size 15 to 20)
#    0.000    0.500    5.000    1.500    7.000    6.000 
#    0.000    0.000    0.000    0.000    0.000    0.000 
#    0.000    0.000    0.000    0.000    0.000    0.000 
#
# Total GULP energy -89405.799929 kJ/mol
# GULP energy per Si atom -5587.862496 kJ/mol
# Density = 2.268963 g / cm^3
# Si number density = 22.741394 Si / 1000 Ang^3
#
#
#
# Elastic Constant Matrix: (Units=GPa)
#
#
# Indices 1 2 3 4 5 6 
#
# 1 79.7435 24.4189 56.0917 -10.2091 -14.2183 0.0311
# 2 24.4189 167.5727 23.8888 11.5221 -6.3205 -3.0962
# 3 56.0917 23.8888 110.9086 -5.9817 4.3905 1.9033
# 4 -10.2091 11.5221 -5.9817 40.3444 10.6986 -12.2133
# 5 -14.2183 -6.3205 4.3905 10.6986 40.6246 -9.9722
# 6 0.0311 -3.0962 1.9033 -12.2133 -9.9722 50.8194
#
#
#
# Elastic Compliance Matrix: (Units=1/GPa)
#
#
# Indices 1 2 3 4 5 6 
#
# 1 0.023201 -0.001537 -0.011645 0.003046 0.009033 0.002833
# 2 -0.001537 0.006546 -0.000831 -0.002715 0.001293 0.000032
# 3 -0.011645 -0.000831 0.015413 0.000781 -0.006496 -0.001708
# 4 0.003046 -0.002715 0.000781 0.029758 -0.005852 0.005807
# 5 0.009033 0.001293 -0.006496 -0.005852 0.031470 0.005085
# 6 0.002833 0.000032 -0.001708 0.005807 0.005085 0.022135
#
#
# Mechanical properties :
#
#
# Convention : Reuss Voigt Hill
#
# Bulk Modulus (GPa) = 58.35957 63.00263 60.68110
# Shear Modulus (GPa) = 30.81456 43.27937 37.04697
#
# Velocity S-wave (km/s) = 3.68502 4.36720 4.04053
# Velocity P-wave (km/s) = 6.61996 7.29342 6.96483
#
# Compressibility (1/GPa) = 0.01713515
#
# Stress axis : x y z
#
# Youngs Moduli (GPa) = 43.10102 152.76466 64.87919
#
# Poissons Ratio (x) = 0.23484 0.75551
# Poissons Ratio (y) = 0.06626 0.05389
# Poissons Ratio (z) = 0.50190 0.12689
#
# Static dielectric constant tensor:
#      x y z
#    x -0.133900 0.541150 0.912220 
#    y 0.541150 1.778370 -0.155760 
#    z 0.912220 -0.155760 1.288450 
# 
# From -- ./inp_files/124877.got.cif
#   From: 2010.05.17/outbox.cif.g08.bks.cpg/sg2_63_cif.got.tgz:124877.got - 2010.06.03 11:33:40.
