data_PCOD9044440
_publ_section_title
;
Structure prediction by ZEFSAII (Michael W. Deem and Ramdas Pophale) SiO2 
 PCOD9044440
Probable space group: P -1
;
_chemical_formula_sum "Si O2"
_cell_formula_units_Z 16
_cell_length_a 11.105483
_cell_length_b 7.949099
_cell_length_c 11.483319
_cell_angle_alpha 132.129182
_cell_angle_beta 103.184128
_cell_angle_gamma 59.124464
_cell_volume 634.438012
_symmetry_space_group_name_H-M "P -1"
_symmetry_group_IT_number 2
_symmetry_cell_setting 'triclinic'
loop_
_space_group_symop_operation_xyz
x,y,z
-x,-y,-z
loop_
_atom_site_type_symbol
_atom_site_label
_atom_site_fract_x
_atom_site_fract_y
_atom_site_fract_z
Si Si1 0.505645 0.636877 0.445176
Si Si2 0.753801 0.393511 0.218228
Si Si3 0.351788 0.374846 0.929745
Si Si4 0.073230 0.148680 0.936890
Si Si5 0.351759 0.074934 0.273771
Si Si6 0.112909 0.274548 0.758756
Si Si7 0.773374 0.913335 0.523410
Si Si8 0.664327 0.780801 0.912800
O O1 0.500000 0.500000 0.500000
O O2 0.624344 0.427152 0.287313
O O3 0.563113 0.832143 0.581186
O O4 0.359662 0.817448 0.428180
O O5 0.710097 0.404331 0.079290
O O6 0.763767 0.651109 0.369336
O O7 0.900690 0.132765 0.155852
O O8 0.275330 0.200958 0.797690
O O9 0.521104 0.205559 0.870188
O O10 0.312218 0.434913 0.084552
O O11 0.048048 0.195432 0.815372
O O12 0.225388 0.123672 0.987036
O O13 0.966723 0.410425 0.103064
O O14 0.232415 0.074970 0.331767
O O15 0.309208 0.264459 0.240221
O O16 0.105157 0.152157 0.577738
O O17 0.500000 0.000000 0.000000
#
# Coordination Sequence:
#
# PCOD9044440 Si02
#       8
#     2   2   2   2   2   2   2   2
#     4  11  19  28  52  76 103 127 167 214 252 299
#     4  10  18  29  52  75 107 125 165 220 246 296
#     4   9  16  32  50  72 101 136 161 205 257 291
#     4  10  20  34  49  82 101 131 177 204 247 301
#     4  10  17  34  49  73 104 133 168 203 260 300
#     4   9  18  32  54  72 106 131 168 215 246 291
#     4  10  18  33  51  76 104 133 161 212 265 286
#     4   9  20  33  53  66 104 143 164 201 255 307
#
# _framework density 25.219170999999999
#
# number of rings (size 3 to 8) (size 9 to 14) (size 15 to 20)
#    0.000    2.250    3.750    1.500    3.500    2.000 
#    0.000    4.375    0.000    0.000    0.000   43.750 
#    0.000    0.000    0.000    0.000    0.000    0.000 
#
# Total GULP energy -89186.036828 kJ/mol
# GULP energy per Si atom -5574.127302 kJ/mol
# Density = 2.516177 g / cm^3
# Si number density = 25.219171 Si / 1000 Ang^3
#
#
#
# Elastic Constant Matrix: (Units=GPa)
#
#
# Indices 1 2 3 4 5 6 
#
# 1 44.1819 9.0399 18.4841 -4.2704 -11.7623 -0.3018
# 2 9.0399 136.7876 58.1409 -15.3042 -31.2682 35.9018
# 3 18.4841 58.1409 90.3415 -18.6381 -32.7847 9.2976
# 4 -4.2704 -15.3042 -18.6381 48.1343 16.7974 -16.3595
# 5 -11.7623 -31.2682 -32.7847 16.7974 41.9664 -7.1310
# 6 -0.3018 35.9018 9.2976 -16.3595 -7.1310 26.2408
#
#
#
# Elastic Compliance Matrix: (Units=1/GPa)
#
#
# Indices 1 2 3 4 5 6 
#
# 1 0.025510 0.000532 -0.004075 -0.000031 0.004764 0.002284
# 2 0.000532 0.017884 -0.008646 -0.008064 0.005721 -0.024871
# 3 -0.004075 -0.008646 0.020422 0.005477 0.007895 0.010107
# 4 -0.000031 -0.008064 0.005477 0.033108 -0.010419 0.026901
# 5 0.004764 0.005721 0.007895 -0.010419 0.038649 -0.006562
# 6 0.002284 -0.024871 0.010107 0.026901 -0.006562 0.083570
#
#
# Mechanical properties :
#
#
# Convention : Reuss Voigt Hill
#
# Bulk Modulus (GPa) = 25.35590 49.18227 37.26909
# Shear Modulus (GPa) = 19.48049 35.64473 27.56261
#
# Velocity S-wave (km/s) = 2.78231 3.76360 3.30952
# Velocity P-wave (km/s) = 4.51638 6.19923 5.42348
#
# Compressibility (1/GPa) = 0.03943856
#
# Stress axis : x y z
#
# Youngs Moduli (GPa) = 39.19973 55.91673 48.96677
#
# Poissons Ratio (x) = -0.02974 0.19952
# Poissons Ratio (y) = -0.02085 0.42337
# Poissons Ratio (z) = 0.15972 0.48346
#
# Static dielectric constant tensor:
#      x y z
#    x 2.098040 0.060370 -0.045630 
#    y 0.060370 2.067180 -0.040870 
#    z -0.045630 -0.040870 2.074990 
# 
# From -- ./inp_files/269578.got.cif
#   From: 2010.05.17/outbox.cif.g08.bks.cpg/sg2_135_cif.got.tgz:269578.got - 2010.06.03 11:33:40.
