data_PCOD9044042
_publ_section_title
;
Structure prediction by ZEFSAII (Michael W. Deem and Ramdas Pophale) SiO2 
 PCOD9044042
Probable space group: P -1
;
_chemical_formula_sum "Si O2"
_cell_formula_units_Z 14
_cell_length_a 11.091520
_cell_length_b 14.259865
_cell_length_c 7.468818
_cell_angle_alpha 114.561547
_cell_angle_beta 38.523953
_cell_angle_gamma 128.369360
_cell_volume 570.904640
_symmetry_space_group_name_H-M "P -1"
_symmetry_group_IT_number 2
_symmetry_cell_setting 'triclinic'
loop_
_space_group_symop_operation_xyz
x,y,z
-x,-y,-z
loop_
_atom_site_type_symbol
_atom_site_label
_atom_site_fract_x
_atom_site_fract_y
_atom_site_fract_z
Si Si1 0.656259 0.475338 0.667156
Si Si2 0.796376 0.719571 0.125787
Si Si3 0.332585 0.096067 0.718275
Si Si4 0.787817 0.289686 0.495091
Si Si5 0.873876 0.724543 0.456135
Si Si6 0.272281 0.974886 0.340336
Si Si7 0.611696 0.837879 0.913807
O O1 0.772083 0.407228 0.567230
O O2 0.843956 0.600719 0.460376
O O3 0.658038 0.729655 0.782527
O O4 0.500000 0.500000 0.000000
O O5 0.793530 0.835637 0.147135
O O6 0.874300 0.728826 0.245751
O O7 0.275511 0.071381 0.975516
O O8 0.969641 0.695530 0.793881
O O9 0.604527 0.191803 0.486877
O O10 0.286833 0.993098 0.550384
O O11 0.533511 0.613480 0.326619
O O12 0.655297 0.227278 0.784971
O O13 0.072884 0.849000 0.403508
O O14 0.274992 0.089564 0.339548
O O15 0.500000 0.000000 0.000000
#
# Coordination Sequence:
#
# PCOD9044042 Si02
#       7
#     2   2   2   2   2   2   2
#     4  11  23  46  67 103 144 182 234 290 351 415
#     4  11  22  43  76 100 139 189 228 295 356 402
#     4   9  22  45  70 102 147 173 234 288 349 404
#     4   9  22  45  71 108 136 178 240 284 346 424
#     4  12  24  45  68 103 143 185 236 284 353 422
#     4  12  26  45  71 106 143 186 235 289 349 421
#     4  10  23  46  69 101 144 180 235 285 345 421
#
# _framework density 24.522483999999999
#
# number of rings (size 3 to 8) (size 9 to 14) (size 15 to 20)
#    0.857    0.571    2.857    1.714    0.000    4.571 
#    5.143    0.000    0.000    0.000    0.000    0.000 
#    0.000    0.000    0.000    0.000    0.000    0.000 
#
# Total GULP energy -78282.312679 kJ/mol
# GULP energy per Si atom -5591.593763 kJ/mol
# Density = 2.446667 g / cm^3
# Si number density = 24.522484 Si / 1000 Ang^3
#
#
#
# Elastic Constant Matrix: (Units=GPa)
#
#
# Indices 1 2 3 4 5 6 
#
# 1 64.3031 18.3574 21.7299 3.0087 -7.5510 -10.7864
# 2 18.3574 87.1791 19.1464 -5.8517 -16.6471 -16.1870
# 3 21.7299 19.1464 91.3989 4.1397 -11.0421 -7.1792
# 4 3.0087 -5.8517 4.1397 36.2498 2.9962 1.4398
# 5 -7.5510 -16.6471 -11.0421 2.9962 44.6529 4.4534
# 6 -10.7864 -16.1870 -7.1792 1.4398 4.4534 38.0925
#
#
#
# Elastic Compliance Matrix: (Units=1/GPa)
#
#
# Indices 1 2 3 4 5 6 
#
# 1 0.018141 -0.002347 -0.003334 -0.001735 0.001141 0.003443
# 2 -0.002347 0.014035 -0.001667 0.002157 0.003834 0.004456
# 3 -0.003334 -0.001667 0.012431 -0.001593 0.001944 0.000523
# 4 -0.001735 0.002157 -0.001593 0.028432 -0.001716 -0.000749
# 5 0.001141 0.003834 0.001944 -0.001716 0.024663 -0.000500
# 6 0.003443 0.004456 0.000523 -0.000749 -0.000500 0.029306
#
#
# Mechanical properties :
#
#
# Convention : Reuss Voigt Hill
#
# Bulk Modulus (GPa) = 33.43222 40.14982 36.79102
# Shear Modulus (GPa) = 32.96545 36.04220 34.50382
#
# Velocity S-wave (km/s) = 3.67044 3.83791 3.75511
# Velocity P-wave (km/s) = 5.62368 6.00396 5.81693
#
# Compressibility (1/GPa) = 0.02991127
#
# Stress axis : x y z
#
# Youngs Moduli (GPa) = 55.12405 71.25001 80.44395
#
# Poissons Ratio (x) = 0.16721 0.26824
# Poissons Ratio (y) = 0.12937 0.13407
# Poissons Ratio (z) = 0.18381 0.11875
#
# Static dielectric constant tensor:
#      x y z
#    x 2.073000 -0.104330 -0.003350 
#    y -0.104330 2.063950 0.001660 
#    z -0.003350 0.001660 1.917640 
# 
# From -- ./inp_files/307880.got.cif
#   From: 2010.05.17/outbox.cif.g08.bks.cpg/sg2_154_cif.got.tgz:307880.got - 2010.06.03 11:33:40.
