data_PCOD9044615
_publ_section_title
;
Structure prediction by ZEFSAII (Michael W. Deem and Ramdas Pophale) SiO2 
 PCOD9044615
Probable space group: P -1
;
_chemical_formula_sum "Si O2"
_cell_formula_units_Z 13
_cell_length_a 11.039568
_cell_length_b 11.900913
_cell_length_c 4.936995
_cell_angle_alpha 102.750432
_cell_angle_beta 113.465907
_cell_angle_gamma 56.035522
_cell_volume 493.468738
_symmetry_space_group_name_H-M "P -1"
_symmetry_group_IT_number 2
_symmetry_cell_setting 'triclinic'
loop_
_space_group_symop_operation_xyz
x,y,z
-x,-y,-z
loop_
_atom_site_type_symbol
_atom_site_label
_atom_site_fract_x
_atom_site_fract_y
_atom_site_fract_z
Si Si1 0.573797 0.351814 0.685193
Si Si2 0.500000 0.000000 0.500000
Si Si3 0.768459 0.949821 0.871605
Si Si4 0.300446 0.472588 0.923426
Si Si5 0.296584 0.214832 0.911197
Si Si6 0.248989 0.818832 0.732868
Si Si7 0.985332 0.256359 0.412136
O O1 0.410964 0.412122 0.725828
O O2 0.615610 0.271669 0.401730
O O3 0.622798 0.464534 0.785696
O O4 0.696945 0.247639 0.959539
O O5 0.634859 0.041720 0.589509
O O6 0.582102 0.880609 0.254972
O O7 0.925384 0.847211 0.809480
O O8 0.671233 0.875952 0.835755
O O9 0.788292 0.031231 0.169545
O O10 0.289582 0.354727 0.995574
O O11 0.134948 0.595507 0.735653
O O12 0.122885 0.252476 0.700772
O O13 0.107734 0.797632 0.532558
#
# Coordination Sequence:
#
# PCOD9044615 Si02
#       7
#     2   1   2   2   2   2   2
#     4  10  25  47  75 106 136 199 241 296 354 412
#     4  10  24  46  62 104 136 176 240 284 362 416
#     4  11  25  44  72 105 139 189 234 299 363 421
#     4  10  23  47  69 104 147 186 242 291 351 431
#     4  11  24  43  72 104 139 190 231 298 360 426
#     4  11  25  47  76 104 146 185 247 298 349 427
#     4  10  25  44  66 107 144 189 235 285 364 426
#
# _framework density 26.344121999999999
#
# number of rings (size 3 to 8) (size 9 to 14) (size 15 to 20)
#    0.000    1.538    0.000    2.308   10.769    6.769 
#   13.846    0.000    0.000    0.000    0.000    0.000 
#    0.000    0.000    0.000    0.000    0.000    0.000 
#
# Total GULP energy -72697.556118 kJ/mol
# GULP energy per Si atom -5592.119701 kJ/mol
# Density = 2.628416 g / cm^3
# Si number density = 26.344122 Si / 1000 Ang^3
#
#
#
# Elastic Constant Matrix: (Units=GPa)
#
#
# Indices 1 2 3 4 5 6 
#
# 1 128.9747 87.2998 28.1350 12.7379 7.9043 -5.6477
# 2 87.2998 120.0793 35.3958 6.7109 17.9387 8.2321
# 3 28.1350 35.3958 92.8869 15.1531 4.5692 13.8609
# 4 12.7379 6.7109 15.1531 35.3193 -4.3741 7.3257
# 5 7.9043 17.9387 4.5692 -4.3741 41.8257 -3.1454
# 6 -5.6477 8.2321 13.8609 7.3257 -3.1454 67.2133
#
#
#
# Elastic Compliance Matrix: (Units=1/GPa)
#
#
# Indices 1 2 3 4 5 6 
#
# 1 0.016529 -0.012241 -0.000311 -0.003975 0.002007 0.003480
# 2 -0.012241 0.019089 -0.003161 0.002122 -0.005548 -0.003206
# 3 -0.000311 -0.003161 0.013128 -0.004610 -0.000643 -0.001874
# 4 -0.003975 0.002122 -0.004610 0.032379 0.003505 -0.003008
# 5 0.002007 -0.005548 -0.000643 0.003505 0.026484 0.001838
# 6 0.003480 -0.003206 -0.001874 -0.003008 0.001838 0.016363
#
#
# Mechanical properties :
#
#
# Convention : Reuss Voigt Hill
#
# Bulk Modulus (GPa) = 57.74159 71.51133 64.62646
# Shear Modulus (GPa) = 31.02229 41.61235 36.31732
#
# Velocity S-wave (km/s) = 3.43531 3.97869 3.71694
# Velocity P-wave (km/s) = 6.14011 6.95059 6.55788
#
# Compressibility (1/GPa) = 0.01731854
#
# Stress axis : x y z
#
# Youngs Moduli (GPa) = 60.49862 52.38511 76.17263
#
# Poissons Ratio (x) = 0.64127 0.02372
# Poissons Ratio (y) = 0.74059 0.24080
# Poissons Ratio (z) = 0.01884 0.16560
#
# Static dielectric constant tensor:
#      x y z
#    x 2.085520 0.028700 0.130760 
#    y 0.028700 2.536630 -0.394180 
#    z 0.130760 -0.394180 2.367760 
# 
# From -- ./inp_files/28758.got.cif
#   From: 2010.05.17/outbox.cif.g08.bks.cpg/sg2_15_cif.got.tgz:28758.got - 2010.06.03 11:33:40.
