data_PCOD9044031
_publ_section_title
;
Structure prediction by ZEFSAII (Michael W. Deem and Ramdas Pophale) SiO2 
 PCOD9044031
Probable space group: P -1
;
_chemical_formula_sum "Si O2"
_cell_formula_units_Z 16
_cell_length_a 7.170489
_cell_length_b 11.638105
_cell_length_c 15.718854
_cell_angle_alpha 29.784358
_cell_angle_beta 99.255266
_cell_angle_gamma 103.938975
_cell_volume 629.235418
_symmetry_space_group_name_H-M "P -1"
_symmetry_group_IT_number 2
_symmetry_cell_setting 'triclinic'
loop_
_space_group_symop_operation_xyz
x,y,z
-x,-y,-z
loop_
_atom_site_type_symbol
_atom_site_label
_atom_site_fract_x
_atom_site_fract_y
_atom_site_fract_z
Si Si1 0.750094 0.388475 0.229142
Si Si2 0.004951 0.155684 0.984404
Si Si3 0.638422 0.239443 0.826030
Si Si4 0.402301 0.786890 0.832371
Si Si5 0.860733 0.142582 0.546252
Si Si6 0.300005 0.269938 0.443322
Si Si7 0.763344 0.101188 0.739752
Si Si8 0.836529 0.635945 0.809710
O O1 0.810495 0.632837 0.127566
O O2 0.590808 0.354153 0.165758
O O3 0.726646 0.195944 0.425357
O O4 0.947320 0.367491 0.205995
O O5 0.814778 0.257983 0.894540
O O6 0.036732 0.985697 0.172183
O O7 0.000000 0.000000 0.000000
O O8 0.570802 0.486009 0.669841
O O9 0.704637 0.209676 0.752993
O O10 0.500000 0.000000 0.000000
O O11 0.350729 0.030759 0.636195
O O12 0.590736 0.885567 0.838486
O O13 0.251225 0.611270 0.992914
O O14 0.801562 0.247303 0.562268
O O15 0.080893 0.256604 0.468378
O O16 0.849772 0.860972 0.728315
O O17 0.283216 0.300581 0.321167
#
# Coordination Sequence:
#
# PCOD9044031 Si02
#       8
#     2   2   2   2   2   2   2   2
#     4  11  21  42  72 104 140 191 235 289 360 416
#     4  10  23  46  69 100 138 184 233 284 356 419
#     4  11  24  50  77 100 137 189 245 299 351 423
#     4  12  25  43  70 109 145 181 246 291 349 429
#     4  11  22  42  67 105 146 181 235 297 356 423
#     4  11  23  44  73 103 137 186 244 298 347 418
#     4  11  28  43  63 111 140 190 233 286 369 417
#     4  11  21  41  72 108 136 191 239 291 357 412
#
# _framework density 25.427685
#
# number of rings (size 3 to 8) (size 9 to 14) (size 15 to 20)
#    0.000    1.000    5.000    2.625    1.750    3.500 
#    6.750    0.000    0.000    0.000    0.000    0.000 
#    0.000    0.000    0.000    0.000    0.000    0.000 
#
# Total GULP energy -89498.522397 kJ/mol
# GULP energy per Si atom -5593.657650 kJ/mol
# Density = 2.536981 g / cm^3
# Si number density = 25.427685 Si / 1000 Ang^3
#
#
#
# Elastic Constant Matrix: (Units=GPa)
#
#
# Indices 1 2 3 4 5 6 
#
# 1 55.9477 28.5894 38.3726 14.6358 4.0027 8.7194
# 2 28.5894 162.5075 58.9212 11.2059 6.7842 4.8140
# 3 38.3726 58.9212 162.4162 8.9060 -0.2140 -5.2764
# 4 14.6358 11.2059 8.9060 60.6769 -2.8711 -1.4512
# 5 4.0027 6.7842 -0.2140 -2.8711 36.7920 9.7046
# 6 8.7194 4.8140 -5.2764 -1.4512 9.7046 41.0202
#
#
#
# Elastic Compliance Matrix: (Units=1/GPa)
#
#
# Indices 1 2 3 4 5 6 
#
# 1 0.024564 -0.001944 -0.005003 -0.005024 -0.001281 -0.005511
# 2 -0.001944 0.007400 -0.002208 -0.000637 -0.001082 -0.000506
# 3 -0.005003 -0.002208 0.008188 0.000488 0.000433 0.002291
# 4 -0.005024 -0.000637 0.000488 0.017853 0.001680 0.001440
# 5 -0.001281 -0.001082 0.000433 0.001680 0.029348 -0.006429
# 6 -0.005511 -0.000506 0.002291 0.001440 -0.006429 0.027476
#
#
# Mechanical properties :
#
#
# Convention : Reuss Voigt Hill
#
# Bulk Modulus (GPa) = 45.78551 70.29309 58.03930
# Shear Modulus (GPa) = 35.60723 44.69705 40.15214
#
# Velocity S-wave (km/s) = 3.74616 4.19717 3.97806
# Velocity P-wave (km/s) = 6.06275 7.15491 6.63135
#
# Compressibility (1/GPa) = 0.02184097
#
# Stress axis : x y z
#
# Youngs Moduli (GPa) = 40.71022 135.12890 122.12263
#
# Poissons Ratio (x) = 0.26271 0.61103
# Poissons Ratio (y) = 0.07915 0.26968
# Poissons Ratio (z) = 0.20369 0.29841
#
# Static dielectric constant tensor:
#      x y z
#    x 2.098680 -0.012180 0.032890 
#    y -0.012180 1.983480 -0.036710 
#    z 0.032890 -0.036710 2.035770 
# 
# From -- ./inp_files/283288.got.cif
#   From: 2010.05.17/outbox.cif.g08.bks.cpg/sg2_142_cif.got.tgz:283288.got - 2010.06.03 11:33:40.
