data_PCOD9044001
_publ_section_title
;
Structure prediction by ZEFSAII (Michael W. Deem and Ramdas Pophale) SiO2 
 PCOD9044001
Probable space group: P -1
;
_chemical_formula_sum "Si O2"
_cell_formula_units_Z 16
_cell_length_a 11.482647
_cell_length_b 12.416445
_cell_length_c 23.542483
_cell_angle_alpha 28.222604
_cell_angle_beta 27.949805
_cell_angle_gamma 32.614078
_cell_volume 712.298147
_symmetry_space_group_name_H-M "P -1"
_symmetry_group_IT_number 2
_symmetry_cell_setting 'triclinic'
loop_
_space_group_symop_operation_xyz
x,y,z
-x,-y,-z
loop_
_atom_site_type_symbol
_atom_site_label
_atom_site_fract_x
_atom_site_fract_y
_atom_site_fract_z
Si Si1 0.074546 0.177809 0.727861
Si Si2 0.865141 0.357993 0.450826
Si Si3 0.611971 0.902928 0.904001
Si Si4 0.285713 0.495268 0.677322
Si Si5 0.474693 0.670635 0.170048
Si Si6 0.268117 0.277831 0.485484
Si Si7 0.906649 0.936003 0.008993
Si Si8 0.864927 0.055055 0.396866
O O1 0.075558 0.411854 0.654186
O O2 0.277621 0.157791 0.598960
O O3 0.803590 0.216974 0.793212
O O4 0.095505 0.972130 0.860541
O O5 0.579994 0.358501 0.595937
O O6 0.851182 0.384650 0.377152
O O7 0.068962 0.126169 0.494572
O O8 0.514738 0.152662 0.865096
O O9 0.379466 0.897473 0.963984
O O10 0.869076 0.906324 0.759388
O O11 0.664341 0.698280 0.024888
O O12 0.132347 0.322056 0.848308
O O13 0.292829 0.693149 0.627502
O O14 0.472657 0.412949 0.312755
O O15 0.000000 0.500000 0.500000
O O16 0.234221 0.086275 0.543923
O O17 0.000000 0.000000 0.000000
#
# Coordination Sequence:
#
# PCOD9044001 Si02
#       8
#     2   2   2   2   2   2   2   2
#     4  10  18  34  68  87 118 172 206 248 317 369
#     4  11  21  43  64  87 127 169 204 262 323 363
#     4  10  19  34  64  88 120 167 204 251 312 367
#     4  11  26  39  63  94 124 167 216 255 312 381
#     4   9  17  32  61  96 115 163 213 240 315 380
#     4  10  17  33  62  94 122 159 205 259 308 367
#     4  11  22  40  60  87 125 169 208 254 312 376
#     4  12  21  40  65  95 125 160 215 263 306 379
#
# _framework density 22.462505
#
# number of rings (size 3 to 8) (size 9 to 14) (size 15 to 20)
#    0.000    1.500    7.500    0.375    0.000    0.000 
#    0.000    3.125    0.000    0.000    0.000    0.000 
#    0.000    0.000    0.000    0.000    0.000    0.000 
#
# Total GULP energy -89436.135900 kJ/mol
# GULP energy per Si atom -5589.758494 kJ/mol
# Density = 2.241138 g / cm^3
# Si number density = 22.462505 Si / 1000 Ang^3
#
#
#
# Elastic Constant Matrix: (Units=GPa)
#
#
# Indices 1 2 3 4 5 6 
#
# 1 151.1032 25.0896 52.0133 -8.8256 8.2367 21.3589
# 2 25.0896 47.4566 27.9367 -15.5404 12.8916 16.7789
# 3 52.0133 27.9367 164.4561 -22.4592 31.2629 7.3501
# 4 -8.8256 -15.5404 -22.4592 27.3166 2.5592 -5.4495
# 5 8.2367 12.8916 31.2629 2.5592 48.3235 -2.4314
# 6 21.3589 16.7789 7.3501 -5.4495 -2.4314 20.2663
#
#
#
# Elastic Compliance Matrix: (Units=1/GPa)
#
#
# Indices 1 2 3 4 5 6 
#
# 1 0.008620 -0.000690 -0.002398 -0.001161 -0.000073 -0.007965
# 2 -0.000690 0.042309 -0.000525 0.018536 -0.013358 -0.030729
# 3 -0.002398 -0.000525 0.008882 0.006934 -0.005517 0.000943
# 4 -0.001161 0.018536 0.006934 0.052848 -0.012228 -0.003894
# 5 -0.000073 -0.013358 -0.005517 -0.012228 0.029158 0.013348
# 6 -0.007965 -0.030729 0.000943 -0.003894 0.013348 0.083391
#
#
# Mechanical properties :
#
#
# Convention : Reuss Voigt Hill
#
# Bulk Modulus (GPa) = 19.01658 63.67725 41.34691
# Shear Modulus (GPa) = 20.00309 36.37970 28.19140
#
# Velocity S-wave (km/s) = 2.98738 4.02876 3.54650
# Velocity P-wave (km/s) = 4.51481 7.07467 5.93441
#
# Compressibility (1/GPa) = 0.05258570
#
# Stress axis : x y z
#
# Youngs Moduli (GPa) = 116.01015 23.63562 112.59021
#
# Poissons Ratio (x) = 0.01631 0.26996
# Poissons Ratio (y) = 0.08005 0.05909
# Poissons Ratio (z) = 0.27816 0.01240
#
# Static dielectric constant tensor:
#      x y z
#    x 1.900600 -0.079410 -0.002380 
#    y -0.079410 1.826080 0.027510 
#    z -0.002380 0.027510 1.882180 
# 
# From -- ./inp_files/406564.got.cif
#   From: 2010.05.17/outbox.cif.g08.bks.cpg/sg2_204_cif.got.tgz:406564.got - 2010.06.03 11:33:40.
