data_PCOD9044064
_publ_section_title
;
Structure prediction by ZEFSAII (Michael W. Deem and Ramdas Pophale) SiO2 
 PCOD9044064
Probable space group: P -1
;
_chemical_formula_sum "Si O2"
_cell_formula_units_Z 14
_cell_length_a 8.847293
_cell_length_b 9.644921
_cell_length_c 11.983223
_cell_angle_alpha 103.919267
_cell_angle_beta 142.847693
_cell_angle_gamma 79.317469
_cell_volume 599.382702
_symmetry_space_group_name_H-M "P -1"
_symmetry_group_IT_number 2
_symmetry_cell_setting 'triclinic'
loop_
_space_group_symop_operation_xyz
x,y,z
-x,-y,-z
loop_
_atom_site_type_symbol
_atom_site_label
_atom_site_fract_x
_atom_site_fract_y
_atom_site_fract_z
Si Si1 0.560747 0.864840 0.081346
Si Si2 0.500447 0.389587 0.376388
Si Si3 0.833231 0.592531 0.499426
Si Si4 0.041679 0.662356 0.017184
Si Si5 0.273161 0.608896 0.913972
Si Si6 0.116756 0.814681 0.322616
Si Si7 0.201546 0.083526 0.550760
O O1 0.572509 0.906109 0.226486
O O2 0.828059 0.802030 0.189670
O O3 0.351825 0.746684 0.916068
O O4 0.500000 0.000000 0.000000
O O5 0.500000 0.500000 0.500000
O O6 0.581756 0.498164 0.346854
O O7 0.241984 0.304874 0.184569
O O8 0.712398 0.277119 0.511803
O O9 0.825874 0.754313 0.480059
O O10 0.000000 0.500000 0.500000
O O11 0.992277 0.574002 0.703364
O O12 0.234632 0.655954 0.027610
O O13 0.000000 0.500000 0.000000
O O14 0.128086 0.757434 0.191731
O O15 0.500000 0.500000 0.000000
O O16 0.203700 0.977955 0.426233
O O17 0.000000 0.000000 0.500000
#
# Coordination Sequence:
#
# PCOD9044064 Si02
#       7
#     2   2   2   2   2   2   2
#     4  11  25  46  74 105 145 190 243 307 367 443
#     4  12  25  47  72 106 152 189 250 302 371 439
#     4  12  25  43  76 107 144 194 244 305 364 439
#     4  12  26  45  73 108 151 193 246 308 374 438
#     4  12  25  44  72 111 139 186 252 304 366 442
#     4  11  25  48  76 106 148 201 241 307 375 436
#     4  10  23  46  69 107 147 187 248 298 366 438
#
# _framework density 23.357364
#
# number of rings (size 3 to 8) (size 9 to 14) (size 15 to 20)
#    0.000    0.571    2.857    6.000    8.000    0.000 
#    0.000    5.714    0.000    0.000    0.000    0.000 
#    0.000    0.000    0.000    0.000    0.000    0.000 
#
# Total GULP energy -78157.576260 kJ/mol
# GULP energy per Si atom -5582.684019 kJ/mol
# Density = 2.330420 g / cm^3
# Si number density = 23.357364 Si / 1000 Ang^3
#
#
#
# Elastic Constant Matrix: (Units=GPa)
#
#
# Indices 1 2 3 4 5 6 
#
# 1 115.7934 54.9510 34.4905 2.3612 -8.3212 -4.0066
# 2 54.9510 171.9741 41.6350 -3.7005 -2.4162 3.7997
# 3 34.4905 41.6350 126.6411 -13.0526 -4.4177 -9.0912
# 4 2.3612 -3.7005 -13.0526 41.6501 -11.2031 -6.4745
# 5 -8.3212 -2.4162 -4.4177 -11.2031 46.8646 12.3373
# 6 -4.0066 3.7997 -9.0912 -6.4745 12.3373 31.3040
#
#
#
# Elastic Compliance Matrix: (Units=1/GPa)
#
#
# Indices 1 2 3 4 5 6 
#
# 1 0.010765 -0.002975 -0.001994 -0.001109 0.001183 0.000464
# 2 -0.002975 0.007215 -0.001680 0.000049 0.000172 -0.001802
# 3 -0.001994 -0.001680 0.009618 0.003616 0.000459 0.003309
# 4 -0.001109 0.000049 0.003616 0.027381 0.005538 0.004383
# 5 0.001183 0.000172 0.000459 0.005538 0.025164 -0.008508
# 6 0.000464 -0.001802 0.003309 0.004383 -0.008508 0.037443
#
#
# Mechanical properties :
#
#
# Convention : Reuss Voigt Hill
#
# Bulk Modulus (GPa) = 69.92357 75.17351 72.54854
# Shear Modulus (GPa) = 36.85923 42.85256 39.85589
#
# Velocity S-wave (km/s) = 3.97679 4.28793 4.13528
# Velocity P-wave (km/s) = 7.14758 7.53452 7.34360
#
# Compressibility (1/GPa) = 0.01430133
#
# Stress axis : x y z
#
# Youngs Moduli (GPa) = 92.89157 138.59221 103.97224
#
# Poissons Ratio (x) = 0.41227 0.20728
# Poissons Ratio (y) = 0.27632 0.17471
# Poissons Ratio (z) = 0.18519 0.23288
#
# Static dielectric constant tensor:
#      x y z
#    x 1.598110 0.069400 0.255190 
#    y 0.069400 1.841180 -0.093760 
#    z 0.255190 -0.093760 1.727670 
# 
# From -- ./inp_files/382802.got.cif
#   From: 2010.05.17/outbox.cif.g08.bks.cpg/sg2_192_cif.got.tgz:382802.got - 2010.06.03 11:33:40.
