data_PCOD9044841
_publ_section_title
;
Structure prediction by ZEFSAII (Michael W. Deem and Ramdas Pophale) SiO2 
 PCOD9044841
Probable space group: P -1
;
_chemical_formula_sum "Si O2"
_cell_formula_units_Z 12
_cell_length_a 6.844763
_cell_length_b 8.755648
_cell_length_c 7.102154
_cell_angle_alpha 78.106929
_cell_angle_beta 81.828456
_cell_angle_gamma 88.607803
_cell_volume 412.263556
_symmetry_space_group_name_H-M "P -1"
_symmetry_group_IT_number 2
_symmetry_cell_setting 'triclinic'
loop_
_space_group_symop_operation_xyz
x,y,z
-x,-y,-z
loop_
_atom_site_type_symbol
_atom_site_label
_atom_site_fract_x
_atom_site_fract_y
_atom_site_fract_z
Si Si1 0.126480 0.341951 0.944996
Si Si2 0.608229 0.101268 0.113109
Si Si3 0.300255 0.925821 0.437162
Si Si4 0.864759 0.537670 0.693680
Si Si5 0.069047 0.071994 0.754086
Si Si6 0.574563 0.379744 0.272032
O O1 0.173812 0.197425 0.841776
O O2 0.109080 0.326735 0.179070
O O3 0.548704 0.279407 0.106989
O O4 0.922340 0.399767 0.863362
O O5 0.496763 0.013753 0.322885
O O6 0.844095 0.082203 0.114539
O O7 0.500000 0.000000 0.000000
O O8 0.155523 0.901256 0.281092
O O9 0.174238 0.050782 0.543919
O O10 0.335733 0.752271 0.565008
O O11 0.640319 0.559524 0.654175
O O12 0.000000 0.500000 0.500000
O O13 0.281320 0.477242 0.826816
#
# Coordination Sequence:
#
# PCOD9044841 Si02
#       6
#     2   2   2   2   2   2
#     4  11  27  48  77 115 146 200 253 312 382 444
#     4  11  25  45  73 107 148 196 250 312 376 449
#     4  10  25  45  76 108 145 201 251 306 378 447
#     4  11  28  48  72 111 159 198 244 308 381 455
#     4  10  23  47  75 106 149 190 256 308 370 453
#     4  11  25  48  77 110 150 193 255 314 375 447
#
# _framework density 29.107592
#
# number of rings (size 3 to 8) (size 9 to 14) (size 15 to 20)
#    0.000    1.333    0.000    3.500    7.000    8.000 
#    0.000    0.000    0.000    0.000    0.000    0.000 
#    0.000    0.000    0.000    0.000    0.000    0.000 
#
# Total GULP energy -67032.487288 kJ/mol
# GULP energy per Si atom -5586.040607 kJ/mol
# Density = 2.904134 g / cm^3
# Si number density = 29.107592 Si / 1000 Ang^3
#
#
#
# Elastic Constant Matrix: (Units=GPa)
#
#
# Indices 1 2 3 4 5 6 
#
# 1 180.9339 88.5449 44.9584 -7.8093 -4.4115 -19.3834
# 2 88.5449 174.4656 47.2642 19.6504 0.1350 8.4311
# 3 44.9584 47.2642 162.8805 10.6619 -11.6135 -6.7229
# 4 -7.8093 19.6504 10.6619 65.1827 -6.8694 17.1523
# 5 -4.4115 0.1350 -11.6135 -6.8694 37.8794 -12.1948
# 6 -19.3834 8.4311 -6.7229 17.1523 -12.1948 55.5974
#
#
#
# Elastic Compliance Matrix: (Units=1/GPa)
#
#
# Indices 1 2 3 4 5 6 
#
# 1 0.008384 -0.004390 -0.000865 0.001801 0.002148 0.003400
# 2 -0.004390 0.008765 -0.001453 -0.002441 -0.002330 -0.002793
# 3 -0.000865 -0.001453 0.007105 -0.000998 0.002422 0.001617
# 4 0.001801 -0.002441 -0.000998 0.017751 0.001777 -0.004209
# 5 0.002148 -0.002330 0.002422 0.001777 0.030123 0.007454
# 6 0.003400 -0.002793 0.001617 -0.004209 0.007454 0.022724
#
#
# Mechanical properties :
#
#
# Convention : Reuss Voigt Hill
#
# Bulk Modulus (GPa) = 92.26666 97.75722 95.01194
# Shear Modulus (GPa) = 44.69016 54.23274 49.46145
#
# Velocity S-wave (km/s) = 3.92260 4.32114 4.12668
# Velocity P-wave (km/s) = 7.23070 7.65206 7.44436
#
# Compressibility (1/GPa) = 0.01083815
#
# Stress axis : x y z
#
# Youngs Moduli (GPa) = 119.26998 114.08806 140.75140
#
# Poissons Ratio (x) = 0.50082 0.12173
# Poissons Ratio (y) = 0.52356 0.20457
# Poissons Ratio (z) = 0.10315 0.16582
#
# Static dielectric constant tensor:
#      x y z
#    x 2.325540 -0.019510 0.090140 
#    y -0.019510 2.487610 0.176520 
#    z 0.090140 0.176520 2.604630 
# 
# From -- ./inp_files/176441.got.cif
#   From: 2010.05.17/outbox.cif.g08.bks.cpg/sg2_89_cif.got.tgz:176441.got - 2010.06.03 11:33:40.
