data_PCOD9044893
_publ_section_title
;
Structure prediction by ZEFSAII (Michael W. Deem and Ramdas Pophale) SiO2 
 PCOD9044893
Probable space group: P -1
;
_chemical_formula_sum "Si O2"
_cell_formula_units_Z 16
_cell_length_a 5.324478
_cell_length_b 12.098943
_cell_length_c 14.290408
_cell_angle_alpha 94.128286
_cell_angle_beta 92.791957
_cell_angle_gamma 113.576933
_cell_volume 838.528893
_symmetry_space_group_name_H-M "P -1"
_symmetry_group_IT_number 2
_symmetry_cell_setting 'triclinic'
loop_
_space_group_symop_operation_xyz
x,y,z
-x,-y,-z
loop_
_atom_site_type_symbol
_atom_site_label
_atom_site_fract_x
_atom_site_fract_y
_atom_site_fract_z
Si Si1 0.099365 0.343001 0.185976
Si Si2 0.159559 0.160835 0.695502
Si Si3 0.739929 0.824695 0.923133
Si Si4 0.385174 0.875988 0.769082
Si Si5 0.531799 0.591388 0.205251
Si Si6 0.541160 0.035515 0.610760
Si Si7 0.255801 0.062515 0.884532
Si Si8 0.023082 0.463743 0.892570
O O1 0.187090 0.291098 0.091231
O O2 0.369047 0.455085 0.234297
O O3 0.909982 0.412293 0.156736
O O4 0.927313 0.225414 0.236836
O O5 0.316793 0.305441 0.711194
O O6 0.338621 0.099108 0.642325
O O7 0.144311 0.118366 0.801650
O O8 0.857985 0.118720 0.644734
O O9 0.556261 0.820942 0.830119
O O10 0.623624 0.846050 0.021342
O O11 0.017079 0.943435 0.916532
O O12 0.469167 0.917335 0.668189
O O13 0.437242 0.001560 0.833063
O O14 0.285699 0.618240 0.154324
O O15 0.753237 0.587083 0.133711
O O16 0.500000 0.000000 0.500000
O O17 0.000000 0.500000 0.000000
#
# Coordination Sequence:
#
# PCOD9044893 Si02
#       8
#     2   2   2   2   2   2   2   2
#     4   9  22  33  55  83 119 164 202 237 285 348
#     4  11  22  41  62  90 122 155 192 250 307 363
#     4  10  17  34  51  82 120 161 201 238 282 345
#     4  10  19  37  58  84 119 158 201 248 301 353
#     4  10  22  37  56  85 118 165 198 244 297 346
#     4  11  24  43  68  93 115 147 199 256 316 368
#     4   9  20  30  52  84 119 159 196 239 288 349
#     4  10  21  36  54  84 122 166 215 242 275 337
#
# _framework density 19.081035
#
# number of rings (size 3 to 8) (size 9 to 14) (size 15 to 20)
#    0.750    1.250    1.250    2.625    1.750    1.000 
#    0.000    0.000    0.000    1.500    0.000    0.000 
#    0.000    0.000    0.000    0.000    0.000    0.000 
#
# Total GULP energy -89107.106697 kJ/mol
# GULP energy per Si atom -5569.194169 kJ/mol
# Density = 1.903761 g / cm^3
# Si number density = 19.081035 Si / 1000 Ang^3
#
#
#
# Elastic Constant Matrix: (Units=GPa)
#
#
# Indices 1 2 3 4 5 6 
#
# 1 51.1783 -6.7986 1.4530 2.0538 1.5386 8.1010
# 2 -6.7986 64.6650 17.5308 16.5559 -1.7927 7.9636
# 3 1.4530 17.5308 92.0846 -0.7290 -6.5252 7.5438
# 4 2.0538 16.5559 -0.7290 12.2703 1.0698 4.9542
# 5 1.5386 -1.7927 -6.5252 1.0698 20.1515 5.3902
# 6 8.1010 7.9636 7.5438 4.9542 5.3902 19.2287
#
#
#
# Elastic Compliance Matrix: (Units=1/GPa)
#
#
# Indices 1 2 3 4 5 6 
#
# 1 0.022144 0.005680 -0.000549 -0.007510 0.001714 -0.010012
# 2 0.005680 0.027494 -0.005153 -0.037417 0.003131 -0.002996
# 3 -0.000549 -0.005153 0.012827 0.010059 0.004983 -0.006656
# 4 -0.007510 -0.037417 0.010059 0.142709 -0.001270 -0.021698
# 5 0.001714 0.003131 0.004983 -0.001270 0.056678 -0.019535
# 6 -0.010012 -0.002996 -0.006656 -0.021698 -0.019535 0.071142
#
#
# Mechanical properties :
#
#
# Convention : Reuss Voigt Hill
#
# Bulk Modulus (GPa) = 16.01967 25.81090 20.91529
# Shear Modulus (GPa) = 14.13047 23.37961 18.75504
#
# Velocity S-wave (km/s) = 2.72426 3.50420 3.13855
# Velocity P-wave (km/s) = 4.27893 5.47073 4.91112
#
# Compressibility (1/GPa) = 0.06242326
#
# Stress axis : x y z
#
# Youngs Moduli (GPa) = 45.15819 36.37171 77.95911
#
# Poissons Ratio (x) = -0.20660 0.04277
# Poissons Ratio (y) = -0.25651 0.40170
# Poissons Ratio (z) = 0.02477 0.18741
#
# Static dielectric constant tensor:
#      x y z
#    x 1.735090 0.009310 0.000530 
#    y 0.009310 1.718010 0.000130 
#    z 0.000530 0.000130 1.653390 
# 
# From -- ./inp_files/366304.got.cif
#   From: 2010.05.17/outbox.cif.g08.bks.cpg/sg2_184_cif.got.tgz:366304.got - 2010.06.03 11:33:40.
