data_PCOD9044184
_publ_section_title
;
Structure prediction by ZEFSAII (Michael W. Deem and Ramdas Pophale) SiO2 
 PCOD9044184
Probable space group: P -1
;
_chemical_formula_sum "Si O2"
_cell_formula_units_Z 16
_cell_length_a 22.787744
_cell_length_b 11.060706
_cell_length_c 9.050681
_cell_angle_alpha 48.195554
_cell_angle_beta 142.402028
_cell_angle_gamma 149.128021
_cell_volume 713.504879
_symmetry_space_group_name_H-M "P -1"
_symmetry_group_IT_number 2
_symmetry_cell_setting 'triclinic'
loop_
_space_group_symop_operation_xyz
x,y,z
-x,-y,-z
loop_
_atom_site_type_symbol
_atom_site_label
_atom_site_fract_x
_atom_site_fract_y
_atom_site_fract_z
Si Si1 0.971207 0.654767 0.828377
Si Si2 0.418703 0.732838 0.025385
Si Si3 0.886448 0.977596 0.714179
Si Si4 0.724094 0.536445 0.536824
Si Si5 0.096287 0.425582 0.567798
Si Si6 0.526462 0.752579 0.526456
Si Si7 0.186514 0.885347 0.296184
Si Si8 0.576514 0.502618 0.014182
O O1 0.831048 0.520872 0.747499
O O2 0.952980 0.695388 0.593705
O O3 0.000000 0.500000 0.000000
O O4 0.099220 0.871040 0.007090
O O5 0.252406 0.556186 0.814982
O O6 0.478694 0.718368 0.009975
O O7 0.445750 0.659522 0.286082
O O8 0.500000 0.000000 0.000000
O O9 0.792306 0.960146 0.657589
O O10 0.981034 0.221498 0.616438
O O11 0.790831 0.754748 0.596910
O O12 0.000000 0.000000 0.000000
O O13 0.577549 0.308249 0.505969
O O14 0.704871 0.587945 0.293635
O O15 0.103799 0.630079 0.404166
O O16 0.673382 0.019753 0.570605
O O17 0.580072 0.644986 0.780891
O O18 0.500000 0.500000 0.000000
#
# Coordination Sequence:
#
# PCOD9044184 Si02
#       8
#     2   2   2   2   2   2   2   2
#     4  10  23  46  71 100 145 188 235 291 362 426
#     4  12  24  45  72 104 145 191 242 297 364 430
#     4  12  26  42  71 105 138 188 238 292 354 427
#     4  11  24  46  72 108 142 189 244 295 357 434
#     4  11  25  46  69 101 143 190 236 293 357 431
#     4  11  26  44  74 105 146 184 245 301 363 425
#     4  11  25  46  69 107 141 190 234 298 362 424
#     4  10  25  44  69 103 147 189 238 295 362 430
#
# _framework density 22.424515
#
# number of rings (size 3 to 8) (size 9 to 14) (size 15 to 20)
#    0.000    1.000    3.750    1.500    8.750    0.500 
#    0.000   10.000    0.000    0.000    0.000    0.000 
#    0.000    0.000    0.000    0.000    0.000    0.000 
#
# Total GULP energy -89306.212124 kJ/mol
# GULP energy per Si atom -5581.638258 kJ/mol
# Density = 2.237348 g / cm^3
# Si number density = 22.424515 Si / 1000 Ang^3
#
#
#
# Elastic Constant Matrix: (Units=GPa)
#
#
# Indices 1 2 3 4 5 6 
#
# 1 129.1859 44.5754 48.1397 9.9344 0.6208 -10.0040
# 2 44.5754 72.0320 21.9958 -6.1624 -7.3381 7.1709
# 3 48.1397 21.9958 144.3407 4.2029 -20.0532 12.8019
# 4 9.9344 -6.1624 4.2029 18.0549 4.3151 9.0176
# 5 0.6208 -7.3381 -20.0532 4.3151 42.3763 9.7194
# 6 -10.0040 7.1709 12.8019 9.0176 9.7194 33.8377
#
#
#
# Elastic Compliance Matrix: (Units=1/GPa)
#
#
# Indices 1 2 3 4 5 6 
#
# 1 0.017268 -0.013067 -0.005738 -0.019557 -0.007214 0.017329
# 2 -0.013067 0.025807 0.002490 0.022848 0.007778 -0.018597
# 3 -0.005738 0.002490 0.010118 0.004625 0.006962 -0.009284
# 4 -0.019557 0.022848 0.004625 0.090528 0.005979 -0.038216
# 5 -0.007214 0.007778 0.006962 0.005979 0.031659 -0.017102
# 6 0.017329 -0.018597 -0.009284 -0.038216 -0.017102 0.057227
#
#
# Mechanical properties :
#
#
# Convention : Reuss Voigt Hill
#
# Bulk Modulus (GPa) = 48.62885 63.88671 56.25778
# Shear Modulus (GPa) = 18.37623 34.24362 26.30993
#
# Velocity S-wave (km/s) = 2.86575 3.91200 3.42901
# Velocity P-wave (km/s) = 5.71687 6.99690 6.38902
#
# Compressibility (1/GPa) = 0.02056392
#
# Stress axis : x y z
#
# Youngs Moduli (GPa) = 57.90988 38.74915 98.83198
#
# Poissons Ratio (x) = 0.50634 0.56707
# Poissons Ratio (y) = 0.75672 -0.24610
# Poissons Ratio (z) = 0.33227 -0.09649
#
# Static dielectric constant tensor:
#      x y z
#    x 1.841980 -0.005360 0.004160 
#    y -0.005360 1.843480 0.004200 
#    z 0.004160 0.004200 1.876760 
# 
# From -- ./inp_files/353409.got.cif
#   From: 2010.05.17/outbox.cif.g08.bks.cpg/sg2_177_cif.got.tgz:353409.got - 2010.06.03 11:33:40.
