data_PCOD9044765
_publ_section_title
;
Structure prediction by ZEFSAII (Michael W. Deem and Ramdas Pophale) SiO2 
 PCOD9044765
Probable space group: P -1
;
_chemical_formula_sum "Si O2"
_cell_formula_units_Z 10
_cell_length_a 11.390270
_cell_length_b 8.996471
_cell_length_c 7.549765
_cell_angle_alpha 58.368309
_cell_angle_beta 95.658007
_cell_angle_gamma 139.672367
_cell_volume 356.945696
_symmetry_space_group_name_H-M "P -1"
_symmetry_group_IT_number 2
_symmetry_cell_setting 'triclinic'
loop_
_space_group_symop_operation_xyz
x,y,z
-x,-y,-z
loop_
_atom_site_type_symbol
_atom_site_label
_atom_site_fract_x
_atom_site_fract_y
_atom_site_fract_z
Si Si1 0.202490 0.866570 0.189873
Si Si2 0.344098 0.424518 0.302521
Si Si3 0.632222 0.948937 0.525396
Si Si4 0.836181 0.678207 0.283897
Si Si5 0.282848 0.718079 0.015564
O O1 0.996007 0.716102 0.317740
O O2 0.870564 0.359469 0.830709
O O3 0.313132 0.928533 0.343906
O O4 0.396302 0.225411 0.907811
O O5 0.294706 0.163962 0.410624
O O6 0.264169 0.364298 0.526392
O O7 0.237452 0.455275 0.160158
O O8 0.372469 0.623166 0.674357
O O9 0.699979 0.152216 0.242487
O O10 0.000000 0.000000 0.000000
O O11 0.500000 0.000000 0.000000
#
# Coordination Sequence:
#
# PCOD9044765 Si02
#       5
#     2   2   2   2   2
#     4  11  25  46  73 108 140 191 243 286 362 431
#     4  11  24  48  71 104 151 181 237 304 348 423
#     4  12  24  49  76 102 147 190 236 300 355 422
#     4  12  24  43  76 108 139 193 238 292 362 424
#     4  10  23  47  73 102 151 186 230 308 354 413
#
# _framework density 28.015466
#
# number of rings (size 3 to 8) (size 9 to 14) (size 15 to 20)
#    0.000    0.800    6.000    2.400    0.000    4.800 
#    3.600    1.000    0.000    3.600    0.000    0.000 
#    0.000    0.000    0.000    0.000    0.000    0.000 
#
# Total GULP energy -56097.123678 kJ/mol
# GULP energy per Si atom -5609.712368 kJ/mol
# Density = 2.795170 g / cm^3
# Si number density = 28.015466 Si / 1000 Ang^3
#
#
#
# Elastic Constant Matrix: (Units=GPa)
#
#
# Indices 1 2 3 4 5 6 
#
# 1 182.4050 78.0906 82.0479 20.1558 18.2386 -18.1946
# 2 78.0906 150.3043 93.4561 19.5835 -1.4883 18.3638
# 3 82.0479 93.4561 263.2351 37.2344 10.9603 -6.2603
# 4 20.1558 19.5835 37.2344 44.6539 7.1052 -11.8937
# 5 18.2386 -1.4883 10.9603 7.1052 71.0976 -0.4866
# 6 -18.1946 18.3638 -6.2603 -11.8937 -0.4866 42.8051
#
#
#
# Elastic Compliance Matrix: (Units=1/GPa)
#
#
# Indices 1 2 3 4 5 6 
#
# 1 0.008631 -0.004773 -0.000883 0.000830 -0.002221 0.005793
# 2 -0.004773 0.012372 -0.002679 -0.003716 0.002208 -0.008736
# 3 -0.000883 -0.002679 0.005440 -0.002682 -0.000395 0.000820
# 4 0.000830 -0.003716 -0.002682 0.028856 -0.002696 0.009542
# 5 -0.002221 0.002208 -0.000395 -0.002696 0.014994 -0.002528
# 6 0.005793 -0.008736 0.000820 0.009542 -0.002528 0.032314
#
#
# Mechanical properties :
#
#
# Convention : Reuss Voigt Hill
#
# Bulk Modulus (GPa) = 102.31225 122.57041 112.44133
# Shear Modulus (GPa) = 40.80444 54.53462 47.66953
#
# Velocity S-wave (km/s) = 3.82055 4.41680 4.12945
# Velocity P-wave (km/s) = 7.48741 8.35804 7.93468
#
# Compressibility (1/GPa) = 0.00977400
#
# Stress axis : x y z
#
# Youngs Moduli (GPa) = 115.85992 80.82725 183.81200
#
# Poissons Ratio (x) = 0.38581 0.16225
# Poissons Ratio (y) = 0.55304 0.49238
# Poissons Ratio (z) = 0.10227 0.21651
#
# Static dielectric constant tensor:
#      x y z
#    x 2.405900 0.007120 0.028980 
#    y 0.007120 2.139330 -0.062940 
#    z 0.028980 -0.062940 2.205520 
# 
# From -- ./inp_files/246858.got.cif
#   From: 2010.05.17/outbox.cif.g08.bks.cpg/sg2_124_cif.got.tgz:246858.got - 2010.06.03 11:33:40.
