data_PCOD9044870
_publ_section_title
;
Structure prediction by ZEFSAII (Michael W. Deem and Ramdas Pophale) SiO2 
 PCOD9044870
Probable space group: P -1
;
_chemical_formula_sum "Si O2"
_cell_formula_units_Z 12
_cell_length_a 12.297241
_cell_length_b 7.341429
_cell_length_c 9.660370
_cell_angle_alpha 52.519274
_cell_angle_beta 63.942704
_cell_angle_gamma 42.243130
_cell_volume 465.172469
_symmetry_space_group_name_H-M "P -1"
_symmetry_group_IT_number 2
_symmetry_cell_setting 'triclinic'
loop_
_space_group_symop_operation_xyz
x,y,z
-x,-y,-z
loop_
_atom_site_type_symbol
_atom_site_label
_atom_site_fract_x
_atom_site_fract_y
_atom_site_fract_z
Si Si1 0.696931 0.752125 0.318728
Si Si2 0.726225 0.694838 0.999081
Si Si3 0.028951 0.235208 0.515879
Si Si4 0.604434 0.139208 0.618537
Si Si5 0.322664 0.719542 0.943744
Si Si6 0.025084 0.094334 0.089136
O O1 0.701653 0.737179 0.155759
O O2 0.515697 0.882681 0.388880
O O3 0.863250 0.425289 0.429237
O O4 0.710688 0.999408 0.244488
O O5 0.371127 0.001126 0.177623
O O6 0.692653 0.485667 0.047665
O O7 0.919816 0.455905 0.972883
O O8 0.000000 0.500000 0.500000
O O9 0.027750 0.006177 0.713653
O O10 0.209511 0.044858 0.442712
O O11 0.500000 0.500000 0.500000
O O12 0.500000 0.500000 0.000000
O O13 0.216000 0.869152 0.075058
O O14 0.000000 0.000000 0.000000
#
# Coordination Sequence:
#
# PCOD9044870 Si02
#       6
#     2   2   2   2   2   2
#     4  12  28  50  82 115 156 210 252 326 395 452
#     4  11  24  51  77 113 157 201 264 313 385 474
#     4  12  27  51  75 115 162 202 261 323 392 470
#     4  12  28  49  78 120 158 202 264 324 388 468
#     4  11  23  45  80 113 146 201 264 312 382 461
#     4  10  23  47  77 105 149 203 254 320 382 462
#
# _framework density 25.796883999999999
#
# number of rings (size 3 to 8) (size 9 to 14) (size 15 to 20)
#    0.000    0.667    1.667    6.500    0.000    7.333 
#    6.000    0.000    0.000    0.000    0.000    0.000 
#    0.000    0.000    0.000    0.000    0.000    0.000 
#
# Total GULP energy -67103.262758 kJ/mol
# GULP energy per Si atom -5591.938563 kJ/mol
# Density = 2.573817 g / cm^3
# Si number density = 25.796884 Si / 1000 Ang^3
#
#
#
# Elastic Constant Matrix: (Units=GPa)
#
#
# Indices 1 2 3 4 5 6 
#
# 1 156.5579 44.8267 53.0732 -4.9169 7.1786 -23.3741
# 2 44.8267 151.0421 51.2734 -21.6289 12.5002 -53.2979
# 3 53.0732 51.2734 128.9890 -29.0128 15.2479 -27.4544
# 4 -4.9169 -21.6289 -29.0128 50.6663 -11.4903 -12.1026
# 5 7.1786 12.5002 15.2479 -11.4903 42.5891 -5.8979
# 6 -23.3741 -53.2979 -27.4544 -12.1026 -5.8979 62.3651
#
#
#
# Elastic Compliance Matrix: (Units=1/GPa)
#
#
# Indices 1 2 3 4 5 6 
#
# 1 0.007778 -0.001541 -0.002938 -0.001653 -0.000259 -0.000040
# 2 -0.001541 0.012206 -0.000086 0.007817 0.000391 0.011370
# 3 -0.002938 -0.000086 0.011999 0.007648 -0.000950 0.005502
# 4 -0.001653 0.007817 0.007648 0.032632 0.006316 0.016357
# 5 -0.000259 0.000391 -0.000950 0.006316 0.025937 0.003498
# 6 -0.000040 0.011370 0.005502 0.016357 0.003498 0.031664
#
#
# Mechanical properties :
#
#
# Convention : Reuss Voigt Hill
#
# Bulk Modulus (GPa) = 43.75494 81.65950 62.70722
# Shear Modulus (GPa) = 35.98029 50.28514 43.13272
#
# Velocity S-wave (km/s) = 3.73869 4.41985 4.09346
# Velocity P-wave (km/s) = 5.96953 7.60067 6.83394
#
# Compressibility (1/GPa) = 0.02285456
#
# Stress axis : x y z
#
# Youngs Moduli (GPa) = 128.56028 81.92524 83.33872
#
# Poissons Ratio (x) = 0.12622 0.24484
# Poissons Ratio (y) = 0.19807 0.00718
# Poissons Ratio (z) = 0.37769 0.00706
#
# Static dielectric constant tensor:
#      x y z
#    x 3.918850 -0.755390 -0.833540 
#    y -0.755390 2.380480 0.330030 
#    z -0.833540 0.330030 2.385740 
# 
# From -- ./inp_files/442517.got.cif
#   From: 2010.05.17/outbox.cif.g08.bks.cpg/sg2_222_cif.got.tgz:442517.got - 2010.06.03 11:33:40.
