data_PCOD9044382
_publ_section_title
;
Structure prediction by ZEFSAII (Michael W. Deem and Ramdas Pophale) SiO2 
 PCOD9044382
Probable space group: P -1
;
_chemical_formula_sum "Si O2"
_cell_formula_units_Z 14
_cell_length_a 10.942386
_cell_length_b 8.697178
_cell_length_c 7.369805
_cell_angle_alpha 73.988189
_cell_angle_beta 67.315405
_cell_angle_gamma 56.595741
_cell_volume 538.373831
_symmetry_space_group_name_H-M "P -1"
_symmetry_group_IT_number 2
_symmetry_cell_setting 'triclinic'
loop_
_space_group_symop_operation_xyz
x,y,z
-x,-y,-z
loop_
_atom_site_type_symbol
_atom_site_label
_atom_site_fract_x
_atom_site_fract_y
_atom_site_fract_z
Si Si1 0.700870 0.981881 0.562379
Si Si2 0.827638 0.165257 0.994902
Si Si3 0.028974 0.381746 0.339248
Si Si4 0.231437 0.454031 0.965346
Si Si5 0.846356 0.193496 0.547239
Si Si6 0.636481 0.771789 0.394702
Si Si7 0.490643 0.322163 0.143382
O O1 0.822336 0.825190 0.674698
O O2 0.732039 0.857568 0.404252
O O3 0.725567 0.157197 0.519698
O O4 0.520884 0.063996 0.652786
O O5 0.822546 0.216900 0.769034
O O6 0.793357 0.340717 0.079600
O O7 0.668701 0.160509 0.102174
O O8 0.000000 0.000000 0.000000
O O9 0.000000 0.500000 0.500000
O O10 0.890079 0.343218 0.411401
O O11 0.076846 0.477568 0.130355
O O12 0.277966 0.353783 0.781633
O O13 0.371491 0.325805 0.064421
O O14 0.000000 0.000000 0.500000
O O15 0.583704 0.678709 0.616705
O O16 0.500000 0.500000 0.000000
#
# Coordination Sequence:
#
# PCOD9044382 Si02
#       7
#     2   2   2   2   2   2   2
#     4  10  24  48  76 114 155 210 259 331 391 475
#     4  11  25  47  75 118 157 202 270 326 406 472
#     4  11  22  46  80 110 159 208 257 322 403 467
#     4  11  24  49  81 117 153 214 264 330 399 474
#     4  10  23  46  73 109 156 209 249 321 402 469
#     4  11  24  48  82 112 156 206 276 323 392 476
#     4  10  24  46  77 111 157 206 258 332 390 472
#
# _framework density 26.004235999999999
#
# number of rings (size 3 to 8) (size 9 to 14) (size 15 to 20)
#    0.000    1.429    2.857    0.857    4.000    2.857 
#   20.571    1.429    0.000    4.286    0.000    0.000 
#    0.000    0.000    0.000    0.000    0.000    0.000 
#
# Total GULP energy -78198.377125 kJ/mol
# GULP energy per Si atom -5585.598366 kJ/mol
# Density = 2.594505 g / cm^3
# Si number density = 26.004236 Si / 1000 Ang^3
#
#
#
# Elastic Constant Matrix: (Units=GPa)
#
#
# Indices 1 2 3 4 5 6 
#
# 1 180.2282 23.5480 37.7343 -0.7407 12.7507 4.8938
# 2 23.5480 95.9503 19.4823 8.5647 11.1866 -20.8573
# 3 37.7343 19.4823 130.0632 21.7039 6.8366 0.3416
# 4 -0.7407 8.5647 21.7039 50.0566 10.3353 9.2711
# 5 12.7507 11.1866 6.8366 10.3353 39.2942 3.1454
# 6 4.8938 -20.8573 0.3416 9.2711 3.1454 54.7399
#
#
#
# Elastic Compliance Matrix: (Units=1/GPa)
#
#
# Indices 1 2 3 4 5 6 
#
# 1 0.006269 -0.001408 -0.001800 0.001694 -0.001664 -0.001277
# 2 -0.001408 0.012693 -0.000992 -0.002194 -0.002848 0.005504
# 3 -0.001800 -0.000992 0.008991 -0.003884 0.000294 0.000368
# 4 0.001694 -0.002194 -0.003884 0.024009 -0.005185 -0.004732
# 5 -0.001664 -0.002848 0.000294 -0.005185 0.028247 -0.001683
# 6 -0.001277 0.005504 0.000368 -0.004732 -0.001683 0.021375
#
#
# Mechanical properties :
#
#
# Convention : Reuss Voigt Hill
#
# Bulk Modulus (GPa) = 51.13873 63.08567 57.11220
# Shear Modulus (GPa) = 42.91844 50.51662 46.71753
#
# Velocity S-wave (km/s) = 4.06697 4.41231 4.24315
# Velocity P-wave (km/s) = 6.46234 7.09016 6.78352
#
# Compressibility (1/GPa) = 0.01955465
#
# Stress axis : x y z
#
# Youngs Moduli (GPa) = 159.52563 78.78289 111.22301
#
# Poissons Ratio (x) = 0.11091 0.20016
# Poissons Ratio (y) = 0.22459 0.11028
# Poissons Ratio (z) = 0.28709 0.07811
#
# Static dielectric constant tensor:
#      x y z
#    x 2.520770 0.115140 0.170850 
#    y 0.115140 2.249990 0.041340 
#    z 0.170850 0.041340 2.189870 
# 
# From -- ./inp_files/68950.got.cif
#   From: 2010.05.17/outbox.cif.g08.bks.cpg/sg2_35_cif.got.tgz:68950.got - 2010.06.03 11:33:40.
