data_PCOD9044286
_publ_section_title
;
Structure prediction by ZEFSAII (Michael W. Deem and Ramdas Pophale) SiO2 
 PCOD9044286
Probable space group: P -1
;
_chemical_formula_sum "Si O2"
_cell_formula_units_Z 15
_cell_length_a 7.377796
_cell_length_b 12.938132
_cell_length_c 9.282507
_cell_angle_alpha 44.903960
_cell_angle_beta 114.519108
_cell_angle_gamma 97.449139
_cell_volume 550.149806
_symmetry_space_group_name_H-M "P -1"
_symmetry_group_IT_number 2
_symmetry_cell_setting 'triclinic'
loop_
_space_group_symop_operation_xyz
x,y,z
-x,-y,-z
loop_
_atom_site_type_symbol
_atom_site_label
_atom_site_fract_x
_atom_site_fract_y
_atom_site_fract_z
Si Si1 0.496289 0.837287 0.716145
Si Si2 0.199154 0.161795 0.933851
Si Si3 0.295422 0.627089 0.341293
Si Si4 0.101730 0.387868 0.418504
Si Si5 0.444684 0.384614 0.313372
Si Si6 0.000000 0.000000 0.500000
Si Si7 0.173733 0.934960 0.927776
Si Si8 0.841832 0.295379 0.185229
O O1 0.539017 0.707783 0.737510
O O2 0.258038 0.848602 0.672665
O O3 0.500000 0.000000 0.500000
O O4 0.641542 0.804101 0.934138
O O5 0.124277 0.294892 0.663425
O O6 0.281387 0.020004 0.994417
O O7 0.015685 0.112523 0.006318
O O8 0.500000 0.500000 0.500000
O O9 0.110227 0.557316 0.299205
O O10 0.333110 0.648184 0.502774
O O11 0.316566 0.769143 0.115497
O O12 0.295951 0.331593 0.430131
O O13 0.916506 0.371104 0.273166
O O14 0.329613 0.562626 0.074704
O O15 0.897728 0.976502 0.328170
O O16 0.024429 0.181454 0.271976
#
# Coordination Sequence:
#
# PCOD9044286 Si02
#       8
#     2   2   2   2   2   1   2   2
#     4  12  28  48  76 108 154 199 248 306 374 439
#     4  11  26  46  71 109 147 189 244 308 373 428
#     4  10  23  46  72 106 146 191 241 307 363 437
#     4  11  25  46  75 110 143 193 248 301 376 433
#     4  11  26  50  76 110 150 198 251 303 368 448
#     4  12  24  46  78 106 140 194 246 304 364 438
#     4  11  25  46  75 106 148 189 248 305 368 445
#     4  12  27  47  76 113 148 193 253 308 368 444
#
# _framework density 27.2653
#
# number of rings (size 3 to 8) (size 9 to 14) (size 15 to 20)
#    0.000    0.800    1.333    4.800    9.333    1.600 
#    0.000    4.000    0.000    0.000    0.000    0.000 
#    0.000    0.000    0.000    0.000    0.000    0.000 
#
# Total GULP energy -83842.315199 kJ/mol
# GULP energy per Si atom -5589.487680 kJ/mol
# Density = 2.720324 g / cm^3
# Si number density = 27.265300 Si / 1000 Ang^3
#
#
#
# Elastic Constant Matrix: (Units=GPa)
#
#
# Indices 1 2 3 4 5 6 
#
# 1 88.2382 30.0440 23.1220 17.1739 -11.9361 2.3454
# 2 30.0440 212.6002 62.1188 31.9879 -3.0725 9.1817
# 3 23.1220 62.1188 185.7750 15.6918 2.6848 9.1726
# 4 17.1739 31.9879 15.6918 69.7532 4.1712 6.4038
# 5 -11.9361 -3.0725 2.6848 4.1712 31.0107 6.3579
# 6 2.3454 9.1817 9.1726 6.4038 6.3579 51.0457
#
#
#
# Elastic Compliance Matrix: (Units=1/GPa)
#
#
# Indices 1 2 3 4 5 6 
#
# 1 0.013302 -0.001017 -0.001129 -0.002838 0.005615 -0.000569
# 2 -0.001017 0.005637 -0.001576 -0.001973 0.000675 -0.000521
# 3 -0.001129 -0.001576 0.006116 -0.000262 -0.000960 -0.000611
# 4 -0.002838 -0.001973 -0.000262 0.016294 -0.003229 -0.001110
# 5 0.005615 0.000675 -0.000960 -0.003229 0.035868 -0.004269
# 6 -0.000569 -0.000521 -0.000611 -0.001110 -0.004269 0.020491
#
#
# Mechanical properties :
#
#
# Convention : Reuss Voigt Hill
#
# Bulk Modulus (GPa) = 56.77921 79.68699 68.23310
# Shear Modulus (GPa) = 45.03607 55.11718 50.07663
#
# Velocity S-wave (km/s) = 4.06861 4.50100 4.29026
# Velocity P-wave (km/s) = 6.55297 7.50347 7.04427
#
# Compressibility (1/GPa) = 0.01761208
#
# Stress axis : x y z
#
# Youngs Moduli (GPa) = 75.17521 177.40374 163.49503
#
# Poissons Ratio (x) = 0.18046 0.18456
# Poissons Ratio (y) = 0.07647 0.25761
# Poissons Ratio (z) = 0.08486 0.27953
#
# Static dielectric constant tensor:
#      x y z
#    x 2.846620 -0.378510 0.415070 
#    y -0.378510 2.425170 -0.285380 
#    z 0.415070 -0.285380 2.537380 
# 
# From -- ./inp_files/184516.got.cif
#   From: 2010.05.17/outbox.cif.g08.bks.cpg/sg2_93_cif.got.tgz:184516.got - 2010.06.03 11:33:40.
