data_PCOD9044988
_publ_section_title
;
Structure prediction by ZEFSAII (Michael W. Deem and Ramdas Pophale) SiO2 
 PCOD9044988
Probable space group: P -1
;
_chemical_formula_sum "Si O2"
_cell_formula_units_Z 14
_cell_length_a 9.425283
_cell_length_b 15.639205
_cell_length_c 14.772537
_cell_angle_alpha 27.130469
_cell_angle_beta 57.387678
_cell_angle_gamma 77.619087
_cell_volume 605.007954
_symmetry_space_group_name_H-M "P -1"
_symmetry_group_IT_number 2
_symmetry_cell_setting 'triclinic'
loop_
_space_group_symop_operation_xyz
x,y,z
-x,-y,-z
loop_
_atom_site_type_symbol
_atom_site_label
_atom_site_fract_x
_atom_site_fract_y
_atom_site_fract_z
Si Si1 0.801685 0.843969 0.138090
Si Si2 0.559281 0.982132 0.173808
Si Si3 0.028279 0.666956 0.167491
Si Si4 0.813318 0.111492 0.707564
Si Si5 0.018366 0.987393 0.612356
Si Si6 0.602852 0.892277 0.520188
Si Si7 0.221345 0.563452 0.824461
O O1 0.591230 0.794063 0.303836
O O2 0.815320 0.641131 0.290906
O O3 0.849365 0.009738 0.878376
O O4 0.000000 0.000000 0.000000
O O5 0.453434 0.039219 0.082147
O O6 0.368490 0.818266 0.472454
O O7 0.803045 0.232396 0.898107
O O8 0.196311 0.899159 0.818130
O O9 0.941887 0.406049 0.403394
O O10 0.918572 0.081528 0.614963
O O11 0.866805 0.682900 0.968287
O O12 0.000000 0.000000 0.500000
O O13 0.276076 0.139539 0.415560
O O14 0.394438 0.638029 0.775501
O O15 0.500000 0.000000 0.500000
O O16 0.000000 0.500000 0.000000
#
# Coordination Sequence:
#
# PCOD9044988 Si02
#       7
#     2   2   2   2   2   2   2
#     4  10  23  48  71 105 139 180 241 285 347 418
#     4  10  24  44  73 104 135 187 235 282 353 416
#     4  10  24  47  71 101 144 182 230 293 348 416
#     4  12  25  45  72 104 144 180 231 292 352 412
#     4  12  27  43  65 108 142 179 239 290 342 426
#     4  11  23  43  72  95 134 192 230 280 361 409
#     4  11  23  45  71  97 141 185 231 290 347 416
#
# _framework density 23.140193
#
# number of rings (size 3 to 8) (size 9 to 14) (size 15 to 20)
#    0.000    1.143    2.857    2.143    4.000    4.571 
#    2.571    0.000    0.000    0.000    0.000    0.000 
#    0.000    0.000    0.000    0.000    0.000    0.000 
#
# Total GULP energy -78342.433879 kJ/mol
# GULP energy per Si atom -5595.888134 kJ/mol
# Density = 2.308753 g / cm^3
# Si number density = 23.140193 Si / 1000 Ang^3
#
#
#
# Elastic Constant Matrix: (Units=GPa)
#
#
# Indices 1 2 3 4 5 6 
#
# 1 200.9477 68.4549 30.7068 -5.9854 -16.3793 11.2391
# 2 68.4549 154.7116 30.4987 -14.3194 -11.9761 -17.8522
# 3 30.7068 30.4987 46.0049 -13.3115 -4.1522 1.5029
# 4 -5.9854 -14.3194 -13.3115 47.6857 5.9570 2.9597
# 5 -16.3793 -11.9761 -4.1522 5.9570 27.6538 -1.2368
# 6 11.2391 -17.8522 1.5029 2.9597 -1.2368 55.2149
#
#
#
# Elastic Compliance Matrix: (Units=1/GPa)
#
#
# Indices 1 2 3 4 5 6 
#
# 1 0.006511 -0.002466 -0.002671 -0.000859 0.002485 -0.001948
# 2 -0.002466 0.008966 -0.004012 0.000820 0.001800 0.003506
# 3 -0.002671 -0.004012 0.028064 0.006484 -0.000587 -0.001878
# 4 -0.000859 0.000820 0.006484 0.023524 -0.004296 -0.001094
# 5 0.002485 0.001800 -0.000587 -0.004296 0.039304 0.001203
# 6 -0.001948 0.003506 -0.001878 -0.001094 0.001203 0.019778
#
#
# Mechanical properties :
#
#
# Convention : Reuss Voigt Hill
#
# Bulk Modulus (GPa) = 39.61812 73.44279 56.53046
# Shear Modulus (GPa) = 32.70981 44.24447 38.47714
#
# Velocity S-wave (km/s) = 3.76380 4.37741 4.08215
# Velocity P-wave (km/s) = 6.00386 7.57338 6.83383
#
# Compressibility (1/GPa) = 0.02524097
#
# Stress axis : x y z
#
# Youngs Moduli (GPa) = 153.59450 111.53736 35.63241
#
# Poissons Ratio (x) = 0.27506 0.09518
# Poissons Ratio (y) = 0.37877 0.14297
# Poissons Ratio (z) = 0.41029 0.44754
#
# Static dielectric constant tensor:
#      x y z
#    x 1.898880 0.034540 0.003350 
#    y 0.034540 1.872670 0.009330 
#    z 0.003350 0.009330 1.861990 
# 
# From -- ./inp_files/503562.got.cif
#   From: 2010.05.17/outbox.cif.g08.bks.cpg/sg2_252_cif.got.tgz:503562.got - 2010.06.03 11:33:40.
