data_PCOD9044102
_publ_section_title
;
Structure prediction by ZEFSAII (Michael W. Deem and Ramdas Pophale) SiO2 
 PCOD9044102
Probable space group: P -1
;
_chemical_formula_sum "Si O2"
_cell_formula_units_Z 16
_cell_length_a 8.501375
_cell_length_b 18.065680
_cell_length_c 5.816356
_cell_angle_alpha 133.392996
_cell_angle_beta 94.746306
_cell_angle_gamma 78.947522
_cell_volume 635.577067
_symmetry_space_group_name_H-M "P -1"
_symmetry_group_IT_number 2
_symmetry_cell_setting 'triclinic'
loop_
_space_group_symop_operation_xyz
x,y,z
-x,-y,-z
loop_
_atom_site_type_symbol
_atom_site_label
_atom_site_fract_x
_atom_site_fract_y
_atom_site_fract_z
Si Si1 0.470741 0.780659 0.373598
Si Si2 0.244722 0.952054 0.484880
Si Si3 0.295879 0.670320 0.444054
Si Si4 0.869879 0.476144 0.183012
Si Si5 0.059191 0.073254 0.349490
Si Si6 0.423843 0.401878 0.342282
Si Si7 0.235443 0.162954 0.205209
Si Si8 0.999677 0.337178 0.312429
O O1 0.400453 0.865749 0.357284
O O2 0.317384 0.756258 0.443760
O O3 0.597757 0.816775 0.634477
O O4 0.556129 0.677517 0.033780
O O5 0.084280 0.906780 0.439125
O O6 0.211905 0.003697 0.343428
O O7 0.256467 0.048887 0.857632
O O8 0.468228 0.647708 0.538270
O O9 0.158685 0.698667 0.679700
O O10 0.250161 0.570787 0.097209
O O11 0.754579 0.550368 0.506538
O O12 0.962535 0.380897 0.144506
O O13 0.975866 0.562503 0.316104
O O14 0.114447 0.165493 0.414086
O O15 0.000000 0.000000 0.000000
O O16 0.500000 0.500000 0.500000
O O17 0.150040 0.245998 0.185846
#
# Coordination Sequence:
#
# PCOD9044102 Si02
#       8
#     2   2   2   2   2   2   2   2
#     4  12  27  43  70 102 137 182 227 277 342 401
#     4  10  23  46  70 100 136 177 226 277 330 407
#     4  12  24  43  71  95 136 178 226 278 342 404
#     4  11  25  45  67  97 137 177 230 281 339 403
#     4   9  21  42  71  96 138 172 222 276 335 393
#     4  12  25  44  65  99 137 178 227 277 337 405
#     4  11  25  43  67 102 137 178 225 277 337 400
#     4  11  25  42  68 100 131 175 230 283 337 398
#
# _framework density 25.173973
#
# number of rings (size 3 to 8) (size 9 to 14) (size 15 to 20)
#    0.000    1.000    2.500    2.625    1.750   13.500 
#    0.000    0.000    0.000    0.000    0.000    0.000 
#    0.000    0.000    0.000    0.000    0.000    0.000 
#
# Total GULP energy -89599.997448 kJ/mol
# GULP energy per Si atom -5599.999840 kJ/mol
# Density = 2.511668 g / cm^3
# Si number density = 25.173973 Si / 1000 Ang^3
#
#
#
# Elastic Constant Matrix: (Units=GPa)
#
#
# Indices 1 2 3 4 5 6 
#
# 1 88.2011 18.3430 17.3692 11.3205 22.5915 -1.8897
# 2 18.3430 95.1346 3.4080 12.1178 8.0332 -11.9075
# 3 17.3692 3.4080 92.3364 12.6003 15.2190 3.5317
# 4 11.3205 12.1178 12.6003 26.2266 -7.7003 4.6302
# 5 22.5915 8.0332 15.2190 -7.7003 27.7872 5.2298
# 6 -1.8897 -11.9075 3.5317 4.6302 5.2298 41.9523
#
#
#
# Elastic Compliance Matrix: (Units=1/GPa)
#
#
# Indices 1 2 3 4 5 6 
#
# 1 0.018892 0.001179 0.002368 -0.017602 -0.022965 0.005792
# 2 0.001179 0.013457 0.002483 -0.012209 -0.010788 0.006356
# 3 0.002368 0.002483 0.014605 -0.014167 -0.015139 0.003033
# 4 -0.017602 -0.012209 -0.014167 0.075970 0.049980 -0.017681
# 5 -0.022965 -0.010788 -0.015139 0.049980 0.083447 -0.018741
# 6 0.005792 0.006356 0.003033 -0.017681 -0.018741 0.029934
#
#
# Mechanical properties :
#
#
# Convention : Reuss Voigt Hill
#
# Bulk Modulus (GPa) = 16.94523 39.32363 28.13443
# Shear Modulus (GPa) = 20.49884 34.96334 27.73109
#
# Velocity S-wave (km/s) = 2.85667 3.73080 3.32260
# Velocity P-wave (km/s) = 4.19840 5.84920 5.09115
#
# Compressibility (1/GPa) = 0.05901365
#
# Stress axis : x y z
#
# Youngs Moduli (GPa) = 52.93320 74.31214 68.46832
#
# Poissons Ratio (x) = -0.08760 -0.16217
# Poissons Ratio (y) = -0.06240 -0.16998
# Poissons Ratio (z) = -0.12537 -0.18448
#
# Static dielectric constant tensor:
#      x y z
#    x 2.121010 0.114100 -0.004770 
#    y 0.114100 2.231830 -0.082490 
#    z -0.004770 -0.082490 2.000280 
# 
# From -- ./inp_files/49396.got.cif
#   From: 2010.05.17/outbox.cif.g08.bks.cpg/sg2_25_cif.got.tgz:49396.got - 2010.06.03 11:33:40.
