data_PCOD9044635
_publ_section_title
;
Structure prediction by ZEFSAII (Michael W. Deem and Ramdas Pophale) SiO2 
 PCOD9044635
Probable space group: P -1
;
_chemical_formula_sum "Si O2"
_cell_formula_units_Z 14
_cell_length_a 14.225412
_cell_length_b 14.349436
_cell_length_c 7.957515
_cell_angle_alpha 116.479425
_cell_angle_beta 79.760302
_cell_angle_gamma 151.514119
_cell_volume 599.905881
_symmetry_space_group_name_H-M "P -1"
_symmetry_group_IT_number 2
_symmetry_cell_setting 'triclinic'
loop_
_space_group_symop_operation_xyz
x,y,z
-x,-y,-z
loop_
_atom_site_type_symbol
_atom_site_label
_atom_site_fract_x
_atom_site_fract_y
_atom_site_fract_z
Si Si1 0.942054 0.670700 0.302606
Si Si2 0.321995 0.197840 0.472580
Si Si3 0.760341 0.555760 0.787644
Si Si4 0.664516 0.573339 0.178945
Si Si5 0.827395 0.922926 0.955317
Si Si6 0.156026 0.723428 0.506955
Si Si7 0.670592 0.269818 0.797929
O O1 0.763403 0.589481 0.296407
O O2 0.016381 0.685296 0.457685
O O3 0.824597 0.470360 0.056298
O O4 0.164036 0.944735 0.371034
O O5 0.582155 0.425015 0.607809
O O6 0.268526 0.244620 0.643783
O O7 0.271275 0.179464 0.283786
O O8 0.680048 0.364185 0.720697
O O9 0.752124 0.619391 0.009914
O O10 0.021826 0.824592 0.869200
O O11 0.392512 0.297057 0.035580
O O12 0.000000 0.000000 0.000000
O O13 0.223763 0.728063 0.317761
O O14 0.000000 0.500000 0.500000
O O15 0.408364 0.997467 0.719436
#
# Coordination Sequence:
#
# PCOD9044635 Si02
#       7
#     2   2   2   2   2   2   2
#     4  11  24  45  70  99 138 180 216 276 343 397
#     4  12  23  45  67  98 141 184 219 270 337 394
#     4  11  24  45  69  97 139 181 225 278 333 397
#     4  11  25  43  67 102 138 183 229 272 328 399
#     4  12  26  42  64  99 138 182 230 277 321 393
#     4  11  25  46  73 100 128 172 225 284 339 399
#     4  10  23  47  69  99 134 172 222 278 342 399
#
# _framework density 23.336994000000001
#
# number of rings (size 3 to 8) (size 9 to 14) (size 15 to 20)
#    0.000    0.857    5.714    1.714    0.000    4.000 
#    0.000    0.000    0.000    0.000    0.000    0.000 
#    0.000    0.000    0.000    0.000    0.000    0.000 
#
# Total GULP energy -78389.796842 kJ/mol
# GULP energy per Si atom -5599.271203 kJ/mol
# Density = 2.328388 g / cm^3
# Si number density = 23.336994 Si / 1000 Ang^3
#
#
#
# Elastic Constant Matrix: (Units=GPa)
#
#
# Indices 1 2 3 4 5 6 
#
# 1 90.0514 22.2979 39.6216 -5.7101 30.9994 -11.0572
# 2 22.2979 99.1281 47.2197 28.2290 7.7576 -9.5454
# 3 39.6216 47.2197 141.1543 12.3781 3.7139 3.9366
# 4 -5.7101 28.2290 12.3781 44.4581 -2.7508 7.5665
# 5 30.9994 7.7576 3.7139 -2.7508 42.0850 3.0963
# 6 -11.0572 -9.5454 3.9366 7.5665 3.0963 32.3615
#
#
#
# Elastic Compliance Matrix: (Units=1/GPa)
#
#
# Indices 1 2 3 4 5 6 
#
# 1 0.019685 -0.000570 -0.005368 0.002118 -0.014378 0.008091
# 2 -0.000570 0.016556 -0.004555 -0.010921 -0.003543 0.008135
# 3 -0.005368 -0.004555 0.010096 0.000497 0.004298 -0.004933
# 4 0.002118 -0.010921 0.000497 0.031502 0.003221 -0.010232
# 5 -0.014378 -0.003543 0.004298 0.003221 0.035619 -0.010642
# 6 0.008091 0.008135 -0.004933 -0.010232 -0.010642 0.040076
#
#
# Mechanical properties :
#
#
# Convention : Reuss Voigt Hill
#
# Bulk Modulus (GPa) = 39.44363 60.95691 50.20027
# Shear Modulus (GPa) = 27.32690 38.52723 32.92707
#
# Velocity S-wave (km/s) = 3.42566 4.06754 3.76032
# Velocity P-wave (km/s) = 5.70835 6.94528 6.35697
#
# Compressibility (1/GPa) = 0.02535264
#
# Stress axis : x y z
#
# Youngs Moduli (GPa) = 50.80011 60.39940 99.05157
#
# Poissons Ratio (x) = 0.03441 0.53171
# Poissons Ratio (y) = 0.02894 0.45114
# Poissons Ratio (z) = 0.27270 0.27509
#
# Static dielectric constant tensor:
#      x y z
#    x 1.908110 -0.011090 -0.016280 
#    y -0.011090 1.891230 0.011840 
#    z -0.016280 0.011840 1.861820 
# 
# From -- ./inp_files/313853.got.cif
#   From: 2010.05.17/outbox.cif.g08.bks.cpg/sg2_157_cif.got.tgz:313853.got - 2010.06.03 11:33:40.
