data_PCOD9044999
_publ_section_title
;
Structure prediction by ZEFSAII (Michael W. Deem and Ramdas Pophale) SiO2 
 PCOD9044999
Probable space group: P -1
;
_chemical_formula_sum "Si O2"
_cell_formula_units_Z 14
_cell_length_a 12.061041
_cell_length_b 8.520610
_cell_length_c 5.393350
_cell_angle_alpha 72.492212
_cell_angle_beta 95.945041
_cell_angle_gamma 97.902718
_cell_volume 522.428452
_symmetry_space_group_name_H-M "P -1"
_symmetry_group_IT_number 2
_symmetry_cell_setting 'triclinic'
loop_
_space_group_symop_operation_xyz
x,y,z
-x,-y,-z
loop_
_atom_site_type_symbol
_atom_site_label
_atom_site_fract_x
_atom_site_fract_y
_atom_site_fract_z
Si Si1 0.499295 0.628915 0.712207
Si Si2 0.225118 0.986115 0.464703
Si Si3 0.035515 0.720984 0.680364
Si Si4 0.710849 0.306308 0.689298
Si Si5 0.569237 0.118889 0.143238
Si Si6 0.268592 0.339903 0.496400
Si Si7 0.896917 0.637270 0.182069
O O1 0.375867 0.653633 0.566560
O O2 0.597032 0.622822 0.534945
O O3 0.500000 0.500000 0.000000
O O4 0.524852 0.809776 0.750801
O O5 0.115996 0.892005 0.616712
O O6 0.234893 0.860403 0.291919
O O7 0.224777 0.183372 0.390947
O O8 0.335933 0.963633 0.656386
O O9 0.106683 0.561811 0.759259
O O10 0.967594 0.699766 0.415574
O O11 0.964508 0.707917 0.923500
O O12 0.636106 0.263504 0.930882
O O13 0.779016 0.485403 0.668772
O O14 0.500000 0.000000 0.000000
O O15 0.225086 0.314069 0.781835
#
# Coordination Sequence:
#
# PCOD9044999 Si02
#       7
#     2   2   2   2   2   2   2
#     4  11  24  41  66 101 139 184 237 289 350 435
#     4  11  26  43  71 104 141 184 243 296 364 434
#     4  10  23  48  72 106 143 190 240 308 372 436
#     4  11  24  45  66  98 144 186 232 291 362 433
#     4  11  24  43  68  99 142 191 232 294 358 430
#     4  12  24  44  71 104 135 191 238 299 359 434
#     4  10  24  45  77 102 143 190 245 302 374 437
#
# _framework density 26.797927000000001
#
# number of rings (size 3 to 8) (size 9 to 14) (size 15 to 20)
#    0.000    1.143    2.857    2.143    4.000    5.714 
#    2.571    0.000    0.000    0.000    0.000    0.000 
#    0.000    0.000    0.000    0.000    0.000    0.000 
#
# Total GULP energy -78267.474940 kJ/mol
# GULP energy per Si atom -5590.533924 kJ/mol
# Density = 2.673693 g / cm^3
# Si number density = 26.797927 Si / 1000 Ang^3
#
#
#
# Elastic Constant Matrix: (Units=GPa)
#
#
# Indices 1 2 3 4 5 6 
#
# 1 124.8205 43.9837 63.1315 3.1984 -38.4246 -8.2395
# 2 43.9837 191.4136 31.8712 8.7286 -24.7853 5.5071
# 3 63.1315 31.8712 140.5980 -0.0025 -27.4332 -3.4848
# 4 3.1984 8.7286 -0.0025 33.3722 -3.2225 -21.2081
# 5 -38.4246 -24.7853 -27.4332 -3.2225 54.0042 1.1395
# 6 -8.2395 5.5071 -3.4848 -21.2081 1.1395 48.4967
#
#
#
# Elastic Compliance Matrix: (Units=1/GPa)
#
#
# Indices 1 2 3 4 5 6 
#
# 1 0.012669 -0.001560 -0.004050 0.001386 0.006271 0.002497
# 2 -0.001560 0.006014 -0.000463 -0.002688 0.001301 -0.002187
# 3 -0.004050 -0.000463 0.009381 0.000935 0.001719 0.000407
# 4 0.001386 -0.002688 0.000935 0.043093 0.002390 0.019397
# 5 0.006271 0.001301 0.001719 0.002390 0.024560 0.001509
# 6 0.002497 -0.002187 0.000407 0.019397 0.001509 0.029769
#
#
# Mechanical properties :
#
#
# Convention : Reuss Voigt Hill
#
# Bulk Modulus (GPa) = 62.81903 81.64499 72.23201
# Shear Modulus (GPa) = 34.98033 48.36432 41.67232
#
# Velocity S-wave (km/s) = 3.61686 4.25288 3.94770
# Velocity P-wave (km/s) = 6.39804 7.39250 6.91317
#
# Compressibility (1/GPa) = 0.01591874
#
# Stress axis : x y z
#
# Youngs Moduli (GPa) = 78.93116 166.28503 106.59494
#
# Poissons Ratio (x) = 0.25939 0.43167
# Poissons Ratio (y) = 0.12313 0.04938
# Poissons Ratio (z) = 0.31964 0.07704
#
# Static dielectric constant tensor:
#      x y z
#    x 2.102380 -0.036040 0.012330 
#    y -0.036040 2.171830 0.010120 
#    z 0.012330 0.010120 2.140950 
# 
# From -- ./inp_files/60425.got.cif
#   From: 2010.05.17/outbox.cif.g08.bks.cpg/sg2_31_cif.got.tgz:60425.got - 2010.06.03 11:33:40.
