data_PCOD9044196
_publ_section_title
;
Structure prediction by ZEFSAII (Michael W. Deem and Ramdas Pophale) SiO2 
 PCOD9044196
Probable space group: P -1
;
_chemical_formula_sum "Si O2"
_cell_formula_units_Z 14
_cell_length_a 5.521678
_cell_length_b 9.388441
_cell_length_c 17.719192
_cell_angle_alpha 52.245558
_cell_angle_beta 99.718461
_cell_angle_gamma 125.655371
_cell_volume 564.248391
_symmetry_space_group_name_H-M "P -1"
_symmetry_group_IT_number 2
_symmetry_cell_setting 'triclinic'
loop_
_space_group_symop_operation_xyz
x,y,z
-x,-y,-z
loop_
_atom_site_type_symbol
_atom_site_label
_atom_site_fract_x
_atom_site_fract_y
_atom_site_fract_z
Si Si1 0.235916 0.782402 0.811422
Si Si2 0.425007 0.270010 0.034932
Si Si3 0.834712 0.888715 0.219136
Si Si4 0.396314 0.541813 0.558748
Si Si5 0.822108 0.812584 0.627829
Si Si6 0.446750 0.958739 0.392228
Si Si7 0.623405 0.394981 0.837662
O O1 0.312876 0.735852 0.911487
O O2 0.535723 0.947924 0.720795
O O3 0.985645 0.541795 0.834268
O O4 0.126564 0.935483 0.774793
O O5 0.500000 0.500000 0.000000
O O6 0.439267 0.280250 0.942333
O O7 0.107175 0.042257 0.123573
O O8 0.810420 0.689502 0.327916
O O9 0.518576 0.767465 0.190327
O O10 0.500000 0.500000 0.500000
O O11 0.697054 0.701943 0.575680
O O12 0.286967 0.695210 0.484623
O O13 0.715054 0.966337 0.589051
O O14 0.622182 0.602033 0.744147
O O15 0.181914 0.915109 0.618655
#
# Coordination Sequence:
#
# PCOD9044196 Si02
#       7
#     2   2   2   2   2   2   2
#     4  11  24  44  71 101 144 187 242 297 363 441
#     4  12  24  44  72  98 140 190 237 303 368 434
#     4  11  25  47  66 108 140 182 251 296 363 445
#     4  11  23  45  70 104 146 186 237 308 367 427
#     4  10  24  46  73 107 141 193 248 294 364 450
#     4  11  23  46  74 101 148 195 242 297 366 437
#     4  10  23  46  71 102 145 187 238 300 369 427
#
# _framework density 24.811769999999999
#
# number of rings (size 3 to 8) (size 9 to 14) (size 15 to 20)
#    0.000    1.143    2.857    2.571    2.000    0.571 
#   20.571    3.571    0.000    0.000    0.000    0.000 
#    0.000    0.000    0.000    0.000    0.000    0.000 
#
# Total GULP energy -78258.617367 kJ/mol
# GULP energy per Si atom -5589.901240 kJ/mol
# Density = 2.475530 g / cm^3
# Si number density = 24.811770 Si / 1000 Ang^3
#
#
#
# Elastic Constant Matrix: (Units=GPa)
#
#
# Indices 1 2 3 4 5 6 
#
# 1 95.4754 46.3861 34.4816 -13.2296 -10.5895 -2.6689
# 2 46.3861 118.0704 38.8291 14.4918 -5.6807 9.8125
# 3 34.4816 38.8291 190.1831 2.2919 -27.5981 -9.9863
# 4 -13.2296 14.4918 2.2919 44.9912 -5.9865 -3.4022
# 5 -10.5895 -5.6807 -27.5981 -5.9865 37.1933 -12.3275
# 6 -2.6689 9.8125 -9.9863 -3.4022 -12.3275 35.9103
#
#
#
# Elastic Compliance Matrix: (Units=1/GPa)
#
#
# Indices 1 2 3 4 5 6 
#
# 1 0.016418 -0.007668 -0.000172 0.008717 0.006924 0.006470
# 2 -0.007668 0.013656 -0.002558 -0.007887 -0.005838 -0.007764
# 3 -0.000172 -0.002558 0.007041 0.001701 0.006757 0.005125
# 4 0.008717 -0.007887 0.001701 0.029366 0.010465 0.009651
# 5 0.006924 -0.005838 0.006757 0.010465 0.040978 0.019047
# 6 0.006470 -0.007764 0.005125 0.009651 0.019047 0.039328
#
#
# Mechanical properties :
#
#
# Convention : Reuss Voigt Hill
#
# Bulk Modulus (GPa) = 61.27712 71.45803 66.36758
# Shear Modulus (GPa) = 28.89837 42.55445 35.72641
#
# Velocity S-wave (km/s) = 3.41648 4.14586 3.79872
# Velocity P-wave (km/s) = 6.34929 7.19584 6.78578
#
# Compressibility (1/GPa) = 0.01631930
#
# Stress axis : x y z
#
# Youngs Moduli (GPa) = 60.90821 73.23010 142.03482
#
# Poissons Ratio (x) = 0.56155 0.02439
# Poissons Ratio (y) = 0.46706 0.36326
# Poissons Ratio (z) = 0.01046 0.18729
#
# Static dielectric constant tensor:
#      x y z
#    x 1.976690 0.073500 0.026750 
#    y 0.073500 1.965280 -0.007550 
#    z 0.026750 -0.007550 2.035440 
# 
# From -- ./inp_files/547802.got.cif
#   From: 2010.05.17/outbox.cif.g08.bks.cpg/sg2_274_cif.got.tgz:547802.got - 2010.06.03 11:33:40.
