data_PCOD9044026
_publ_section_title
;
Structure prediction by ZEFSAII (Michael W. Deem and Ramdas Pophale) SiO2 
 PCOD9044026
Probable space group: P -1
;
_chemical_formula_sum "Si O2"
_cell_formula_units_Z 14
_cell_length_a 9.493526
_cell_length_b 20.129680
_cell_length_c 5.229798
_cell_angle_alpha 120.503205
_cell_angle_beta 76.035498
_cell_angle_gamma 136.570340
_cell_volume 578.144457
_symmetry_space_group_name_H-M "P -1"
_symmetry_group_IT_number 2
_symmetry_cell_setting 'triclinic'
loop_
_space_group_symop_operation_xyz
x,y,z
-x,-y,-z
loop_
_atom_site_type_symbol
_atom_site_label
_atom_site_fract_x
_atom_site_fract_y
_atom_site_fract_z
Si Si1 0.672435 0.685073 0.307925
Si Si2 0.477677 0.747165 0.742136
Si Si3 0.950188 0.058229 0.312200
Si Si4 0.030058 0.562771 0.360947
Si Si5 0.446002 0.143368 0.563749
Si Si6 0.334835 0.472535 0.713250
Si Si7 0.360627 0.933241 0.683222
O O1 0.565414 0.694773 0.594580
O O2 0.739613 0.626151 0.261083
O O3 0.857679 0.816048 0.402628
O O4 0.474795 0.590179 0.027525
O O5 0.264785 0.676279 0.541074
O O6 0.606705 0.850323 0.687908
O O7 0.479216 0.769983 0.079042
O O8 0.833806 0.083544 0.257779
O O9 0.776972 0.969904 0.432362
O O10 0.000000 0.000000 0.000000
O O11 0.000000 0.500000 0.500000
O O12 0.862618 0.566445 0.416793
O O13 0.000000 0.500000 0.000000
O O14 0.643735 0.160279 0.504252
O O15 0.500000 0.500000 0.500000
O O16 0.500000 0.000000 0.500000
O O17 0.500000 0.000000 0.000000
#
# Coordination Sequence:
#
# PCOD9044026 Si02
#       7
#     2   2   2   2   2   2   2
#     4  11  26  47  74 107 157 198 253 319 390 447
#     4  12  25  46  77 112 153 202 251 317 387 455
#     4  11  24  47  75 112 151 204 255 310 387 461
#     4  12  26  48  82 111 148 203 262 318 384 455
#     4  11  25  46  74 109 155 197 252 312 377 466
#     4  11  27  50  75 112 154 197 261 323 390 457
#     4  10  23  46  68  99 150 196 245 306 363 447
#
# _framework density 24.215399000000001
#
# number of rings (size 3 to 8) (size 9 to 14) (size 15 to 20)
#    0.000    0.857    2.857    3.429    6.000    1.714 
#   10.286    0.000    0.000    0.000    0.000    0.000 
#    0.000    0.000    0.000    0.000    0.000    0.000 
#
# Total GULP energy -78034.349509 kJ/mol
# GULP energy per Si atom -5573.882108 kJ/mol
# Density = 2.416028 g / cm^3
# Si number density = 24.215399 Si / 1000 Ang^3
#
#
#
# Elastic Constant Matrix: (Units=GPa)
#
#
# Indices 1 2 3 4 5 6 
#
# 1 148.9589 14.9889 13.2759 10.6937 -3.5175 1.0422
# 2 14.9889 75.7581 -7.5526 15.7334 0.3011 -6.1517
# 3 13.2759 -7.5526 103.7448 7.9237 -18.2863 3.5416
# 4 10.6937 15.7334 7.9237 45.6122 0.7702 11.6285
# 5 -3.5175 0.3011 -18.2863 0.7702 47.9266 2.4744
# 6 1.0422 -6.1517 3.5416 11.6285 2.4744 40.2713
#
#
#
# Elastic Compliance Matrix: (Units=1/GPa)
#
#
# Indices 1 2 3 4 5 6 
#
# 1 0.006998 -0.001252 -0.000869 -0.001061 0.000207 -0.000002
# 2 -0.001252 0.015243 0.001674 -0.006282 0.000345 0.004007
# 3 -0.000869 0.001674 0.010773 -0.002245 0.004086 -0.000272
# 4 -0.001061 -0.006282 -0.002245 0.026898 -0.000891 -0.008447
# 5 0.000207 0.000345 0.004086 -0.000891 0.022526 -0.001439
# 6 -0.000002 0.004007 -0.000272 -0.008447 -0.001439 0.027995
#
#
# Mechanical properties :
#
#
# Convention : Reuss Voigt Hill
#
# Bulk Modulus (GPa) = 31.13349 41.09847 36.11598
# Shear Modulus (GPa) = 40.97213 47.27867 44.12540
#
# Velocity S-wave (km/s) = 4.11784 4.42342 4.27336
# Velocity P-wave (km/s) = 5.95765 6.56488 6.26862
#
# Compressibility (1/GPa) = 0.03211975
#
# Stress axis : x y z
#
# Youngs Moduli (GPa) = 142.90335 65.60315 92.82390
#
# Poissons Ratio (x) = 0.08213 0.08067
# Poissons Ratio (y) = 0.17890 -0.15537
# Poissons Ratio (z) = 0.12419 -0.10981
#
# Static dielectric constant tensor:
#      x y z
#    x 1.959110 0.017610 0.028130 
#    y 0.017610 1.343230 -0.071200 
#    z 0.028130 -0.071200 1.721180 
# 
# From -- ./inp_files/53727.got.cif
#   From: 2010.05.17/outbox.cif.g08.bks.cpg/sg2_27_cif.got.tgz:53727.got - 2010.06.03 11:33:40.
