data_PCOD9044904
_publ_section_title
;
Structure prediction by ZEFSAII (Michael W. Deem and Ramdas Pophale) SiO2 
 PCOD9044904
Probable space group: P -1
;
_chemical_formula_sum "Si O2"
_cell_formula_units_Z 15
_cell_length_a 10.953663
_cell_length_b 11.629584
_cell_length_c 10.023396
_cell_angle_alpha 73.561573
_cell_angle_beta 80.560742
_cell_angle_gamma 141.636423
_cell_volume 578.750131
_symmetry_space_group_name_H-M "P -1"
_symmetry_group_IT_number 2
_symmetry_cell_setting 'triclinic'
loop_
_space_group_symop_operation_xyz
x,y,z
-x,-y,-z
loop_
_atom_site_type_symbol
_atom_site_label
_atom_site_fract_x
_atom_site_fract_y
_atom_site_fract_z
Si Si1 0.727626 0.334254 0.869549
Si Si2 0.000000 0.500000 0.500000
Si Si3 0.896883 0.859407 0.427004
Si Si4 0.521160 0.358196 0.758211
Si Si5 0.615583 0.995348 0.577042
Si Si6 0.778607 0.002073 0.287568
Si Si7 0.922010 0.561977 0.097675
Si Si8 0.160587 0.927510 0.143995
O O1 0.731517 0.481021 0.783345
O O2 0.908663 0.413563 0.911074
O O3 0.808498 0.345978 0.712073
O O4 0.626541 0.275766 0.221701
O O5 0.182145 0.762620 0.448960
O O6 0.622277 0.567283 0.612296
O O7 0.884977 0.958451 0.293450
O O8 0.064729 0.899687 0.309533
O O9 0.000000 0.000000 0.500000
O O10 0.477927 0.232943 0.680453
O O11 0.256266 0.118768 0.967547
O O12 0.575687 0.926445 0.956088
O O13 0.500000 0.000000 0.500000
O O14 0.722197 0.994039 0.449417
O O15 0.952072 0.246079 0.099384
O O16 0.946646 0.665052 0.194246
#
# Coordination Sequence:
#
# PCOD9044904 Si02
#       8
#     2   1   2   2   2   2   2   2
#     4  10  23  47  80 115 159 209 264 327 408 476
#     4  12  26  48  82 112 170 204 258 328 402 492
#     4  12  27  47  76 108 159 217 276 332 395 474
#     4   9  23  47  77 111 156 212 267 335 391 471
#     4  12  27  50  79 117 160 211 258 329 408 484
#     4  11  27  49  75 118 157 204 275 330 399 475
#     4  11  24  49  81 116 161 205 262 336 402 488
#     4   9  24  45  77 117 151 214 268 328 400 473
#
# _framework density 25.917919999999999
#
# number of rings (size 3 to 8) (size 9 to 14) (size 15 to 20)
#    0.800    0.533    1.333    2.400    3.733    4.267 
#    4.800    3.333    0.000    0.000    0.000    0.000 
#    0.000    0.000    0.000    0.000    0.000    0.000 
#
# Total GULP energy -83607.158115 kJ/mol
# GULP energy per Si atom -5573.810541 kJ/mol
# Density = 2.585893 g / cm^3
# Si number density = 25.917920 Si / 1000 Ang^3
#
#
#
# Elastic Constant Matrix: (Units=GPa)
#
#
# Indices 1 2 3 4 5 6 
#
# 1 115.9000 42.7652 53.5224 -4.4976 23.6958 -5.9302
# 2 42.7652 218.0366 84.8930 -11.8927 -6.1423 -11.7926
# 3 53.5224 84.8930 114.4696 5.1963 -6.7105 -12.0789
# 4 -4.4976 -11.8927 5.1963 59.5187 -13.1281 7.1950
# 5 23.6958 -6.1423 -6.7105 -13.1281 50.4455 1.8994
# 6 -5.9302 -11.7926 -12.0789 7.1950 1.8994 32.3367
#
#
#
# Elastic Compliance Matrix: (Units=1/GPa)
#
#
# Indices 1 2 3 4 5 6 
#
# 1 0.013094 -0.000319 -0.006252 -0.000136 -0.007071 0.000395
# 2 -0.000319 0.006655 -0.004814 0.001892 0.000808 0.000102
# 3 -0.006252 -0.004814 0.015911 -0.002410 0.003714 0.003359
# 4 -0.000136 0.001892 -0.002410 0.019087 0.005121 -0.004783
# 5 -0.007071 0.000808 0.003714 0.005121 0.025154 -0.002232
# 6 0.000395 0.000102 0.003359 -0.004783 -0.002232 0.033484
#
#
# Mechanical properties :
#
#
# Convention : Reuss Voigt Hill
#
# Bulk Modulus (GPa) = 77.58514 90.08526 83.83520
# Shear Modulus (GPa) = 35.59925 46.27520 40.93723
#
# Velocity S-wave (km/s) = 3.71015 4.23005 3.97860
# Velocity P-wave (km/s) = 6.95367 7.66101 7.31589
#
# Compressibility (1/GPa) = 0.01288907
#
# Stress axis : x y z
#
# Youngs Moduli (GPa) = 76.37162 150.26931 62.84972
#
# Poissons Ratio (x) = 0.04795 0.39296
# Poissons Ratio (y) = 0.02437 0.30255
# Poissons Ratio (z) = 0.47750 0.72337
#
# Static dielectric constant tensor:
#      x y z
#    x 2.216100 0.034240 0.082700 
#    y 0.034240 2.073950 0.040200 
#    z 0.082700 0.040200 2.045720 
# 
# From -- ./inp_files/258062.got.cif
#   From: 2010.05.17/outbox.cif.g08.bks.cpg/sg2_130_cif.got.tgz:258062.got - 2010.06.03 11:33:40.
