data_PCOD9044561
_publ_section_title
;
Structure prediction by ZEFSAII (Michael W. Deem and Ramdas Pophale) SiO2 
 PCOD9044561
Probable space group: P -1
;
_chemical_formula_sum "Si O2"
_cell_formula_units_Z 16
_cell_length_a 29.863434
_cell_length_b 16.014294
_cell_length_c 9.590350
_cell_angle_alpha 140.758840
_cell_angle_beta 144.684901
_cell_angle_gamma 14.983916
_cell_volume 682.589612
_symmetry_space_group_name_H-M "P -1"
_symmetry_group_IT_number 2
_symmetry_cell_setting 'triclinic'
loop_
_space_group_symop_operation_xyz
x,y,z
-x,-y,-z
loop_
_atom_site_type_symbol
_atom_site_label
_atom_site_fract_x
_atom_site_fract_y
_atom_site_fract_z
Si Si1 0.069717 0.761443 0.784466
Si Si2 0.617459 0.663879 0.515061
Si Si3 0.214984 0.982146 0.775297
Si Si4 0.787636 0.806172 0.170153
Si Si5 0.610839 0.704941 0.235392
Si Si6 0.931323 0.315247 0.024134
Si Si7 0.300024 0.856066 0.389220
Si Si8 0.396057 0.763244 0.217346
O O1 0.236898 0.532099 0.806177
O O2 0.132766 0.573996 0.834220
O O3 0.911249 0.931529 0.510157
O O4 0.000000 0.000000 0.000000
O O5 0.679759 0.559160 0.376760
O O6 0.498141 0.726581 0.352115
O O7 0.479976 0.005963 0.616468
O O8 0.804348 0.400030 0.741028
O O9 0.435816 0.606105 0.815208
O O10 0.161317 0.206236 0.862533
O O11 0.227152 0.971649 0.959568
O O12 0.889306 0.513276 0.087540
O O13 0.810310 0.883131 0.442450
O O14 0.565357 0.116206 0.009724
O O15 0.159879 0.950840 0.128589
O O16 0.500000 0.500000 0.500000
O O17 0.329190 0.893701 0.371730
#
# Coordination Sequence:
#
# PCOD9044561 Si02
#       8
#     2   2   2   2   2   2   2   2
#     4  12  27  45  67 104 142 183 234 294 348 413
#     4  10  23  47  67 103 140 181 238 283 350 418
#     4  11  24  45  66  98 139 180 234 289 341 421
#     4  11  23  45  67  98 140 183 231 286 344 415
#     4  10  25  43  71  97 142 188 226 294 349 408
#     4  11  26  42  69 103 141 183 231 285 352 418
#     4  12  25  42  69 103 139 177 228 288 355 413
#     4  11  24  43  70  99 133 186 233 284 351 414
#
# _framework density 23.440145000000001
#
# number of rings (size 3 to 8) (size 9 to 14) (size 15 to 20)
#    0.000    1.000    3.750    1.125    8.750    1.000 
#    0.000    2.500    0.000    0.000    0.000    0.000 
#    0.000    0.000    0.000    0.000    0.000    0.000 
#
# Total GULP energy -89498.800057 kJ/mol
# GULP energy per Si atom -5593.675004 kJ/mol
# Density = 2.338679 g / cm^3
# Si number density = 23.440145 Si / 1000 Ang^3
#
#
#
# Elastic Constant Matrix: (Units=GPa)
#
#
# Indices 1 2 3 4 5 6 
#
# 1 141.8167 35.2250 54.7146 -10.0368 -8.6031 -1.8985
# 2 35.2250 50.5118 30.1180 -9.0395 0.2247 -5.8152
# 3 54.7146 30.1180 155.0211 -38.4461 -3.4718 0.2343
# 4 -10.0368 -9.0395 -38.4461 34.1927 8.8353 5.1464
# 5 -8.6031 0.2247 -3.4718 8.8353 40.6080 3.9166
# 6 -1.8985 -5.8152 0.2343 5.1464 3.9166 37.9566
#
#
#
# Elastic Compliance Matrix: (Units=1/GPa)
#
#
# Indices 1 2 3 4 5 6 
#
# 1 0.009446 -0.005366 -0.002833 -0.002398 0.002334 -0.000248
# 2 -0.005366 0.025957 -0.002607 0.002423 -0.002382 0.003642
# 3 -0.002833 -0.002607 0.010728 0.011338 -0.001948 -0.001944
# 4 -0.002398 0.002423 0.011338 0.044972 -0.008854 -0.005003
# 5 0.002334 -0.002382 -0.001948 -0.008854 0.027070 -0.001829
# 6 -0.000248 0.003642 -0.001944 -0.005003 -0.001829 0.027770
#
#
# Mechanical properties :
#
#
# Convention : Reuss Voigt Hill
#
# Bulk Modulus (GPa) = 40.78450 65.27388 53.02919
# Shear Modulus (GPa) = 28.45283 37.70426 33.07854
#
# Velocity S-wave (km/s) = 3.48782 4.01500 3.76066
# Velocity P-wave (km/s) = 5.80147 7.02860 6.44431
#
# Compressibility (1/GPa) = 0.02451912
#
# Stress axis : x y z
#
# Youngs Moduli (GPa) = 105.86625 38.52488 93.20968
#
# Poissons Ratio (x) = 0.20672 0.26410
# Poissons Ratio (y) = 0.56805 0.24301
# Poissons Ratio (z) = 0.29996 0.10044
#
# Static dielectric constant tensor:
#      x y z
#    x 1.889930 0.041990 -0.013920 
#    y 0.041990 1.917650 0.019290 
#    z -0.013920 0.019290 1.936540 
# 
# From -- ./inp_files/357443.got.cif
#   From: 2010.05.17/outbox.cif.g08.bks.cpg/sg2_179_cif.got.tgz:357443.got - 2010.06.03 11:33:40.
