data_PCOD9044181
_publ_section_title
;
Structure prediction by ZEFSAII (Michael W. Deem and Ramdas Pophale) SiO2 
 PCOD9044181
Probable space group: P -1
;
_chemical_formula_sum "Si O2"
_cell_formula_units_Z 16
_cell_length_a 16.481822
_cell_length_b 11.569542
_cell_length_c 8.840803
_cell_angle_alpha 51.329505
_cell_angle_beta 48.779578
_cell_angle_gamma 34.383334
_cell_volume 702.953874
_symmetry_space_group_name_H-M "P -1"
_symmetry_group_IT_number 2
_symmetry_cell_setting 'triclinic'
loop_
_space_group_symop_operation_xyz
x,y,z
-x,-y,-z
loop_
_atom_site_type_symbol
_atom_site_label
_atom_site_fract_x
_atom_site_fract_y
_atom_site_fract_z
Si Si1 0.648583 0.038987 0.022400
Si Si2 0.891695 0.338967 0.570472
Si Si3 0.329533 0.237224 0.337265
Si Si4 0.170194 0.646868 0.703881
Si Si5 0.808623 0.929183 0.402293
Si Si6 0.670957 0.770798 0.002226
Si Si7 0.628061 0.272530 0.595207
Si Si8 0.883761 0.004470 0.950285
O O1 0.577430 0.225937 0.838591
O O2 0.756048 0.030569 0.002529
O O3 0.738907 0.833478 0.975161
O O4 0.510661 0.087185 0.234336
O O5 0.748262 0.568121 0.620005
O O6 0.899665 0.339620 0.379257
O O7 0.876346 0.182203 0.765393
O O8 0.040584 0.257870 0.536937
O O9 0.269335 0.132659 0.535825
O O10 0.273911 0.305588 0.174169
O O11 0.236974 0.745733 0.511439
O O12 0.299787 0.408673 0.796804
O O13 0.043906 0.785242 0.875058
O O14 0.690269 0.106068 0.524401
O O15 0.856802 0.006195 0.159269
O O16 0.500000 0.000000 0.000000
O O17 0.500000 0.500000 0.500000
#
# Coordination Sequence:
#
# PCOD9044181 Si02
#       8
#     2   2   2   2   2   2   2   2
#     4  11  25  48  70 104 147 189 239 297 354 430
#     4  12  26  48  73 106 147 186 245 298 357 429
#     4  11  26  46  70 103 149 188 238 295 359 425
#     4  12  26  46  76 105 142 190 242 299 359 422
#     4  12  27  46  72 105 146 194 235 298 360 424
#     4  10  23  46  71 100 141 188 231 289 353 428
#     4  12  25  44  76 105 138 190 243 293 364 427
#     4  12  27  47  74 106 145 190 240 301 359 423
#
# _framework density 22.761095000000001
#
# number of rings (size 3 to 8) (size 9 to 14) (size 15 to 20)
#    0.000    0.500    3.750    4.125    7.000    2.500 
#    0.000    0.000    0.000    0.000    0.000    0.000 
#    0.000    0.000    0.000    0.000    0.000    0.000 
#
# Total GULP energy -89551.818784 kJ/mol
# GULP energy per Si atom -5596.988674 kJ/mol
# Density = 2.270929 g / cm^3
# Si number density = 22.761095 Si / 1000 Ang^3
#
#
#
# Elastic Constant Matrix: (Units=GPa)
#
#
# Indices 1 2 3 4 5 6 
#
# 1 95.2988 14.7843 6.0120 0.2596 -20.0640 -0.7936
# 2 14.7843 77.2935 16.3027 2.5804 -5.6426 10.4509
# 3 6.0120 16.3027 94.7721 -8.2831 -8.5499 -6.4079
# 4 0.2596 2.5804 -8.2831 35.2020 3.0288 -3.0583
# 5 -20.0640 -5.6426 -8.5499 3.0288 39.2463 3.1424
# 6 -0.7936 10.4509 -6.4079 -3.0583 3.1424 29.9964
#
#
#
# Elastic Compliance Matrix: (Units=1/GPa)
#
#
# Indices 1 2 3 4 5 6 
#
# 1 0.012032 -0.001923 0.000088 -0.000404 0.005897 0.000348
# 2 -0.001923 0.014951 -0.002977 -0.002431 0.001207 -0.006270
# 3 0.000088 -0.002977 0.011732 0.003159 0.001633 0.003697
# 4 -0.000404 -0.002431 0.003159 0.029973 -0.002568 0.004836
# 5 0.005897 0.001207 0.001633 -0.002568 0.029484 -0.003266
# 6 0.000348 -0.006270 0.003697 0.004836 -0.003266 0.037156
#
#
# Mechanical properties :
#
#
# Convention : Reuss Voigt Hill
#
# Bulk Modulus (GPa) = 34.37755 37.95138 36.16446
# Shear Modulus (GPa) = 32.33151 36.23996 34.28573
#
# Velocity S-wave (km/s) = 3.77300 3.99455 3.88536
# Velocity P-wave (km/s) = 5.84099 6.16322 6.00427
#
# Compressibility (1/GPa) = 0.02908875
#
# Stress axis : x y z
#
# Youngs Moduli (GPa) = 83.11434 66.88710 85.24026
#
# Poissons Ratio (x) = 0.12862 -0.00748
# Poissons Ratio (y) = 0.15982 0.25379
# Poissons Ratio (z) = -0.00729 0.19914
#
# Static dielectric constant tensor:
#      x y z
#    x 1.891170 -0.020950 -0.020310 
#    y -0.020950 1.812030 -0.002230 
#    z -0.020310 -0.002230 1.843140 
# 
# From -- ./inp_files/332851.got.cif
#   From: 2010.05.17/outbox.cif.g08.bks.cpg/sg2_167_cif.got.tgz:332851.got - 2010.06.03 11:33:40.
