data_PCOD9044013
_publ_section_title
;
Structure prediction by ZEFSAII (Michael W. Deem and Ramdas Pophale) SiO2 
 PCOD9044013
Probable space group: P -1
;
_chemical_formula_sum "Si O2"
_cell_formula_units_Z 14
_cell_length_a 11.423665
_cell_length_b 14.420284
_cell_length_c 10.878626
_cell_angle_alpha 150.978284
_cell_angle_beta 131.060923
_cell_angle_gamma 55.478329
_cell_volume 655.396337
_symmetry_space_group_name_H-M "P -1"
_symmetry_group_IT_number 2
_symmetry_cell_setting 'triclinic'
loop_
_space_group_symop_operation_xyz
x,y,z
-x,-y,-z
loop_
_atom_site_type_symbol
_atom_site_label
_atom_site_fract_x
_atom_site_fract_y
_atom_site_fract_z
Si Si1 0.886349 0.235708 0.030923
Si Si2 0.366868 0.028194 0.339679
Si Si3 0.963254 0.207624 0.770017
Si Si4 0.233677 0.368443 0.487478
Si Si5 0.687571 0.248086 0.454528
Si Si6 0.701284 0.624468 0.748399
Si Si7 0.477638 0.944644 0.070343
O O1 0.799035 0.428524 0.235475
O O2 0.064437 0.264784 0.230952
O O3 0.794395 0.058614 0.822500
O O4 0.886562 0.203826 0.847533
O O5 0.500000 0.000000 0.500000
O O6 0.333499 0.233256 0.489876
O O7 0.430446 0.904295 0.127610
O O8 0.843351 0.286671 0.680529
O O9 0.000000 0.000000 0.500000
O O10 0.121746 0.325704 0.034228
O O11 0.298403 0.398025 0.426330
O O12 0.652084 0.437783 0.575298
O O13 0.679681 0.085842 0.153654
O O14 0.564322 0.149039 0.348509
O O15 0.598243 0.795151 0.926742
#
# Coordination Sequence:
#
# PCOD9044013 Si02
#       7
#     2   2   2   2   2   2   2
#     4  10  24  45  68  95 133 175 215 273 329 386
#     4  12  26  42  66  96 134 180 215 264 333 390
#     4  11  23  43  68 100 132 163 220 279 321 385
#     4  10  23  46  68  98 130 169 227 270 323 394
#     4  11  22  40  65  97 131 170 214 264 333 378
#     4  11  23  42  69  98 131 173 216 272 325 384
#     4  11  24  40  64  98 135 171 219 267 315 399
#
# _framework density 21.361118999999999
#
# number of rings (size 3 to 8) (size 9 to 14) (size 15 to 20)
#    0.000    1.143    1.429    4.714    2.000    2.857 
#    7.714    0.000    0.000    0.000    0.000    0.000 
#    0.000    0.000    0.000    0.000    0.000    0.000 
#
# Total GULP energy -78112.685674 kJ/mol
# GULP energy per Si atom -5579.477548 kJ/mol
# Density = 2.131250 g / cm^3
# Si number density = 21.361119 Si / 1000 Ang^3
#
#
#
# Elastic Constant Matrix: (Units=GPa)
#
#
# Indices 1 2 3 4 5 6 
#
# 1 111.9374 47.3147 34.5654 -0.6731 -20.9104 18.0720
# 2 47.3147 152.7165 49.2371 -7.4698 -6.2516 4.8263
# 3 34.5654 49.2371 79.8880 -13.9867 -11.7463 9.6681
# 4 -0.6731 -7.4698 -13.9867 47.9500 6.7246 1.9653
# 5 -20.9104 -6.2516 -11.7463 6.7246 41.1109 2.5244
# 6 18.0720 4.8263 9.6681 1.9653 2.5244 32.1861
#
#
#
# Elastic Compliance Matrix: (Units=1/GPa)
#
#
# Indices 1 2 3 4 5 6 
#
# 1 0.013128 -0.002886 -0.002470 -0.001585 0.006196 -0.006585
# 2 -0.002886 0.008814 -0.004609 0.000136 -0.001577 0.001799
# 3 -0.002470 -0.004609 0.018040 0.004283 0.002731 -0.003816
# 4 -0.001585 0.000136 0.004283 0.022611 -0.003165 -0.001549
# 5 0.006196 -0.001577 0.002731 -0.003165 0.028911 -0.006137
# 6 -0.006585 0.001799 -0.003816 -0.001549 -0.006137 0.036219
#
#
# Mechanical properties :
#
#
# Convention : Reuss Voigt Hill
#
# Bulk Modulus (GPa) = 49.87663 67.41960 58.64811
# Shear Modulus (GPa) = 32.39652 38.47771 35.43712
#
# Velocity S-wave (km/s) = 3.89859 4.24877 4.07744
# Velocity P-wave (km/s) = 6.60798 7.46323 7.04859
#
# Compressibility (1/GPa) = 0.02004947
#
# Stress axis : x y z
#
# Youngs Moduli (GPa) = 76.17558 113.46141 55.43123
#
# Poissons Ratio (x) = 0.32750 0.13694
# Poissons Ratio (y) = 0.21988 0.25549
# Poissons Ratio (z) = 0.18819 0.52295
#
# Static dielectric constant tensor:
#      x y z
#    x 1.798050 -0.026240 0.024180 
#    y -0.026240 1.865520 0.007260 
#    z 0.024180 0.007260 1.796040 
# 
# From -- ./inp_files/263816.got.cif
#   From: 2010.05.17/outbox.cif.g08.bks.cpg/sg2_132_cif.got.tgz:263816.got - 2010.06.03 11:33:40.
