data_PCOD9044859
_publ_section_title
;
Structure prediction by ZEFSAII (Michael W. Deem and Ramdas Pophale) SiO2 
 PCOD9044859
Probable space group: P -1
;
_chemical_formula_sum "Si O2"
_cell_formula_units_Z 16
_cell_length_a 8.200884
_cell_length_b 8.512423
_cell_length_c 16.076803
_cell_angle_alpha 43.755263
_cell_angle_beta 130.976521
_cell_angle_gamma 122.490893
_cell_volume 581.637703
_symmetry_space_group_name_H-M "P -1"
_symmetry_group_IT_number 2
_symmetry_cell_setting 'triclinic'
loop_
_space_group_symop_operation_xyz
x,y,z
-x,-y,-z
loop_
_atom_site_type_symbol
_atom_site_label
_atom_site_fract_x
_atom_site_fract_y
_atom_site_fract_z
Si Si1 0.216757 0.016748 0.621779
Si Si2 0.755387 0.119065 0.026645
Si Si3 0.408418 0.259202 0.143878
Si Si4 0.953043 0.238075 0.568007
Si Si5 0.522936 0.251994 0.369536
Si Si6 0.717057 0.604944 0.621765
Si Si7 0.054508 0.558981 0.880139
Si Si8 0.112159 0.824313 0.242108
O O1 0.158374 0.132665 0.643566
O O2 0.357771 0.214530 0.538162
O O3 0.350710 0.806487 0.763242
O O4 0.000000 0.000000 0.500000
O O5 0.861071 0.251774 0.093994
O O6 0.871004 0.897008 0.123291
O O7 0.867338 0.333431 0.921910
O O8 0.500000 0.000000 0.000000
O O9 0.400673 0.304361 0.224382
O O10 0.265428 0.018819 0.171788
O O11 0.274281 0.439465 0.985620
O O12 0.000000 0.500000 0.500000
O O13 0.773723 0.252201 0.430970
O O14 0.860926 0.144992 0.661101
O O15 0.472955 0.422105 0.361907
O O16 0.500000 0.000000 0.500000
O O17 0.921580 0.690624 0.718258
O O18 0.819098 0.411106 0.678329
#
# Coordination Sequence:
#
# PCOD9044859 Si02
#       8
#     2   2   2   2   2   2   2   2
#     4  12  25  43  70 105 143 185 247 305 367 438
#     4  10  23  47  76 105 145 198 251 301 369 447
#     4  11  24  47  74 101 142 194 243 295 379 446
#     4  12  25  41  65 105 144 178 237 312 363 424
#     4  12  22  41  72  96 135 193 233 291 366 435
#     4  12  25  45  72 104 146 193 250 300 364 446
#     4  10  25  48  76 107 149 198 245 305 372 444
#     4  11  25  44  69 103 146 188 249 302 370 441
#
# _framework density 27.508531999999999
#
# number of rings (size 3 to 8) (size 9 to 14) (size 15 to 20)
#    0.000    0.750    5.000    2.250    3.500    6.000 
#    2.250    1.250    0.000    0.000    0.000    0.000 
#    0.000    0.000    0.000    0.000    0.000    0.000 
#
# Total GULP energy -89182.051963 kJ/mol
# GULP energy per Si atom -5573.878248 kJ/mol
# Density = 2.744592 g / cm^3
# Si number density = 27.508532 Si / 1000 Ang^3
#
#
#
# Elastic Constant Matrix: (Units=GPa)
#
#
# Indices 1 2 3 4 5 6 
#
# 1 119.9018 45.3751 65.2426 -11.1172 33.4274 -21.9013
# 2 45.3751 88.4013 36.6161 -8.3492 5.5270 -6.9443
# 3 65.2426 36.6161 191.3230 -25.7378 5.7945 1.9631
# 4 -11.1172 -8.3492 -25.7378 48.7808 2.8310 14.3250
# 5 33.4274 5.5270 5.7945 2.8310 55.8035 -5.7662
# 6 -21.9013 -6.9443 1.9631 14.3250 -5.7662 51.9554
#
#
#
# Elastic Compliance Matrix: (Units=1/GPa)
#
#
# Indices 1 2 3 4 5 6 
#
# 1 0.015900 -0.005535 -0.004275 -0.000717 -0.007934 0.005441
# 2 -0.005535 0.014418 -0.000821 0.000774 0.001894 -0.000378
# 3 -0.004275 -0.000821 0.007307 0.003544 0.001392 -0.003010
# 4 -0.000717 0.000774 0.003544 0.024613 -0.002023 -0.007343
# 5 -0.007934 0.001894 0.001392 -0.002023 0.022433 -0.000096
# 6 0.005441 -0.000378 -0.003010 -0.007343 -0.000096 0.023618
#
#
# Mechanical properties :
#
#
# Convention : Reuss Voigt Hill
#
# Bulk Modulus (GPa) = 61.11140 77.12153 69.11647
# Shear Modulus (GPa) = 37.03553 48.13409 42.58481
#
# Velocity S-wave (km/s) = 3.67322 4.18758 3.93881
# Velocity P-wave (km/s) = 6.34458 7.17478 6.77241
#
# Compressibility (1/GPa) = 0.01636356
#
# Stress axis : x y z
#
# Youngs Moduli (GPa) = 62.89271 69.35689 136.85301
#
# Poissons Ratio (x) = 0.38388 0.58501
# Poissons Ratio (y) = 0.34810 0.11240
# Poissons Ratio (z) = 0.26885 0.05696
#
# Static dielectric constant tensor:
#      x y z
#    x 2.361580 0.153920 -0.012500 
#    y 0.153920 2.222220 0.008330 
#    z -0.012500 0.008330 2.105380 
# 
# From -- ./inp_files/587252.got.cif
#   From: 2010.05.17/outbox.cif.g08.bks.cpg/sg2_294_cif.got.tgz:587252.got - 2010.06.03 11:33:40.
