data_PCOD9044737
_publ_section_title
;
Structure prediction by ZEFSAII (Michael W. Deem and Ramdas Pophale) SiO2 
 PCOD9044737
Probable space group: P -1
;
_chemical_formula_sum "Si O2"
_cell_formula_units_Z 16
_cell_length_a 19.531230
_cell_length_b 11.408984
_cell_length_c 9.298329
_cell_angle_alpha 153.960863
_cell_angle_beta 131.371590
_cell_angle_gamma 45.075274
_cell_volume 641.665194
_symmetry_space_group_name_H-M "P -1"
_symmetry_group_IT_number 2
_symmetry_cell_setting 'triclinic'
loop_
_space_group_symop_operation_xyz
x,y,z
-x,-y,-z
loop_
_atom_site_type_symbol
_atom_site_label
_atom_site_fract_x
_atom_site_fract_y
_atom_site_fract_z
Si Si1 0.225398 0.051188 0.860506
Si Si2 0.238175 0.687166 0.974002
Si Si3 0.169476 0.687210 0.589390
Si Si4 0.655301 0.330340 0.612470
Si Si5 0.457205 0.270321 0.338887
Si Si6 0.562261 0.700579 0.325817
Si Si7 0.964291 0.779236 0.356773
Si Si8 0.938104 0.790075 0.657937
O O1 0.131604 0.004438 0.606303
O O2 0.235813 0.865697 0.817719
O O3 0.302582 0.961254 0.739736
O O4 0.200363 0.380958 0.221055
O O5 0.171787 0.609926 0.676902
O O6 0.338492 0.489337 0.821003
O O7 0.268277 0.636518 0.127756
O O8 0.175402 0.030542 0.260776
O O9 0.057462 0.872868 0.609287
O O10 0.551527 0.375561 0.594393
O O11 0.628442 0.532096 0.659727
O O12 0.426060 0.238561 0.422420
O O13 0.500000 0.000000 0.000000
O O14 0.500000 0.000000 0.500000
O O15 0.500000 0.500000 0.000000
O O16 0.935630 0.716128 0.405831
O O17 0.000000 0.500000 0.000000
O O18 0.000000 0.500000 0.500000
O O19 0.000000 0.000000 0.000000
#
# Coordination Sequence:
#
# PCOD9044737 Si02
#       8
#     2   2   2   2   2   2   2   2
#     4  11  25  46  70 109 143 194 246 300 373 450
#     4  12  26  50  76 113 150 207 253 311 387 453
#     4  11  26  44  73 104 150 193 247 304 371 443
#     4  11  25  48  74 108 146 198 248 318 376 455
#     4  11  26  49  76 106 152 194 252 314 385 444
#     4  12  28  51  79 114 154 201 255 316 382 457
#     4  10  23  47  72 105 146 196 244 307 370 441
#     4  12  28  49  74 110 155 198 249 314 378 449
#
# _framework density 24.935123999999998
#
# number of rings (size 3 to 8) (size 9 to 14) (size 15 to 20)
#    0.000    0.750    3.750    1.875    8.750    4.000 
#    4.500    0.000    0.000    0.000    0.000    0.000 
#    0.000    0.000    0.000    0.000    0.000    0.000 
#
# Total GULP energy -89166.766964 kJ/mol
# GULP energy per Si atom -5572.922935 kJ/mol
# Density = 2.487837 g / cm^3
# Si number density = 24.935124 Si / 1000 Ang^3
#
#
#
# Elastic Constant Matrix: (Units=GPa)
#
#
# Indices 1 2 3 4 5 6 
#
# 1 101.7274 49.0558 37.9175 16.9915 -33.9832 1.5914
# 2 49.0558 171.1499 42.4451 -0.4216 -22.5086 11.3706
# 3 37.9175 42.4451 105.6974 5.7405 -44.3451 9.3789
# 4 16.9915 -0.4216 5.7405 51.2340 2.9519 -11.6180
# 5 -33.9832 -22.5086 -44.3451 2.9519 62.3519 -3.6037
# 6 1.5914 11.3706 9.3789 -11.6180 -3.6037 40.7815
#
#
#
# Elastic Compliance Matrix: (Units=1/GPa)
#
#
# Indices 1 2 3 4 5 6 
#
# 1 0.014739 -0.003113 -0.001030 -0.005258 0.006402 -0.000403
# 2 -0.003113 0.007231 -0.002007 0.001086 -0.000633 -0.001180
# 3 -0.001030 -0.002007 0.014905 -0.002496 0.009276 -0.002720
# 4 -0.005258 0.001086 -0.002496 0.023354 -0.004968 0.006691
# 5 0.006402 -0.000633 0.009276 -0.004968 0.026055 -0.001319
# 6 -0.000403 -0.001180 -0.002720 0.006691 -0.001319 0.027280
#
#
# Mechanical properties :
#
#
# Convention : Reuss Voigt Hill
#
# Bulk Modulus (GPa) = 40.69268 70.82351 55.75810
# Shear Modulus (GPa) = 37.29822 47.48389 42.39105
#
# Velocity S-wave (km/s) = 3.87177 4.36856 4.12764
# Velocity P-wave (km/s) = 6.02846 7.34238 6.71762
#
# Compressibility (1/GPa) = 0.02457444
#
# Stress axis : x y z
#
# Youngs Moduli (GPa) = 67.84839 138.30086 67.09286
#
# Poissons Ratio (x) = 0.43058 0.06908
# Poissons Ratio (y) = 0.21123 0.13464
# Poissons Ratio (z) = 0.06986 0.27755
#
# Static dielectric constant tensor:
#      x y z
#    x 2.252280 -0.188470 -0.154700 
#    y -0.188470 2.104040 0.069980 
#    z -0.154700 0.069980 2.112390 
# 
# From -- ./inp_files/346539.got.cif
#   From: 2010.05.17/outbox.cif.g08.bks.cpg/sg2_174_cif.got.tgz:346539.got - 2010.06.03 11:33:40.
