data_PCOD9044212
_publ_section_title
;
Structure prediction by ZEFSAII (Michael W. Deem and Ramdas Pophale) SiO2 
 PCOD9044212
Probable space group: P -1
;
_chemical_formula_sum "Si O2"
_cell_formula_units_Z 14
_cell_length_a 16.243667
_cell_length_b 11.465419
_cell_length_c 8.429965
_cell_angle_alpha 128.055633
_cell_angle_beta 42.070917
_cell_angle_gamma 143.406295
_cell_volume 626.301982
_symmetry_space_group_name_H-M "P -1"
_symmetry_group_IT_number 2
_symmetry_cell_setting 'triclinic'
loop_
_space_group_symop_operation_xyz
x,y,z
-x,-y,-z
loop_
_atom_site_type_symbol
_atom_site_label
_atom_site_fract_x
_atom_site_fract_y
_atom_site_fract_z
Si Si1 0.242861 0.755833 0.644722
Si Si2 0.370082 0.316694 0.141563
Si Si3 0.891618 0.102288 0.885300
Si Si4 0.119736 0.456862 0.316868
Si Si5 0.548274 0.276071 0.102673
Si Si6 0.973304 0.853211 0.594187
Si Si7 0.495225 0.066745 0.308416
O O1 0.205583 0.575565 0.457472
O O2 0.359848 0.816872 0.675447
O O3 0.331546 0.924635 0.525381
O O4 0.092866 0.732457 0.907401
O O5 0.205394 0.281956 0.346738
O O6 0.292666 0.105019 0.999399
O O7 0.500000 0.500000 0.000000
O O8 0.450643 0.330958 0.202873
O O9 0.912786 0.128500 0.686870
O O10 0.003610 0.053200 0.738703
O O11 0.260217 0.552031 0.065790
O O12 0.030471 0.236711 0.311670
O O13 0.000000 0.500000 0.500000
O O14 0.499927 0.084485 0.921747
O O15 0.508441 0.211464 0.287617
#
# Coordination Sequence:
#
# PCOD9044212 Si02
#       7
#     2   2   2   2   2   2   2
#     4  10  20  37  59  88 118 157 194 249 297 345
#     4  10  17  33  64  86 112 155 201 231 285 356
#     4   9  19  36  60  85 111 160 200 232 289 360
#     4  11  24  37  57  87 121 157 199 246 299 351
#     4  10  18  35  58  89 114 156 196 244 291 355
#     4   9  20  37  59  84 118 159 198 228 298 366
#     4   9  19  32  58  89 117 144 198 248 299 343
#
# _framework density 22.353432999999999
#
# number of rings (size 3 to 8) (size 9 to 14) (size 15 to 20)
#    0.857    1.429    2.857    0.000    2.000    1.714 
#    0.000    0.714    0.000    4.286    0.000    0.000 
#    0.000    0.000    0.000    0.000    0.000    0.000 
#
# Total GULP energy -78014.291566 kJ/mol
# GULP energy per Si atom -5572.449398 kJ/mol
# Density = 2.230256 g / cm^3
# Si number density = 22.353433 Si / 1000 Ang^3
#
#
#
# Elastic Constant Matrix: (Units=GPa)
#
#
# Indices 1 2 3 4 5 6 
#
# 1 105.2041 17.7671 11.4860 -17.9683 3.3395 -34.8630
# 2 17.7671 36.8636 1.0959 -15.2635 6.3530 -16.5964
# 3 11.4860 1.0959 52.8153 -0.1387 0.0411 -5.2272
# 4 -17.9683 -15.2635 -0.1387 12.2201 1.5821 2.9162
# 5 3.3395 6.3530 0.0411 1.5821 29.0128 -3.8445
# 6 -34.8630 -16.5964 -5.2272 2.9162 -3.8445 37.3575
#
#
#
# Elastic Compliance Matrix: (Units=1/GPa)
#
#
# Indices 1 2 3 4 5 6 
#
# 1 0.032968 0.045327 -0.003745 0.096912 -0.013511 0.041423
# 2 0.045327 0.148832 -0.003849 0.237253 -0.039437 0.085303
# 3 -0.003745 -0.003849 0.019651 -0.009936 0.001587 -0.001517
# 4 0.096912 0.237253 -0.009936 0.494200 -0.070347 0.148636
# 5 -0.013511 -0.039437 0.001587 -0.070347 0.045883 -0.019693
# 6 0.041423 0.085303 -0.001517 0.148636 -0.019693 0.089481
#
#
# Mechanical properties :
#
#
# Convention : Reuss Voigt Hill
#
# Bulk Modulus (GPa) = 3.61122 28.39787 16.00454
# Shear Modulus (GPa) = 5.89724 26.68700 16.29212
#
# Velocity S-wave (km/s) = 1.62601 3.45899 2.70264
# Velocity P-wave (km/s) = 2.26809 5.35578 4.11270
#
# Compressibility (1/GPa) = 0.27691471
#
# Stress axis : x y z
#
# Youngs Moduli (GPa) = 30.33290 6.71899 50.88839
#
# Poissons Ratio (x) = -0.30455 0.19059
# Poissons Ratio (y) = -1.37489 0.19588
# Poissons Ratio (z) = 0.11361 0.02586
#
# Static dielectric constant tensor:
#      x y z
#    x 1.845790 0.023180 -0.020450 
#    y 0.023180 1.945020 0.011560 
#    z -0.020450 0.011560 1.851480 
# 
# From -- ./inp_files/303603.got.cif
#   From: 2010.05.17/outbox.cif.g08.bks.cpg/sg2_152_cif.got.tgz:303603.got - 2010.06.03 11:33:40.
