data_PCOD9044789
_publ_section_title
;
Structure prediction by ZEFSAII (Michael W. Deem and Ramdas Pophale) SiO2 
 PCOD9044789
Probable space group: P -1
;
_chemical_formula_sum "Si O2"
_cell_formula_units_Z 16
_cell_length_a 22.706023
_cell_length_b 5.777980
_cell_length_c 8.699021
_cell_angle_alpha 80.415450
_cell_angle_beta 38.230304
_cell_angle_gamma 83.715780
_cell_volume 695.959545
_symmetry_space_group_name_H-M "P -1"
_symmetry_group_IT_number 2
_symmetry_cell_setting 'triclinic'
loop_
_space_group_symop_operation_xyz
x,y,z
-x,-y,-z
loop_
_atom_site_type_symbol
_atom_site_label
_atom_site_fract_x
_atom_site_fract_y
_atom_site_fract_z
Si Si1 0.242302 0.670005 0.411969
Si Si2 0.387260 0.083208 0.961756
Si Si3 0.939197 0.171962 0.712059
Si Si4 0.401353 0.009425 0.519555
Si Si5 0.761208 0.282711 0.231268
Si Si6 0.895559 0.583949 0.518159
Si Si7 0.408056 0.334991 0.193917
Si Si8 0.730371 0.725980 0.032302
O O1 0.213130 0.732270 0.639987
O O2 0.156898 0.546531 0.501767
O O3 0.318450 0.474576 0.308747
O O4 0.302048 0.883826 0.181070
O O5 0.348994 0.323018 0.934184
O O6 0.486684 0.018001 0.686214
O O7 0.419015 0.137979 0.064837
O O8 0.916776 0.378766 0.617203
O O9 0.005356 0.268024 0.707098
O O10 0.836053 0.117592 0.006209
O O11 0.000000 0.000000 0.500000
O O12 0.391337 0.230764 0.406307
O O13 0.328630 0.060095 0.801457
O O14 0.348348 0.800244 0.559250
O O15 0.760411 0.535940 0.118246
O O16 0.824054 0.756036 0.733182
O O17 0.500000 0.500000 0.000000
#
# Coordination Sequence:
#
# PCOD9044789 Si02
#       8
#     2   2   2   2   2   2   2   2
#     4  12  24  44  69  99 137 181 228 277 334 409
#     4  12  26  41  66 100 138 188 233 270 335 400
#     4  10  23  47  73  99 133 173 217 287 352 406
#     4  12  24  41  66 101 138 184 233 277 332 393
#     4  11  25  44  70 100 137 178 224 281 342 402
#     4  10  24  44  70  99 132 178 223 276 351 407
#     4  12  23  43  65  93 141 189 227 275 332 394
#     4  11  25  42  65  98 137 179 229 281 331 396
#
# _framework density 22.989843
#
# number of rings (size 3 to 8) (size 9 to 14) (size 15 to 20)
#    0.000    0.750    5.000    2.250    5.250    1.000 
#    0.000    0.625    0.000    0.000    0.000    0.000 
#    0.000    0.000    0.000    0.000    0.000    0.000 
#
# Total GULP energy -89115.592864 kJ/mol
# GULP energy per Si atom -5569.724554 kJ/mol
# Density = 2.293752 g / cm^3
# Si number density = 22.989843 Si / 1000 Ang^3
#
#
#
# Elastic Constant Matrix: (Units=GPa)
#
#
# Indices 1 2 3 4 5 6 
#
# 1 123.2618 19.5345 48.2105 -5.5488 -23.8911 5.9544
# 2 19.5345 33.2556 30.5831 6.1290 -16.6094 -0.0209
# 3 48.2105 30.5831 114.8109 18.1962 -0.5585 -1.5616
# 4 -5.5488 6.1290 18.1962 42.0471 1.2645 -10.3869
# 5 -23.8911 -16.6094 -0.5585 1.2645 37.4827 0.2483
# 6 5.9544 -0.0209 -1.5616 -10.3869 0.2483 37.6759
#
#
#
# Elastic Compliance Matrix: (Units=1/GPa)
#
#
# Indices 1 2 3 4 5 6 
#
# 1 0.012011 0.002168 -0.006129 0.003351 0.008421 -0.001283
# 2 0.002168 0.056692 -0.015511 -0.002507 0.026369 -0.001819
# 3 -0.006129 -0.015511 0.016189 -0.005175 -0.010366 0.000273
# 4 0.003351 -0.002507 -0.005175 0.028595 -0.000064 0.007138
# 5 0.008421 0.026369 -0.010366 -0.000064 0.043592 -0.002051
# 6 -0.001283 -0.001819 0.000273 0.007138 -0.002051 0.028737
#
#
# Mechanical properties :
#
#
# Convention : Reuss Voigt Hill
#
# Bulk Modulus (GPa) = 21.76351 51.99829 36.88090
# Shear Modulus (GPa) = 20.82677 34.97450 27.90063
#
# Velocity S-wave (km/s) = 3.01310 3.90462 3.48747
# Velocity P-wave (km/s) = 4.64674 6.55707 5.68275
#
# Compressibility (1/GPa) = 0.04594848
#
# Stress axis : x y z
#
# Youngs Moduli (GPa) = 83.25481 17.63921 61.77130
#
# Poissons Ratio (x) = -0.03824 0.37859
# Poissons Ratio (y) = -0.18050 0.95813
# Poissons Ratio (z) = 0.51026 0.27360
#
# Static dielectric constant tensor:
#      x y z
#    x 1.996610 0.070840 0.081230 
#    y 0.070840 1.945660 0.060160 
#    z 0.081230 0.060160 1.900000 
# 
# From -- ./inp_files/46333.got.cif
#   From: 2010.05.17/outbox.cif.g08.bks.cpg/sg2_24_cif.got.tgz:46333.got - 2010.06.03 11:33:40.
