data_PCOD9044282
_publ_section_title
;
Structure prediction by ZEFSAII (Michael W. Deem and Ramdas Pophale) SiO2 
 PCOD9044282
Probable space group: P -1
;
_chemical_formula_sum "Si O2"
_cell_formula_units_Z 12
_cell_length_a 23.334524
_cell_length_b 5.343835
_cell_length_c 15.106754
_cell_angle_alpha 67.633519
_cell_angle_beta 19.965578
_cell_angle_gamma 77.418590
_cell_volume 533.324086
_symmetry_space_group_name_H-M "P -1"
_symmetry_group_IT_number 2
_symmetry_cell_setting 'triclinic'
loop_
_space_group_symop_operation_xyz
x,y,z
-x,-y,-z
loop_
_atom_site_type_symbol
_atom_site_label
_atom_site_fract_x
_atom_site_fract_y
_atom_site_fract_z
Si Si1 0.898224 0.713305 0.624982
Si Si2 0.725102 0.843610 0.694714
Si Si3 0.976888 0.444789 0.146234
Si Si4 0.514408 0.779821 0.682135
Si Si5 0.613719 0.460618 0.423630
Si Si6 0.335865 0.450134 0.350741
O O1 0.872006 0.842745 0.552101
O O2 0.000000 0.500000 0.500000
O O3 0.691984 0.490573 0.987289
O O4 0.000000 0.000000 0.500000
O O5 0.682007 0.571796 0.725914
O O6 0.816939 0.128810 0.458692
O O7 0.528098 0.765699 0.040502
O O8 0.875274 0.643761 0.298858
O O9 0.000000 0.500000 0.000000
O O10 0.170544 0.488155 0.903486
O O11 0.616488 0.690165 0.466274
O O12 0.604346 0.762766 0.647830
O O13 0.512187 0.101746 0.638754
O O14 0.500000 0.500000 0.500000
#
# Coordination Sequence:
#
# PCOD9044282 Si02
#       6
#     2   2   2   2   2   2
#     4  11  26  46  75 105 143 195 249 304 369 443
#     4  10  25  43  72 106 141 190 246 316 363 436
#     4  12  25  43  74 104 147 194 247 301 370 444
#     4  11  25  48  71 103 149 189 249 308 366 433
#     4  12  28  45  71 105 151 198 242 304 368 446
#     4  10  23  46  72 105 142 187 252 311 373 428
#
# _framework density 22.500388000000001
#
# number of rings (size 3 to 8) (size 9 to 14) (size 15 to 20)
#    0.000    1.000    1.667    3.000    9.333    1.333 
#    0.000    0.000    0.000    0.000    0.000    0.000 
#    0.000    0.000    0.000    0.000    0.000    0.000 
#
# Total GULP energy -66885.381847 kJ/mol
# GULP energy per Si atom -5573.781821 kJ/mol
# Density = 2.244918 g / cm^3
# Si number density = 22.500388 Si / 1000 Ang^3
#
#
#
# Elastic Constant Matrix: (Units=GPa)
#
#
# Indices 1 2 3 4 5 6 
#
# 1 164.8954 52.2982 44.2786 14.0693 -22.4464 -20.3672
# 2 52.2982 85.4767 8.5577 5.7856 -10.6413 -19.0864
# 3 44.2786 8.5577 112.2288 26.1047 -13.5217 -11.8894
# 4 14.0693 5.7856 26.1047 43.5117 -5.2285 -0.7185
# 5 -22.4464 -10.6413 -13.5217 -5.2285 41.3848 -0.6147
# 6 -20.3672 -19.0864 -11.8894 -0.7185 -0.6147 42.3358
#
#
#
# Elastic Compliance Matrix: (Units=1/GPa)
#
#
# Indices 1 2 3 4 5 6 
#
# 1 0.008729 -0.004373 -0.002528 -0.000367 0.002761 0.001552
# 2 -0.004373 0.015792 0.001674 -0.001341 0.002148 0.005494
# 3 -0.002528 0.001674 0.011767 -0.006159 0.002167 0.002770
# 4 -0.000367 -0.001341 -0.006159 0.027040 0.000830 -0.002040
# 5 0.002761 0.002148 0.002167 0.000830 0.027075 0.003312
# 6 0.001552 0.005494 0.002770 -0.002040 0.003312 0.027636
#
#
# Mechanical properties :
#
#
# Convention : Reuss Voigt Hill
#
# Bulk Modulus (GPa) = 38.70794 63.65221 51.18008
# Shear Modulus (GPa) = 36.46860 42.61089 39.53975
#
# Velocity S-wave (km/s) = 4.03028 4.35648 4.19655
# Velocity P-wave (km/s) = 6.23684 7.32503 6.80273
#
# Compressibility (1/GPa) = 0.02583449
#
# Stress axis : x y z
#
# Youngs Moduli (GPa) = 114.56195 63.32365 84.98181
#
# Poissons Ratio (x) = 0.27688 0.21484
# Poissons Ratio (y) = 0.50092 -0.14225
# Poissons Ratio (z) = 0.28962 -0.10599
#
# Static dielectric constant tensor:
#      x y z
#    x 1.853860 0.136180 0.044830 
#    y 0.136180 2.141220 0.047310 
#    z 0.044830 0.047310 1.927440 
# 
# From -- ./inp_files/21143.got.cif
#   From: 2010.05.17/outbox.cif.g08.bks.cpg/sg2_11_cif.got.tgz:21143.got - 2010.06.03 11:33:40.
