data_PCOD9044310
_publ_section_title
;
Structure prediction by ZEFSAII (Michael W. Deem and Ramdas Pophale) SiO2 
 PCOD9044310
Probable space group: P -1
;
_chemical_formula_sum "Si O2"
_cell_formula_units_Z 16
_cell_length_a 11.407947
_cell_length_b 13.126677
_cell_length_c 9.533496
_cell_angle_alpha 110.991809
_cell_angle_beta 78.406353
_cell_angle_gamma 147.477878
_cell_volume 701.905627
_symmetry_space_group_name_H-M "P -1"
_symmetry_group_IT_number 2
_symmetry_cell_setting 'triclinic'
loop_
_space_group_symop_operation_xyz
x,y,z
-x,-y,-z
loop_
_atom_site_type_symbol
_atom_site_label
_atom_site_fract_x
_atom_site_fract_y
_atom_site_fract_z
Si Si1 0.751642 0.355121 0.480385
Si Si2 0.602811 0.829016 0.329875
Si Si3 0.749070 0.798945 0.519777
Si Si4 0.587354 0.799626 0.824085
Si Si5 0.325552 0.799741 0.850862
Si Si6 0.436920 0.567247 0.988747
Si Si7 0.099305 0.290753 0.395872
Si Si8 0.012516 0.754024 0.921970
O O1 0.598412 0.252668 0.602632
O O2 0.625684 0.178627 0.315141
O O3 0.000000 0.500000 0.500000
O O4 0.801698 0.516078 0.492236
O O5 0.612718 0.729474 0.379752
O O6 0.552721 0.748289 0.146991
O O7 0.841530 0.072476 0.396239
O O8 0.679724 0.837549 0.669085
O O9 0.755768 0.690729 0.551793
O O10 0.000000 0.000000 0.500000
O O11 0.369479 0.709666 0.843551
O O12 0.522237 0.643561 0.849255
O O13 0.785330 0.015161 0.962211
O O14 0.101383 0.697773 0.862906
O O15 0.500000 0.000000 0.000000
O O16 0.176774 0.382907 0.984008
O O17 0.500000 0.500000 0.000000
O O18 0.081656 0.279951 0.223850
#
# Coordination Sequence:
#
# PCOD9044310 Si02
#       8
#     2   2   2   2   2   2   2   2
#     4  12  23  44  70 100 135 182 230 283 342 410
#     4  11  24  45  65 101 141 176 230 284 343 408
#     4  10  24  43  68  99 137 180 224 282 343 411
#     4  11  24  45  71  98 138 184 223 281 353 402
#     4  10  23  46  72  97 139 182 229 286 342 407
#     4  12  26  40  70 104 135 185 231 277 343 417
#     4  11  23  41  69  98 135 180 221 283 344 403
#     4  11  23  45  68  99 139 177 230 286 336 411
#
# _framework density 22.795088
#
# number of rings (size 3 to 8) (size 9 to 14) (size 15 to 20)
#    0.000    1.000    5.000    0.750    3.500    3.500 
#    2.250    1.250    0.000    0.000    0.000    0.000 
#    0.000    0.000    0.000    0.000    0.000    0.000 
#
# Total GULP energy -89300.627597 kJ/mol
# GULP energy per Si atom -5581.289225 kJ/mol
# Density = 2.274321 g / cm^3
# Si number density = 22.795088 Si / 1000 Ang^3
#
#
#
# Elastic Constant Matrix: (Units=GPa)
#
#
# Indices 1 2 3 4 5 6 
#
# 1 97.8026 28.8458 4.2847 -13.4278 -8.9103 14.5294
# 2 28.8458 97.7005 32.5479 -14.9359 -8.1556 13.1029
# 3 4.2847 32.5479 91.4573 -8.1037 -2.0895 2.0325
# 4 -13.4278 -14.9359 -8.1037 26.6269 3.9328 -2.7194
# 5 -8.9103 -8.1556 -2.0895 3.9328 39.0419 -2.0228
# 6 14.5294 13.1029 2.0325 -2.7194 -2.0228 34.0307
#
#
#
# Elastic Compliance Matrix: (Units=1/GPa)
#
#
# Indices 1 2 3 4 5 6 
#
# 1 0.012272 -0.002587 0.000855 0.004359 0.001668 -0.003847
# 2 -0.002587 0.013685 -0.004239 0.004520 0.001407 -0.003467
# 3 0.000855 -0.004239 0.012558 0.001970 -0.000182 0.000664
# 4 0.004359 0.004520 0.001970 0.043191 -0.002327 -0.000406
# 5 0.001668 0.001407 -0.000182 -0.002327 0.026520 0.000148
# 6 -0.003847 -0.003467 0.000664 -0.000406 0.000148 0.032299
#
#
# Mechanical properties :
#
#
# Convention : Reuss Voigt Hill
#
# Bulk Modulus (GPa) = 37.63092 46.47971 42.05531
# Shear Modulus (GPa) = 30.99333 34.69202 32.84267
#
# Velocity S-wave (km/s) = 3.69134 3.90540 3.79988
# Velocity P-wave (km/s) = 5.89171 6.38519 6.14340
#
# Compressibility (1/GPa) = 0.02657389
#
# Stress axis : x y z
#
# Youngs Moduli (GPa) = 81.48597 73.07465 79.62846
#
# Poissons Ratio (x) = 0.18903 -0.06812
# Poissons Ratio (y) = 0.21078 0.33757
# Poissons Ratio (z) = -0.06971 0.30978
#
# Static dielectric constant tensor:
#      x y z
#    x 1.935170 0.023280 0.037970 
#    y 0.023280 1.862200 0.041730 
#    z 0.037970 0.041730 1.844830 
# 
# From -- ./inp_files/273676.got.cif
#   From: 2010.05.17/outbox.cif.g08.bks.cpg/sg2_137_cif.got.tgz:273676.got - 2010.06.03 11:33:40.
