data_PCOD9044021
_publ_section_title
;
Structure prediction by ZEFSAII (Michael W. Deem and Ramdas Pophale) SiO2 
 PCOD9044021
Probable space group: P -1
;
_chemical_formula_sum "Si O2"
_cell_formula_units_Z 14
_cell_length_a 19.012588
_cell_length_b 14.062169
_cell_length_c 8.385381
_cell_angle_alpha 72.464674
_cell_angle_beta 116.468485
_cell_angle_gamma 161.173725
_cell_volume 588.523125
_symmetry_space_group_name_H-M "P -1"
_symmetry_group_IT_number 2
_symmetry_cell_setting 'triclinic'
loop_
_space_group_symop_operation_xyz
x,y,z
-x,-y,-z
loop_
_atom_site_type_symbol
_atom_site_label
_atom_site_fract_x
_atom_site_fract_y
_atom_site_fract_z
Si Si1 0.925014 0.024554 0.927170
Si Si2 0.731286 0.883925 0.496936
Si Si3 0.744591 0.238824 0.053429
Si Si4 0.846392 0.227514 0.567050
Si Si5 0.347693 0.750046 0.345649
Si Si6 0.522094 0.288279 0.896918
Si Si7 0.158008 0.993837 0.796360
O O1 0.728326 0.819316 0.691035
O O2 0.190635 0.400917 0.959493
O O3 0.859010 0.969294 0.072033
O O4 0.000000 0.000000 0.000000
O O5 0.897093 0.182979 0.557668
O O6 0.818074 0.931534 0.398537
O O7 0.491441 0.658415 0.302432
O O8 0.014310 0.603718 0.207430
O O9 0.676759 0.042756 0.124648
O O10 0.729653 0.256117 0.850585
O O11 0.500000 0.000000 0.000000
O O12 0.000000 0.500000 0.500000
O O13 0.557016 0.917549 0.429039
O O14 0.088281 0.374185 0.291742
O O15 0.500000 0.000000 0.500000
O O16 0.415187 0.236951 0.944648
#
# Coordination Sequence:
#
# PCOD9044021 Si02
#       7
#     2   2   2   2   2   2   2
#     4  12  27  49  76  98 128 181 233 297 362 397
#     4  10  23  46  68  98 144 173 226 286 338 405
#     4  12  22  36  65  95 142 186 227 266 318 410
#     4  12  20  37  65  97 138 190 216 266 336 393
#     4  12  25  38  63 103 142 185 228 260 333 414
#     4  10  24  45  66 101 140 175 229 290 338 401
#     4  10  25  48  65 106 138 173 237 275 339 426
#
# _framework density 23.788360000000001
#
# number of rings (size 3 to 8) (size 9 to 14) (size 15 to 20)
#    0.857    0.000    2.857    5.143    2.000    5.143 
#    2.571    0.000    0.000    0.000    0.000    0.000 
#    0.000    0.000    0.000    0.000    0.000    0.000 
#
# Total GULP energy -77948.301486 kJ/mol
# GULP energy per Si atom -5567.735820 kJ/mol
# Density = 2.373422 g / cm^3
# Si number density = 23.788360 Si / 1000 Ang^3
#
#
#
# Elastic Constant Matrix: (Units=GPa)
#
#
# Indices 1 2 3 4 5 6 
#
# 1 155.4487 14.9137 49.4831 -19.5465 -23.0387 6.1034
# 2 14.9137 74.1422 30.6401 1.4111 -4.8509 -3.1196
# 3 49.4831 30.6401 182.3295 -14.3445 -9.7480 0.6944
# 4 -19.5465 1.4111 -14.3445 24.7312 8.8206 14.3970
# 5 -23.0387 -4.8509 -9.7480 8.8206 40.8931 -3.3075
# 6 6.1034 -3.1196 0.6944 14.3970 -3.3075 34.2447
#
#
#
# Elastic Compliance Matrix: (Units=1/GPa)
#
#
# Indices 1 2 3 4 5 6 
#
# 1 0.008507 -0.001382 -0.001308 0.008048 0.002194 -0.004787
# 2 -0.001382 0.015374 -0.002672 -0.007272 0.002380 0.004988
# 3 -0.001308 -0.002672 0.006606 0.004334 -0.000577 -0.002022
# 4 0.008048 -0.007272 0.004334 0.075400 -0.014412 -0.035276
# 5 0.002194 0.002380 -0.000577 -0.014412 0.029652 0.008761
# 6 -0.004787 0.004988 -0.002022 -0.035276 0.008761 0.046227
#
#
# Mechanical properties :
#
#
# Convention : Reuss Voigt Hill
#
# Bulk Modulus (GPa) = 50.59887 66.88824 58.74356
# Shear Modulus (GPa) = 25.11576 41.09938 33.10757
#
# Velocity S-wave (km/s) = 3.25283 4.16108 3.73467
# Velocity P-wave (km/s) = 5.95185 7.15997 6.58368
#
# Compressibility (1/GPa) = 0.01976329
#
# Stress axis : x y z
#
# Youngs Moduli (GPa) = 117.55050 65.04507 151.36881
#
# Poissons Ratio (x) = 0.08988 0.19797
# Poissons Ratio (y) = 0.16243 0.40452
# Poissons Ratio (z) = 0.15374 0.17383
#
# Static dielectric constant tensor:
#      x y z
#    x 1.962590 0.014360 -0.064180 
#    y 0.014360 1.984750 0.100500 
#    z -0.064180 0.100500 2.103720 
# 
# From -- ./inp_files/346650.got.cif
#   From: 2010.05.17/outbox.cif.g08.bks.cpg/sg2_174_cif.got.tgz:346650.got - 2010.06.03 11:33:40.
