data_PCOD9044228
_publ_section_title
;
Structure prediction by ZEFSAII (Michael W. Deem and Ramdas Pophale) SiO2 
 PCOD9044228
Probable space group: P -1
;
_chemical_formula_sum "Si O2"
_cell_formula_units_Z 14
_cell_length_a 21.938634
_cell_length_b 15.976827
_cell_length_c 11.296626
_cell_angle_alpha 138.841910
_cell_angle_beta 151.058515
_cell_angle_gamma 21.673643
_cell_volume 666.087830
_symmetry_space_group_name_H-M "P -1"
_symmetry_group_IT_number 2
_symmetry_cell_setting 'triclinic'
loop_
_space_group_symop_operation_xyz
x,y,z
-x,-y,-z
loop_
_atom_site_type_symbol
_atom_site_label
_atom_site_fract_x
_atom_site_fract_y
_atom_site_fract_z
Si Si1 0.789682 0.250947 0.977371
Si Si2 0.990728 0.448706 0.059820
Si Si3 0.925514 0.361042 0.192161
Si Si4 0.226205 0.248606 0.765348
Si Si5 0.212811 0.755200 0.768529
Si Si6 0.636863 0.566263 0.486342
Si Si7 0.235138 0.018287 0.128333
O O1 0.746609 0.417022 0.009979
O O2 0.877131 0.201005 0.207031
O O3 0.559328 0.358313 0.709213
O O4 0.000000 0.000000 0.000000
O O5 0.937940 0.593489 0.228499
O O6 0.207192 0.168535 0.162944
O O7 0.764065 0.547575 0.775277
O O8 0.000000 0.500000 0.000000
O O9 0.805304 0.593992 0.194358
O O10 0.125896 0.224501 0.484686
O O11 0.056534 0.189615 0.118396
O O12 0.500000 0.000000 0.000000
O O13 0.170265 0.687448 0.524070
O O14 0.500000 0.500000 0.000000
O O15 0.166501 0.943981 0.869264
O O16 0.493637 0.772992 0.365601
#
# Coordination Sequence:
#
# PCOD9044228 Si02
#       7
#     2   2   2   2   2   2   2
#     4  10  17  33  64  89 108 151 192 232 297 343
#     4  11  25  41  57  85 117 159 198 232 285 347
#     4  10  19  37  64  85 113 153 190 240 290 338
#     4  10  23  41  58  84 118 152 198 242 277 338
#     4   8  17  33  56  86 114 144 182 233 286 339
#     4  10  21  39  59  86 122 147 186 244 287 343
#     4   9  18  39  61  84 117 148 190 239 290 336
#
# _framework density 21.018249000000001
#
# number of rings (size 3 to 8) (size 9 to 14) (size 15 to 20)
#    0.000    2.571    2.857    0.857    2.000    1.143 
#    7.714    5.714    0.000    0.000    0.000    0.000 
#    0.000    0.000    0.000    0.000    0.000    0.000 
#
# Total GULP energy -78096.630179 kJ/mol
# GULP energy per Si atom -5578.330727 kJ/mol
# Density = 2.097041 g / cm^3
# Si number density = 21.018249 Si / 1000 Ang^3
#
#
#
# Elastic Constant Matrix: (Units=GPa)
#
#
# Indices 1 2 3 4 5 6 
#
# 1 115.5548 37.6443 17.5043 5.6086 -5.3949 3.6679
# 2 37.6443 93.8834 15.2135 6.0625 -8.8132 5.2170
# 3 17.5043 15.2135 57.9809 -8.3430 -4.5077 7.6149
# 4 5.6086 6.0625 -8.3430 17.8959 5.8685 -5.9028
# 5 -5.3949 -8.8132 -4.5077 5.8685 24.4353 -1.4304
# 6 3.6679 5.2170 7.6149 -5.9028 -1.4304 30.0269
#
#
#
# Elastic Compliance Matrix: (Units=1/GPa)
#
#
# Indices 1 2 3 4 5 6 
#
# 1 0.010429 -0.003290 -0.002661 -0.004167 0.001581 -0.000771
# 2 -0.003290 0.013552 -0.002905 -0.007443 0.005271 -0.002428
# 3 -0.002661 -0.002905 0.020633 0.010868 -0.000573 -0.002294
# 4 -0.004167 -0.007443 0.010868 0.075242 -0.018913 0.012936
# 5 0.001581 0.005271 -0.000573 -0.018913 0.047469 -0.002420
# 6 -0.000771 -0.002428 -0.002294 0.012936 -0.002420 0.036829
#
#
# Mechanical properties :
#
#
# Convention : Reuss Voigt Hill
#
# Bulk Modulus (GPa) = 37.17113 45.34926 41.26020
# Shear Modulus (GPa) = 21.66062 27.60876 24.63469
#
# Velocity S-wave (km/s) = 3.21372 3.62824 3.42725
# Velocity P-wave (km/s) = 5.61197 6.25901 5.94430
#
# Compressibility (1/GPa) = 0.02690260
#
# Stress axis : x y z
#
# Youngs Moduli (GPa) = 95.88295 73.79008 48.46586
#
# Poissons Ratio (x) = 0.24280 0.12895
# Poissons Ratio (y) = 0.31549 0.14079
# Poissons Ratio (z) = 0.25511 0.21435
#
# Static dielectric constant tensor:
#      x y z
#    x 1.799830 0.018410 -0.033990 
#    y 0.018410 1.790870 0.035530 
#    z -0.033990 0.035530 1.817950 
# 
# From -- ./inp_files/475374.got.cif
#   From: 2010.05.17/outbox.cif.g08.bks.cpg/sg2_238_cif.got.tgz:475374.got - 2010.06.03 11:33:40.
