data_PCOD9044562
_publ_section_title
;
Structure prediction by ZEFSAII (Michael W. Deem and Ramdas Pophale) SiO2 
 PCOD9044562
Probable space group: P -1
;
_chemical_formula_sum "Si O2"
_cell_formula_units_Z 16
_cell_length_a 17.529593
_cell_length_b 5.345132
_cell_length_c 9.008590
_cell_angle_alpha 85.886159
_cell_angle_beta 129.134394
_cell_angle_gamma 90.614640
_cell_volume 652.392402
_symmetry_space_group_name_H-M "P -1"
_symmetry_group_IT_number 2
_symmetry_cell_setting 'triclinic'
loop_
_space_group_symop_operation_xyz
x,y,z
-x,-y,-z
loop_
_atom_site_type_symbol
_atom_site_label
_atom_site_fract_x
_atom_site_fract_y
_atom_site_fract_z
Si Si1 0.443692 0.481568 0.277290
Si Si2 0.369021 0.435606 0.665957
Si Si3 0.093086 0.762525 0.472284
Si Si4 0.064653 0.739986 0.098285
Si Si5 0.386232 0.928241 0.862746
Si Si6 0.726713 0.322979 0.753240
Si Si7 0.869710 0.757587 0.305786
Si Si8 0.324092 0.066806 0.094104
O O1 0.500000 0.500000 0.500000
O O2 0.517669 0.601668 0.249412
O O3 0.330888 0.545534 0.185633
O O4 0.426654 0.204858 0.212156
O O5 0.336862 0.177648 0.710627
O O6 0.307711 0.532023 0.442692
O O7 0.368815 0.670331 0.767423
O O8 0.110208 0.742650 0.319199
O O9 0.138223 0.512869 0.616435
O O10 0.975117 0.757956 0.353079
O O11 0.126802 0.016920 0.579176
O O12 0.156336 0.713855 0.098946
O O13 0.000000 0.500000 0.000000
O O14 0.000000 0.000000 0.000000
O O15 0.341766 0.902926 0.972911
O O16 0.500000 0.000000 0.000000
O O17 0.684740 0.049292 0.746721
O O18 0.781577 0.807862 0.081527
#
# Coordination Sequence:
#
# PCOD9044562 Si02
#       8
#     2   2   2   2   2   2   2   2
#     4  10  25  47  73 106 153 199 252 310 383 444
#     4  11  27  49  74 107 150 198 247 313 375 452
#     4  10  23  47  67 103 142 188 236 306 375 432
#     4  12  28  48  77 107 152 197 255 309 376 454
#     4  12  26  46  74 107 148 193 246 309 375 435
#     4  11  29  46  77 107 151 200 257 304 385 453
#     4  10  24  42  74 100 143 184 241 303 373 442
#     4  12  27  43  78 107 150 196 261 305 379 450
#
# _framework density 24.525113999999999
#
# number of rings (size 3 to 8) (size 9 to 14) (size 15 to 20)
#    0.000    1.000    1.250    2.625   14.000    2.000 
#    0.000    0.000    0.000    0.000    0.000    0.000 
#    0.000    0.000    0.000    0.000    0.000    0.000 
#
# Total GULP energy -89406.667741 kJ/mol
# GULP energy per Si atom -5587.916734 kJ/mol
# Density = 2.446929 g / cm^3
# Si number density = 24.525114 Si / 1000 Ang^3
#
#
#
# Elastic Constant Matrix: (Units=GPa)
#
#
# Indices 1 2 3 4 5 6 
#
# 1 130.5957 45.1941 22.7860 -1.1494 10.6856 -6.0066
# 2 45.1941 112.3477 42.2152 -10.5480 -0.5206 -19.7638
# 3 22.7860 42.2152 87.1165 -17.2448 -1.0173 0.0429
# 4 -1.1494 -10.5480 -17.2448 38.0045 -3.5978 -2.6695
# 5 10.6856 -0.5206 -1.0173 -3.5978 45.5903 0.3771
# 6 -6.0066 -19.7638 0.0429 -2.6695 0.3771 25.7089
#
#
#
# Elastic Compliance Matrix: (Units=1/GPa)
#
#
# Indices 1 2 3 4 5 6 
#
# 1 0.009224 -0.003623 -0.000969 -0.001439 -0.002332 -0.000744
# 2 -0.003623 0.014557 -0.005666 0.002194 0.000975 0.010567
# 3 -0.000969 -0.005666 0.015530 0.005249 0.000957 -0.004077
# 4 -0.001439 0.002194 0.005249 0.029834 0.002798 0.004399
# 5 -0.002332 0.000975 0.000957 0.002798 0.022733 0.000160
# 6 -0.000744 0.010567 -0.004077 0.004399 0.000160 0.047308
#
#
# Mechanical properties :
#
#
# Convention : Reuss Voigt Hill
#
# Bulk Modulus (GPa) = 53.20410 61.16116 57.18263
# Shear Modulus (GPa) = 30.12650 36.51837 33.32243
#
# Velocity S-wave (km/s) = 3.50865 3.86297 3.69006
# Velocity P-wave (km/s) = 6.17697 6.69993 6.44376
#
# Compressibility (1/GPa) = 0.01879554
#
# Stress axis : x y z
#
# Youngs Moduli (GPa) = 108.41160 68.69563 64.39136
#
# Poissons Ratio (x) = 0.24892 0.06237
# Poissons Ratio (y) = 0.39283 0.36483
# Poissons Ratio (z) = 0.10500 0.38921
#
# Static dielectric constant tensor:
#      x y z
#    x 1.871620 0.676400 -0.949190 
#    y 0.676400 -2.829620 6.519020 
#    z -0.949190 6.519020 -5.874530 
# 
# From -- ./inp_files/323604.got.cif
#   From: 2010.05.17/outbox.cif.g08.bks.cpg/sg2_162_cif.got.tgz:323604.got - 2010.06.03 11:33:40.
