data_PCOD9044240
_publ_section_title
;
Structure prediction by ZEFSAII (Michael W. Deem and Ramdas Pophale) SiO2 
 PCOD9044240
Probable space group: P -1
;
_chemical_formula_sum "Si O2"
_cell_formula_units_Z 16
_cell_length_a 18.379068
_cell_length_b 9.533896
_cell_length_c 20.374160
_cell_angle_alpha 34.688188
_cell_angle_beta 19.883804
_cell_angle_gamma 34.092750
_cell_volume 662.658667
_symmetry_space_group_name_H-M "P -1"
_symmetry_group_IT_number 2
_symmetry_cell_setting 'triclinic'
loop_
_space_group_symop_operation_xyz
x,y,z
-x,-y,-z
loop_
_atom_site_type_symbol
_atom_site_label
_atom_site_fract_x
_atom_site_fract_y
_atom_site_fract_z
Si Si1 0.292073 0.720759 0.565052
Si Si2 0.020716 0.920560 0.206601
Si Si3 0.163932 0.056352 0.397021
Si Si4 0.078305 0.386032 0.781445
Si Si5 0.225619 0.858936 0.802989
Si Si6 0.448053 0.199196 0.190248
Si Si7 0.803567 0.472721 0.607324
Si Si8 0.343690 0.520389 0.408819
O O1 0.500000 0.500000 0.500000
O O2 0.176886 0.573524 0.668098
O O3 0.109352 0.844503 0.727076
O O4 0.385031 0.949293 0.369863
O O5 0.931453 0.015584 0.172643
O O6 0.931370 0.684006 0.398104
O O7 0.286986 0.855743 0.011130
O O8 0.332390 0.228357 0.204867
O O9 0.976731 0.188067 0.561179
O O10 0.350132 0.783159 0.334383
O O11 0.000000 0.000000 0.500000
O O12 0.103696 0.483946 0.648805
O O13 0.206567 0.081497 0.787267
O O14 0.847953 0.373103 0.011746
O O15 0.474786 0.722111 0.622022
O O16 0.322778 0.434172 0.253922
O O17 0.636389 0.488221 0.682444
#
# Coordination Sequence:
#
# PCOD9044240 Si02
#       8
#     2   2   2   2   2   2   2   2
#     4  11  24  39  64  96 140 179 211 261 332 395
#     4  11  25  41  64 103 137 170 220 270 328 401
#     4  10  23  46  71  96 124 174 229 275 329 388
#     4  11  23  38  61  94 133 170 217 257 321 390
#     4  11  25  38  64  97 137 171 217 263 327 404
#     4  11  24  43  69  96 133 176 217 273 334 386
#     4  10  24  43  69  93 130 175 225 270 331 383
#     4  11  22  42  67  93 132 175 215 274 327 383
#
# _framework density 24.145160000000001
#
# number of rings (size 3 to 8) (size 9 to 14) (size 15 to 20)
#    0.000    1.250    2.500    2.250    8.750    1.500 
#    0.000    1.250    0.000    9.000    0.000    0.000 
#    0.000    0.000    0.000    0.000    0.000    0.000 
#
# Total GULP energy -89141.480144 kJ/mol
# GULP energy per Si atom -5571.342509 kJ/mol
# Density = 2.409020 g / cm^3
# Si number density = 24.145160 Si / 1000 Ang^3
#
#
#
# Elastic Constant Matrix: (Units=GPa)
#
#
# Indices 1 2 3 4 5 6 
#
# 1 113.3816 57.9618 42.4898 14.5539 -14.4865 28.6176
# 2 57.9618 166.4261 49.2414 16.1967 -16.1875 36.5183
# 3 42.4898 49.2414 121.3352 11.7036 -11.1522 10.0851
# 4 14.5539 16.1967 11.7036 40.7792 -8.9432 -1.5776
# 5 -14.4865 -16.1875 -11.1522 -8.9432 28.0267 1.6256
# 6 28.6176 36.5183 10.0851 -1.5776 1.6256 52.5156
#
#
#
# Elastic Compliance Matrix: (Units=1/GPa)
#
#
# Indices 1 2 3 4 5 6 
#
# 1 0.013022 -0.001898 -0.002727 -0.002425 0.004092 -0.005452
# 2 -0.001898 0.008804 -0.002061 -0.001756 0.003004 -0.004838
# 3 -0.002727 -0.002061 0.010140 -0.000839 0.001115 0.000912
# 4 -0.002425 -0.001756 -0.000839 0.027787 0.006071 0.003350
# 5 0.004092 0.003004 0.001115 0.006071 0.042240 -0.005658
# 6 -0.005452 -0.004838 0.000912 0.003350 -0.005658 0.025478
#
#
# Mechanical properties :
#
#
# Convention : Reuss Voigt Hill
#
# Bulk Modulus (GPa) = 53.77600 77.83657 65.80629
# Shear Modulus (GPa) = 34.00423 41.02762 37.51593
#
# Velocity S-wave (km/s) = 3.75684 4.12662 3.94606
# Velocity P-wave (km/s) = 6.41395 7.41702 6.93365
#
# Compressibility (1/GPa) = 0.01859566
#
# Stress axis : x y z
#
# Youngs Moduli (GPa) = 76.79213 113.58315 98.61597
#
# Poissons Ratio (x) = 0.21560 0.26889
# Poissons Ratio (y) = 0.14577 0.20321
# Poissons Ratio (z) = 0.20939 0.23405
#
# Static dielectric constant tensor:
#      x y z
#    x 2.097590 -0.068040 0.036350 
#    y -0.068040 1.940220 -0.011670 
#    z 0.036350 -0.011670 1.940660 
# 
# From -- ./inp_files/599684.got.cif
#   From: 2010.05.17/outbox.cif.g08.bks.cpg/sg2_300_cif.got.tgz:599684.got - 2010.06.03 11:33:40.
