data_PCOD9044953
_publ_section_title
;
Structure prediction by ZEFSAII (Michael W. Deem and Ramdas Pophale) SiO2 
 PCOD9044953
Probable space group: P -1
;
_chemical_formula_sum "Si O2"
_cell_formula_units_Z 10
_cell_length_a 14.947305
_cell_length_b 6.053507
_cell_length_c 17.618283
_cell_angle_alpha 51.510176
_cell_angle_beta 21.193856
_cell_angle_gamma 50.263372
_cell_volume 441.196968
_symmetry_space_group_name_H-M "P -1"
_symmetry_group_IT_number 2
_symmetry_cell_setting 'triclinic'
loop_
_space_group_symop_operation_xyz
x,y,z
-x,-y,-z
loop_
_atom_site_type_symbol
_atom_site_label
_atom_site_fract_x
_atom_site_fract_y
_atom_site_fract_z
Si Si1 0.156118 0.407186 0.820671
Si Si2 0.386733 0.972831 0.511288
Si Si3 0.424044 0.437738 0.158481
Si Si4 0.957699 0.457850 0.800713
Si Si5 0.044397 0.050332 0.542235
O O1 0.275065 0.687649 0.654899
O O2 0.371811 0.112450 0.717194
O O3 0.006710 0.378766 0.867233
O O4 0.000000 0.500000 0.000000
O O5 0.500000 0.000000 0.500000
O O6 0.153993 0.245295 0.634966
O O7 0.310389 0.150544 0.319054
O O8 0.187314 0.693268 0.308403
O O9 0.500000 0.500000 0.000000
O O10 0.671325 0.448116 0.009297
O O11 0.018338 0.770985 0.670205
O O12 0.000000 0.000000 0.500000
#
# Coordination Sequence:
#
# PCOD9044953 Si02
#       5
#     2   2   2   2   2
#     4  10  23  48  70 100 139 178 229 288 343 411
#     4   9  22  46  66  99 138 172 234 290 334 414
#     4  11  25  46  69 102 146 179 234 284 339 415
#     4  11  24  45  73 101 141 186 227 283 354 403
#     4  11  25  46  68 103 145 181 230 290 335 412
#
# _framework density 22.665616
#
# number of rings (size 3 to 8) (size 9 to 14) (size 15 to 20)
#    0.000    1.600    2.000    0.600    2.800    3.200 
#   28.800    0.000    0.000    0.000    0.000    0.000 
#    0.000    0.000    0.000    0.000    0.000    0.000 
#
# Total GULP energy -55882.911909 kJ/mol
# GULP energy per Si atom -5588.291191 kJ/mol
# Density = 2.261403 g / cm^3
# Si number density = 22.665616 Si / 1000 Ang^3
#
#
#
# Elastic Constant Matrix: (Units=GPa)
#
#
# Indices 1 2 3 4 5 6 
#
# 1 111.7973 28.2891 77.8626 8.9348 0.8731 9.6185
# 2 28.2891 115.3758 72.4750 6.0989 -9.0328 7.8778
# 3 77.8626 72.4750 177.4417 3.0475 -11.5639 6.1909
# 4 8.9348 6.0989 3.0475 47.1668 20.2977 7.8980
# 5 0.8731 -9.0328 -11.5639 20.2977 46.0961 4.4286
# 6 9.6185 7.8778 6.1909 7.8980 4.4286 31.3301
#
#
#
# Elastic Compliance Matrix: (Units=1/GPa)
#
#
# Indices 1 2 3 4 5 6 
#
# 1 0.013348 0.000756 -0.006098 -0.001481 -0.000732 -0.002607
# 2 0.000756 0.012038 -0.005002 -0.001953 0.002150 -0.002082
# 3 -0.006098 -0.005002 0.010421 0.000344 0.001524 0.000768
# 4 -0.001481 -0.001953 0.000344 0.027613 -0.012006 -0.004386
# 5 -0.000732 0.002150 0.001524 -0.012006 0.027946 -0.001541
# 6 -0.002607 -0.002082 0.000768 -0.004386 -0.001541 0.034414
#
#
# Mechanical properties :
#
#
# Convention : Reuss Voigt Hill
#
# Bulk Modulus (GPa) = 66.13678 84.65201 75.39439
# Shear Modulus (GPa) = 33.00153 39.98448 36.49300
#
# Velocity S-wave (km/s) = 3.81992 4.20468 4.01691
# Velocity P-wave (km/s) = 6.97842 7.81036 7.40608
#
# Compressibility (1/GPa) = 0.01512018
#
# Stress axis : x y z
#
# Youngs Moduli (GPa) = 74.91479 83.07077 95.95841
#
# Poissons Ratio (x) = -0.06283 0.58512
# Poissons Ratio (y) = -0.05666 0.48003
# Poissons Ratio (z) = 0.45680 0.41556
#
# Static dielectric constant tensor:
#      x y z
#    x 1.851650 -0.009170 0.016650 
#    y -0.009170 1.839000 0.015950 
#    z 0.016650 0.015950 1.921460 
# 
# From -- ./inp_files/1428.got.cif
#   From: 2010.05.17/outbox.cif.g08.bks.cpg/sg2_1_cif.got.tgz:1428.got - 2010.06.03 11:33:40.
