data_PCOD9044020
_publ_section_title
;
Structure prediction by ZEFSAII (Michael W. Deem and Ramdas Pophale) SiO2 
 PCOD9044020
Probable space group: P -1
;
_chemical_formula_sum "Si O2"
_cell_formula_units_Z 12
_cell_length_a 5.288574
_cell_length_b 7.869946
_cell_length_c 16.126429
_cell_angle_alpha 127.934767
_cell_angle_beta 72.964039
_cell_angle_gamma 110.890300
_cell_volume 492.095978
_symmetry_space_group_name_H-M "P -1"
_symmetry_group_IT_number 2
_symmetry_cell_setting 'triclinic'
loop_
_space_group_symop_operation_xyz
x,y,z
-x,-y,-z
loop_
_atom_site_type_symbol
_atom_site_label
_atom_site_fract_x
_atom_site_fract_y
_atom_site_fract_z
Si Si1 0.457375 0.826948 0.849031
Si Si2 0.604520 0.696777 0.981171
Si Si3 0.201513 0.414835 0.338287
Si Si4 0.034618 0.007188 0.399530
Si Si5 0.038285 0.533518 0.227059
Si Si6 0.360897 0.728152 0.560703
O O1 0.464891 0.749797 0.922306
O O2 0.735218 0.812474 0.771334
O O3 0.245268 0.624103 0.768543
O O4 0.369931 0.057227 0.910494
O O5 0.858691 0.612199 0.896040
O O6 0.500000 0.500000 0.000000
O O7 0.235879 0.560745 0.295440
O O8 0.380692 0.548376 0.434482
O O9 0.891385 0.381851 0.388706
O O10 0.341988 0.152430 0.399830
O O11 0.784739 0.100141 0.419326
O O12 0.013501 0.777333 0.284649
O O13 0.000000 0.000000 0.500000
#
# Coordination Sequence:
#
# PCOD9044020 Si02
#       6
#     2   2   2   2   2   2
#     4  10  23  46  68  98 142 178 233 299 356 420
#     4  10  24  44  69 101 133 181 236 293 363 427
#     4  10  24  42  66  96 138 185 229 289 349 411
#     4  12  25  43  68 102 143 184 234 289 346 420
#     4  11  24  41  68  95 139 182 227 299 353 414
#     4  11  26  42  68 104 140 190 238 280 345 429
#
# _framework density 24.385486
#
# number of rings (size 3 to 8) (size 9 to 14) (size 15 to 20)
#    0.000    1.333    1.667    2.000    9.333    2.000 
#    0.000    0.000    0.000    0.000    0.000    0.000 
#    0.000    0.000    0.000    0.000    0.000    0.000 
#
# Total GULP energy -66900.588728 kJ/mol
# GULP energy per Si atom -5575.049061 kJ/mol
# Density = 2.432998 g / cm^3
# Si number density = 24.385486 Si / 1000 Ang^3
#
#
#
# Elastic Constant Matrix: (Units=GPa)
#
#
# Indices 1 2 3 4 5 6 
#
# 1 61.8855 44.3549 52.2324 25.2190 -23.9018 -5.7734
# 2 44.3549 110.1918 52.5886 28.5731 -16.6241 -21.2072
# 3 52.2324 52.5886 118.8819 25.6247 -30.4321 0.2053
# 4 25.2190 28.5731 25.6247 49.9404 -8.5414 -4.5622
# 5 -23.9018 -16.6241 -30.4321 -8.5414 48.0507 5.8625
# 6 -5.7734 -21.2072 0.2053 -4.5622 5.8625 45.4032
#
#
#
# Elastic Compliance Matrix: (Units=1/GPa)
#
#
# Indices 1 2 3 4 5 6 
#
# 1 0.034253 -0.006651 -0.008327 -0.007880 0.008131 -0.000555
# 2 -0.006651 0.015226 -0.003535 -0.003251 -0.001609 0.006163
# 3 -0.008327 -0.003535 0.014977 -0.001026 0.004358 -0.003444
# 4 -0.007880 -0.003251 -0.001026 0.026231 -0.001063 0.000257
# 5 0.008131 -0.001609 0.004358 -0.001063 0.027281 -0.003367
# 6 -0.000555 0.006163 -0.003444 0.000257 -0.003367 0.025309
#
#
# Mechanical properties :
#
#
# Convention : Reuss Voigt Hill
#
# Bulk Modulus (GPa) = 36.45570 65.47900 50.96735
# Shear Modulus (GPa) = 26.39281 38.13109 32.26195
#
# Velocity S-wave (km/s) = 3.29343 3.95863 3.64125
# Velocity P-wave (km/s) = 5.42627 6.91406 6.21485
#
# Compressibility (1/GPa) = 0.02743055
#
# Stress axis : x y z
#
# Youngs Moduli (GPa) = 29.19430 65.67899 66.77038
#
# Poissons Ratio (x) = 0.43681 0.55599
# Poissons Ratio (y) = 0.19416 0.23603
# Poissons Ratio (z) = 0.24310 0.23217
#
# Static dielectric constant tensor:
#      x y z
#    x 2.090680 -0.022960 -0.032970 
#    y -0.022960 2.054820 -0.050800 
#    z -0.032970 -0.050800 1.984000 
# 
# From -- ./inp_files/546761.got.cif
#   From: 2010.05.17/outbox.cif.g08.bks.cpg/sg2_274_cif.got.tgz:546761.got - 2010.06.03 11:33:40.
