data_PCOD9044529
_publ_section_title
;
Structure prediction by ZEFSAII (Michael W. Deem and Ramdas Pophale) SiO2 
 PCOD9044529
Probable space group: P -1
;
_chemical_formula_sum "Si O2"
_cell_formula_units_Z 14
_cell_length_a 9.724773
_cell_length_b 6.981380
_cell_length_c 9.411840
_cell_angle_alpha 81.805622
_cell_angle_beta 103.213037
_cell_angle_gamma 83.520300
_cell_volume 608.671416
_symmetry_space_group_name_H-M "P -1"
_symmetry_group_IT_number 2
_symmetry_cell_setting 'triclinic'
loop_
_space_group_symop_operation_xyz
x,y,z
-x,-y,-z
loop_
_atom_site_type_symbol
_atom_site_label
_atom_site_fract_x
_atom_site_fract_y
_atom_site_fract_z
Si Si1 0.156789 0.266032 0.271023
Si Si2 0.274827 0.099046 0.021771
Si Si3 0.514817 0.747320 0.163459
Si Si4 0.924480 0.003489 0.255377
Si Si5 0.331465 0.029590 0.590113
Si Si6 0.889386 0.394248 0.574405
Si Si7 0.423752 0.601076 0.609212
O O1 0.227117 0.211708 0.142223
O O2 0.567545 0.169997 0.404869
O O3 0.253069 0.142897 0.427328
O O4 0.003000 0.191508 0.242211
O O5 0.363745 0.883009 0.092618
O O6 0.381506 0.214100 0.944900
O O7 0.139709 0.067130 0.897954
O O8 0.584234 0.834639 0.309190
O O9 0.515917 0.521593 0.225878
O O10 0.792507 0.028847 0.330017
O O11 0.041507 0.827139 0.357969
O O12 0.140677 0.488171 0.297570
O O13 0.743435 0.409031 0.451751
O O14 0.000000 0.500000 0.500000
O O15 0.500000 0.500000 0.500000
#
# Coordination Sequence:
#
# PCOD9044529 Si02
#       7
#     2   2   2   2   2   2   2
#     4  12  22  39  68  98 128 169 223 272 325 388
#     4  10  24  43  65  91 138 180 210 265 334 401
#     4  10  23  47  64  92 137 175 214 268 334 396
#     4  11  23  43  63  99 132 173 220 268 333 393
#     4  11  22  41  72  96 127 174 219 277 333 380
#     4  12  23  41  68 100 135 169 218 281 332 384
#     4  12  25  40  69 108 128 165 228 285 324 385
#
# _framework density 23.000917000000001
#
# number of rings (size 3 to 8) (size 9 to 14) (size 15 to 20)
#    0.000    0.857    4.286    3.429    2.000    1.714 
#    0.000   10.714    0.000    0.000    0.000    0.000 
#    0.000    0.000    0.000    0.000    0.000    0.000 
#
# Total GULP energy -78484.368820 kJ/mol
# GULP energy per Si atom -5606.026344 kJ/mol
# Density = 2.294857 g / cm^3
# Si number density = 23.000917 Si / 1000 Ang^3
#
#
#
# Elastic Constant Matrix: (Units=GPa)
#
#
# Indices 1 2 3 4 5 6 
#
# 1 68.4893 -0.4965 14.3805 4.7031 -2.8517 -1.8403
# 2 -0.4965 65.3065 -1.2873 1.3287 -9.5052 -14.9679
# 3 14.3805 -1.2873 67.5456 12.7282 3.9004 -7.4154
# 4 4.7031 1.3287 12.7282 34.9256 -13.2007 -3.1525
# 5 -2.8517 -9.5052 3.9004 -13.2007 29.0287 6.9515
# 6 -1.8403 -14.9679 -7.4154 -3.1525 6.9515 32.9064
#
#
#
# Elastic Compliance Matrix: (Units=1/GPa)
#
#
# Indices 1 2 3 4 5 6 
#
# 1 0.015404 0.000306 -0.003404 -0.000076 0.002088 -0.000214
# 2 0.000306 0.017653 0.000516 0.001530 0.004684 0.007320
# 3 -0.003404 0.000516 0.018158 -0.008652 -0.007722 0.004939
# 4 -0.000076 0.001530 -0.008652 0.039081 0.019836 -0.001704
# 5 0.002088 0.004684 -0.007722 0.019836 0.048102 -0.007754
# 6 -0.000214 0.007320 0.004939 -0.001704 -0.007754 0.036295
#
#
# Mechanical properties :
#
#
# Convention : Reuss Voigt Hill
#
# Bulk Modulus (GPa) = 21.71428 25.17054 23.44241
# Shear Modulus (GPa) = 25.61395 31.95511 28.78453
#
# Velocity S-wave (km/s) = 3.34069 3.73137 3.54142
# Velocity P-wave (km/s) = 4.93370 5.43426 5.19002
#
# Compressibility (1/GPa) = 0.04605265
#
# Stress axis : x y z
#
# Youngs Moduli (GPa) = 64.91802 56.64655 55.07325
#
# Poissons Ratio (x) = -0.01735 0.18744
# Poissons Ratio (y) = -0.01988 -0.02842
# Poissons Ratio (z) = 0.22095 -0.02923
#
# Static dielectric constant tensor:
#      x y z
#    x 1.907830 0.079090 -0.096630 
#    y 0.079090 1.944570 -0.111390 
#    z -0.096630 -0.111390 1.936030 
# 
# From -- ./inp_files/319689.got.cif
#   From: 2010.05.17/outbox.cif.g08.bks.cpg/sg2_160_cif.got.tgz:319689.got - 2010.06.03 11:33:40.
