data_PCOD9044407
_publ_section_title
;
Structure prediction by ZEFSAII (Michael W. Deem and Ramdas Pophale) SiO2 
 PCOD9044407
Probable space group: P -1
;
_chemical_formula_sum "Si O2"
_cell_formula_units_Z 12
_cell_length_a 10.386572
_cell_length_b 6.579777
_cell_length_c 9.317232
_cell_angle_alpha 67.735154
_cell_angle_beta 99.155405
_cell_angle_gamma 119.122358
_cell_volume 514.530445
_symmetry_space_group_name_H-M "P -1"
_symmetry_group_IT_number 2
_symmetry_cell_setting 'triclinic'
loop_
_space_group_symop_operation_xyz
x,y,z
-x,-y,-z
loop_
_atom_site_type_symbol
_atom_site_label
_atom_site_fract_x
_atom_site_fract_y
_atom_site_fract_z
Si Si1 0.674095 0.641248 0.019492
Si Si2 0.714754 0.497781 0.607741
Si Si3 0.825093 0.026234 0.442301
Si Si4 0.090671 0.524875 0.865506
Si Si5 0.403381 0.349579 0.686515
Si Si6 0.153271 0.858733 0.254967
O O1 0.753026 0.466703 0.076454
O O2 0.680120 0.741310 0.155720
O O3 0.500000 0.500000 0.000000
O O4 0.759132 0.867561 0.866117
O O5 0.846136 0.779634 0.537670
O O6 0.579066 0.469343 0.691290
O O7 0.643795 0.455409 0.446496
O O8 0.766498 0.306693 0.722034
O O9 0.660403 0.872115 0.383108
O O10 0.899138 0.241815 0.282984
O O11 0.846917 0.137723 0.574160
O O12 0.003820 0.284648 0.811904
O O13 0.000000 0.500000 0.000000
#
# Coordination Sequence:
#
# PCOD9044407 Si02
#       6
#     2   2   2   2   2   2
#     4  12  28  46  76 106 144 192 242 290 361 421
#     4   9  22  42  75 107 143 184 238 295 358 413
#     4  10  23  46  74 104 143 188 241 290 357 428
#     4  12  29  49  71 105 149 193 233 299 357 427
#     4   9  21  44  69 108 145 177 242 295 350 417
#     4  12  26  45  75 108 147 183 243 293 363 423
#
# _framework density 23.322236
#
# number of rings (size 3 to 8) (size 9 to 14) (size 15 to 20)
#    1.000    0.333    0.000    4.000    7.000    2.000 
#    0.000    0.000    0.000    0.000    0.000    0.000 
#    0.000    0.000    0.000    0.000    0.000    0.000 
#
# Total GULP energy -66957.467516 kJ/mol
# GULP energy per Si atom -5579.788960 kJ/mol
# Density = 2.326915 g / cm^3
# Si number density = 23.322236 Si / 1000 Ang^3
#
#
#
# Elastic Constant Matrix: (Units=GPa)
#
#
# Indices 1 2 3 4 5 6 
#
# 1 124.4251 22.1409 48.5450 -3.1918 19.9114 -2.7765
# 2 22.1409 64.8602 35.5865 6.7291 0.1373 11.8888
# 3 48.5450 35.5865 162.1417 -5.2330 -21.7727 -2.0817
# 4 -3.1918 6.7291 -5.2330 49.1862 -7.6770 1.9157
# 5 19.9114 0.1373 -21.7727 -7.6770 39.0214 -4.1834
# 6 -2.7765 11.8888 -2.0817 1.9157 -4.1834 28.5015
#
#
#
# Elastic Compliance Matrix: (Units=1/GPa)
#
#
# Indices 1 2 3 4 5 6 
#
# 1 0.011212 -0.001505 -0.004144 -0.000791 -0.008154 0.000274
# 2 -0.001505 0.020701 -0.004833 -0.003659 -0.003733 -0.009436
# 3 -0.004144 -0.004833 0.009730 0.002613 0.008437 0.003386
# 4 -0.000791 -0.003659 0.002613 0.022002 0.006319 0.001089
# 5 -0.008154 -0.003733 0.008437 0.006319 0.036427 0.006301
# 6 0.000274 -0.009436 0.003386 0.001089 0.006301 0.040148
#
#
# Mechanical properties :
#
#
# Convention : Reuss Voigt Hill
#
# Bulk Modulus (GPa) = 48.35882 62.66353 55.51117
# Shear Modulus (GPa) = 29.74851 39.68546 34.71699
#
# Velocity S-wave (km/s) = 3.57535 4.12954 3.86240
# Velocity P-wave (km/s) = 6.15014 7.04729 6.61395
#
# Compressibility (1/GPa) = 0.02067875
#
# Stress axis : x y z
#
# Youngs Moduli (GPa) = 89.18975 48.30789 102.77958
#
# Poissons Ratio (x) = 0.07269 0.42587
# Poissons Ratio (y) = 0.13422 0.49677
# Poissons Ratio (z) = 0.36956 0.23349
#
# Static dielectric constant tensor:
#      x y z
#    x 1.898970 0.024350 0.015210 
#    y 0.024350 1.947060 0.036070 
#    z 0.015210 0.036070 1.870230 
# 
# From -- ./inp_files/228470.got.cif
#   From: 2010.05.17/outbox.cif.g08.bks.cpg/sg2_115_cif.got.tgz:228470.got - 2010.06.03 11:33:40.
