data_PCOD9044100
_publ_section_title
;
Structure prediction by ZEFSAII (Michael W. Deem and Ramdas Pophale) SiO2 
 PCOD9044100
Probable space group: P -1
;
_chemical_formula_sum "Si O2"
_cell_formula_units_Z 12
_cell_length_a 8.289637
_cell_length_b 9.315357
_cell_length_c 12.679134
_cell_angle_alpha 50.711132
_cell_angle_beta 78.391646
_cell_angle_gamma 49.385390
_cell_volume 536.863263
_symmetry_space_group_name_H-M "P -1"
_symmetry_group_IT_number 2
_symmetry_cell_setting 'triclinic'
loop_
_space_group_symop_operation_xyz
x,y,z
-x,-y,-z
loop_
_atom_site_type_symbol
_atom_site_label
_atom_site_fract_x
_atom_site_fract_y
_atom_site_fract_z
Si Si1 0.542814 0.668405 0.867894
Si Si2 0.773984 0.797511 0.903139
Si Si3 0.896153 0.557886 0.372592
Si Si4 0.424869 0.762578 0.414496
Si Si5 0.973604 0.799679 0.079460
Si Si6 0.690897 0.010944 0.454279
O O1 0.585449 0.792194 0.893916
O O2 0.781225 0.465086 0.868675
O O3 0.355268 0.869527 0.711150
O O4 0.500000 0.500000 0.000000
O O5 0.775680 0.970513 0.742107
O O6 0.000000 0.500000 0.000000
O O7 0.788165 0.879859 0.978586
O O8 0.640027 0.703748 0.364240
O O9 0.000000 0.500000 0.500000
O O10 0.921064 0.725567 0.225466
O O11 0.058189 0.272277 0.434046
O O12 0.500000 0.500000 0.500000
O O13 0.369983 0.810512 0.523129
O O14 0.000000 0.000000 0.000000
O O15 0.500000 0.000000 0.500000
#
# Coordination Sequence:
#
# PCOD9044100 Si02
#       6
#     2   2   2   2   2   2
#     4  11  24  43  73 102 138 192 238 295 367 427
#     4  10  23  46  69  99 148 185 239 302 359 428
#     4  12  25  45  76 104 144 193 242 299 365 434
#     4  12  28  45  74 111 147 190 245 305 367 439
#     4  11  26  42  70 103 142 185 241 295 364 435
#     4  12  22  47  73 101 146 189 241 296 365 433
#
# _framework density 22.352059000000001
#
# number of rings (size 3 to 8) (size 9 to 14) (size 15 to 20)
#    0.000    0.667    5.000    1.000    9.333    4.000 
#    0.000    0.000    0.000    0.000    0.000    0.000 
#    0.000    0.000    0.000    0.000    0.000    0.000 
#
# Total GULP energy -67005.489943 kJ/mol
# GULP energy per Si atom -5583.790829 kJ/mol
# Density = 2.230118 g / cm^3
# Si number density = 22.352059 Si / 1000 Ang^3
#
#
#
# Elastic Constant Matrix: (Units=GPa)
#
#
# Indices 1 2 3 4 5 6 
#
# 1 72.4305 46.8806 69.6559 5.7049 -18.0896 22.6535
# 2 46.8806 133.3809 40.9559 -3.7153 4.1838 24.0874
# 3 69.6559 40.9559 192.2375 9.3089 -16.3492 31.1536
# 4 5.7049 -3.7153 9.3089 50.3523 -3.3801 2.5411
# 5 -18.0896 4.1838 -16.3492 -3.3801 30.5856 -2.2469
# 6 22.6535 24.0874 31.1536 2.5411 -2.2469 58.5510
#
#
#
# Elastic Compliance Matrix: (Units=1/GPa)
#
#
# Indices 1 2 3 4 5 6 
#
# 1 0.032222 -0.008746 -0.007743 -0.001609 0.015637 -0.004079
# 2 -0.008746 0.010962 0.000500 0.001365 -0.006379 -0.001696
# 3 -0.007743 0.000500 0.008136 -0.000544 -0.000472 -0.001533
# 4 -0.001609 0.001365 -0.000544 0.020321 0.000780 -0.000501
# 5 0.015637 -0.006379 -0.000472 0.000780 0.042534 -0.001576
# 6 -0.004079 -0.001696 -0.001533 -0.000501 -0.001576 0.020132
#
#
# Mechanical properties :
#
#
# Convention : Reuss Voigt Hill
#
# Bulk Modulus (GPa) = 51.70484 79.22598 65.46541
# Shear Modulus (GPa) = 28.94635 43.93489 36.44062
#
# Velocity S-wave (km/s) = 3.60254 4.43830 4.04208
# Velocity P-wave (km/s) = 6.36291 7.86042 7.15098
#
# Compressibility (1/GPa) = 0.01934055
#
# Stress axis : x y z
#
# Youngs Moduli (GPa) = 31.03500 91.22117 122.91453
#
# Poissons Ratio (x) = 0.79786 0.95174
# Poissons Ratio (y) = 0.27144 -0.06144
# Poissons Ratio (z) = 0.24031 -0.04560
#
# Static dielectric constant tensor:
#      x y z
#    x 1.854430 0.011760 0.039070 
#    y 0.011760 1.855430 0.022800 
#    z 0.039070 0.022800 1.886460 
# 
# From -- ./inp_files/148727.got.cif
#   From: 2010.05.17/outbox.cif.g08.bks.cpg/sg2_75_cif.got.tgz:148727.got - 2010.06.03 11:33:40.
