data_PCOD9044475
_publ_section_title
;
Structure prediction by ZEFSAII (Michael W. Deem and Ramdas Pophale) SiO2 
 PCOD9044475
Probable space group: P -1
;
_chemical_formula_sum "Si O2"
_cell_formula_units_Z 16
_cell_length_a 21.310848
_cell_length_b 8.904772
_cell_length_c 9.289593
_cell_angle_alpha 118.976886
_cell_angle_beta 56.810378
_cell_angle_gamma 149.542225
_cell_volume 747.495633
_symmetry_space_group_name_H-M "P -1"
_symmetry_group_IT_number 2
_symmetry_cell_setting 'triclinic'
loop_
_space_group_symop_operation_xyz
x,y,z
-x,-y,-z
loop_
_atom_site_type_symbol
_atom_site_label
_atom_site_fract_x
_atom_site_fract_y
_atom_site_fract_z
Si Si1 0.389577 0.426240 0.647300
Si Si2 0.109719 0.442130 0.290869
Si Si3 0.791673 0.675456 0.691410
Si Si4 0.272815 0.791716 0.975183
Si Si5 0.926010 0.286027 0.854865
Si Si6 0.538535 0.255468 0.005050
Si Si7 0.122761 0.791994 0.609690
Si Si8 0.355091 0.673733 0.581890
O O1 0.500000 0.500000 0.500000
O O2 0.377280 0.553029 0.602832
O O3 0.249948 0.078864 0.666605
O O4 0.424321 0.562397 0.821743
O O5 0.141548 0.365827 0.338858
O O6 0.184430 0.537639 0.093296
O O7 0.159388 0.723394 0.409150
O O8 0.957500 0.193114 0.339330
O O9 0.659314 0.460052 0.844464
O O10 0.741155 0.549791 0.533710
O O11 0.883796 0.010122 0.763256
O O12 0.201663 0.835509 0.050789
O O13 0.292168 0.705929 0.773708
O O14 0.413663 0.089038 0.001083
O O15 0.021473 0.507451 0.706904
O O16 0.000000 0.500000 0.000000
O O17 0.500000 0.000000 0.000000
O O18 0.500000 0.000000 0.500000
#
# Coordination Sequence:
#
# PCOD9044475 Si02
#       8
#     2   2   2   2   2   2   2   2
#     4  12  27  44  78 101 139 191 242 288 360 432
#     4  10  23  46  76  95 143 194 236 290 346 438
#     4  12  26  44  76 107 143 188 237 296 374 404
#     4  11  24  47  72  96 147 188 231 296 350 426
#     4  11  28  48  69 107 148 185 237 304 356 422
#     4  12  22  46  71 102 137 190 242 286 351 434
#     4  10  25  47  71 104 139 188 250 283 351 438
#     4  12  27  45  68 116 146 179 237 307 362 417
#
# _framework density 21.404807000000002
#
# number of rings (size 3 to 8) (size 9 to 14) (size 15 to 20)
#    0.000    0.750    3.750    1.500   10.500    3.000 
#    0.000    3.125    0.000    0.000    0.000    0.000 
#    0.000    0.000    0.000    0.000    0.000    0.000 
#
# Total GULP energy -89527.010690 kJ/mol
# GULP energy per Si atom -5595.438168 kJ/mol
# Density = 2.135609 g / cm^3
# Si number density = 21.404807 Si / 1000 Ang^3
#
#
#
# Elastic Constant Matrix: (Units=GPa)
#
#
# Indices 1 2 3 4 5 6 
#
# 1 131.6080 51.5463 52.7310 8.8770 -4.4120 24.2555
# 2 51.5463 128.6598 59.2615 15.9146 -3.5801 20.7739
# 3 52.7310 59.2615 179.9166 18.1359 5.7918 13.1710
# 4 8.8770 15.9146 18.1359 39.4470 11.0868 11.2080
# 5 -4.4120 -3.5801 5.7918 11.0868 36.2724 -0.6444
# 6 24.2555 20.7739 13.1710 11.2080 -0.6444 34.9453
#
#
#
# Elastic Compliance Matrix: (Units=1/GPa)
#
#
# Indices 1 2 3 4 5 6 
#
# 1 0.010268 -0.002457 -0.001930 0.000756 0.000992 -0.005163
# 2 -0.002457 0.010679 -0.002405 -0.002312 0.001793 -0.002962
# 3 -0.001930 -0.002405 0.007078 -0.001732 -0.001062 0.000638
# 4 0.000756 -0.002312 -0.001732 0.032249 -0.009877 -0.009023
# 5 0.000992 0.001793 -0.001062 -0.009877 0.031098 0.002387
# 6 -0.005163 -0.002962 0.000638 -0.009023 0.002387 0.036658
#
#
# Mechanical properties :
#
#
# Convention : Reuss Voigt Hill
#
# Bulk Modulus (GPa) = 69.25197 85.25134 77.25165
# Shear Modulus (GPa) = 34.14661 40.57598 37.36130
#
# Velocity S-wave (km/s) = 3.99843 4.35863 4.18241
# Velocity P-wave (km/s) = 7.33077 8.07742 7.71314
#
# Compressibility (1/GPa) = 0.01444002
#
# Stress axis : x y z
#
# Youngs Moduli (GPa) = 97.39181 93.64438 141.27905
#
# Poissons Ratio (x) = 0.23008 0.27271
# Poissons Ratio (y) = 0.23928 0.33980
# Poissons Ratio (z) = 0.18799 0.22523
#
# Static dielectric constant tensor:
#      x y z
#    x 1.711000 -0.084340 -0.128460 
#    y -0.084340 1.706190 -0.156810 
#    z -0.128460 -0.156810 1.461990 
# 
# From -- ./inp_files/343762.got.cif
#   From: 2010.05.17/outbox.cif.g08.bks.cpg/sg2_172_cif.got.tgz:343762.got - 2010.06.03 11:33:40.
