data_PCOD9044560
_publ_section_title
;
Structure prediction by ZEFSAII (Michael W. Deem and Ramdas Pophale) SiO2 
 PCOD9044560
Probable space group: P -1
;
_chemical_formula_sum "Si O2"
_cell_formula_units_Z 16
_cell_length_a 5.257738
_cell_length_b 15.788821
_cell_length_c 14.485367
_cell_angle_alpha 134.651638
_cell_angle_beta 124.677304
_cell_angle_gamma 61.855391
_cell_volume 698.160441
_symmetry_space_group_name_H-M "P -1"
_symmetry_group_IT_number 2
_symmetry_cell_setting 'triclinic'
loop_
_space_group_symop_operation_xyz
x,y,z
-x,-y,-z
loop_
_atom_site_type_symbol
_atom_site_label
_atom_site_fract_x
_atom_site_fract_y
_atom_site_fract_z
Si Si1 0.349224 0.015446 0.318527
Si Si2 0.216321 0.806496 0.381234
Si Si3 0.410087 0.967137 0.079237
Si Si4 0.805752 0.421728 0.465150
Si Si5 0.127275 0.333706 0.651963
Si Si6 0.226149 0.842781 0.779368
Si Si7 0.132562 0.533537 0.953528
Si Si8 0.992555 0.813265 0.150101
O O1 0.626728 0.075848 0.468038
O O2 0.050832 0.117589 0.320776
O O3 0.383468 0.976402 0.189835
O O4 0.261515 0.900141 0.264995
O O5 0.063166 0.761759 0.408524
O O6 0.949599 0.815977 0.254643
O O7 0.506571 0.716799 0.327427
O O8 0.731210 0.874616 0.073711
O O9 0.487759 0.093860 0.152907
O O10 0.175878 0.907332 0.918385
O O11 0.500000 0.500000 0.500000
O O12 0.008117 0.375594 0.559637
O O13 0.725414 0.298910 0.307689
O O14 0.000000 0.500000 0.500000
O O15 0.036202 0.448646 0.787708
O O16 0.500000 0.500000 0.000000
O O17 0.057605 0.675003 0.030430
O O18 0.000000 0.500000 0.000000
#
# Coordination Sequence:
#
# PCOD9044560 Si02
#       8
#     2   2   2   2   2   2   2   2
#     4  11  24  43  71 100 139 186 234 298 351 422
#     4  12  25  45  75 101 148 184 237 284 359 431
#     4  10  24  43  73  96 142 182 237 300 350 420
#     4  12  28  46  74 107 139 183 241 295 349 425
#     4  12  25  48  72 103 142 196 228 290 363 420
#     4  10  23  47  67 102 137 186 237 291 368 412
#     4  12  25  46  71  98 144 188 232 286 347 424
#     4  11  26  42  65 111 131 184 239 286 349 423
#
# _framework density 22.917368
#
# number of rings (size 3 to 8) (size 9 to 14) (size 15 to 20)
#    0.000    0.750    3.750    2.250    8.750    1.500 
#    0.000    0.000    0.000    0.000    0.000    0.000 
#    0.000    0.000    0.000    0.000    0.000    0.000 
#
# Total GULP energy -89392.046792 kJ/mol
# GULP energy per Si atom -5587.002924 kJ/mol
# Density = 2.286521 g / cm^3
# Si number density = 22.917368 Si / 1000 Ang^3
#
#
#
# Elastic Constant Matrix: (Units=GPa)
#
#
# Indices 1 2 3 4 5 6 
#
# 1 112.0800 38.5813 14.8013 16.0016 -9.3470 22.8523
# 2 38.5813 101.6007 34.6154 12.2451 3.0322 23.0367
# 3 14.8013 34.6154 124.9227 15.2734 -5.5028 16.2274
# 4 16.0016 12.2451 15.2734 55.9497 8.0712 5.7603
# 5 -9.3470 3.0322 -5.5028 8.0712 34.7797 -7.4364
# 6 22.8523 23.0367 16.2274 5.7603 -7.4364 36.1763
#
#
#
# Elastic Compliance Matrix: (Units=1/GPa)
#
#
# Indices 1 2 3 4 5 6 
#
# 1 0.011544 -0.003376 0.000605 -0.002746 0.003207 -0.004318
# 2 -0.003376 0.013545 -0.002726 -0.000087 -0.003790 -0.006035
# 3 0.000605 -0.002726 0.009311 -0.002184 0.001936 -0.002078
# 4 -0.002746 -0.000087 -0.002184 0.020342 -0.006168 -0.001737
# 5 0.003207 -0.003790 0.001936 -0.006168 0.033251 0.007336
# 6 -0.004318 -0.006035 -0.002078 -0.001737 0.007336 0.036930
#
#
# Mechanical properties :
#
#
# Convention : Reuss Voigt Hill
#
# Bulk Modulus (GPa) = 42.72020 57.17770 49.94895
# Shear Modulus (GPa) = 34.79056 42.08818 38.43937
#
# Velocity S-wave (km/s) = 3.90049 4.29011 4.09993
# Velocity P-wave (km/s) = 6.24232 7.03873 6.65245
#
# Compressibility (1/GPa) = 0.02340813
#
# Stress axis : x y z
#
# Youngs Moduli (GPa) = 86.62416 73.82829 107.40450
#
# Poissons Ratio (x) = 0.24922 -0.06503
# Poissons Ratio (y) = 0.29242 0.29274
# Poissons Ratio (z) = -0.05245 0.20122
#
# Static dielectric constant tensor:
#      x y z
#    x 1.977460 -0.070930 -0.025780 
#    y -0.070930 1.868460 -0.000240 
#    z -0.025780 -0.000240 1.941970 
# 
# From -- ./inp_files/81424.got.cif
#   From: 2010.05.17/outbox.cif.g08.bks.cpg/sg2_41_cif.got.tgz:81424.got - 2010.06.03 11:33:40.
