data_PCOD9044380
_publ_section_title
;
Structure prediction by ZEFSAII (Michael W. Deem and Ramdas Pophale) SiO2 
 PCOD9044380
Probable space group: P -1
;
_chemical_formula_sum "Si O2"
_cell_formula_units_Z 10
_cell_length_a 7.763259
_cell_length_b 5.294045
_cell_length_c 12.672984
_cell_angle_alpha 78.380351
_cell_angle_beta 103.131011
_cell_angle_gamma 60.879877
_cell_volume 412.249174
_symmetry_space_group_name_H-M "P -1"
_symmetry_group_IT_number 2
_symmetry_cell_setting 'triclinic'
loop_
_space_group_symop_operation_xyz
x,y,z
-x,-y,-z
loop_
_atom_site_type_symbol
_atom_site_label
_atom_site_fract_x
_atom_site_fract_y
_atom_site_fract_z
Si Si1 0.380864 0.072706 0.759727
Si Si2 0.974983 0.898327 0.393002
Si Si3 0.198612 0.522700 0.051733
Si Si4 0.056109 0.048514 0.835387
Si Si5 0.601568 0.691217 0.469021
O O1 0.592007 0.810080 0.868386
O O2 0.273209 0.961292 0.670712
O O3 0.189271 0.198513 0.807999
O O4 0.419156 0.265824 0.665100
O O5 0.024807 0.004807 0.281620
O O6 0.146869 0.527456 0.448021
O O7 0.000000 0.000000 0.500000
O O8 0.132532 0.728136 0.131337
O O9 0.000000 0.500000 0.000000
O O10 0.210379 0.725031 0.944086
O O11 0.500000 0.500000 0.500000
O O12 0.500000 0.000000 0.500000
#
# Coordination Sequence:
#
# PCOD9044380 Si02
#       5
#     2   2   2   2   2
#     4  10  24  44  70 105 148 190 250 309 374 453
#     4  10  23  46  73 109 149 198 245 309 388 450
#     4  11  23  45  71 105 142 196 251 309 371 441
#     4   9  24  44  71 100 150 184 259 301 374 451
#     4  12  26  45  74 110 152 199 253 310 383 459
#
# _framework density 24.257172000000001
#
# number of rings (size 3 to 8) (size 9 to 14) (size 15 to 20)
#    1.200    0.400    0.000    3.600    2.800    2.400 
#    3.600    0.000    0.000    0.000    0.000    0.000 
#    0.000    0.000    0.000    0.000    0.000    0.000 
#
# Total GULP energy -55760.374343 kJ/mol
# GULP energy per Si atom -5576.037434 kJ/mol
# Density = 2.420196 g / cm^3
# Si number density = 24.257172 Si / 1000 Ang^3
#
#
#
# Elastic Constant Matrix: (Units=GPa)
#
#
# Indices 1 2 3 4 5 6 
#
# 1 73.5505 12.0700 30.6751 -3.6884 -7.3172 4.1181
# 2 12.0700 85.9865 39.9326 -2.7048 -1.8725 0.2366
# 3 30.6751 39.9326 164.5788 -3.3511 -24.5685 -14.1618
# 4 -3.6884 -2.7048 -3.3511 37.8696 3.5836 8.3942
# 5 -7.3172 -1.8725 -24.5685 3.5836 60.4098 -11.3620
# 6 4.1181 0.2366 -14.1618 8.3942 -11.3620 27.4200
#
#
#
# Elastic Compliance Matrix: (Units=1/GPa)
#
#
# Indices 1 2 3 4 5 6 
#
# 1 0.015349 -0.000615 -0.003153 0.002289 -0.000487 -0.004831
# 2 -0.000615 0.013426 -0.003651 0.001434 -0.001811 -0.003098
# 3 -0.003153 -0.003651 0.008858 -0.001906 0.004648 0.007589
# 4 0.002289 0.001434 -0.001906 0.029723 -0.004534 -0.012318
# 5 -0.000487 -0.001811 0.004648 -0.004534 0.020960 0.012562
# 6 -0.004831 -0.003098 0.007589 -0.012318 0.012562 0.050118
#
#
# Mechanical properties :
#
#
# Convention : Reuss Voigt Hill
#
# Bulk Modulus (GPa) = 43.87153 54.38569 49.12861
# Shear Modulus (GPa) = 31.08098 41.23573 36.15836
#
# Velocity S-wave (km/s) = 3.58342 4.12751 3.86505
# Velocity P-wave (km/s) = 5.93688 6.72192 6.34156
#
# Compressibility (1/GPa) = 0.02279383
#
# Stress axis : x y z
#
# Youngs Moduli (GPa) = 65.15066 74.48417 112.89674
#
# Poissons Ratio (x) = 0.04584 0.35599
# Poissons Ratio (y) = 0.04010 0.41214
# Poissons Ratio (z) = 0.20544 0.27191
#
# Static dielectric constant tensor:
#      x y z
#    x 2.060420 0.035870 -0.057260 
#    y 0.035870 1.964090 0.012310 
#    z -0.057260 0.012310 1.985780 
# 
# From -- ./inp_files/58059.got.cif
#   From: 2010.05.17/outbox.cif.g08.bks.cpg/sg2_30_cif.got.tgz:58059.got - 2010.06.03 11:33:40.
