data_PCOD9044506
_publ_section_title
;
Structure prediction by ZEFSAII (Michael W. Deem and Ramdas Pophale) SiO2 
 PCOD9044506
Probable space group: P -1
;
_chemical_formula_sum "Si O2"
_cell_formula_units_Z 15
_cell_length_a 4.815982
_cell_length_b 5.273638
_cell_length_c 20.725336
_cell_angle_alpha 69.368219
_cell_angle_beta 71.020374
_cell_angle_gamma 89.714385
_cell_volume 462.248683
_symmetry_space_group_name_H-M "P -1"
_symmetry_group_IT_number 2
_symmetry_cell_setting 'triclinic'
loop_
_space_group_symop_operation_xyz
x,y,z
-x,-y,-z
loop_
_atom_site_type_symbol
_atom_site_label
_atom_site_fract_x
_atom_site_fract_y
_atom_site_fract_z
Si Si1 0.866185 0.323371 0.824189
Si Si2 0.772896 0.633857 0.455642
Si Si3 0.500000 0.000000 0.500000
Si Si4 0.815992 0.813182 0.616218
Si Si5 0.647987 0.903755 0.762283
Si Si6 0.861277 0.884522 0.953896
Si Si7 0.283866 0.513271 0.896605
Si Si8 0.668613 0.669384 0.310896
O O1 0.767069 0.122494 0.786096
O O2 0.093338 0.364386 0.867500
O O3 0.144203 0.476054 0.742289
O O4 0.673561 0.070501 0.909099
O O5 0.800974 0.683111 0.371411
O O6 0.000000 0.500000 0.500000
O O7 0.542918 0.333043 0.482803
O O8 0.875676 0.983881 0.443054
O O9 0.595608 0.951634 0.576347
O O10 0.664521 0.498462 0.645564
O O11 0.799174 0.850848 0.689508
O O12 0.367847 0.034804 0.742888
O O13 0.615047 0.590159 0.828797
O O14 0.115596 0.775817 0.899755
O O15 0.688879 0.611598 0.024470
O O16 0.000000 0.000000 0.000000
#
# Coordination Sequence:
#
# PCOD9044506 Si02
#       8
#     2   2   1   2   2   2   2   2
#     4  10  23  46  78 115 166 228 296 352 438 518
#     4  12  29  54  85 126 169 230 289 365 444 529
#     4  12  26  50  84 122 168 218 288 360 440 520
#     4  12  29  51  84 126 172 223 298 358 443 531
#     4  10  25  47  75 115 166 225 289 354 430 522
#     4  11  22  43  75 115 170 224 287 361 432 510
#     4   9  23  45  69 115 165 225 284 358 425 515
#     4  12  26  53  83 121 174 228 287 368 439 515
#
# _framework density 32.450069999999997
#
# number of rings (size 3 to 8) (size 9 to 14) (size 15 to 20)
#    0.800    0.267    4.000    0.800    3.733    3.200 
#    2.400    2.667    0.000    0.000    0.000    0.000 
#    0.000    0.000    0.000    0.000    0.000    0.000 
#
# Total GULP energy -83582.303252 kJ/mol
# GULP energy per Si atom -5572.153550 kJ/mol
# Density = 3.237621 g / cm^3
# Si number density = 32.450070 Si / 1000 Ang^3
#
#
#
# Elastic Constant Matrix: (Units=GPa)
#
#
# Indices 1 2 3 4 5 6 
#
# 1 244.5817 85.9160 106.3894 -0.8434 27.0491 5.7824
# 2 85.9160 195.5476 87.9961 15.9257 11.7231 4.7420
# 3 106.3894 87.9961 328.8379 9.8908 48.1192 -0.8675
# 4 -0.8434 15.9257 9.8908 75.8348 12.5404 9.5892
# 5 27.0491 11.7231 48.1192 12.5404 62.0617 8.1155
# 6 5.7824 4.7420 -0.8675 9.5892 8.1155 93.1384
#
#
#
# Elastic Compliance Matrix: (Units=1/GPa)
#
#
# Indices 1 2 3 4 5 6 
#
# 1 0.005359 -0.001856 -0.001074 0.000831 -0.001291 -0.000221
# 2 -0.001856 0.006548 -0.001232 -0.001350 0.000821 -0.000162
# 3 -0.001074 -0.001232 0.004087 0.000085 -0.002535 0.000380
# 4 0.000831 -0.001350 0.000085 0.014092 -0.002866 -0.001183
# 5 -0.001291 0.000821 -0.002535 -0.002866 0.019244 -0.001367
# 6 -0.000221 -0.000162 0.000380 -0.001183 -0.001367 0.011003
#
#
# Mechanical properties :
#
#
# Convention : Reuss Voigt Hill
#
# Bulk Modulus (GPa) = 130.35463 147.73002 139.04233
# Shear Modulus (GPa) = 70.21129 78.78469 74.49799
#
# Velocity S-wave (km/s) = 4.65657 4.93269 4.79662
# Velocity P-wave (km/s) = 8.31683 8.83550 8.58008
#
# Compressibility (1/GPa) = 0.00767138
#
# Stress axis : x y z
#
# Youngs Moduli (GPa) = 186.61846 152.71068 244.65357
#
# Poissons Ratio (x) = 0.28345 0.26265
# Poissons Ratio (y) = 0.34638 0.30136
# Poissons Ratio (z) = 0.20035 0.18811
#
# Static dielectric constant tensor:
#      x y z
#    x 2.805360 -0.155940 -0.407050 
#    y -0.155940 2.929640 -0.433440 
#    z -0.407050 -0.433440 2.839120 
# 
# From -- ./inp_files/578530.got.cif
#   From: 2010.05.17/outbox.cif.g08.bks.cpg/sg2_290_cif.got.tgz:578530.got - 2010.06.03 11:33:40.
