data_PCOD9044925
_publ_section_title
;
Structure prediction by ZEFSAII (Michael W. Deem and Ramdas Pophale) SiO2 
 PCOD9044925
Probable space group: P -1
;
_chemical_formula_sum "Si O2"
_cell_formula_units_Z 16
_cell_length_a 8.363121
_cell_length_b 12.231097
_cell_length_c 12.183828
_cell_angle_alpha 87.333667
_cell_angle_beta 120.243357
_cell_angle_gamma 50.167121
_cell_volume 686.958510
_symmetry_space_group_name_H-M "P -1"
_symmetry_group_IT_number 2
_symmetry_cell_setting 'triclinic'
loop_
_space_group_symop_operation_xyz
x,y,z
-x,-y,-z
loop_
_atom_site_type_symbol
_atom_site_label
_atom_site_fract_x
_atom_site_fract_y
_atom_site_fract_z
Si Si1 0.619518 0.581857 0.353272
Si Si2 0.034887 0.937551 0.173316
Si Si3 0.559259 0.763162 0.135771
Si Si4 0.109804 0.374544 0.946177
Si Si5 0.662340 0.042430 0.557964
Si Si6 0.624301 0.985147 0.189527
Si Si7 0.056409 0.779658 0.534952
Si Si8 0.600447 0.620840 0.601826
O O1 0.689625 0.654052 0.297063
O O2 0.801062 0.399943 0.374956
O O3 0.670606 0.557310 0.503559
O O4 0.269055 0.743504 0.219650
O O5 0.230258 0.946518 0.293176
O O6 0.845444 0.961141 0.199458
O O7 0.784684 0.094356 0.999761
O O8 0.700168 0.649409 0.080111
O O9 0.609144 0.870551 0.140958
O O10 0.833703 0.467892 0.773319
O O11 0.000000 0.500000 0.000000
O O12 0.314559 0.185665 0.072029
O O13 0.961118 0.895272 0.599354
O O14 0.500000 0.000000 0.500000
O O15 0.437309 0.231342 0.419055
O O16 0.758842 0.906154 0.359122
O O17 0.292616 0.721190 0.536395
#
# Coordination Sequence:
#
# PCOD9044925 Si02
#       8
#     2   2   2   2   2   2   2   2
#     4  11  25  44  69 107 142 182 245 294 356 411
#     4  10  23  48  67 101 145 191 230 293 361 429
#     4  11  26  44  74 105 151 185 235 298 365 419
#     4  11  25  43  71 105 143 188 243 289 351 425
#     4  11  26  45  71 103 144 189 237 289 361 421
#     4  11  24  45  75 104 142 190 240 286 362 427
#     4  12  25  43  77 103 142 190 242 293 350 428
#     4  11  25  46  75 101 144 188 242 294 350 428
#
# _framework density 23.291070999999999
#
# number of rings (size 3 to 8) (size 9 to 14) (size 15 to 20)
#    0.000    1.000    2.500    4.125   12.250    1.000 
#    0.000    0.625    0.000    0.000    0.000    0.000 
#    0.000    0.000    0.000    0.000    0.000    0.000 
#
# Total GULP energy -89378.513274 kJ/mol
# GULP energy per Si atom -5586.157080 kJ/mol
# Density = 2.323806 g / cm^3
# Si number density = 23.291071 Si / 1000 Ang^3
#
#
#
# Elastic Constant Matrix: (Units=GPa)
#
#
# Indices 1 2 3 4 5 6 
#
# 1 85.5440 27.2225 19.1141 1.1597 -2.3160 7.5047
# 2 27.2225 109.1435 14.0364 -26.6808 -10.8559 -7.3468
# 3 19.1141 14.0364 105.9045 -28.3918 4.7932 2.1115
# 4 1.1597 -26.6808 -28.3918 32.6113 -5.8045 -3.8042
# 5 -2.3160 -10.8559 4.7932 -5.8045 31.0475 -1.3390
# 6 7.5047 -7.3468 2.1115 -3.8042 -1.3390 51.6611
#
#
#
# Elastic Compliance Matrix: (Units=1/GPa)
#
#
# Indices 1 2 3 4 5 6 
#
# 1 0.015079 -0.006226 -0.004506 -0.010427 -0.002467 -0.003724
# 2 -0.006226 0.015821 0.003428 0.018128 0.008124 0.004560
# 3 -0.004506 0.003428 0.013854 0.015535 0.001704 0.001764
# 4 -0.010427 0.018128 0.015535 0.063112 0.015328 0.008502
# 5 -0.002467 0.008124 0.001704 0.015328 0.037621 0.003548
# 6 -0.003724 0.004560 0.001764 0.008502 0.003548 0.021192
#
#
# Mechanical properties :
#
#
# Convention : Reuss Voigt Hill
#
# Bulk Modulus (GPa) = 33.17190 46.81532 39.99361
# Shear Modulus (GPa) = 26.13212 39.07856 32.60534
#
# Velocity S-wave (km/s) = 3.35323 4.10058 3.74559
# Velocity P-wave (km/s) = 5.40976 6.52407 5.99287
#
# Compressibility (1/GPa) = 0.03014599
#
# Stress axis : x y z
#
# Youngs Moduli (GPa) = 66.31594 63.20811 72.18182
#
# Poissons Ratio (x) = 0.39356 0.32523
# Poissons Ratio (y) = 0.41291 -0.24745
# Poissons Ratio (z) = 0.29880 -0.21669
#
# Static dielectric constant tensor:
#      x y z
#    x 1.970550 0.005060 -0.031230 
#    y 0.005060 1.881090 -0.000900 
#    z -0.031230 -0.000900 1.969270 
# 
# From -- ./inp_files/392620.got.cif
#   From: 2010.05.17/outbox.cif.g08.bks.cpg/sg2_197_cif.got.tgz:392620.got - 2010.06.03 11:33:40.
