data_PCOD9044077
_publ_section_title
;
Structure prediction by ZEFSAII (Michael W. Deem and Ramdas Pophale) SiO2 
 PCOD9044077
Probable space group: P -1
;
_chemical_formula_sum "Si O2"
_cell_formula_units_Z 12
_cell_length_a 8.620152
_cell_length_b 6.853690
_cell_length_c 15.834597
_cell_angle_alpha 136.726667
_cell_angle_beta 58.479109
_cell_angle_gamma 103.078840
_cell_volume 527.231843
_symmetry_space_group_name_H-M "P -1"
_symmetry_group_IT_number 2
_symmetry_cell_setting 'triclinic'
loop_
_space_group_symop_operation_xyz
x,y,z
-x,-y,-z
loop_
_atom_site_type_symbol
_atom_site_label
_atom_site_fract_x
_atom_site_fract_y
_atom_site_fract_z
Si Si1 0.402286 0.745007 0.472769
Si Si2 0.638533 0.718835 0.787702
Si Si3 0.380062 0.309361 0.018069
Si Si4 0.035988 0.676227 0.629720
Si Si5 0.796714 0.361822 0.262194
Si Si6 0.984937 0.664531 0.968067
O O1 0.340818 0.591879 0.360125
O O2 0.207699 0.822420 0.606336
O O3 0.574533 0.489767 0.382595
O O4 0.500000 0.000000 0.500000
O O5 0.610506 0.670189 0.878021
O O6 0.821079 0.848054 0.765733
O O7 0.469114 0.960925 0.869365
O O8 0.500000 0.500000 0.000000
O O9 0.173987 0.402892 0.068021
O O10 0.105860 0.508437 0.646021
O O11 0.000000 0.500000 0.500000
O O12 0.908331 0.013622 0.121382
O O13 0.833447 0.428904 0.174376
O O14 0.000000 0.500000 0.000000
#
# Coordination Sequence:
#
# PCOD9044077 Si02
#       6
#     2   2   2   2   2   2
#     4  11  25  44  72 102 139 192 235 284 346 426
#     4  10  23  48  67 102 146 176 236 291 356 417
#     4  11  24  40  74 102 135 183 230 300 353 414
#     4  10  23  46  69  93 139 190 226 287 346 416
#     4  11  24  46  68 100 140 179 237 288 351 416
#     4  11  26  42  71 104 137 178 227 301 354 408
#
# _framework density 22.760387000000001
#
# number of rings (size 3 to 8) (size 9 to 14) (size 15 to 20)
#    0.000    1.333    3.333    0.500    7.000    0.000 
#    6.000    1.667    0.000    0.000    0.000    0.000 
#    0.000    0.000    0.000    0.000    0.000    0.000 
#
# Total GULP energy -66888.188015 kJ/mol
# GULP energy per Si atom -5574.015668 kJ/mol
# Density = 2.270858 g / cm^3
# Si number density = 22.760387 Si / 1000 Ang^3
#
#
#
# Elastic Constant Matrix: (Units=GPa)
#
#
# Indices 1 2 3 4 5 6 
#
# 1 91.9674 32.0817 18.1312 -7.5844 -8.3096 7.6437
# 2 32.0817 136.1008 55.8211 -26.0728 0.6572 3.5711
# 3 18.1312 55.8211 77.2842 -21.3794 1.6118 7.8551
# 4 -7.5844 -26.0728 -21.3794 28.2345 6.7768 -0.6985
# 5 -8.3096 0.6572 1.6118 6.7768 40.2042 -10.9655
# 6 7.6437 3.5711 7.8551 -0.6985 -10.9655 46.5553
#
#
#
# Elastic Compliance Matrix: (Units=1/GPa)
#
#
# Indices 1 2 3 4 5 6 
#
# 1 0.012234 -0.002490 -0.001149 -0.000486 0.002407 -0.001064
# 2 -0.002490 0.011558 -0.006218 0.005618 -0.001306 0.000348
# 3 -0.001149 -0.006218 0.021126 0.010765 -0.003787 -0.003629
# 4 -0.000486 0.005618 0.010765 0.050995 -0.010261 -0.003819
# 5 0.002407 -0.001306 -0.003787 -0.010261 0.029201 0.007068
# 6 -0.001064 0.000348 -0.003629 -0.003819 0.007068 0.023848
#
#
# Mechanical properties :
#
#
# Convention : Reuss Voigt Hill
#
# Bulk Modulus (GPa) = 39.67379 57.49114 48.58246
# Shear Modulus (GPa) = 28.23637 36.28670 32.26153
#
# Velocity S-wave (km/s) = 3.52603 3.99719 3.76898
# Velocity P-wave (km/s) = 5.83490 6.82770 6.35073
#
# Compressibility (1/GPa) = 0.02520556
#
# Stress axis : x y z
#
# Youngs Moduli (GPa) = 81.73836 86.51915 47.33530
#
# Poissons Ratio (x) = 0.21540 0.05437
# Poissons Ratio (y) = 0.20350 0.29434
# Poissons Ratio (z) = 0.09388 0.53799
#
# Static dielectric constant tensor:
#      x y z
#    x 2.607940 0.417740 -0.198040 
#    y 0.417740 2.089350 -0.096890 
#    z -0.198040 -0.096890 1.984930 
# 
# From -- ./inp_files/28889.got.cif
#   From: 2010.05.17/outbox.cif.g08.bks.cpg/sg2_15_cif.got.tgz:28889.got - 2010.06.03 11:33:40.
