data_PCOD9044845
_publ_section_title
;
Structure prediction by ZEFSAII (Michael W. Deem and Ramdas Pophale) SiO2 
 PCOD9044845
Probable space group: P -1
;
_chemical_formula_sum "Si O2"
_cell_formula_units_Z 15
_cell_length_a 10.880411
_cell_length_b 16.154958
_cell_length_c 13.604883
_cell_angle_alpha 32.488531
_cell_angle_beta 147.602484
_cell_angle_gamma 147.534883
_cell_volume 612.152661
_symmetry_space_group_name_H-M "P -1"
_symmetry_group_IT_number 2
_symmetry_cell_setting 'triclinic'
loop_
_space_group_symop_operation_xyz
x,y,z
-x,-y,-z
loop_
_atom_site_type_symbol
_atom_site_label
_atom_site_fract_x
_atom_site_fract_y
_atom_site_fract_z
Si Si1 0.043096 0.188525 0.976251
Si Si2 0.597722 0.285418 0.209261
Si Si3 0.811662 0.061365 0.252983
Si Si4 0.166975 0.697270 0.446631
Si Si5 0.392400 0.990557 0.632837
Si Si6 0.960848 0.387701 0.899234
Si Si7 0.500000 0.500000 0.500000
Si Si8 0.168370 0.135656 0.713275
O O1 0.937678 0.287495 0.880626
O O2 0.974264 0.207721 0.799438
O O3 0.351924 0.286905 0.092462
O O4 0.922530 0.992286 0.128366
O O5 0.789149 0.289333 0.421331
O O6 0.488848 0.106690 0.255732
O O7 0.763882 0.442541 0.092089
O O8 0.613361 0.046204 0.219096
O O9 0.703917 0.935915 0.212550
O O10 0.000000 0.000000 0.500000
O O11 0.951467 0.254350 0.111110
O O12 0.000000 0.500000 0.500000
O O13 0.455793 0.804666 0.489050
O O14 0.102322 0.905298 0.481583
O O15 0.738852 0.445536 0.706975
O O16 0.346893 0.337932 0.636991
#
# Coordination Sequence:
#
# PCOD9044845 Si02
#       8
#     2   2   2   2   2   2   1   2
#     4  11  26  48  79 113 155 212 263 324 403 474
#     4  12  25  51  78 114 162 202 260 339 395 456
#     4   9  23  45  73 107 146 209 260 307 399 475
#     4  12  27  44  76 115 150 209 268 313 394 478
#     4  11  24  48  72 109 160 200 255 330 397 463
#     4  11  25  47  78 114 158 204 261 331 394 469
#     4  12  26  44  76 114 154 206 260 330 388 472
#     4  10  23  47  75 108 159 207 256 326 397 464
#
# _framework density 24.503692999999998
#
# number of rings (size 3 to 8) (size 9 to 14) (size 15 to 20)
#    0.000    1.067    4.000    0.800    3.733    2.133 
#    2.400    0.000    0.000    0.000    0.000    0.000 
#    0.000    0.000    0.000    0.000    0.000    0.000 
#
# Total GULP energy -83624.548197 kJ/mol
# GULP energy per Si atom -5574.969880 kJ/mol
# Density = 2.444792 g / cm^3
# Si number density = 24.503693 Si / 1000 Ang^3
#
#
#
# Elastic Constant Matrix: (Units=GPa)
#
#
# Indices 1 2 3 4 5 6 
#
# 1 110.7507 43.1024 49.6128 -6.5650 -12.1998 12.6715
# 2 43.1024 136.4462 40.3025 -27.5573 -18.2523 28.5472
# 3 49.6128 40.3025 133.6529 -22.1821 -13.3621 13.1823
# 4 -6.5650 -27.5573 -22.1821 43.1216 18.6136 -11.4067
# 5 -12.1998 -18.2523 -13.3621 18.6136 47.4848 -0.4064
# 6 12.6715 28.5472 13.1823 -11.4067 -0.4064 44.1909
#
#
#
# Elastic Compliance Matrix: (Units=1/GPa)
#
#
# Indices 1 2 3 4 5 6 
#
# 1 0.012007 -0.002737 -0.003808 -0.003183 0.002198 -0.001341
# 2 -0.002737 0.010414 -0.000866 0.003922 0.001479 -0.004658
# 3 -0.003808 -0.000866 0.009821 0.003875 -0.000069 -0.000278
# 4 -0.003183 0.003922 0.003875 0.033643 -0.011358 0.005803
# 5 0.002198 0.001479 -0.000069 -0.011358 0.026589 -0.004252
# 6 -0.001341 -0.004658 -0.000278 0.005803 -0.004252 0.027564
#
#
# Mechanical properties :
#
#
# Convention : Reuss Voigt Hill
#
# Bulk Modulus (GPa) = 57.40702 71.87612 64.64157
# Shear Modulus (GPa) = 35.54528 43.48161 39.51344
#
# Velocity S-wave (km/s) = 3.81282 4.21704 4.02001
# Velocity P-wave (km/s) = 6.54692 7.28750 6.92712
#
# Compressibility (1/GPa) = 0.01741947
#
# Stress axis : x y z
#
# Youngs Moduli (GPa) = 83.28444 96.02706 101.82756
#
# Poissons Ratio (x) = 0.26278 0.38779
# Poissons Ratio (y) = 0.22791 0.08820
# Poissons Ratio (z) = 0.31717 0.08317
#
# Static dielectric constant tensor:
#      x y z
#    x 1.941270 -0.015080 0.066340 
#    y -0.015080 1.946830 0.018040 
#    z 0.066340 0.018040 2.006990 
# 
# From -- ./inp_files/523233.got.cif
#   From: 2010.05.17/outbox.cif.g08.bks.cpg/sg2_262_cif.got.tgz:523233.got - 2010.06.03 11:33:40.
