data_PCOD9044211
_publ_section_title
;
Structure prediction by ZEFSAII (Michael W. Deem and Ramdas Pophale) SiO2 
 PCOD9044211
Probable space group: P -1
;
_chemical_formula_sum "Si O2"
_cell_formula_units_Z 12
_cell_length_a 7.001309
_cell_length_b 16.126410
_cell_length_c 5.126339
_cell_angle_alpha 120.129574
_cell_angle_beta 72.966098
_cell_angle_gamma 86.782948
_cell_volume 463.965535
_symmetry_space_group_name_H-M "P -1"
_symmetry_group_IT_number 2
_symmetry_cell_setting 'triclinic'
loop_
_space_group_symop_operation_xyz
x,y,z
-x,-y,-z
loop_
_atom_site_type_symbol
_atom_site_label
_atom_site_fract_x
_atom_site_fract_y
_atom_site_fract_z
Si Si1 0.071714 0.409338 0.627512
Si Si2 0.564881 0.554561 0.811152
Si Si3 0.438025 0.771196 0.106281
Si Si4 0.186544 0.713965 0.713185
Si Si5 0.036477 0.895868 0.682842
Si Si6 0.186858 0.230353 0.684110
O O1 0.784381 0.570847 0.638279
O O2 0.194521 0.313540 0.594021
O O3 0.959792 0.277035 0.961102
O O4 0.000000 0.500000 0.000000
O O5 0.500000 0.500000 0.500000
O O6 0.500000 0.500000 0.000000
O O7 0.435500 0.667982 0.088587
O O8 0.248450 0.866017 0.383351
O O9 0.644918 0.788351 0.181685
O O10 0.395960 0.735367 0.774799
O O11 0.084574 0.809290 0.738287
O O12 0.128057 0.620098 0.457024
O O13 0.838481 0.874400 0.582270
O O14 0.000000 0.000000 0.000000
#
# Coordination Sequence:
#
# PCOD9044211 Si02
#       6
#     2   2   2   2   2   2
#     4  11  26  47  75 106 158 207 264 321 387 466
#     4  12  29  46  74 114 156 209 267 316 395 471
#     4  11  25  45  72 106 149 195 253 320 379 464
#     4  10  24  45  74 101 151 194 256 315 392 460
#     4  10  25  46  74 108 146 194 256 323 395 463
#     4  10  23  46  71 105 148 202 251 314 391 466
#
# _framework density 25.863986000000001
#
# number of rings (size 3 to 8) (size 9 to 14) (size 15 to 20)
#    0.000    1.333    1.667    1.000   11.667    5.333 
#    0.000    2.500    0.000    0.000    0.000    0.000 
#    0.000    0.000    0.000    0.000    0.000    0.000 
#
# Total GULP energy -66980.775907 kJ/mol
# GULP energy per Si atom -5581.731326 kJ/mol
# Density = 2.580512 g / cm^3
# Si number density = 25.863986 Si / 1000 Ang^3
#
#
#
# Elastic Constant Matrix: (Units=GPa)
#
#
# Indices 1 2 3 4 5 6 
#
# 1 195.1422 30.1062 92.0389 -4.9675 27.4457 -16.5510
# 2 30.1062 46.9431 45.9810 -5.6168 10.4161 10.2265
# 3 92.0389 45.9810 216.5090 24.4677 46.1033 -3.6309
# 4 -4.9675 -5.6168 24.4677 62.0598 1.3706 4.9205
# 5 27.4457 10.4161 46.1033 1.3706 67.8025 -16.5855
# 6 -16.5510 10.2265 -3.6309 4.9205 -16.5855 31.3872
#
#
#
# Elastic Compliance Matrix: (Units=1/GPa)
#
#
# Indices 1 2 3 4 5 6 
#
# 1 0.007127 -0.003113 -0.002472 0.000895 0.000366 0.004540
# 2 -0.003113 0.034851 -0.006252 0.006807 -0.004131 -0.016970
# 3 -0.002472 -0.006252 0.008175 -0.003952 -0.003394 0.000505
# 4 0.000895 0.006807 -0.003952 0.018794 -0.000414 -0.005368
# 5 0.000366 -0.004131 -0.003394 -0.000414 0.020497 0.012042
# 6 0.004540 -0.016970 0.000505 -0.005368 0.012042 0.047046
#
#
# Mechanical properties :
#
#
# Convention : Reuss Voigt Hill
#
# Bulk Modulus (GPa) = 37.76522 88.31626 63.04074
# Shear Modulus (GPa) = 29.58754 51.61446 40.60100
#
# Velocity S-wave (km/s) = 3.38593 4.47207 3.96635
# Velocity P-wave (km/s) = 5.46984 7.80298 6.73816
#
# Compressibility (1/GPa) = 0.02647939
#
# Stress axis : x y z
#
# Youngs Moduli (GPa) = 140.31740 28.69368 122.32285
#
# Poissons Ratio (x) = 0.08932 0.30232
# Poissons Ratio (y) = 0.43678 0.76480
# Poissons Ratio (z) = 0.34680 0.17940
#
# Static dielectric constant tensor:
#      x y z
#    x 2.151070 0.002960 -0.045110 
#    y 0.002960 2.095060 -0.118200 
#    z -0.045110 -0.118200 2.221470 
# 
# From -- ./inp_files/49418.got.cif
#   From: 2010.05.17/outbox.cif.g08.bks.cpg/sg2_25_cif.got.tgz:49418.got - 2010.06.03 11:33:40.
