data_PCOD9044835
_publ_section_title
;
Structure prediction by ZEFSAII (Michael W. Deem and Ramdas Pophale) SiO2 
 PCOD9044835
Probable space group: P -1
;
_chemical_formula_sum "Si O2"
_cell_formula_units_Z 12
_cell_length_a 8.539056
_cell_length_b 6.286751
_cell_length_c 9.343525
_cell_angle_alpha 78.943348
_cell_angle_beta 87.180732
_cell_angle_gamma 99.867116
_cell_volume 483.246100
_symmetry_space_group_name_H-M "P -1"
_symmetry_group_IT_number 2
_symmetry_cell_setting 'triclinic'
loop_
_space_group_symop_operation_xyz
x,y,z
-x,-y,-z
loop_
_atom_site_type_symbol
_atom_site_label
_atom_site_fract_x
_atom_site_fract_y
_atom_site_fract_z
Si Si1 0.101642 0.197328 0.058846
Si Si2 0.987291 0.460693 0.799053
Si Si3 0.107867 0.194691 0.565075
Si Si4 0.547786 0.720582 0.874864
Si Si5 0.566354 0.948729 0.347600
Si Si6 0.688203 0.456691 0.692139
O O1 0.278249 0.161527 0.091705
O O2 0.016080 0.280206 0.192958
O O3 0.104794 0.397308 0.921707
O O4 0.000000 0.000000 0.000000
O O5 0.027930 0.317199 0.679185
O O6 0.794924 0.380462 0.823727
O O7 0.258821 0.103846 0.631966
O O8 0.182660 0.402883 0.435455
O O9 0.000000 0.000000 0.500000
O O10 0.585647 0.627454 0.731508
O O11 0.434421 0.885938 0.809622
O O12 0.500000 0.500000 0.000000
O O13 0.433521 0.740289 0.339423
O O14 0.500000 0.000000 0.500000
#
# Coordination Sequence:
#
# PCOD9044835 Si02
#       6
#     2   2   2   2   2   2
#     4  10  23  47  75 104 150 199 253 320 380 458
#     4  10  24  44  72 110 150 195 254 315 382 456
#     4  12  27  46  78 116 155 205 259 321 396 463
#     4  11  27  48  75 109 150 202 261 316 390 463
#     4  12  26  49  78 106 156 204 252 322 389 457
#     4  11  25  49  73 110 154 197 259 320 382 463
#
# _framework density 24.832070000000002
#
# number of rings (size 3 to 8) (size 9 to 14) (size 15 to 20)
#    0.000    1.000    1.667    3.000    7.000    2.000 
#    6.000    0.000    0.000    0.000    0.000    0.000 
#    0.000    0.000    0.000    0.000    0.000    0.000 
#
# Total GULP energy -66891.708884 kJ/mol
# GULP energy per Si atom -5574.309074 kJ/mol
# Density = 2.477555 g / cm^3
# Si number density = 24.832070 Si / 1000 Ang^3
#
#
#
# Elastic Constant Matrix: (Units=GPa)
#
#
# Indices 1 2 3 4 5 6 
#
# 1 144.9159 100.9911 59.2740 -3.1354 43.9150 -8.4130
# 2 100.9911 146.6905 62.5264 25.4147 18.5673 23.3690
# 3 59.2740 62.5264 93.3283 -0.0138 22.6306 2.3447
# 4 -3.1354 25.4147 -0.0138 57.1300 -7.4996 9.0323
# 5 43.9150 18.5673 22.6306 -7.4996 49.1849 3.4342
# 6 -8.4130 23.3690 2.3447 9.0323 3.4342 51.9122
#
#
#
# Elastic Compliance Matrix: (Units=1/GPa)
#
#
# Indices 1 2 3 4 5 6 
#
# 1 0.025309 -0.018201 -0.000417 0.005484 -0.015564 0.012389
# 2 -0.018201 0.024642 -0.006991 -0.008650 0.009744 -0.012867
# 3 -0.000417 -0.006991 0.016699 0.002144 -0.004502 0.002250
# 4 0.005484 -0.008650 0.002144 0.021593 0.000613 0.000888
# 5 -0.015564 0.009744 -0.004502 0.000613 0.033344 -0.009018
# 6 0.012389 -0.012867 0.002250 0.000888 -0.009018 0.027404
#
#
# Mechanical properties :
#
#
# Convention : Reuss Voigt Hill
#
# Bulk Modulus (GPa) = 64.79386 92.27977 78.53681
# Shear Modulus (GPa) = 24.34829 42.45495 33.40162
#
# Velocity S-wave (km/s) = 3.13472 4.13932 3.67154
# Velocity P-wave (km/s) = 6.26509 7.75161 7.04765
#
# Compressibility (1/GPa) = 0.01543356
#
# Stress axis : x y z
#
# Youngs Moduli (GPa) = 39.51087 40.58049 59.88466
#
# Poissons Ratio (x) = 0.73859 0.02497
# Poissons Ratio (y) = 0.71913 0.41864
# Poissons Ratio (z) = 0.01648 0.28369
#
# Static dielectric constant tensor:
#      x y z
#    x 1.881430 -0.034340 -0.000050 
#    y -0.034340 2.040350 -0.078420 
#    z -0.000050 -0.078420 2.162180 
# 
# From -- ./inp_files/87865.got.cif
#   From: 2010.05.17/outbox.cif.g08.bks.cpg/sg2_44_cif.got.tgz:87865.got - 2010.06.03 11:33:40.
