data_PCOD9044522
_publ_section_title
;
Structure prediction by ZEFSAII (Michael W. Deem and Ramdas Pophale) SiO2 
 PCOD9044522
Probable space group: P -1
;
_chemical_formula_sum "Si O2"
_cell_formula_units_Z 14
_cell_length_a 9.052972
_cell_length_b 13.585936
_cell_length_c 10.258993
_cell_angle_alpha 145.991998
_cell_angle_beta 107.434414
_cell_angle_gamma 52.918612
_cell_volume 503.160557
_symmetry_space_group_name_H-M "P -1"
_symmetry_group_IT_number 2
_symmetry_cell_setting 'triclinic'
loop_
_space_group_symop_operation_xyz
x,y,z
-x,-y,-z
loop_
_atom_site_type_symbol
_atom_site_label
_atom_site_fract_x
_atom_site_fract_y
_atom_site_fract_z
Si Si1 0.574650 0.888506 0.235539
Si Si2 0.827160 0.684688 0.516408
Si Si3 0.710086 0.702865 0.790562
Si Si4 0.245490 0.915852 0.365764
Si Si5 0.759551 0.366130 0.725853
Si Si6 0.834801 0.265669 0.090200
Si Si7 0.295399 0.786992 0.721809
O O1 0.627864 0.010307 0.475050
O O2 0.330148 0.085797 0.358227
O O3 0.669262 0.844795 0.065941
O O4 0.266681 0.787158 0.098807
O O5 0.765376 0.758428 0.731504
O O6 0.800590 0.493577 0.288297
O O7 0.063982 0.557524 0.411643
O O8 0.503111 0.745840 0.753661
O O9 0.677332 0.360173 0.557979
O O10 0.008890 0.165024 0.576670
O O11 0.297098 0.733731 0.290552
O O12 0.323033 0.374456 0.986460
O O13 0.757622 0.269648 0.217799
O O14 0.081008 0.045559 0.912653
#
# Coordination Sequence:
#
# PCOD9044522 Si02
#       7
#     2   2   2   2   2   2   2
#     4  12  26  48  81 115 162 217 270 337 411 492
#     4  11  27  45  76 125 163 214 273 339 412 487
#     4  11  27  46  80 119 165 213 273 339 412 481
#     4  10  24  48  84 116 162 218 268 338 409 489
#     4  10  23  46  83 119 154 216 277 330 413 487
#     4  10  24  48  81 121 164 208 279 336 412 493
#     4  10  23  48  83 119 160 215 271 349 406 478
#
# _framework density 27.824121000000002
#
# number of rings (size 3 to 8) (size 9 to 14) (size 15 to 20)
#    0.000    1.429    0.000    2.571   12.000    4.000 
#    0.000    2.143    0.000    0.000    0.000    0.000 
#    0.000    0.000    0.000    0.000    0.000    0.000 
#
# Total GULP energy -78590.130258 kJ/mol
# GULP energy per Si atom -5613.580733 kJ/mol
# Density = 2.776079 g / cm^3
# Si number density = 27.824121 Si / 1000 Ang^3
#
#
#
# Elastic Constant Matrix: (Units=GPa)
#
#
# Indices 1 2 3 4 5 6 
#
# 1 118.8540 77.8192 41.5950 -20.8997 -2.8082 -8.5275
# 2 77.8192 198.6037 101.1723 -13.7509 8.1420 3.2742
# 3 41.5950 101.1723 210.6381 -5.0190 10.6974 8.0773
# 4 -20.8997 -13.7509 -5.0190 70.0674 -13.6924 -2.5700
# 5 -2.8082 8.1420 10.6974 -13.6924 50.0403 7.5789
# 6 -8.5275 3.2742 8.0773 -2.5700 7.5789 49.3095
#
#
#
# Elastic Compliance Matrix: (Units=1/GPa)
#
#
# Indices 1 2 3 4 5 6 
#
# 1 0.012291 -0.004526 -0.000369 0.003235 0.002036 0.002342
# 2 -0.004526 0.008417 -0.003080 -0.000119 -0.000891 -0.000706
# 3 -0.000369 -0.003080 0.006364 -0.000461 -0.000887 -0.000790
# 4 0.003235 -0.000119 -0.000461 0.016106 0.004589 0.000777
# 5 0.002036 -0.000891 -0.000887 0.004589 0.022082 -0.002598
# 6 0.002342 -0.000706 -0.000790 0.000777 -0.002598 0.021301
#
#
# Mechanical properties :
#
#
# Convention : Reuss Voigt Hill
#
# Bulk Modulus (GPa) = 89.90811 107.69653 98.80232
# Shear Modulus (GPa) = 47.07224 54.38407 50.72816
#
# Velocity S-wave (km/s) = 4.11759 4.42584 4.27449
# Velocity P-wave (km/s) = 7.41547 8.05653 7.74264
#
# Compressibility (1/GPa) = 0.01112247
#
# Stress axis : x y z
#
# Youngs Moduli (GPa) = 81.35721 118.80103 157.13421
#
# Poissons Ratio (x) = 0.53770 0.05804
# Poissons Ratio (y) = 0.36823 0.48393
# Poissons Ratio (z) = 0.03005 0.36588
#
# Static dielectric constant tensor:
#      x y z
#    x 2.213190 0.027620 0.016540 
#    y 0.027620 2.070170 -0.000390 
#    z 0.016540 -0.000390 2.197870 
# 
# From -- ./inp_files/224587.got.cif
#   From: 2010.05.17/outbox.cif.g08.bks.cpg/sg2_113_cif.got.tgz:224587.got - 2010.06.03 11:33:40.
