data_PCOD9044557
_publ_section_title
;
Structure prediction by ZEFSAII (Michael W. Deem and Ramdas Pophale) SiO2 
 PCOD9044557
Probable space group: P -1
;
_chemical_formula_sum "Si O2"
_cell_formula_units_Z 16
_cell_length_a 5.053196
_cell_length_b 8.931364
_cell_length_c 18.537104
_cell_angle_alpha 121.112309
_cell_angle_beta 113.670552
_cell_angle_gamma 83.283763
_cell_volume 651.628872
_symmetry_space_group_name_H-M "P -1"
_symmetry_group_IT_number 2
_symmetry_cell_setting 'triclinic'
loop_
_space_group_symop_operation_xyz
x,y,z
-x,-y,-z
loop_
_atom_site_type_symbol
_atom_site_label
_atom_site_fract_x
_atom_site_fract_y
_atom_site_fract_z
Si Si1 0.631380 0.069909 0.715631
Si Si2 0.735310 0.194471 0.147485
Si Si3 0.251992 0.244681 0.439050
Si Si4 0.619607 0.190060 0.974983
Si Si5 0.026099 0.304486 0.926523
Si Si6 0.171789 0.188748 0.583926
Si Si7 0.415014 0.244294 0.263144
Si Si8 0.795147 0.465639 0.590248
O O1 0.828044 0.220111 0.818548
O O2 0.410121 0.154789 0.660343
O O3 0.800795 0.946216 0.650331
O O4 0.495149 0.921560 0.721854
O O5 0.608437 0.289416 0.225183
O O6 0.075267 0.181998 0.191836
O O7 0.536694 0.007356 0.083290
O O8 0.695955 0.267326 0.081574
O O9 0.251540 0.244089 0.524457
O O10 0.588753 0.326339 0.484858
O O11 0.070858 0.382169 0.412742
O O12 0.900349 0.195676 0.956601
O O13 0.359121 0.288397 0.939451
O O14 0.000000 0.500000 0.000000
O O15 0.986292 0.343620 0.625865
O O16 0.000000 0.000000 0.500000
O O17 0.382648 0.419676 0.348023
#
# Coordination Sequence:
#
# PCOD9044557 Si02
#       8
#     2   2   2   2   2   2   2   2
#     4  11  24  45  70 104 142 199 241 297 372 440
#     4  11  22  44  76 105 139 186 246 309 361 429
#     4  10  23  47  67 101 142 185 248 298 360 431
#     4  11  23  46  74 102 141 188 249 304 363 425
#     4  12  26  47  70 107 150 196 239 300 369 444
#     4  12  25  43  71 106 143 197 242 303 364 445
#     4  11  24  43  73 112 145 188 246 301 371 440
#     4  10  24  44  71 102 142 187 236 307 360 423
#
# _framework density 24.553854000000001
#
# number of rings (size 3 to 8) (size 9 to 14) (size 15 to 20)
#    0.000    1.000    3.750    1.875    1.750    6.000 
#    2.250    0.000    0.000    0.000    0.000    0.000 
#    0.000    0.000    0.000    0.000    0.000    0.000 
#
# Total GULP energy -89451.612819 kJ/mol
# GULP energy per Si atom -5590.725801 kJ/mol
# Density = 2.449797 g / cm^3
# Si number density = 24.553854 Si / 1000 Ang^3
#
#
#
# Elastic Constant Matrix: (Units=GPa)
#
#
# Indices 1 2 3 4 5 6 
#
# 1 84.9029 31.9427 32.4936 -11.5623 -8.5730 -8.3289
# 2 31.9427 127.6557 66.6349 1.1242 11.4293 -28.3976
# 3 32.4936 66.6349 166.5257 -5.5434 -13.3371 -13.2857
# 4 -11.5623 1.1242 -5.5434 49.1946 -0.4074 1.2408
# 5 -8.5730 11.4293 -13.3371 -0.4074 29.1016 5.0780
# 6 -8.3289 -28.3976 -13.2857 1.2408 5.0780 38.7782
#
#
#
# Elastic Compliance Matrix: (Units=1/GPa)
#
#
# Indices 1 2 3 4 5 6 
#
# 1 0.014527 -0.004001 -0.000732 0.003494 0.005725 -0.000923
# 2 -0.004001 0.014787 -0.005331 -0.002215 -0.011149 0.009674
# 3 -0.000732 -0.005331 0.008657 0.001025 0.006198 -0.001940
# 4 0.003494 -0.002215 0.001025 0.021379 0.002946 -0.001590
# 5 0.005725 -0.011149 0.006198 0.002946 0.045198 -0.010824
# 6 -0.000923 0.009674 -0.001940 -0.001590 -0.010824 0.033477
#
#
# Mechanical properties :
#
#
# Convention : Reuss Voigt Hill
#
# Bulk Modulus (GPa) = 56.04797 71.24742 63.64769
# Shear Modulus (GPa) = 30.46859 39.94907 35.20883
#
# Velocity S-wave (km/s) = 3.52645 4.03798 3.79085
# Velocity P-wave (km/s) = 6.28150 7.12883 6.71853
#
# Compressibility (1/GPa) = 0.01784186
#
# Stress axis : x y z
#
# Youngs Moduli (GPa) = 68.83588 67.62566 115.51337
#
# Poissons Ratio (x) = 0.27060 0.08458
# Poissons Ratio (y) = 0.27545 0.61582
# Poissons Ratio (z) = 0.05040 0.36052
#
# Static dielectric constant tensor:
#      x y z
#    x 2.063510 0.051560 0.004890 
#    y 0.051560 1.995210 -0.006800 
#    z 0.004890 -0.006800 1.983380 
# 
# From -- ./inp_files/548358.got.cif
#   From: 2010.05.17/outbox.cif.g08.bks.cpg/sg2_275_cif.got.tgz:548358.got - 2010.06.03 11:33:40.
