data_PCOD9044511
_publ_section_title
;
Structure prediction by ZEFSAII (Michael W. Deem and Ramdas Pophale) SiO2 
 PCOD9044511
Probable space group: P -1
;
_chemical_formula_sum "Si O2"
_cell_formula_units_Z 16
_cell_length_a 5.807949
_cell_length_b 19.020869
_cell_length_c 22.537363
_cell_angle_alpha 160.099629
_cell_angle_beta 59.564897
_cell_angle_gamma 119.453385
_cell_volume 729.689932
_symmetry_space_group_name_H-M "P -1"
_symmetry_group_IT_number 2
_symmetry_cell_setting 'triclinic'
loop_
_space_group_symop_operation_xyz
x,y,z
-x,-y,-z
loop_
_atom_site_type_symbol
_atom_site_label
_atom_site_fract_x
_atom_site_fract_y
_atom_site_fract_z
Si Si1 0.116116 0.794328 0.393860
Si Si2 0.755539 0.051848 0.966651
Si Si3 0.567087 0.008212 0.594431
Si Si4 0.344370 0.161838 0.314669
Si Si5 0.147857 0.575685 0.400925
Si Si6 0.407804 0.016737 0.753213
Si Si7 0.901679 0.612864 0.856607
Si Si8 0.082785 0.694351 0.684185
O O1 0.309096 0.904562 0.508651
O O2 0.056040 0.563114 0.241081
O O3 0.828288 0.880895 0.480459
O O4 0.302422 0.823386 0.334468
O O5 0.732264 0.962998 0.833231
O O6 0.986983 0.919470 0.859363
O O7 0.500000 0.000000 0.000000
O O8 0.836061 0.291162 0.135679
O O9 0.469930 0.081546 0.729297
O O10 0.131875 0.318745 0.488508
O O11 0.604077 0.286247 0.353333
O O12 0.374991 0.006512 0.242104
O O13 0.068881 0.376723 0.292914
O O14 0.269673 0.496896 0.261573
O O15 0.307389 0.771999 0.566244
O O16 0.227360 0.191064 0.941816
O O17 0.000000 0.500000 0.500000
#
# Coordination Sequence:
#
# PCOD9044511 Si02
#       8
#     2   2   2   2   2   2   2   2
#     4  10  23  46  79 109 144 190 239 288 369 440
#     4  12  28  43  62 100 137 182 241 301 349 422
#     4  10  23  47  76 111 147 185 235 302 358 436
#     4  12  23  44  65  91 137 185 229 301 352 421
#     4  12  25  43  67  95 132 185 235 287 356 417
#     4  12  25  44  68 103 143 175 236 296 349 430
#     4  12  25  45  69 105 134 188 237 288 365 432
#     4  12  23  42  62  91 129 182 235 289 354 414
#
# _framework density 21.927119999999999
#
# number of rings (size 3 to 8) (size 9 to 14) (size 15 to 20)
#    0.000    0.500    6.250    1.875    3.500    3.500 
#    0.000    0.000    0.000    5.250    0.000    0.000 
#    0.000    0.000    0.000    0.000    0.000    0.000 
#
# Total GULP energy -89145.036170 kJ/mol
# GULP energy per Si atom -5571.564761 kJ/mol
# Density = 2.187721 g / cm^3
# Si number density = 21.927120 Si / 1000 Ang^3
#
#
#
# Elastic Constant Matrix: (Units=GPa)
#
#
# Indices 1 2 3 4 5 6 
#
# 1 65.1247 22.9605 24.8020 1.4410 -2.2561 -4.2619
# 2 22.9605 155.6829 57.1097 -1.7923 -0.0735 -31.9477
# 3 24.8020 57.1097 91.7211 -5.8486 13.5896 -5.7291
# 4 1.4410 -1.7923 -5.8486 48.2528 -5.1934 1.9951
# 5 -2.2561 -0.0735 13.5896 -5.1934 12.3012 0.8531
# 6 -4.2619 -31.9477 -5.7291 1.9951 0.8531 33.7386
#
#
#
# Elastic Compliance Matrix: (Units=1/GPa)
#
#
# Indices 1 2 3 4 5 6 
#
# 1 0.018220 -0.000237 -0.006239 -0.000258 0.010070 0.000778
# 2 -0.000237 0.010984 -0.007327 -0.000037 0.007481 0.008940
# 3 -0.006239 -0.007327 0.020400 0.000013 -0.023465 -0.003670
# 4 -0.000258 -0.000037 0.000013 0.021793 0.009249 -0.001588
# 5 0.010070 0.007481 -0.023465 0.009249 0.112944 0.000969
# 6 0.000778 0.008940 -0.003670 -0.001588 0.000969 0.037649
#
#
# Mechanical properties :
#
#
# Convention : Reuss Voigt Hill
#
# Bulk Modulus (GPa) = 45.45981 58.03033 51.74507
# Shear Modulus (GPa) = 19.46050 32.70230 26.08140
#
# Velocity S-wave (km/s) = 2.98234 3.86607 3.45259
# Velocity P-wave (km/s) = 5.71283 6.81551 6.28838
#
# Compressibility (1/GPa) = 0.02199745
#
# Stress axis : x y z
#
# Youngs Moduli (GPa) = 54.88388 91.04346 49.01895
#
# Poissons Ratio (x) = 0.02157 0.30584
# Poissons Ratio (y) = 0.01300 0.35918
# Poissons Ratio (z) = 0.34243 0.66711
#
# Static dielectric constant tensor:
#      x y z
#    x 1.801640 0.056330 -0.058520 
#    y 0.056330 1.868280 -0.002260 
#    z -0.058520 -0.002260 1.728510 
# 
# From -- ./inp_files/584070.got.cif
#   From: 2010.05.17/outbox.cif.g08.bks.cpg/sg2_293_cif.got.tgz:584070.got - 2010.06.03 11:33:40.
