data_PCOD9044134
_publ_section_title
;
Structure prediction by ZEFSAII (Michael W. Deem and Ramdas Pophale) SiO2 
 PCOD9044134
Probable space group: P -1
;
_chemical_formula_sum "Si O2"
_cell_formula_units_Z 16
_cell_length_a 12.623059
_cell_length_b 13.881694
_cell_length_c 7.783548
_cell_angle_alpha 33.142118
_cell_angle_beta 74.522656
_cell_angle_gamma 83.147451
_cell_volume 704.457076
_symmetry_space_group_name_H-M "P -1"
_symmetry_group_IT_number 2
_symmetry_cell_setting 'triclinic'
loop_
_space_group_symop_operation_xyz
x,y,z
-x,-y,-z
loop_
_atom_site_type_symbol
_atom_site_label
_atom_site_fract_x
_atom_site_fract_y
_atom_site_fract_z
Si Si1 0.268968 0.788365 0.994397
Si Si2 0.534804 0.314265 0.708676
Si Si3 0.688477 0.975724 0.722213
Si Si4 0.832316 0.565874 0.639993
Si Si5 0.127438 0.072629 0.775343
Si Si6 0.728597 0.334763 0.358155
Si Si7 0.901125 0.839128 0.733929
Si Si8 0.054641 0.527434 0.744965
O O1 0.311242 0.910492 0.624783
O O2 0.194421 0.913943 0.938082
O O3 0.377378 0.751539 0.102404
O O4 0.202917 0.590240 0.254334
O O5 0.500000 0.500000 0.500000
O O6 0.605523 0.350414 0.448557
O O7 0.426703 0.155695 0.986641
O O8 0.784488 0.861584 0.828858
O O9 0.725265 0.129980 0.615382
O O10 0.810638 0.770052 0.356710
O O11 0.966498 0.602760 0.556287
O O12 0.771576 0.462508 0.988705
O O13 0.115455 0.165883 0.456429
O O14 0.000000 0.000000 0.000000
O O15 0.818394 0.384117 0.397876
O O16 0.940945 0.665795 0.042321
O O17 0.000000 0.000000 0.500000
O O18 0.000000 0.500000 0.000000
#
# Coordination Sequence:
#
# PCOD9044134 Si02
#       8
#     2   2   2   2   2   2   2   2
#     4  10  25  47  67  95 137 179 222 275 338 401
#     4  12  26  45  67  98 128 170 228 292 329 385
#     4  10  23  44  67  94 133 176 225 270 337 401
#     4  10  22  44  65  98 135 183 218 267 341 408
#     4  11  24  40  64  98 140 175 219 269 337 407
#     4  10  21  41  67  94 129 171 224 277 326 392
#     4  11  20  37  65  96 128 173 216 265 332 398
#     4  10  17  33  63  90 128 166 209 263 319 391
#
# _framework density 22.712527000000001
#
# number of rings (size 3 to 8) (size 9 to 14) (size 15 to 20)
#    0.000    1.500    2.500    4.500    3.500    0.500 
#    9.000    1.250    0.000    0.000    0.000    0.000 
#    0.000    0.000    0.000    0.000    0.000    0.000 
#
# Total GULP energy -89454.240386 kJ/mol
# GULP energy per Si atom -5590.890024 kJ/mol
# Density = 2.266083 g / cm^3
# Si number density = 22.712527 Si / 1000 Ang^3
#
#
#
# Elastic Constant Matrix: (Units=GPa)
#
#
# Indices 1 2 3 4 5 6 
#
# 1 94.2694 47.9242 34.4803 -7.6474 -24.0057 -12.8127
# 2 47.9242 133.1970 58.1467 -27.8283 -10.0695 -17.0468
# 3 34.4803 58.1467 116.5989 -24.8164 -24.0966 -5.5274
# 4 -7.6474 -27.8283 -24.8164 49.5693 2.0781 -3.8733
# 5 -24.0057 -10.0695 -24.0966 2.0781 52.2786 -1.0858
# 6 -12.8127 -17.0468 -5.5274 -3.8733 -1.0858 39.5536
#
#
#
# Elastic Compliance Matrix: (Units=1/GPa)
#
#
# Indices 1 2 3 4 5 6 
#
# 1 0.014947 -0.004201 -0.001162 -0.000638 0.005605 0.002960
# 2 -0.004201 0.012033 -0.003947 0.004482 -0.001533 0.003670
# 3 -0.001162 -0.003947 0.012595 0.003741 0.004366 0.000169
# 4 -0.000638 0.004482 0.003741 0.024773 0.001408 0.004712
# 5 0.005605 -0.001533 0.004366 0.001408 0.023416 0.002546
# 6 0.002960 0.003670 0.000169 0.004712 0.002546 0.028378
#
#
# Mechanical properties :
#
#
# Convention : Reuss Voigt Hill
#
# Bulk Modulus (GPa) = 47.72431 69.46308 58.59369
# Shear Modulus (GPa) = 35.27421 41.84789 38.56105
#
# Velocity S-wave (km/s) = 3.94518 4.29710 4.12489
# Velocity P-wave (km/s) = 6.46611 7.43438 6.96709
#
# Compressibility (1/GPa) = 0.02095368
#
# Stress axis : x y z
#
# Youngs Moduli (GPa) = 66.90437 83.10769 79.39782
#
# Poissons Ratio (x) = 0.34916 0.09225
# Poissons Ratio (y) = 0.28109 0.31338
# Poissons Ratio (z) = 0.07774 0.32803
#
# Static dielectric constant tensor:
#      x y z
#    x 1.775000 0.016890 0.019080 
#    y 0.016890 1.909520 0.049760 
#    z 0.019080 0.049760 1.892740 
# 
# From -- ./inp_files/271345.got.cif
#   From: 2010.05.17/outbox.cif.g08.bks.cpg/sg2_136_cif.got.tgz:271345.got - 2010.06.03 11:33:40.
