data_PCOD9044385
_publ_section_title
;
Structure prediction by ZEFSAII (Michael W. Deem and Ramdas Pophale) SiO2 
 PCOD9044385
Probable space group: P -1
;
_chemical_formula_sum "Si O2"
_cell_formula_units_Z 16
_cell_length_a 21.267751
_cell_length_b 9.576139
_cell_length_c 5.516641
_cell_angle_alpha 128.836011
_cell_angle_beta 108.939662
_cell_angle_gamma 48.368708
_cell_volume 645.910422
_symmetry_space_group_name_H-M "P -1"
_symmetry_group_IT_number 2
_symmetry_cell_setting 'triclinic'
loop_
_space_group_symop_operation_xyz
x,y,z
-x,-y,-z
loop_
_atom_site_type_symbol
_atom_site_label
_atom_site_fract_x
_atom_site_fract_y
_atom_site_fract_z
Si Si1 0.504487 0.802360 0.425431
Si Si2 0.619674 0.296765 0.761912
Si Si3 0.773006 0.133817 0.104526
Si Si4 0.091846 0.921102 0.096078
Si Si5 0.797556 0.698117 0.806983
Si Si6 0.009079 0.594145 0.357672
Si Si7 0.637134 0.537027 0.684201
Si Si8 0.245444 0.408080 0.855951
O O1 0.416989 0.839854 0.398292
O O2 0.555234 0.749208 0.679936
O O3 0.500000 0.000000 0.500000
O O4 0.560682 0.549789 0.090593
O O5 0.617415 0.367848 0.561056
O O6 0.714246 0.166974 0.842011
O O7 0.716688 0.376990 0.431859
O O8 0.859392 0.079447 0.072499
O O9 0.790473 0.924297 0.042839
O O10 0.159206 0.673553 0.028041
O O11 0.066181 0.134925 0.454444
O O12 0.000000 0.000000 0.000000
O O13 0.895915 0.485121 0.634424
O O14 0.749086 0.699688 0.513280
O O15 0.765362 0.688826 0.018222
O O16 0.000000 0.500000 0.500000
O O17 0.000000 0.500000 0.000000
O O18 0.673440 0.600777 0.009976
#
# Coordination Sequence:
#
# PCOD9044385 Si02
#       8
#     2   2   2   2   2   2   2   2
#     4  10  24  46  76 111 152 197 247 321 383 473
#     4  10  23  46  73 110 152 191 257 305 396 461
#     4  11  26  47  73 105 151 203 250 321 383 459
#     4  12  26  50  74 106 150 203 255 325 386 448
#     4  12  28  47  71 110 151 197 262 315 388 455
#     4  12  27  46  73 102 143 197 260 317 380 456
#     4  11  25  46  74 108 153 199 253 311 388 466
#     4  12  28  46  73 111 148 197 254 319 379 460
#
# _framework density 24.771236999999999
#
# number of rings (size 3 to 8) (size 9 to 14) (size 15 to 20)
#    0.000    0.750    3.750    1.875    7.000    2.000 
#    0.000    0.000    0.000    0.000    0.000    0.000 
#    0.000    0.000    0.000    0.000    0.000    0.000 
#
# Total GULP energy -89579.635750 kJ/mol
# GULP energy per Si atom -5598.727234 kJ/mol
# Density = 2.471486 g / cm^3
# Si number density = 24.771237 Si / 1000 Ang^3
#
#
#
# Elastic Constant Matrix: (Units=GPa)
#
#
# Indices 1 2 3 4 5 6 
#
# 1 158.0767 54.1224 31.5282 -17.0017 22.2521 24.5290
# 2 54.1224 134.4576 27.9258 -10.5740 18.4463 26.4464
# 3 31.5282 27.9258 115.8624 -13.7451 11.0306 4.0582
# 4 -17.0017 -10.5740 -13.7451 39.9140 -7.1353 -0.9039
# 5 22.2521 18.4463 11.0306 -7.1353 39.4163 -2.8673
# 6 24.5290 26.4464 4.0582 -0.9039 -2.8673 51.4512
#
#
#
# Elastic Compliance Matrix: (Units=1/GPa)
#
#
# Indices 1 2 3 4 5 6 
#
# 1 0.008376 -0.001907 -0.001154 0.001992 -0.003376 -0.003075
# 2 -0.001907 0.009812 -0.001304 0.000646 -0.003339 -0.004206
# 3 -0.001154 -0.001304 0.009610 0.002308 -0.000977 0.000449
# 4 0.001992 0.000646 0.002308 0.027353 0.002819 -0.000826
# 5 -0.003376 -0.003339 -0.000977 0.002819 0.029995 0.005124
# 6 -0.003075 -0.004206 0.000449 -0.000826 0.005124 0.023299
#
#
# Mechanical properties :
#
#
# Convention : Reuss Voigt Hill
#
# Bulk Modulus (GPa) = 52.44525 70.61664 61.53095
# Shear Modulus (GPa) = 40.47493 45.81099 43.14296
#
# Velocity S-wave (km/s) = 4.04660 4.30509 4.17784
# Velocity P-wave (km/s) = 6.56133 7.29939 6.94018
#
# Compressibility (1/GPa) = 0.01906750
#
# Stress axis : x y z
#
# Youngs Moduli (GPa) = 119.39133 101.91566 104.05370
#
# Poissons Ratio (x) = 0.19437 0.12009
# Poissons Ratio (y) = 0.22770 0.13570
# Poissons Ratio (z) = 0.13779 0.13291
#
# Static dielectric constant tensor:
#      x y z
#    x 1.982280 0.014160 -0.077650 
#    y 0.014160 1.959390 0.012970 
#    z -0.077650 0.012970 1.939340 
# 
# From -- ./inp_files/117445.got.cif
#   From: 2010.05.17/outbox.cif.g08.bks.cpg/sg2_59_cif.got.tgz:117445.got - 2010.06.03 11:33:40.
