data_PCOD9044623
_publ_section_title
;
Structure prediction by ZEFSAII (Michael W. Deem and Ramdas Pophale) SiO2 
 PCOD9044623
Probable space group: P -1
;
_chemical_formula_sum "Si O2"
_cell_formula_units_Z 10
_cell_length_a 9.393656
_cell_length_b 6.982188
_cell_length_c 9.645684
_cell_angle_alpha 123.750498
_cell_angle_beta 63.377542
_cell_angle_gamma 130.335648
_cell_volume 397.039187
_symmetry_space_group_name_H-M "P -1"
_symmetry_group_IT_number 2
_symmetry_cell_setting 'triclinic'
loop_
_space_group_symop_operation_xyz
x,y,z
-x,-y,-z
loop_
_atom_site_type_symbol
_atom_site_label
_atom_site_fract_x
_atom_site_fract_y
_atom_site_fract_z
Si Si1 0.873737 0.226523 0.707270
Si Si2 0.605610 0.665033 0.884340
Si Si3 0.967007 0.829251 0.662113
Si Si4 0.856370 0.201990 0.158070
Si Si5 0.468247 0.708848 0.683006
O O1 0.537905 0.359596 0.179519
O O2 0.952569 0.269386 0.533567
O O3 0.949149 0.522194 0.856637
O O4 0.651080 0.013967 0.713709
O O5 0.748523 0.974071 0.998215
O O6 0.500000 0.500000 0.000000
O O7 0.753216 0.610986 0.719429
O O8 0.098456 0.915138 0.774164
O O9 0.957544 0.073538 0.693171
O O10 0.713635 0.298888 0.291587
O O11 0.500000 0.500000 0.500000
#
# Coordination Sequence:
#
# PCOD9044623 Si02
#       5
#     2   2   2   2   2
#     4  10  24  46  74  99 148 181 246 289 346 424
#     4  11  27  46  71 108 150 183 236 295 357 423
#     4  10  23  47  69 107 140 191 231 294 350 421
#     4  12  25  44  76 104 141 192 236 289 363 410
#     4  11  26  49  74 105 143 190 236 295 353 419
#
# _framework density 25.186429
#
# number of rings (size 3 to 8) (size 9 to 14) (size 15 to 20)
#    0.000    1.200    0.000    5.400    8.400    4.000 
#    0.000    0.000    0.000    0.000    0.000    0.000 
#    0.000    0.000    0.000    0.000    0.000    0.000 
#
# Total GULP energy -56049.872102 kJ/mol
# GULP energy per Si atom -5604.987210 kJ/mol
# Density = 2.512910 g / cm^3
# Si number density = 25.186429 Si / 1000 Ang^3
#
#
#
# Elastic Constant Matrix: (Units=GPa)
#
#
# Indices 1 2 3 4 5 6 
#
# 1 139.5978 14.9184 7.2566 -7.1574 5.9337 -12.6462
# 2 14.9184 142.8179 34.2113 -10.5540 14.4257 7.5092
# 3 7.2566 34.2113 79.1352 -18.8589 10.5314 -6.6019
# 4 -7.1574 -10.5540 -18.8589 43.0394 6.1350 17.2495
# 5 5.9337 14.4257 10.5314 6.1350 45.7649 -2.3348
# 6 -12.6462 7.5092 -6.6019 17.2495 -2.3348 37.5283
#
#
#
# Elastic Compliance Matrix: (Units=1/GPa)
#
#
# Indices 1 2 3 4 5 6 
#
# 1 0.007523 -0.000861 -0.000006 0.000060 -0.000576 0.002643
# 2 -0.000861 0.008427 -0.002972 0.002479 -0.002386 -0.003787
# 3 -0.000006 -0.002972 0.016033 0.006791 -0.003659 0.000064
# 4 0.000060 0.002479 0.006791 0.034117 -0.007714 -0.015442
# 5 -0.000576 -0.002386 -0.003659 -0.007714 0.024795 0.004728
# 6 0.002643 -0.003787 0.000064 -0.015442 0.004728 0.035698
#
#
# Mechanical properties :
#
#
# Convention : Reuss Voigt Hill
#
# Bulk Modulus (GPa) = 41.14375 52.70261 46.92318
# Shear Modulus (GPa) = 35.11938 45.61082 40.36510
#
# Velocity S-wave (km/s) = 3.73819 4.26012 4.00766
# Velocity P-wave (km/s) = 5.91635 6.72076 6.33134
#
# Compressibility (1/GPa) = 0.02430503
#
# Stress axis : x y z
#
# Youngs Moduli (GPa) = 132.93115 118.66544 62.37265
#
# Poissons Ratio (x) = 0.10213 0.00039
# Poissons Ratio (y) = 0.11440 0.18536
# Poissons Ratio (z) = 0.00084 0.35264
#
# Static dielectric constant tensor:
#      x y z
#    x 1.947890 -0.020660 -0.035030 
#    y -0.020660 2.010500 0.014080 
#    z -0.035030 0.014080 2.073810 
# 
# From -- ./inp_files/147064.got.cif
#   From: 2010.05.17/outbox.cif.g08.bks.cpg/sg2_74_cif.got.tgz:147064.got - 2010.06.03 11:33:40.
