data_PCOD9044028
_publ_section_title
;
Structure prediction by ZEFSAII (Michael W. Deem and Ramdas Pophale) SiO2 
 PCOD9044028
Probable space group: P -1
;
_chemical_formula_sum "Si O2"
_cell_formula_units_Z 16
_cell_length_a 11.394178
_cell_length_b 6.838829
_cell_length_c 19.530793
_cell_angle_alpha 58.651427
_cell_angle_beta 42.141252
_cell_angle_gamma 47.478714
_cell_volume 752.039505
_symmetry_space_group_name_H-M "P -1"
_symmetry_group_IT_number 2
_symmetry_cell_setting 'triclinic'
loop_
_space_group_symop_operation_xyz
x,y,z
-x,-y,-z
loop_
_atom_site_type_symbol
_atom_site_label
_atom_site_fract_x
_atom_site_fract_y
_atom_site_fract_z
Si Si1 0.001825 0.255953 0.579963
Si Si2 0.633050 0.290432 0.661431
Si Si3 0.353747 0.808144 0.999254
Si Si4 0.087331 0.878426 0.221643
Si Si5 0.442606 0.790190 0.445765
Si Si6 0.335908 0.893631 0.695163
Si Si7 0.494708 0.802571 0.122751
Si Si8 0.768234 0.183375 0.092237
O O1 0.000000 0.500000 0.500000
O O2 0.862646 0.180108 0.607696
O O3 0.914133 0.322262 0.683774
O O4 0.228351 0.010683 0.529033
O O5 0.595282 0.198377 0.621887
O O6 0.530717 0.610132 0.645849
O O7 0.526246 0.229828 0.781172
O O8 0.160078 0.839562 0.118315
O O9 0.500000 0.500000 0.000000
O O10 0.340612 0.867219 0.914096
O O11 0.432698 0.991914 0.961478
O O12 0.268073 0.909967 0.171328
O O13 0.848434 0.077909 0.277004
O O14 0.500000 0.500000 0.500000
O O15 0.607388 0.876327 0.377991
O O16 0.277299 0.888402 0.800849
O O17 0.665198 0.505691 0.078448
O O18 0.000000 0.000000 0.000000
#
# Coordination Sequence:
#
# PCOD9044028 Si02
#       8
#     2   2   2   2   2   2   2   2
#     4  11  24  45  73  93 136 182 224 283 338 399
#     4  10  23  46  69 100 131 177 231 276 340 403
#     4  12  24  44  70  99 140 179 223 277 338 410
#     4  11  24  43  67 103 131 181 221 282 339 393
#     4  12  26  44  69 104 133 179 230 281 347 403
#     4  11  24  46  68 100 145 170 225 285 336 410
#     4  10  24  45  69  99 137 173 231 277 331 415
#     4  11  23  44  67 103 132 183 221 274 348 400
#
# _framework density 21.275479000000001
#
# number of rings (size 3 to 8) (size 9 to 14) (size 15 to 20)
#    0.000    1.000    3.750    2.250    1.750    2.500 
#   11.250    0.000    0.000    0.000    0.000    0.000 
#    0.000    0.000    0.000    0.000    0.000    0.000 
#
# Total GULP energy -89127.413156 kJ/mol
# GULP energy per Si atom -5570.463322 kJ/mol
# Density = 2.122705 g / cm^3
# Si number density = 21.275479 Si / 1000 Ang^3
#
#
#
# Elastic Constant Matrix: (Units=GPa)
#
#
# Indices 1 2 3 4 5 6 
#
# 1 83.4980 33.3945 29.4190 3.9530 5.9099 -9.5415
# 2 33.3945 97.8672 53.8811 -15.5665 -25.6718 -1.7647
# 3 29.4190 53.8811 104.3276 -4.7195 3.7034 4.1100
# 4 3.9530 -15.5665 -4.7195 33.6375 -1.7881 2.3422
# 5 5.9099 -25.6718 3.7034 -1.7881 44.4370 8.6092
# 6 -9.5415 -1.7647 4.1100 2.3422 8.6092 26.8398
#
#
#
# Elastic Compliance Matrix: (Units=1/GPa)
#
#
# Indices 1 2 3 4 5 6 
#
# 1 0.018288 -0.009733 -0.000517 -0.007962 -0.010255 0.009925
# 2 -0.009733 0.026636 -0.010800 0.013520 0.019583 -0.007516
# 3 -0.000517 -0.010800 0.015456 -0.003124 -0.007469 -0.000592
# 4 -0.007962 0.013520 -0.003124 0.037745 0.012337 -0.008714
# 5 -0.010255 0.019583 -0.007469 0.012337 0.039178 -0.014858
# 6 0.009925 -0.007516 -0.000592 -0.008714 -0.014858 0.045909
#
#
# Mechanical properties :
#
#
# Convention : Reuss Voigt Hill
#
# Bulk Modulus (GPa) = 54.70336 57.67578 56.18957
# Shear Modulus (GPa) = 21.60695 32.24939 26.92817
#
# Velocity S-wave (km/s) = 3.19027 3.89755 3.56151
# Velocity P-wave (km/s) = 6.27202 6.88640 6.58637
#
# Compressibility (1/GPa) = 0.01828041
#
# Stress axis : x y z
#
# Youngs Moduli (GPa) = 54.67983 37.54249 64.70056
#
# Poissons Ratio (x) = 0.36540 0.03348
# Poissons Ratio (y) = 0.53220 0.69874
# Poissons Ratio (z) = 0.02830 0.40544
#
# Static dielectric constant tensor:
#      x y z
#    x 2.050900 -0.043400 -0.018550 
#    y -0.043400 1.747730 0.043110 
#    z -0.018550 0.043110 1.770030 
# 
# From -- ./inp_files/592685.got.cif
#   From: 2010.05.17/outbox.cif.g08.bks.cpg/sg2_297_cif.got.tgz:592685.got - 2010.06.03 11:33:40.
