data_PCOD9044915
_publ_section_title
;
Structure prediction by ZEFSAII (Michael W. Deem and Ramdas Pophale) SiO2 
 PCOD9044915
Probable space group: P -1
;
_chemical_formula_sum "Si O2"
_cell_formula_units_Z 16
_cell_length_a 9.222101
_cell_length_b 15.373100
_cell_length_c 11.858204
_cell_angle_alpha 132.263243
_cell_angle_beta 103.703534
_cell_angle_gamma 115.109014
_cell_volume 705.871536
_symmetry_space_group_name_H-M "P -1"
_symmetry_group_IT_number 2
_symmetry_cell_setting 'triclinic'
loop_
_space_group_symop_operation_xyz
x,y,z
-x,-y,-z
loop_
_atom_site_type_symbol
_atom_site_label
_atom_site_fract_x
_atom_site_fract_y
_atom_site_fract_z
Si Si1 0.581970 0.677962 0.621132
Si Si2 0.900008 0.008984 0.154394
Si Si3 0.427519 0.590088 0.078690
Si Si4 0.069107 0.460898 0.319700
Si Si5 0.796037 0.201278 0.266276
Si Si6 0.395658 0.806435 0.165582
Si Si7 0.093087 0.010486 0.403662
Si Si8 0.844847 0.208057 0.695534
O O1 0.500000 0.500000 0.500000
O O2 0.328707 0.566423 0.417987
O O3 0.830493 0.830970 0.721809
O O4 0.673419 0.819318 0.865371
O O5 0.864877 0.123932 0.272128
O O6 0.918761 0.943647 0.212762
O O7 0.468626 0.715632 0.099028
O O8 0.622057 0.756413 0.355862
O O9 0.500000 0.500000 0.000000
O O10 0.129323 0.413299 0.889551
O O11 0.146470 0.644562 0.519470
O O12 0.974716 0.333260 0.303748
O O13 0.824251 0.303942 0.057854
O O14 0.500000 0.000000 0.000000
O O15 0.279382 0.768867 0.233528
O O16 0.651770 0.048100 0.420640
O O17 0.123680 0.890546 0.310557
O O18 0.000000 0.000000 0.500000
#
# Coordination Sequence:
#
# PCOD9044915 Si02
#       8
#     2   2   2   2   2   2   2   2
#     4  11  24  47  70 106 139 177 240 287 354 413
#     4  11  26  44  74 101 142 188 225 295 351 414
#     4  11  23  43  67  97 133 178 232 276 344 417
#     4  11  25  44  70 101 134 182 232 291 348 420
#     4  11  24  46  64 102 141 177 233 280 349 424
#     4  10  25  42  70  96 133 179 226 291 352 406
#     4  11  25  43  67 105 139 182 236 282 343 417
#     4  10  23  48  63  98 137 175 233 290 339 415
#
# _framework density 22.667014000000002
#
# number of rings (size 3 to 8) (size 9 to 14) (size 15 to 20)
#    0.000    1.250    3.750    0.375    5.250    3.000 
#    0.000    0.000    0.000    0.000    0.000    0.000 
#    0.000    0.000    0.000    0.000    0.000    0.000 
#
# Total GULP energy -89440.714860 kJ/mol
# GULP energy per Si atom -5590.044679 kJ/mol
# Density = 2.261542 g / cm^3
# Si number density = 22.667014 Si / 1000 Ang^3
#
#
#
# Elastic Constant Matrix: (Units=GPa)
#
#
# Indices 1 2 3 4 5 6 
#
# 1 106.5124 34.2075 29.7879 2.4330 11.2707 -15.9022
# 2 34.2075 46.4830 34.3177 -0.1101 -6.8703 -9.1829
# 3 29.7879 34.3177 121.2296 13.7750 20.2827 -4.5545
# 4 2.4330 -0.1101 13.7750 41.6591 -6.7382 11.1925
# 5 11.2707 -6.8703 20.2827 -6.7382 38.2841 7.8906
# 6 -15.9022 -9.1829 -4.5545 11.1925 7.8906 39.2390
#
#
#
# Elastic Compliance Matrix: (Units=1/GPa)
#
#
# Indices 1 2 3 4 5 6 
#
# 1 0.015280 -0.013498 0.002768 -0.005501 -0.010819 0.007099
# 2 -0.013498 0.044528 -0.014342 0.010358 0.022239 -0.004141
# 3 0.002768 -0.014342 0.015138 -0.008757 -0.013944 0.004824
# 4 -0.005501 0.010358 -0.008757 0.033698 0.016899 -0.013832
# 5 -0.010819 0.022239 -0.013944 0.016899 0.046754 -0.015020
# 6 0.007099 -0.004141 0.004824 -0.013832 -0.015020 0.034919
#
#
# Mechanical properties :
#
#
# Convention : Reuss Voigt Hill
#
# Bulk Modulus (GPa) = 40.31764 52.31681 46.31723
# Shear Modulus (GPa) = 20.10238 35.56390 27.83314
#
# Velocity S-wave (km/s) = 2.98124 3.96532 3.50796
# Velocity P-wave (km/s) = 5.44756 6.64046 6.07337
#
# Compressibility (1/GPa) = 0.02480304
#
# Stress axis : x y z
#
# Youngs Moduli (GPa) = 65.44644 22.45760 66.06044
#
# Poissons Ratio (x) = 0.30313 -0.18287
# Poissons Ratio (y) = 0.88339 0.94742
# Poissons Ratio (z) = -0.18117 0.32208
#
# Static dielectric constant tensor:
#      x y z
#    x 1.852190 0.024300 0.002010 
#    y 0.024300 1.869570 0.012280 
#    z 0.002010 0.012280 1.838760 
# 
# From -- ./inp_files/399650.got.cif
#   From: 2010.05.17/outbox.cif.g08.bks.cpg/sg2_200_cif.got.tgz:399650.got - 2010.06.03 11:33:40.
