data_PCOD9044537
_publ_section_title
;
Structure prediction by ZEFSAII (Michael W. Deem and Ramdas Pophale) SiO2 
 PCOD9044537
Probable space group: P -1
;
_chemical_formula_sum "Si O2"
_cell_formula_units_Z 16
_cell_length_a 11.233198
_cell_length_b 11.670530
_cell_length_c 6.317315
_cell_angle_alpha 85.071936
_cell_angle_beta 122.263003
_cell_angle_gamma 84.962022
_cell_volume 688.890050
_symmetry_space_group_name_H-M "P -1"
_symmetry_group_IT_number 2
_symmetry_cell_setting 'triclinic'
loop_
_space_group_symop_operation_xyz
x,y,z
-x,-y,-z
loop_
_atom_site_type_symbol
_atom_site_label
_atom_site_fract_x
_atom_site_fract_y
_atom_site_fract_z
Si Si1 0.474934 0.215461 0.584129
Si Si2 0.187421 0.374457 0.754305
Si Si3 0.692656 0.177238 0.412827
Si Si4 0.305694 0.957142 0.952177
Si Si5 0.089803 0.823246 0.024319
Si Si6 0.493989 0.631130 0.052969
Si Si7 0.203027 0.172086 0.101871
Si Si8 0.039061 0.580697 0.833676
O O1 0.570858 0.186234 0.472811
O O2 0.541066 0.114928 0.825890
O O3 0.502416 0.336070 0.699834
O O4 0.314857 0.210710 0.366208
O O5 0.355105 0.335756 0.886561
O O6 0.136481 0.283761 0.883283
O O7 0.155459 0.500798 0.812985
O O8 0.097946 0.382450 0.452753
O O9 0.835055 0.184804 0.674486
O O10 0.706761 0.060279 0.306400
O O11 0.638980 0.285577 0.190489
O O12 0.182563 0.892712 0.950248
O O13 0.282203 0.080488 0.023634
O O14 0.924573 0.875951 0.892037
O O15 0.092198 0.694880 0.952565
O O16 0.500000 0.500000 0.000000
O O17 0.000000 0.500000 0.000000
#
# Coordination Sequence:
#
# PCOD9044537 Si02
#       8
#     2   2   2   2   2   2   2   2
#     4  10  23  47  66 100 135 179 228 281 341 401
#     4  11  26  42  67 104 131 180 225 280 341 406
#     4  10  24  45  63  98 136 176 230 279 347 393
#     4  10  25  45  69  98 139 187 224 286 341 398
#     4  11  25  43  70  98 137 183 228 280 344 408
#     4  11  25  40  69  98 135 176 229 281 339 410
#     4  12  23  46  70 102 139 177 239 282 331 408
#     4  11  25  45  67  95 140 175 217 280 348 402
#
# _framework density 23.225769
#
# number of rings (size 3 to 8) (size 9 to 14) (size 15 to 20)
#    0.000    1.250    2.500    1.500    8.750    1.500 
#    9.000    0.000    0.000    0.000    0.000    0.000 
#    0.000    0.000    0.000    0.000    0.000    0.000 
#
# Total GULP energy -89551.555283 kJ/mol
# GULP energy per Si atom -5596.972205 kJ/mol
# Density = 2.317291 g / cm^3
# Si number density = 23.225769 Si / 1000 Ang^3
#
#
#
# Elastic Constant Matrix: (Units=GPa)
#
#
# Indices 1 2 3 4 5 6 
#
# 1 80.2825 -0.1628 35.4024 6.2735 5.1363 -6.6249
# 2 -0.1628 107.5404 45.6120 34.4353 -3.7524 -14.5985
# 3 35.4024 45.6120 162.6040 27.2429 8.3013 -7.6925
# 4 6.2735 34.4353 27.2429 41.2129 -12.8825 -6.6295
# 5 5.1363 -3.7524 8.3013 -12.8825 25.0435 6.5321
# 6 -6.6249 -14.5985 -7.6925 -6.6295 6.5321 36.0052
#
#
#
# Elastic Compliance Matrix: (Units=1/GPa)
#
#
# Indices 1 2 3 4 5 6 
#
# 1 0.014565 0.002610 -0.003013 -0.003154 -0.004068 0.003251
# 2 0.002610 0.014474 -0.002170 -0.011863 -0.004949 0.004598
# 3 -0.003013 -0.002170 0.008520 -0.004907 -0.005165 0.000420
# 4 -0.003154 -0.011863 -0.004907 0.045106 0.024365 -0.002554
# 5 -0.004068 -0.004949 -0.005165 0.024365 0.056793 -0.009676
# 6 0.003251 0.004598 0.000420 -0.002554 -0.009676 0.031611
#
#
# Mechanical properties :
#
#
# Convention : Reuss Voigt Hill
#
# Bulk Modulus (GPa) = 30.85360 56.90336 43.87848
# Shear Modulus (GPa) = 26.73508 38.42402 32.57955
#
# Velocity S-wave (km/s) = 3.39646 4.07181 3.74937
# Velocity P-wave (km/s) = 5.35671 6.83077 6.13815
#
# Compressibility (1/GPa) = 0.03241113
#
# Stress axis : x y z
#
# Youngs Moduli (GPa) = 68.65735 69.09172 117.36459
#
# Poissons Ratio (x) = -0.18030 0.35364
# Poissons Ratio (y) = -0.17916 0.25472
# Poissons Ratio (z) = 0.20687 0.14995
#
# Static dielectric constant tensor:
#      x y z
#    x 1.886850 -0.017090 -0.029700 
#    y -0.017090 1.864220 0.005350 
#    z -0.029700 0.005350 1.869090 
# 
# From -- ./inp_files/71480.got.cif
#   From: 2010.05.17/outbox.cif.g08.bks.cpg/sg2_36_cif.got.tgz:71480.got - 2010.06.03 11:33:40.
