data_PCOD9044711
_publ_section_title
;
Structure prediction by ZEFSAII (Michael W. Deem and Ramdas Pophale) SiO2 
 PCOD9044711
Probable space group: P -1
;
_chemical_formula_sum "Si O2"
_cell_formula_units_Z 16
_cell_length_a 12.131703
_cell_length_b 9.874987
_cell_length_c 16.182023
_cell_angle_alpha 27.205203
_cell_angle_beta 123.356930
_cell_angle_gamma 109.950180
_cell_volume 682.569111
_symmetry_space_group_name_H-M "P -1"
_symmetry_group_IT_number 2
_symmetry_cell_setting 'triclinic'
loop_
_space_group_symop_operation_xyz
x,y,z
-x,-y,-z
loop_
_atom_site_type_symbol
_atom_site_label
_atom_site_fract_x
_atom_site_fract_y
_atom_site_fract_z
Si Si1 0.810670 0.931684 0.152908
Si Si2 0.872907 0.207785 0.581425
Si Si3 0.044110 0.982401 0.622067
Si Si4 0.761760 0.751500 0.881658
Si Si5 0.541501 0.178606 0.995731
Si Si6 0.456698 0.730154 0.776394
Si Si7 0.290697 0.219441 0.569566
Si Si8 0.166640 0.956490 0.087486
O O1 0.806956 0.587946 0.363033
O O2 0.967225 0.917350 0.245936
O O3 0.685213 0.201844 0.004516
O O4 0.794257 0.972769 0.026127
O O5 0.794357 0.000330 0.701498
O O6 0.905822 0.142255 0.534346
O O7 0.149032 0.173092 0.567908
O O8 0.132594 0.618580 0.885315
O O9 0.000000 0.000000 0.500000
O O10 0.598045 0.797988 0.779666
O O11 0.796670 0.828547 0.947127
O O12 0.588738 0.951414 0.219392
O O13 0.438229 0.521813 0.804511
O O14 0.500000 0.000000 0.000000
O O15 0.332866 0.042584 0.593862
O O16 0.500000 0.500000 0.000000
O O17 0.258957 0.588972 0.347208
O O18 0.000000 0.000000 0.000000
#
# Coordination Sequence:
#
# PCOD9044711 Si02
#       8
#     2   2   2   2   2   2   2   2
#     4  11  23  43  68 103 146 185 244 313 359 433
#     4  11  23  42  70 104 147 189 238 310 376 421
#     4  12  24  41  71 105 145 192 235 304 380 439
#     4  12  23  42  72 104 147 193 245 304 365 442
#     4  11  24  45  77 101 140 198 248 301 368 433
#     4  10  23  47  72 100 147 195 242 302 366 434
#     4  11  24  49  73 104 151 190 244 301 365 444
#     4  12  25  43  73 111 145 190 248 295 371 448
#
# _framework density 23.440850000000001
#
# number of rings (size 3 to 8) (size 9 to 14) (size 15 to 20)
#    0.000    0.750    5.000    3.375    3.500    1.500 
#    2.250    0.625    0.000    0.000    0.000    0.000 
#    0.000    0.000    0.000    0.000    0.000    0.000 
#
# Total GULP energy -89595.253745 kJ/mol
# GULP energy per Si atom -5599.703359 kJ/mol
# Density = 2.338750 g / cm^3
# Si number density = 23.440850 Si / 1000 Ang^3
#
#
#
# Elastic Constant Matrix: (Units=GPa)
#
#
# Indices 1 2 3 4 5 6 
#
# 1 116.4041 26.9804 32.8601 -8.4464 -12.7965 -11.8435
# 2 26.9804 159.5652 17.3515 -0.8096 0.3579 -19.2188
# 3 32.8601 17.3515 69.1714 -9.5307 -12.3154 -4.4645
# 4 -8.4464 -0.8096 -9.5307 32.7977 -1.6312 3.7046
# 5 -12.7965 0.3579 -12.3154 -1.6312 38.5137 -9.4049
# 6 -11.8435 -19.2188 -4.4645 3.7046 -9.4049 45.6505
#
#
#
# Elastic Compliance Matrix: (Units=1/GPa)
#
#
# Indices 1 2 3 4 5 6 
#
# 1 0.010613 -0.001081 -0.003892 0.001450 0.002941 0.002406
# 2 -0.001081 0.006879 -0.001193 -0.000750 -0.000222 0.002514
# 3 -0.003892 -0.001193 0.018146 0.004382 0.004932 0.000923
# 4 0.001450 -0.000750 0.004382 0.032437 0.002886 -0.001549
# 5 0.002941 -0.000222 0.004932 0.002886 0.030396 0.007180
# 6 0.002406 0.002514 0.000923 -0.001549 0.007180 0.025283
#
#
# Mechanical properties :
#
#
# Convention : Reuss Voigt Hill
#
# Bulk Modulus (GPa) = 42.90500 55.50274 49.20387
# Shear Modulus (GPa) = 34.75708 41.25565 38.00637
#
# Velocity S-wave (km/s) = 3.85484 4.19977 4.03100
# Velocity P-wave (km/s) = 6.17708 6.87362 6.53464
#
# Compressibility (1/GPa) = 0.02330731
#
# Stress axis : x y z
#
# Youngs Moduli (GPa) = 94.22159 145.37021 55.10730
#
# Poissons Ratio (x) = 0.15711 0.21448
# Poissons Ratio (y) = 0.10183 0.06573
# Poissons Ratio (z) = 0.36672 0.17340
#
# Static dielectric constant tensor:
#      x y z
#    x 1.882810 0.009720 0.042430 
#    y 0.009720 1.982620 0.040870 
#    z 0.042430 0.040870 1.863360 
# 
# From -- ./inp_files/245593.got.cif
#   From: 2010.05.17/outbox.cif.g08.bks.cpg/sg2_123_cif.got.tgz:245593.got - 2010.06.03 11:33:40.
