data_PCOD9044207
_publ_section_title
;
Structure prediction by ZEFSAII (Michael W. Deem and Ramdas Pophale) SiO2 
 PCOD9044207
Probable space group: P -1
;
_chemical_formula_sum "Si O2"
_cell_formula_units_Z 16
_cell_length_a 9.451648
_cell_length_b 19.855724
_cell_length_c 5.208095
_cell_angle_alpha 54.632572
_cell_angle_beta 116.771481
_cell_angle_gamma 119.101317
_cell_volume 676.557053
_symmetry_space_group_name_H-M "P -1"
_symmetry_group_IT_number 2
_symmetry_cell_setting 'triclinic'
loop_
_space_group_symop_operation_xyz
x,y,z
-x,-y,-z
loop_
_atom_site_type_symbol
_atom_site_label
_atom_site_fract_x
_atom_site_fract_y
_atom_site_fract_z
Si Si1 0.609257 0.996412 0.351261
Si Si2 0.022495 0.908003 0.649384
Si Si3 0.667861 0.827501 0.565740
Si Si4 0.015028 0.737042 0.243383
Si Si5 0.166420 0.351445 0.214886
Si Si6 0.460499 0.323894 0.818537
Si Si7 0.375097 0.538018 0.971758
Si Si8 0.659016 0.285470 0.688082
O O1 0.791994 0.069025 0.364161
O O2 0.500000 0.000000 0.500000
O O3 0.651875 0.906749 0.549701
O O4 0.500000 0.000000 0.000000
O O5 0.842251 0.858645 0.483371
O O6 0.018138 0.837480 0.022982
O O7 0.000000 0.000000 0.500000
O O8 0.505154 0.794017 0.334413
O O9 0.646393 0.746832 0.915886
O O10 0.189082 0.735695 0.268986
O O11 0.967613 0.695973 0.574515
O O12 0.891569 0.679759 0.049462
O O13 0.334287 0.328517 0.479005
O O14 0.212648 0.455268 0.053725
O O15 0.530269 0.417870 0.793301
O O16 0.623758 0.297405 0.932004
O O17 0.500000 0.500000 0.000000
O O18 0.339748 0.620289 0.626949
#
# Coordination Sequence:
#
# PCOD9044207 Si02
#       8
#     2   2   2   2   2   2   2   2
#     4  11  26  47  73 109 147 187 232 301 367 431
#     4  10  23  48  74 106 142 189 242 292 355 431
#     4  10  23  46  71 104 142 192 243 295 353 436
#     4  12  28  46  70 107 148 189 236 302 369 421
#     4  12  26  46  73 101 148 190 242 295 358 433
#     4  11  23  43  74 101 140 193 249 290 356 431
#     4  11  24  44  73 107 139 192 248 298 353 427
#     4  11  26  43  73 104 147 191 240 301 361 428
#
# _framework density 23.649151
#
# number of rings (size 3 to 8) (size 9 to 14) (size 15 to 20)
#    0.000    1.000    2.500    2.625    8.750    2.000 
#    2.250    2.500    0.000    0.000    0.000    0.000 
#    0.000    0.000    0.000    0.000    0.000    0.000 
#
# Total GULP energy -89349.924274 kJ/mol
# GULP energy per Si atom -5584.370267 kJ/mol
# Density = 2.359532 g / cm^3
# Si number density = 23.649151 Si / 1000 Ang^3
#
#
#
# Elastic Constant Matrix: (Units=GPa)
#
#
# Indices 1 2 3 4 5 6 
#
# 1 175.4054 37.6275 27.3683 -11.2802 -12.2266 10.5402
# 2 37.6275 110.1976 34.0273 -31.4118 -10.5664 8.8252
# 3 27.3683 34.0273 46.5077 -5.8859 -8.7281 4.2209
# 4 -11.2802 -31.4118 -5.8859 40.8940 1.8079 -6.1140
# 5 -12.2266 -10.5664 -8.7281 1.8079 33.6414 -1.6979
# 6 10.5402 8.8252 4.2209 -6.1140 -1.6979 38.7415
#
#
#
# Elastic Compliance Matrix: (Units=1/GPa)
#
#
# Indices 1 2 3 4 5 6 
#
# 1 0.006529 -0.001098 -0.002655 0.000351 0.001264 -0.001126
# 2 -0.001098 0.015227 -0.008899 0.009962 0.001511 -0.000562
# 3 -0.002655 -0.008899 0.029987 -0.003571 0.004166 -0.000898
# 4 0.000351 0.009962 -0.003571 0.032122 0.000762 0.003127
# 5 0.001264 0.001511 0.004166 0.000762 0.031718 0.000368
# 6 -0.001126 -0.000562 -0.000898 0.003127 0.000368 0.026854
#
#
# Mechanical properties :
#
#
# Convention : Reuss Voigt Hill
#
# Bulk Modulus (GPa) = 37.82405 58.90631 48.36518
# Shear Modulus (GPa) = 28.31987 38.19456 33.25721
#
# Velocity S-wave (km/s) = 3.46425 4.02313 3.75410
# Velocity P-wave (km/s) = 5.65950 6.82226 6.26790
#
# Compressibility (1/GPa) = 0.02643820
#
# Stress axis : x y z
#
# Youngs Moduli (GPa) = 153.15719 65.67283 33.34796
#
# Poissons Ratio (x) = 0.07212 0.08854
# Poissons Ratio (y) = 0.16820 0.29677
# Poissons Ratio (z) = 0.40663 0.58444
#
# Static dielectric constant tensor:
#      x y z
#    x 1.954310 -0.000960 0.015690 
#    y -0.000960 1.938220 0.024600 
#    z 0.015690 0.024600 1.954960 
# 
# From -- ./inp_files/38250.got.cif
#   From: 2010.05.17/outbox.cif.g08.bks.cpg/sg2_20_cif.got.tgz:38250.got - 2010.06.03 11:33:40.
