data_PCOD9044484
_publ_section_title
;
Structure prediction by ZEFSAII (Michael W. Deem and Ramdas Pophale) SiO2 
 PCOD9044484
Probable space group: P -1
;
_chemical_formula_sum "Si O2"
_cell_formula_units_Z 16
_cell_length_a 13.512477
_cell_length_b 5.243069
_cell_length_c 13.011993
_cell_angle_alpha 64.013042
_cell_angle_beta 134.507750
_cell_angle_gamma 105.711566
_cell_volume 590.007138
_symmetry_space_group_name_H-M "P -1"
_symmetry_group_IT_number 2
_symmetry_cell_setting 'triclinic'
loop_
_space_group_symop_operation_xyz
x,y,z
-x,-y,-z
loop_
_atom_site_type_symbol
_atom_site_label
_atom_site_fract_x
_atom_site_fract_y
_atom_site_fract_z
Si Si1 0.879254 0.371989 0.089480
Si Si2 0.524102 0.976488 0.737280
Si Si3 0.356664 0.425565 0.280506
Si Si4 0.734772 0.390709 0.376483
Si Si5 0.407712 0.233692 0.957742
Si Si6 0.245709 0.433797 0.422953
Si Si7 0.972725 0.094017 0.849717
Si Si8 0.012481 0.006269 0.387812
O O1 0.920395 0.655433 0.128111
O O2 0.866449 0.127341 0.209944
O O3 0.996210 0.190453 0.140729
O O4 0.766476 0.458927 0.906596
O O5 0.551810 0.303980 0.683318
O O6 0.571374 0.819150 0.694342
O O7 0.369621 0.867420 0.667295
O O8 0.613196 0.885603 0.921125
O O9 0.308519 0.340444 0.374635
O O10 0.712085 0.614136 0.227969
O O11 0.684588 0.534603 0.420598
O O12 0.896111 0.279019 0.526429
O O13 0.500000 0.500000 0.000000
O O14 0.500000 0.000000 0.000000
O O15 0.120238 0.241039 0.395614
O O16 0.178463 0.753333 0.297036
O O17 0.000000 0.000000 0.000000
O O18 0.000000 0.000000 0.500000
#
# Coordination Sequence:
#
# PCOD9044484 Si02
#       8
#     2   2   2   2   2   2   2   2
#     4  11  24  43  71 104 148 186 250 304 371 440
#     4  11  27  47  75 113 149 200 258 303 376 444
#     4  12  27  45  76 113 154 201 253 305 369 459
#     4  11  26  48  78 106 157 199 251 316 384 450
#     4  10  23  46  77 104 141 194 255 307 363 432
#     4  11  27  44  75 108 156 198 247 311 388 451
#     4  11  21  41  70 102 139 194 242 299 366 437
#     4  11  28  48  74 111 149 199 255 319 391 449
#
# _framework density 27.118317999999999
#
# number of rings (size 3 to 8) (size 9 to 14) (size 15 to 20)
#    0.000    1.000    2.500    2.625   10.500    2.500 
#    0.000    0.000    0.000    0.000    0.000    0.000 
#    0.000    0.000    0.000    0.000    0.000    0.000 
#
# Total GULP energy -89444.067723 kJ/mol
# GULP energy per Si atom -5590.254233 kJ/mol
# Density = 2.705660 g / cm^3
# Si number density = 27.118318 Si / 1000 Ang^3
#
#
#
# Elastic Constant Matrix: (Units=GPa)
#
#
# Indices 1 2 3 4 5 6 
#
# 1 151.8540 50.0646 22.4698 -7.0859 -31.8140 -18.3985
# 2 50.0646 138.5083 7.7831 3.7117 0.9627 -10.3917
# 3 22.4698 7.7831 120.9746 5.7909 -24.4635 -5.0226
# 4 -7.0859 3.7117 5.7909 36.9266 -11.0237 -5.7337
# 5 -31.8140 0.9627 -24.4635 -11.0237 58.5676 -9.8020
# 6 -18.3985 -10.3917 -5.0226 -5.7337 -9.8020 54.1208
#
#
#
# Elastic Compliance Matrix: (Units=1/GPa)
#
#
# Indices 1 2 3 4 5 6 
#
# 1 0.010059 -0.003467 -0.000257 0.005164 0.007151 0.004573
# 2 -0.003467 0.008550 -0.000344 -0.002308 -0.002651 -0.000293
# 3 -0.000257 -0.000344 0.009192 -0.000065 0.003928 0.001404
# 4 0.005164 -0.002308 -0.000065 0.032312 0.009992 0.006539
# 5 0.007151 -0.002651 0.003928 0.009992 0.025868 0.008030
# 6 0.004573 -0.000293 0.001404 0.006539 0.008030 0.022253
#
#
# Mechanical properties :
#
#
# Convention : Reuss Voigt Hill
#
# Bulk Modulus (GPa) = 50.84603 63.55242 57.19922
# Shear Modulus (GPa) = 40.67538 51.99096 46.33317
#
# Velocity S-wave (km/s) = 3.87708 4.38332 4.13795
# Velocity P-wave (km/s) = 6.23160 7.00743 6.63087
#
# Compressibility (1/GPa) = 0.01966722
#
# Stress axis : x y z
#
# Youngs Moduli (GPa) = 99.41031 116.95357 108.79233
#
# Poissons Ratio (x) = 0.40543 0.02792
# Poissons Ratio (y) = 0.34462 0.03742
# Poissons Ratio (z) = 0.02551 0.04023
#
# Static dielectric constant tensor:
#      x y z
#    x 2.136300 -0.060130 0.063940 
#    y -0.060130 2.589240 0.245940 
#    z 0.063940 0.245940 1.664270 
# 
# From -- ./inp_files/574884.got.cif
#   From: 2010.05.17/outbox.cif.g08.bks.cpg/sg2_288_cif.got.tgz:574884.got - 2010.06.03 11:33:40.
