data_PCOD9044242
_publ_section_title
;
Structure prediction by ZEFSAII (Michael W. Deem and Ramdas Pophale) SiO2 
 PCOD9044242
Probable space group: P -1
;
_chemical_formula_sum "Si O2"
_cell_formula_units_Z 16
_cell_length_a 16.665985
_cell_length_b 25.242768
_cell_length_c 5.688672
_cell_angle_alpha 129.202707
_cell_angle_beta 51.510752
_cell_angle_gamma 159.339425
_cell_volume 650.127800
_symmetry_space_group_name_H-M "P -1"
_symmetry_group_IT_number 2
_symmetry_cell_setting 'triclinic'
loop_
_space_group_symop_operation_xyz
x,y,z
-x,-y,-z
loop_
_atom_site_type_symbol
_atom_site_label
_atom_site_fract_x
_atom_site_fract_y
_atom_site_fract_z
Si Si1 0.374952 0.168495 0.002071
Si Si2 0.070710 0.878875 0.800264
Si Si3 0.678650 0.416886 0.774086
Si Si4 0.025438 0.739372 0.124349
Si Si5 0.761011 0.338163 0.104307
Si Si6 0.623540 0.586195 0.266917
Si Si7 0.433826 0.021712 0.859938
Si Si8 0.702573 0.758700 0.361903
O O1 0.581028 0.255465 0.005076
O O2 0.236712 0.129648 0.341465
O O3 0.488254 0.287486 0.950002
O O4 0.220873 0.017723 0.745723
O O5 0.248167 0.962279 0.912569
O O6 0.005955 0.769941 0.487323
O O7 0.867350 0.808153 0.047741
O O8 0.748716 0.383789 0.467876
O O9 0.539003 0.373214 0.701276
O O10 0.898131 0.590672 0.945019
O O11 0.854869 0.680935 0.105804
O O12 0.283272 0.898989 0.002950
O O13 0.000000 0.500000 0.000000
O O14 0.663568 0.205317 0.988411
O O15 0.500000 0.500000 0.500000
O O16 0.677571 0.697878 0.468394
O O17 0.500000 0.500000 0.000000
O O18 0.500000 0.000000 0.500000
#
# Coordination Sequence:
#
# PCOD9044242 Si02
#       8
#     2   2   2   2   2   2   2   2
#     4  10  24  43  67 100 138 184 237 294 365 439
#     4  11  25  44  67 100 142 186 238 298 370 433
#     4  11  24  41  67 102 137 182 236 286 358 434
#     4  12  25  40  69 100 141 186 235 297 359 434
#     4  10  23  46  71  96 132 179 236 303 361 434
#     4  12  24  41  67 105 153 197 241 297 362 438
#     4  11  25  46  70  98 135 180 239 306 368 436
#     4  11  23  41  66 100 142 186 238 291 356 438
#
# _framework density 24.610548000000001
#
# number of rings (size 3 to 8) (size 9 to 14) (size 15 to 20)
#    0.000    1.000    2.500    3.375    1.750    4.500 
#    0.000    0.000    0.000    0.000    0.000    0.000 
#    0.000    0.000    0.000    0.000    0.000    0.000 
#
# Total GULP energy -89307.810406 kJ/mol
# GULP energy per Si atom -5581.738150 kJ/mol
# Density = 2.455453 g / cm^3
# Si number density = 24.610548 Si / 1000 Ang^3
#
#
#
# Elastic Constant Matrix: (Units=GPa)
#
#
# Indices 1 2 3 4 5 6 
#
# 1 44.6594 29.2836 -4.6467 4.0409 -0.8806 -1.4125
# 2 29.2836 176.4168 77.5218 5.9899 -17.0627 -26.0274
# 3 -4.6467 77.5218 139.3137 4.0444 -23.5155 -7.4207
# 4 4.0409 5.9899 4.0444 54.2031 -5.0648 -7.3656
# 5 -0.8806 -17.0627 -23.5155 -5.0648 34.5791 2.3434
# 6 -1.4125 -26.0274 -7.4207 -7.3656 2.3434 43.9688
#
#
#
# Elastic Compliance Matrix: (Units=1/GPa)
#
#
# Indices 1 2 3 4 5 6 
#
# 1 0.027567 -0.006983 0.004783 -0.001982 0.000408 -0.002795
# 2 -0.006983 0.009973 -0.005403 0.000553 0.000824 0.004816
# 3 0.004783 -0.005403 0.011131 -0.000318 0.005080 -0.001490
# 4 -0.001982 0.000553 -0.000318 0.019251 0.002603 0.003296
# 5 0.000408 0.000824 0.005080 0.002603 0.033170 0.000026
# 6 -0.002795 0.004816 -0.001490 0.003296 0.000026 0.025804
#
#
# Mechanical properties :
#
#
# Convention : Reuss Voigt Hill
#
# Bulk Modulus (GPa) = 29.88183 62.74526 46.31354
# Shear Modulus (GPa) = 32.62466 43.76563 38.19515
#
# Velocity S-wave (km/s) = 3.64488 4.22160 3.94380
# Velocity P-wave (km/s) = 5.46642 7.02233 6.29265
#
# Compressibility (1/GPa) = 0.03346515
#
# Stress axis : x y z
#
# Youngs Moduli (GPa) = 36.27496 100.26888 89.83528
#
# Poissons Ratio (x) = 0.70019 -0.42967
# Poissons Ratio (y) = 0.25331 0.48538
# Poissons Ratio (z) = -0.17350 0.54176
#
# Static dielectric constant tensor:
#      x y z
#    x 2.005000 -0.078090 0.032510 
#    y -0.078090 2.161950 -0.022170 
#    z 0.032510 -0.022170 2.000850 
# 
# From -- ./inp_files/113280.got.cif
#   From: 2010.05.17/outbox.cif.g08.bks.cpg/sg2_57_cif.got.tgz:113280.got - 2010.06.03 11:33:40.
