data_PCOD9044442
_publ_section_title
;
Structure prediction by ZEFSAII (Michael W. Deem and Ramdas Pophale) SiO2 
 PCOD9044442
Probable space group: P -1
;
_chemical_formula_sum "Si O2"
_cell_formula_units_Z 10
_cell_length_a 9.251501
_cell_length_b 14.252877
_cell_length_c 21.508550
_cell_angle_alpha 160.800732
_cell_angle_beta 26.782675
_cell_angle_gamma 142.130307
_cell_volume 391.746833
_symmetry_space_group_name_H-M "P -1"
_symmetry_group_IT_number 2
_symmetry_cell_setting 'triclinic'
loop_
_space_group_symop_operation_xyz
x,y,z
-x,-y,-z
loop_
_atom_site_type_symbol
_atom_site_label
_atom_site_fract_x
_atom_site_fract_y
_atom_site_fract_z
Si Si1 0.795018 0.937327 0.898826
Si Si2 0.446861 0.571084 0.137279
Si Si3 0.140023 0.676025 0.779517
Si Si4 0.720169 0.265469 0.960696
Si Si5 0.357581 0.858995 0.542334
O O1 0.634729 0.785925 0.917918
O O2 0.158156 0.768784 0.619696
O O3 0.500000 0.000000 0.000000
O O4 0.824861 0.234263 0.106126
O O5 0.708039 0.322845 0.928062
O O6 0.499677 0.885650 0.329270
O O7 0.085489 0.536481 0.269817
O O8 0.500000 0.500000 0.000000
O O9 0.500000 0.500000 0.500000
O O10 0.000000 0.000000 0.000000
O O11 0.649315 0.579537 0.222595
O O12 0.052414 0.010332 0.703516
#
# Coordination Sequence:
#
# PCOD9044442 Si02
#       5
#     2   2   2   2   2
#     4  10  23  46  75 104 143 187 244 287 356 428
#     4  12  26  49  74 108 149 188 239 303 358 421
#     4  12  28  49  74 104 145 193 239 296 361 423
#     4  11  25  45  75 102 148 188 239 287 359 427
#     4  11  25  47  72 110 139 191 236 297 354 428
#
# _framework density 25.526691
#
# number of rings (size 3 to 8) (size 9 to 14) (size 15 to 20)
#    0.000    0.800    4.000    1.800    5.600    4.800 
#    0.000    7.000    0.000    0.000    0.000    0.000 
#    0.000    0.000    0.000    0.000    0.000    0.000 
#
# Total GULP energy -56021.023809 kJ/mol
# GULP energy per Si atom -5602.102381 kJ/mol
# Density = 2.546859 g / cm^3
# Si number density = 25.526691 Si / 1000 Ang^3
#
#
#
# Elastic Constant Matrix: (Units=GPa)
#
#
# Indices 1 2 3 4 5 6 
#
# 1 149.8723 42.6952 45.7268 -2.7996 23.1619 10.7639
# 2 42.6952 164.2434 7.9162 -7.9231 -5.5487 24.3687
# 3 45.7268 7.9162 113.7006 -13.0326 -12.8345 -5.7107
# 4 -2.7996 -7.9231 -13.0326 45.4773 4.8824 10.2565
# 5 23.1619 -5.5487 -12.8345 4.8824 32.4995 -0.2240
# 6 10.7639 24.3687 -5.7107 10.2565 -0.2240 48.7535
#
#
#
# Elastic Compliance Matrix: (Units=1/GPa)
#
#
# Indices 1 2 3 4 5 6 
#
# 1 0.010786 -0.002618 -0.005388 0.000173 -0.010300 -0.001787
# 2 -0.002618 0.007423 0.000937 0.001821 0.003206 -0.003391
# 3 -0.005388 0.000937 0.012177 0.002009 0.008519 0.001764
# 4 0.000173 0.001821 0.002009 0.024514 -0.002742 -0.005883
# 5 -0.010300 0.003206 0.008519 -0.002742 0.042451 0.002441
# 6 -0.001787 -0.003391 0.001764 -0.005883 0.002441 0.024056
#
#
# Mechanical properties :
#
#
# Convention : Reuss Voigt Hill
#
# Bulk Modulus (GPa) = 61.55195 68.94364 65.24780
# Shear Modulus (GPa) = 35.47063 47.44459 41.45761
#
# Velocity S-wave (km/s) = 3.73171 4.31586 4.03437
# Velocity P-wave (km/s) = 6.53702 7.20434 6.87878
#
# Compressibility (1/GPa) = 0.01624644
#
# Stress axis : x y z
#
# Youngs Moduli (GPa) = 92.71692 134.70988 82.12103
#
# Poissons Ratio (x) = 0.35274 0.44246
# Poissons Ratio (y) = 0.24278 -0.07691
# Poissons Ratio (z) = 0.49955 -0.12617
#
# Static dielectric constant tensor:
#      x y z
#    x 2.037740 -0.025780 0.016020 
#    y -0.025780 2.158770 0.009560 
#    z 0.016020 0.009560 1.957900 
# 
# From -- ./inp_files/90764.got.cif
#   From: 2010.05.17/outbox.cif.g08.bks.cpg/sg2_46_cif.got.tgz:90764.got - 2010.06.03 11:33:40.
