data_PCOD9044965
_publ_section_title
;
Structure prediction by ZEFSAII (Michael W. Deem and Ramdas Pophale) SiO2 
 PCOD9044965
Probable space group: P -1
;
_chemical_formula_sum "Si O2"
_cell_formula_units_Z 16
_cell_length_a 26.847083
_cell_length_b 23.876936
_cell_length_c 6.651519
_cell_angle_alpha 122.657367
_cell_angle_beta 122.062303
_cell_angle_gamma 10.963231
_cell_volume 682.678603
_symmetry_space_group_name_H-M "P -1"
_symmetry_group_IT_number 2
_symmetry_cell_setting 'triclinic'
loop_
_space_group_symop_operation_xyz
x,y,z
-x,-y,-z
loop_
_atom_site_type_symbol
_atom_site_label
_atom_site_fract_x
_atom_site_fract_y
_atom_site_fract_z
Si Si1 0.725383 0.619704 0.464054
Si Si2 0.425962 0.306218 0.367127
Si Si3 0.762029 0.180903 0.845450
Si Si4 0.997291 0.299006 0.028015
Si Si5 0.582121 0.253543 0.365206
Si Si6 0.718425 0.818709 0.624788
Si Si7 0.139431 0.811864 0.247820
Si Si8 0.056080 0.338786 0.901340
O O1 0.693684 0.590987 0.485281
O O2 0.952430 0.357693 0.279705
O O3 0.809275 0.591500 0.723042
O O4 0.453879 0.934145 0.376760
O O5 0.445002 0.362485 0.461173
O O6 0.710165 0.960113 0.280322
O O7 0.249069 0.471253 0.131523
O O8 0.737125 0.139768 0.593908
O O9 0.823794 0.168592 0.789585
O O10 0.500000 0.500000 0.000000
O O11 0.966709 0.950665 0.020052
O O12 0.986894 0.379998 0.045058
O O13 0.243937 0.987894 0.864080
O O14 0.389697 0.501247 0.277384
O O15 0.000000 0.500000 0.500000
O O16 0.500000 0.000000 0.500000
O O17 0.811692 0.738157 0.893009
O O18 0.000000 0.000000 0.500000
#
# Coordination Sequence:
#
# PCOD9044965 Si02
#       8
#     2   2   2   2   2   2   2   2
#     4  11  25  49  78 101 154 197 238 316 386 419
#     4  10  24  46  72 107 140 190 247 306 366 444
#     4  11  25  47  70 103 139 191 236 297 376 438
#     4  10  23  48  70 105 146 194 238 312 371 441
#     4  11  25  47  70 106 145 182 253 298 367 460
#     4  12  28  48  79 116 153 204 259 305 375 466
#     4  11  25  47  71  96 143 190 231 303 371 435
#     4  10  24  48  73 105 151 190 248 305 376 442
#
# _framework density 23.437087999999999
#
# number of rings (size 3 to 8) (size 9 to 14) (size 15 to 20)
#    0.000    1.250    2.500    1.125    7.000    1.000 
#   18.000    0.000    0.000    0.000    0.000    0.000 
#    0.000    0.000    0.000    0.000    0.000    0.000 
#
# Total GULP energy -89408.548889 kJ/mol
# GULP energy per Si atom -5588.034306 kJ/mol
# Density = 2.338374 g / cm^3
# Si number density = 23.437088 Si / 1000 Ang^3
#
#
#
# Elastic Constant Matrix: (Units=GPa)
#
#
# Indices 1 2 3 4 5 6 
#
# 1 102.2715 19.7498 62.9930 -3.8349 -1.8419 -13.1163
# 2 19.7498 77.3478 56.5444 -20.6892 1.2275 -5.8780
# 3 62.9930 56.5444 158.3439 -17.2819 -16.7812 -1.5638
# 4 -3.8349 -20.6892 -17.2819 45.7104 -9.5149 -3.3819
# 5 -1.8419 1.2275 -16.7812 -9.5149 36.3914 3.0524
# 6 -13.1163 -5.8780 -1.5638 -3.3819 3.0524 29.3561
#
#
#
# Elastic Compliance Matrix: (Units=1/GPa)
#
#
# Indices 1 2 3 4 5 6 
#
# 1 0.014293 0.001495 -0.006568 -0.000768 -0.003108 0.006570
# 2 0.001495 0.019993 -0.007297 0.006229 -0.002779 0.005289
# 3 -0.006568 -0.007297 0.012381 0.001862 0.006461 -0.004194
# 4 -0.000768 0.006229 0.001862 0.027129 0.007421 0.003357
# 5 -0.003108 -0.002779 0.006461 0.007421 0.032683 -0.004144
# 6 0.006570 0.005289 -0.004194 0.003357 -0.004144 0.038653
#
#
# Mechanical properties :
#
#
# Convention : Reuss Voigt Hill
#
# Bulk Modulus (GPa) = 45.60594 68.50419 57.05506
# Shear Modulus (GPa) = 28.21995 35.53665 31.87830
#
# Velocity S-wave (km/s) = 3.47374 3.89814 3.69204
# Velocity P-wave (km/s) = 5.96576 7.03939 6.52470
#
# Compressibility (1/GPa) = 0.02192697
#
# Stress axis : x y z
#
# Youngs Moduli (GPa) = 69.96633 50.01688 80.77157
#
# Poissons Ratio (x) = -0.07479 0.53053
# Poissons Ratio (y) = -0.10462 0.58938
# Poissons Ratio (z) = 0.45955 0.36497
#
# Static dielectric constant tensor:
#      x y z
#    x 1.923680 -0.064120 0.023810 
#    y -0.064120 1.785940 -0.072560 
#    z 0.023810 -0.072560 1.825460 
# 
# From -- ./inp_files/14722.got.cif
#   From: 2010.05.17/outbox.cif.g08.bks.cpg/sg2_8_cif.got.tgz:14722.got - 2010.06.03 11:33:40.
