data_PCOD9044486
_publ_section_title
;
Structure prediction by ZEFSAII (Michael W. Deem and Ramdas Pophale) SiO2 
 PCOD9044486
Probable space group: P -1
;
_chemical_formula_sum "Si O2"
_cell_formula_units_Z 13
_cell_length_a 11.130290
_cell_length_b 14.041930
_cell_length_c 11.063052
_cell_angle_alpha 135.939571
_cell_angle_beta 114.088986
_cell_angle_gamma 32.582029
_cell_volume 550.289133
_symmetry_space_group_name_H-M "P -1"
_symmetry_group_IT_number 2
_symmetry_cell_setting 'triclinic'
loop_
_space_group_symop_operation_xyz
x,y,z
-x,-y,-z
loop_
_atom_site_type_symbol
_atom_site_label
_atom_site_fract_x
_atom_site_fract_y
_atom_site_fract_z
Si Si1 0.059804 0.863161 0.214615
Si Si2 0.675029 0.091974 0.898884
Si Si3 0.776370 0.772417 0.838867
Si Si4 0.892943 0.479499 0.026188
Si Si5 0.576336 0.491178 0.195536
Si Si6 0.791951 0.463125 0.478960
Si Si7 0.500000 0.500000 0.500000
O O1 0.269890 0.763898 0.285605
O O2 0.001118 0.771629 0.173673
O O3 0.238569 0.665798 0.989218
O O4 0.792846 0.176731 0.358273
O O5 0.415223 0.262953 0.889168
O O6 0.758334 0.926376 0.895456
O O7 0.631682 0.290545 0.093024
O O8 0.916650 0.861529 0.696661
O O9 0.805632 0.612450 0.623075
O O10 0.011039 0.564989 0.842087
O O11 0.500000 0.000000 0.000000
O O12 0.000000 0.500000 0.000000
O O13 0.656088 0.528075 0.361270
O O14 0.621735 0.548547 0.591871
#
# Coordination Sequence:
#
# PCOD9044486 Si02
#       7
#     2   2   2   2   2   2   1
#     4  10  23  46  77 107 145 194 246 305 367 443
#     4  11  24  47  74 107 144 195 243 305 370 437
#     4  12  26  47  74 106 146 197 248 300 369 441
#     4  11  24  45  77 103 145 196 247 301 367 437
#     4  10  23  48  78 106 143 194 247 304 372 437
#     4  12  27  42  72 110 145 189 244 304 365 439
#     4  12  26  42  68 114 144 188 244 304 368 434
#
# _framework density 23.623944000000002
#
# number of rings (size 3 to 8) (size 9 to 14) (size 15 to 20)
#    0.000    0.923    3.077    2.769    4.308    1.231 
#    2.769    0.000    0.000    0.000    0.000    0.000 
#    0.000    0.000    0.000    0.000    0.000    0.000 
#
# Total GULP energy -72567.885044 kJ/mol
# GULP energy per Si atom -5582.145003 kJ/mol
# Density = 2.357017 g / cm^3
# Si number density = 23.623944 Si / 1000 Ang^3
#
#
#
# Elastic Constant Matrix: (Units=GPa)
#
#
# Indices 1 2 3 4 5 6 
#
# 1 115.5621 95.0076 -2.6008 0.9672 -3.1548 18.5106
# 2 95.0076 167.2060 94.7555 18.1695 29.5840 -37.7121
# 3 -2.6008 94.7555 54.4046 1.2323 1.3262 -4.0010
# 4 0.9672 18.1695 1.2323 45.9860 -15.4567 9.5512
# 5 -3.1548 29.5840 1.3262 -15.4567 17.0756 6.8009
# 6 18.5106 -37.7121 -4.0010 9.5512 6.8009 38.5743
#
#
#
# Elastic Compliance Matrix: (Units=1/GPa)
#
#
# Indices 1 2 3 4 5 6 
#
# 1 0.005011 0.003276 -0.004798 -0.005743 -0.011038 0.003669
# 2 0.003276 -0.002134 0.002878 0.006529 0.012874 -0.007246
# 3 -0.004798 0.002878 0.015017 -0.012289 -0.023697 0.013894
# 4 -0.005743 0.006529 -0.012289 0.022245 0.008366 0.000882
# 5 -0.011038 0.012874 -0.023697 0.008366 0.041207 0.006089
# 6 0.003669 -0.007246 0.013894 0.000882 0.006089 0.017229
#
#
# Mechanical properties :
#
#
# Convention : Reuss Voigt Hill
#
# Bulk Modulus (GPa) = 48.52670 79.05525 63.79098
# Shear Modulus (GPa) = 48.67085 30.32786 39.49935
#
# Velocity S-wave (km/s) = 4.54390 3.58687 4.09345
# Velocity P-wave (km/s) = 6.93652 7.11975 7.02873
#
# Compressibility (1/GPa) = 0.02060721
#
# Stress axis : x y z
#
# Youngs Moduli (GPa) = 199.56611 -468.71194 66.59176
#
# Poissons Ratio (x) = 1.53563 0.31949
# Poissons Ratio (y) = -0.65383 -0.19164
# Poissons Ratio (z) = 0.95746 1.34891
#
# Static dielectric constant tensor:
#      x y z
#    x 1.993540 0.112290 -0.128340 
#    y 0.112290 1.926580 -0.125470 
#    z -0.128340 -0.125470 2.015120 
# 
# From -- ./inp_files/433355.got.cif
#   From: 2010.05.17/outbox.cif.g08.bks.cpg/sg2_217_cif.got.tgz:433355.got - 2010.06.03 11:33:40.
