data_PCOD9044216
_publ_section_title
;
Structure prediction by ZEFSAII (Michael W. Deem and Ramdas Pophale) SiO2 
 PCOD9044216
Probable space group: P -1
;
_chemical_formula_sum "Si O2"
_cell_formula_units_Z 14
_cell_length_a 5.936840
_cell_length_b 17.010530
_cell_length_c 5.930934
_cell_angle_alpha 81.751460
_cell_angle_beta 102.855138
_cell_angle_gamma 80.815716
_cell_volume 566.403855
_symmetry_space_group_name_H-M "P -1"
_symmetry_group_IT_number 2
_symmetry_cell_setting 'triclinic'
loop_
_space_group_symop_operation_xyz
x,y,z
-x,-y,-z
loop_
_atom_site_type_symbol
_atom_site_label
_atom_site_fract_x
_atom_site_fract_y
_atom_site_fract_z
Si Si1 0.722256 0.597005 0.018247
Si Si2 0.003739 0.678523 0.704563
Si Si3 0.347135 0.906367 0.622139
Si Si4 0.648759 0.830599 0.354732
Si Si5 0.330549 0.541229 0.645050
Si Si6 0.886829 0.955602 0.191596
Si Si7 0.616392 0.245892 0.997231
O O1 0.896688 0.615143 0.857774
O O2 0.509649 0.568670 0.851561
O O3 0.611697 0.682271 0.072593
O O4 0.795157 0.527623 0.248255
O O5 0.819014 0.753379 0.531966
O O6 0.145609 0.626401 0.552170
O O7 0.164126 0.714463 0.907476
O O8 0.563538 0.897027 0.502183
O O9 0.380859 0.818817 0.778605
O O10 0.101034 0.926499 0.425048
O O11 0.314505 0.974012 0.778406
O O12 0.774967 0.875367 0.172224
O O13 0.417823 0.801641 0.218513
O O14 0.500000 0.500000 0.500000
O O15 0.000000 0.000000 0.000000
#
# Coordination Sequence:
#
# PCOD9044216 Si02
#       7
#     2   2   2   2   2   2   2
#     4  10  23  46  71 106 144 192 238 304 356 424
#     4  11  24  49  75 105 150 191 242 302 362 426
#     4  11  24  47  72 105 150 183 247 304 352 441
#     4  12  26  47  76 107 143 197 240 301 368 425
#     4  10  24  46  73 106 149 189 246 292 359 440
#     4  11  26  47  75 107 144 197 241 297 372 432
#     4  11  25  44  73 110 145 184 244 304 358 434
#
# _framework density 24.717343
#
# number of rings (size 3 to 8) (size 9 to 14) (size 15 to 20)
#    0.000    1.143    2.857    1.714    2.000    7.429 
#   10.286    0.000    0.000    0.000    0.000    0.000 
#    0.000    0.000    0.000    0.000    0.000    0.000 
#
# Total GULP energy -78276.451352 kJ/mol
# GULP energy per Si atom -5591.175097 kJ/mol
# Density = 2.466109 g / cm^3
# Si number density = 24.717343 Si / 1000 Ang^3
#
#
#
# Elastic Constant Matrix: (Units=GPa)
#
#
# Indices 1 2 3 4 5 6 
#
# 1 85.1510 62.2549 37.6392 -16.3171 -9.3682 4.0010
# 2 62.2549 145.6833 55.0717 -15.2406 -22.8136 -9.5932
# 3 37.6392 55.0717 75.0646 -8.3504 0.7487 -2.2006
# 4 -16.3171 -15.2406 -8.3504 39.0651 1.8798 -8.5714
# 5 -9.3682 -22.8136 0.7487 1.8798 42.7576 -0.5834
# 6 4.0010 -9.5932 -2.2006 -8.5714 -0.5834 44.1988
#
#
#
# Elastic Compliance Matrix: (Units=1/GPa)
#
#
# Indices 1 2 3 4 5 6 
#
# 1 0.019285 -0.005979 -0.004911 0.004084 0.000908 -0.002484
# 2 -0.005979 0.013170 -0.006424 0.001756 0.005800 0.003497
# 3 -0.004911 -0.006424 0.020555 0.000076 -0.004867 0.000024
# 4 0.004084 0.001756 0.000076 0.029224 0.000623 0.005691
# 5 0.000908 0.005800 -0.004867 0.000623 0.026758 0.001408
# 6 -0.002484 0.003497 0.000024 0.005691 0.001408 0.024732
#
#
# Mechanical properties :
#
#
# Convention : Reuss Voigt Hill
#
# Bulk Modulus (GPa) = 54.40156 68.42561 61.41358
# Shear Modulus (GPa) = 28.65653 35.26650 31.96151
#
# Velocity S-wave (km/s) = 3.40865 3.78139 3.59984
# Velocity P-wave (km/s) = 6.12773 6.84168 6.49452
#
# Compressibility (1/GPa) = 0.01838183
#
# Stress axis : x y z
#
# Youngs Moduli (GPa) = 51.85368 75.93143 48.64901
#
# Poissons Ratio (x) = 0.45396 0.23893
# Poissons Ratio (y) = 0.31001 0.31254
# Poissons Ratio (z) = 0.25467 0.48781
#
# Static dielectric constant tensor:
#      x y z
#    x 1.988260 -0.004340 -0.033260 
#    y -0.004340 1.995280 0.030020 
#    z -0.033260 0.030020 1.966140 
# 
# From -- ./inp_files/7663.got.cif
#   From: 2010.05.17/outbox.cif.g08.bks.cpg/sg2_4_cif.got.tgz:7663.got - 2010.06.03 11:33:40.
