data_PCOD9044686
_publ_section_title
;
Structure prediction by ZEFSAII (Michael W. Deem and Ramdas Pophale) SiO2 
 PCOD9044686
Probable space group: P -1
;
_chemical_formula_sum "Si O2"
_cell_formula_units_Z 12
_cell_length_a 8.605294
_cell_length_b 8.689094
_cell_length_c 14.821145
_cell_angle_alpha 52.093722
_cell_angle_beta 48.528601
_cell_angle_gamma 34.488847
_cell_volume 464.018648
_symmetry_space_group_name_H-M "P -1"
_symmetry_group_IT_number 2
_symmetry_cell_setting 'triclinic'
loop_
_space_group_symop_operation_xyz
x,y,z
-x,-y,-z
loop_
_atom_site_type_symbol
_atom_site_label
_atom_site_fract_x
_atom_site_fract_y
_atom_site_fract_z
Si Si1 0.224417 0.076601 0.400510
Si Si2 0.664045 0.495828 0.341980
Si Si3 0.132451 0.759931 0.349090
Si Si4 0.741581 0.493137 0.794067
Si Si5 0.867563 0.798032 0.873074
Si Si6 0.202033 0.564893 0.006112
O O1 0.922281 0.247225 0.397578
O O2 0.131325 0.105768 0.529323
O O3 0.310899 0.242552 0.290421
O O4 0.477593 0.773649 0.371172
O O5 0.428064 0.509327 0.380699
O O6 0.841849 0.459651 0.201799
O O7 0.094602 0.679761 0.297381
O O8 0.188553 0.950484 0.234482
O O9 0.891767 0.354615 0.882854
O O10 0.446667 0.562339 0.889650
O O11 0.671107 0.739380 0.950013
O O12 0.954571 0.755782 0.958125
#
# Coordination Sequence:
#
# PCOD9044686 Si02
#       6
#     2   2   2   2   2   2
#     4  12  28  47  77 107 150 190 242 299 364 433
#     4  12  24  48  73 111 142 191 247 293 359 429
#     4  12  26  45  76 108 145 190 245 303 360 432
#     4  11  24  47  69 111 149 192 237 299 375 425
#     4  11  24  47  74 109 139 196 248 297 359 424
#     4  10  23  47  71 104 151 190 246 298 358 437
#
# _framework density 25.861025999999999
#
# number of rings (size 3 to 8) (size 9 to 14) (size 15 to 20)
#    0.000    0.667    5.000    1.500    2.333    2.667 
#   12.000    2.500    0.000    0.000    0.000    0.000 
#    0.000    0.000    0.000    0.000    0.000    0.000 
#
# Total GULP energy -67193.611309 kJ/mol
# GULP energy per Si atom -5599.467609 kJ/mol
# Density = 2.580216 g / cm^3
# Si number density = 25.861026 Si / 1000 Ang^3
#
#
#
# Elastic Constant Matrix: (Units=GPa)
#
#
# Indices 1 2 3 4 5 6 
#
# 1 119.7776 48.3398 72.4141 14.2205 29.3778 20.7061
# 2 48.3398 129.7260 66.8375 10.7005 19.9906 -11.7295
# 3 72.4141 66.8375 158.9549 -0.9281 35.6538 -2.7608
# 4 14.2205 10.7005 -0.9281 39.4385 14.4265 -3.6557
# 5 29.3778 19.9906 35.6538 14.4265 67.1501 0.2882
# 6 20.7061 -11.7295 -2.7608 -3.6557 0.2882 23.9340
#
#
#
# Elastic Compliance Matrix: (Units=1/GPa)
#
#
# Indices 1 2 3 4 5 6 
#
# 1 0.019204 -0.004678 -0.006780 -0.007080 -0.001799 -0.020748
# 2 -0.004678 0.011712 -0.002654 -0.000715 0.000082 0.009370
# 3 -0.006780 -0.002654 0.011426 0.005333 -0.003485 0.006740
# 4 -0.007080 -0.000715 0.005333 0.031601 -0.006359 0.011293
# 5 -0.001799 0.000082 -0.003485 -0.006359 0.018871 -0.000004
# 6 -0.020748 0.009370 0.006740 0.011293 -0.000004 0.066826
#
#
# Mechanical properties :
#
#
# Convention : Reuss Voigt Hill
#
# Bulk Modulus (GPa) = 70.82448 87.07128 78.94788
# Shear Modulus (GPa) = 25.96455 40.82901 33.39678
#
# Velocity S-wave (km/s) = 3.17204 3.97770 3.59750
# Velocity P-wave (km/s) = 6.39232 7.40528 6.91737
#
# Compressibility (1/GPa) = 0.01411941
#
# Stress axis : x y z
#
# Youngs Moduli (GPa) = 52.07165 85.37948 87.52319
#
# Poissons Ratio (x) = 0.39937 0.59341
# Poissons Ratio (y) = 0.24357 0.23226
# Poissons Ratio (z) = 0.35305 0.22657
#
# Static dielectric constant tensor:
#      x y z
#    x 2.028350 0.007980 -0.026290 
#    y 0.007980 2.086730 -0.032800 
#    z -0.026290 -0.032800 2.066750 
# 
# From -- ./inp_files/492220.got.cif
#   From: 2010.05.17/outbox.cif.g08.bks.cpg/sg2_247_cif.got.tgz:492220.got - 2010.06.03 11:33:40.
