data_PCOD9044767
_publ_section_title
;
Structure prediction by ZEFSAII (Michael W. Deem and Ramdas Pophale) SiO2 
 PCOD9044767
Probable space group: P -1
;
_chemical_formula_sum "Si O2"
_cell_formula_units_Z 16
_cell_length_a 25.493902
_cell_length_b 6.805633
_cell_length_c 8.021166
_cell_angle_alpha 119.171231
_cell_angle_beta 38.216571
_cell_angle_gamma 100.388615
_cell_volume 696.854473
_symmetry_space_group_name_H-M "P -1"
_symmetry_group_IT_number 2
_symmetry_cell_setting 'triclinic'
loop_
_space_group_symop_operation_xyz
x,y,z
-x,-y,-z
loop_
_atom_site_type_symbol
_atom_site_label
_atom_site_fract_x
_atom_site_fract_y
_atom_site_fract_z
Si Si1 0.281801 0.520585 0.674100
Si Si2 0.603014 0.983630 0.698901
Si Si3 0.574312 0.441407 0.144823
Si Si4 0.874212 0.705812 0.400037
Si Si5 0.327720 0.274303 0.105020
Si Si6 0.922024 0.143654 0.620895
Si Si7 0.991256 0.274723 0.173708
Si Si8 0.590513 0.202328 0.458762
O O1 0.322337 0.418662 0.349178
O O2 0.331437 0.687046 0.698614
O O3 0.317160 0.276533 0.591956
O O4 0.173899 0.668162 0.991613
O O5 0.602374 0.075814 0.553458
O O6 0.620186 0.164831 0.863624
O O7 0.500000 0.000000 0.000000
O O8 0.500000 0.500000 0.500000
O O9 0.507462 0.583912 0.220519
O O10 0.647589 0.565625 0.030552
O O11 0.768916 0.749768 0.681465
O O12 0.921453 0.468414 0.300711
O O13 0.895536 0.929426 0.515744
O O14 0.916615 0.687114 0.099314
O O15 0.399845 0.000466 0.789321
O O16 0.959621 0.286776 0.449642
O O17 0.000000 0.000000 0.500000
O O18 0.000000 0.000000 0.000000
#
# Coordination Sequence:
#
# PCOD9044767 Si02
#       8
#     2   2   2   2   2   2   2   2
#     4  12  27  47  73 110 145 195 247 306 366 441
#     4  12  24  46  75 104 146 195 244 304 368 429
#     4  12  25  46  76 108 149 200 246 302 374 444
#     4  10  23  47  73 104 146 190 242 312 373 442
#     4  12  26  46  71 108 150 188 249 301 369 444
#     4  11  26  48  73 106 148 194 251 308 375 445
#     4   9  22  45  74 101 136 189 238 303 378 439
#     4  12  25  49  72 103 152 190 243 305 358 445
#
# _framework density 22.960318000000001
#
# number of rings (size 3 to 8) (size 9 to 14) (size 15 to 20)
#    0.000    0.750    3.750    3.000    7.000    0.500 
#    6.750    0.000    0.000    0.000    0.000    0.000 
#    0.000    0.000    0.000    0.000    0.000    0.000 
#
# Total GULP energy -89445.388773 kJ/mol
# GULP energy per Si atom -5590.336798 kJ/mol
# Density = 2.290806 g / cm^3
# Si number density = 22.960318 Si / 1000 Ang^3
#
#
#
# Elastic Constant Matrix: (Units=GPa)
#
#
# Indices 1 2 3 4 5 6 
#
# 1 52.5898 35.7718 41.2107 -10.2467 -0.7585 3.2598
# 2 35.7718 147.8312 58.5133 -6.0902 2.2162 -10.2676
# 3 41.2107 58.5133 120.8753 -6.9886 -6.9143 -8.8398
# 4 -10.2467 -6.0902 -6.9886 48.6070 4.5318 2.3045
# 5 -0.7585 2.2162 -6.9143 4.5318 45.8901 -1.6685
# 6 3.2598 -10.2676 -8.8398 2.3045 -1.6685 52.5662
#
#
#
# Elastic Compliance Matrix: (Units=1/GPa)
#
#
# Indices 1 2 3 4 5 6 
#
# 1 0.029274 -0.003922 -0.008179 0.004814 -0.001187 -0.004206
# 2 -0.003922 0.009000 -0.002968 -0.000114 -0.000882 0.001479
# 3 -0.008179 -0.002968 0.012742 -0.000559 0.002062 0.002160
# 4 0.004814 -0.000114 -0.000559 0.021767 -0.002201 -0.001439
# 5 -0.001187 -0.000882 0.002062 -0.002201 0.022380 0.001055
# 6 -0.004206 0.001479 0.002160 -0.001439 0.001055 0.020033
#
#
# Mechanical properties :
#
#
# Convention : Reuss Voigt Hill
#
# Bulk Modulus (GPa) = 47.90057 65.80975 56.85516
# Shear Modulus (GPa) = 32.83141 41.79938 37.31539
#
# Velocity S-wave (km/s) = 3.78553 4.27137 4.03577
# Velocity P-wave (km/s) = 6.32571 7.28359 6.82148
#
# Compressibility (1/GPa) = 0.02087658
#
# Stress axis : x y z
#
# Youngs Moduli (GPa) = 34.16033 111.11543 78.48115
#
# Poissons Ratio (x) = 0.43582 0.64189
# Poissons Ratio (y) = 0.13399 0.23295
# Poissons Ratio (z) = 0.27939 0.32981
#
# Static dielectric constant tensor:
#      x y z
#    x 1.907060 -0.067220 0.062980 
#    y -0.067220 1.840840 0.002120 
#    z 0.062980 0.002120 1.880120 
# 
# From -- ./inp_files/358252.got.cif
#   From: 2010.05.17/outbox.cif.g08.bks.cpg/sg2_180_cif.got.tgz:358252.got - 2010.06.03 11:33:40.
