data_PCOD9044312
_publ_section_title
;
Structure prediction by ZEFSAII (Michael W. Deem and Ramdas Pophale) SiO2 
 PCOD9044312
Probable space group: P -1
;
_chemical_formula_sum "Si O2"
_cell_formula_units_Z 16
_cell_length_a 12.656956
_cell_length_b 14.743800
_cell_length_c 8.906449
_cell_angle_alpha 131.134240
_cell_angle_beta 75.500300
_cell_angle_gamma 141.340144
_cell_volume 648.082132
_symmetry_space_group_name_H-M "P -1"
_symmetry_group_IT_number 2
_symmetry_cell_setting 'triclinic'
loop_
_space_group_symop_operation_xyz
x,y,z
-x,-y,-z
loop_
_atom_site_type_symbol
_atom_site_label
_atom_site_fract_x
_atom_site_fract_y
_atom_site_fract_z
Si Si1 0.174517 0.565387 0.026464
Si Si2 0.575875 0.596597 0.747177
Si Si3 0.101787 0.937748 0.725755
Si Si4 0.801630 0.064104 0.639949
Si Si5 0.518192 0.129946 0.017658
Si Si6 0.838230 0.854506 0.531637
Si Si7 0.738895 0.495144 0.551953
Si Si8 0.386187 0.820545 0.531354
O O1 0.289453 0.667686 0.940071
O O2 0.322393 0.744406 0.300647
O O3 0.000000 0.500000 0.000000
O O4 0.036859 0.323339 0.857086
O O5 0.500000 0.500000 0.500000
O O6 0.364554 0.413340 0.712893
O O7 0.688234 0.577269 0.730980
O O8 0.723004 0.844916 0.994923
O O9 0.954185 0.910960 0.696039
O O10 0.947235 0.706029 0.614393
O O11 0.200776 0.980864 0.582804
O O12 0.766017 0.924388 0.619571
O O13 0.621393 0.992971 0.650515
O O14 0.361728 0.931193 0.731457
O O15 0.553234 0.277188 0.272309
O O16 0.500000 0.000000 0.000000
O O17 0.000000 0.000000 0.500000
O O18 0.750639 0.401051 0.567455
#
# Coordination Sequence:
#
# PCOD9044312 Si02
#       8
#     2   2   2   2   2   2   2   2
#     4  12  25  45  73 103 137 176 235 289 350 418
#     4  12  25  42  67  99 139 190 235 286 339 409
#     4  11  25  44  69 102 144 187 236 284 343 411
#     4  11  24  42  71 102 136 188 227 285 352 410
#     4  10  23  46  72  98 137 176 226 289 347 416
#     4  10  24  43  66 101 141 179 233 288 336 408
#     4  11  23  46  70 102 142 187 233 285 348 414
#     4  11  25  45  74 103 141 179 232 292 349 417
#
# _framework density 24.688227999999999
#
# number of rings (size 3 to 8) (size 9 to 14) (size 15 to 20)
#    0.000    1.000    5.000    0.750    1.750    5.000 
#    0.000    3.750    0.000    0.000    0.000    0.000 
#    0.000    0.000    0.000    0.000    0.000    0.000 
#
# Total GULP energy -89357.381793 kJ/mol
# GULP energy per Si atom -5584.836362 kJ/mol
# Density = 2.463204 g / cm^3
# Si number density = 24.688228 Si / 1000 Ang^3
#
#
#
# Elastic Constant Matrix: (Units=GPa)
#
#
# Indices 1 2 3 4 5 6 
#
# 1 55.2915 24.8562 14.8755 4.9534 4.1585 3.1482
# 2 24.8562 167.6079 47.4173 19.3556 3.7469 3.0614
# 3 14.8755 47.4173 160.9463 16.7235 -2.1261 6.2470
# 4 4.9534 19.3556 16.7235 45.9118 0.1908 -6.9198
# 5 4.1585 3.7469 -2.1261 0.1908 31.3054 0.0216
# 6 3.1482 3.0614 6.2470 -6.9198 0.0216 31.8638
#
#
#
# Elastic Compliance Matrix: (Units=1/GPa)
#
#
# Indices 1 2 3 4 5 6 
#
# 1 0.019824 -0.002466 -0.000966 -0.001001 -0.002396 -0.001748
# 2 -0.002466 0.007068 -0.001609 -0.002216 -0.000614 -0.000601
# 3 -0.000966 -0.001609 0.007059 -0.002030 0.000814 -0.001575
# 4 -0.001001 -0.002216 -0.002030 0.024470 0.000107 0.006024
# 5 -0.002396 -0.000614 0.000814 0.000107 0.032390 0.000137
# 6 -0.001748 -0.000601 -0.001575 0.006024 0.000137 0.033231
#
#
# Mechanical properties :
#
#
# Convention : Reuss Voigt Hill
#
# Bulk Modulus (GPa) = 41.89282 62.01594 51.95438
# Shear Modulus (GPa) = 35.19196 41.59597 38.39397
#
# Velocity S-wave (km/s) = 3.77962 4.10915 3.94782
# Velocity P-wave (km/s) = 6.00441 6.90562 6.47072
#
# Compressibility (1/GPa) = 0.02387044
#
# Stress axis : x y z
#
# Youngs Moduli (GPa) = 50.44492 141.48934 141.65672
#
# Poissons Ratio (x) = 0.34885 0.13678
# Poissons Ratio (y) = 0.12437 0.22792
# Poissons Ratio (z) = 0.04871 0.22765
#
# Static dielectric constant tensor:
#      x y z
#    x 2.029860 -0.044200 -0.079590 
#    y -0.044200 1.981190 0.032060 
#    z -0.079590 0.032060 1.953980 
# 
# From -- ./inp_files/315882.got.cif
#   From: 2010.05.17/outbox.cif.g08.bks.cpg/sg2_158_cif.got.tgz:315882.got - 2010.06.03 11:33:40.
