data_PCOD9044530
_publ_section_title
;
Structure prediction by ZEFSAII (Michael W. Deem and Ramdas Pophale) SiO2 
 PCOD9044530
Probable space group: P -1
;
_chemical_formula_sum "Si O2"
_cell_formula_units_Z 16
_cell_length_a 11.193181
_cell_length_b 19.889036
_cell_length_c 18.225619
_cell_angle_alpha 21.383631
_cell_angle_beta 146.993642
_cell_angle_gamma 148.058060
_cell_volume 757.597978
_symmetry_space_group_name_H-M "P -1"
_symmetry_group_IT_number 2
_symmetry_cell_setting 'triclinic'
loop_
_space_group_symop_operation_xyz
x,y,z
-x,-y,-z
loop_
_atom_site_type_symbol
_atom_site_label
_atom_site_fract_x
_atom_site_fract_y
_atom_site_fract_z
Si Si1 0.967894 0.922840 0.175714
Si Si2 0.290918 0.274256 0.893860
Si Si3 0.711582 0.104204 0.284168
Si Si4 0.321441 0.798930 0.578762
Si Si5 0.939348 0.671855 0.637483
Si Si6 0.545932 0.665087 0.704342
Si Si7 0.741186 0.962937 0.169550
Si Si8 0.933779 0.271371 0.077110
O O1 0.799071 0.761239 0.199510
O O2 0.837273 0.962002 0.139064
O O3 0.172387 0.853720 0.382556
O O4 0.083794 0.124070 0.987024
O O5 0.362290 0.492123 0.740440
O O6 0.512980 0.202534 0.088797
O O7 0.811225 0.141752 0.215142
O O8 0.920856 0.205919 0.345334
O O9 0.602308 0.876796 0.480374
O O10 0.460046 0.679429 0.728694
O O11 0.136350 0.695162 0.652103
O O12 0.500000 0.000000 0.500000
O O13 0.755308 0.767182 0.414962
O O14 0.832534 0.445526 0.834389
O O15 0.792133 0.629919 0.866722
O O16 0.904225 0.137269 0.126875
O O17 0.500000 0.000000 0.000000
#
# Coordination Sequence:
#
# PCOD9044530 Si02
#       8
#     2   2   2   2   2   2   2   2
#     4  10  23  47  64  98 143 172 223 290 339 401
#     4  11  24  42  70  97 135 182 224 282 348 402
#     4  12  23  46  63 104 141 174 229 289 336 397
#     4  11  21  43  68  96 139 172 224 284 338 393
#     4  11  24  42  69  97 139 177 220 287 339 396
#     4  12  24  39  72 103 128 182 230 275 343 400
#     4  11  25  47  68  98 136 182 227 280 342 406
#     4  12  26  41  71 102 135 182 232 277 338 409
#
# _framework density 21.119382000000002
#
# number of rings (size 3 to 8) (size 9 to 14) (size 15 to 20)
#    0.000    0.750    5.000    2.250    1.750    1.500 
#    0.000    2.500    0.000    0.000    0.000    0.000 
#    0.000    0.000    0.000    0.000    0.000    0.000 
#
# Total GULP energy -89516.332614 kJ/mol
# GULP energy per Si atom -5594.770788 kJ/mol
# Density = 2.107131 g / cm^3
# Si number density = 21.119382 Si / 1000 Ang^3
#
#
#
# Elastic Constant Matrix: (Units=GPa)
#
#
# Indices 1 2 3 4 5 6 
#
# 1 91.6611 26.8843 24.4947 9.2271 -0.6468 -20.7519
# 2 26.8843 58.3121 18.8612 1.2552 -3.0276 -33.8111
# 3 24.4947 18.8612 94.0432 7.3378 2.6865 -9.5322
# 4 9.2271 1.2552 7.3378 32.9520 -1.4541 9.5119
# 5 -0.6468 -3.0276 2.6865 -1.4541 31.4531 8.5869
# 6 -20.7519 -33.8111 -9.5322 9.5119 8.5869 36.6773
#
#
#
# Elastic Compliance Matrix: (Units=1/GPa)
#
#
# Indices 1 2 3 4 5 6 
#
# 1 0.014353 -0.000552 -0.002130 -0.006300 -0.002393 0.009253
# 2 -0.000552 0.045047 -0.002794 -0.014707 -0.008772 0.046357
# 3 -0.002130 -0.002794 0.011978 -0.002095 -0.001494 0.000225
# 4 -0.006300 -0.014707 -0.002095 0.042419 0.008996 -0.030774
# 5 -0.002393 -0.008772 -0.001494 0.008996 0.037137 -0.020857
# 6 0.009253 0.046357 0.000225 -0.030774 -0.020857 0.088157
#
#
# Mechanical properties :
#
#
# Convention : Reuss Voigt Hill
#
# Bulk Modulus (GPa) = 16.54920 42.72186 29.63553
# Shear Modulus (GPa) = 18.50590 31.80156 25.15373
#
# Velocity S-wave (km/s) = 2.96337 3.88467 3.45487
# Velocity P-wave (km/s) = 4.42287 6.35559 5.47519
#
# Compressibility (1/GPa) = 0.06042587
#
# Stress axis : x y z
#
# Youngs Moduli (GPa) = 69.67204 22.19886 83.48962
#
# Poissons Ratio (x) = 0.01226 0.17782
# Poissons Ratio (y) = 0.03847 0.23327
# Poissons Ratio (z) = 0.14839 0.06202
#
# Static dielectric constant tensor:
#      x y z
#    x 1.788350 0.012690 0.034530 
#    y 0.012690 1.740380 0.016770 
#    z 0.034530 0.016770 1.781940 
# 
# From -- ./inp_files/570725.got.cif
#   From: 2010.05.17/outbox.cif.g08.bks.cpg/sg2_286_cif.got.tgz:570725.got - 2010.06.03 11:33:40.
