data_PCOD9044081
_publ_section_title
;
Structure prediction by ZEFSAII (Michael W. Deem and Ramdas Pophale) SiO2 
 PCOD9044081
Probable space group: P -1
;
_chemical_formula_sum "Si O2"
_cell_formula_units_Z 16
_cell_length_a 15.979438
_cell_length_b 7.628293
_cell_length_c 21.295030
_cell_angle_alpha 61.254087
_cell_angle_beta 161.383203
_cell_angle_gamma 112.101645
_cell_volume 696.611882
_symmetry_space_group_name_H-M "P -1"
_symmetry_group_IT_number 2
_symmetry_cell_setting 'triclinic'
loop_
_space_group_symop_operation_xyz
x,y,z
-x,-y,-z
loop_
_atom_site_type_symbol
_atom_site_label
_atom_site_fract_x
_atom_site_fract_y
_atom_site_fract_z
Si Si1 0.507705 0.349030 0.429411
Si Si2 0.345694 0.737179 0.310502
Si Si3 0.608083 0.113273 0.310999
Si Si4 0.052369 0.672174 0.696899
Si Si5 0.999883 0.317629 0.483082
Si Si6 0.884807 0.772045 0.142002
Si Si7 0.465280 0.915450 0.922720
Si Si8 0.259348 0.225617 0.152854
O O1 0.488223 0.594015 0.378234
O O2 0.492964 0.306641 0.500962
O O3 0.302162 0.306269 0.239031
O O4 0.810795 0.213004 0.649983
O O5 0.305397 0.978318 0.229884
O O6 0.047695 0.691474 0.107142
O O7 0.742287 0.236599 0.335034
O O8 0.498371 0.248103 0.272163
O O9 0.326861 0.098310 0.082001
O O10 0.830433 0.891125 0.519693
O O11 0.984649 0.610039 0.589395
O O12 0.093414 0.474443 0.804924
O O13 0.333344 0.729434 0.874026
O O14 0.000000 0.500000 0.500000
O O15 0.249819 0.107709 0.702543
O O16 0.743496 0.848311 0.094201
O O17 0.500000 0.000000 0.000000
#
# Coordination Sequence:
#
# PCOD9044081 Si02
#       8
#     2   2   2   2   2   2   2   2
#     4  11  24  42  69 101 129 167 224 270 328 413
#     4  10  23  46  69  95 131 172 211 273 347 390
#     4  11  23  43  61  95 130 169 221 271 326 386
#     4  11  23  41  62  85 131 178 214 270 323 374
#     4  11  23  40  61  89 130 176 220 265 319 384
#     4  12  23  41  65  93 130 171 219 274 324 386
#     4  11  23  39  61  91 127 174 222 265 318 387
#     4  11  23  43  71  95 132 173 212 275 338 397
#
# _framework density 22.968312000000001
#
# number of rings (size 3 to 8) (size 9 to 14) (size 15 to 20)
#    0.000    1.000    3.750    3.375    7.000    0.000 
#    0.000    0.000    2.750    0.000    0.000    0.000 
#    0.000    0.000    0.000    0.000    0.000    0.000 
#
# Total GULP energy -89367.908743 kJ/mol
# GULP energy per Si atom -5585.494296 kJ/mol
# Density = 2.291604 g / cm^3
# Si number density = 22.968312 Si / 1000 Ang^3
#
#
#
# Elastic Constant Matrix: (Units=GPa)
#
#
# Indices 1 2 3 4 5 6 
#
# 1 73.3236 9.8334 34.6067 2.8206 1.9280 -25.4456
# 2 9.8334 58.7200 13.7518 -6.4098 -4.1961 -16.7898
# 3 34.6067 13.7518 92.4116 -8.8491 11.1948 -9.5411
# 4 2.8206 -6.4098 -8.8491 24.5412 -2.9136 -5.7160
# 5 1.9280 -4.1961 11.1948 -2.9136 43.0691 -3.1738
# 6 -25.4456 -16.7898 -9.5411 -5.7160 -3.1738 35.9888
#
#
#
# Elastic Compliance Matrix: (Units=1/GPa)
#
#
# Indices 1 2 3 4 5 6 
#
# 1 0.021861 0.002304 -0.007370 -0.000903 0.002178 0.014626
# 2 0.002304 0.022127 -0.002555 0.008107 0.004218 0.012934
# 3 -0.007370 -0.002555 0.014607 0.004528 -0.003566 -0.002125
# 4 -0.000903 0.008107 0.004528 0.047915 0.003800 0.012290
# 5 0.002178 0.004218 -0.003566 0.003800 0.025112 0.005381
# 6 0.014626 0.012934 -0.002125 0.012290 0.005381 0.046025
#
#
# Mechanical properties :
#
#
# Convention : Reuss Voigt Hill
#
# Bulk Modulus (GPa) = 23.06564 37.87103 30.46833
# Shear Modulus (GPa) = 24.11498 31.80406 27.95952
#
# Velocity S-wave (km/s) = 3.24377 3.72518 3.49278
# Velocity P-wave (km/s) = 4.90852 5.91835 5.43693
#
# Compressibility (1/GPa) = 0.04335452
#
# Stress axis : x y z
#
# Youngs Moduli (GPa) = 45.74436 45.19341 68.45857
#
# Poissons Ratio (x) = -0.10414 0.50451
# Poissons Ratio (y) = -0.10541 0.17491
# Poissons Ratio (z) = 0.33712 0.11547
#
# Static dielectric constant tensor:
#      x y z
#    x 1.964140 -0.032790 -0.043100 
#    y -0.032790 1.865280 0.031920 
#    z -0.043100 0.031920 1.996560 
# 
# From -- ./inp_files/297424.got.cif
#   From: 2010.05.17/outbox.cif.g08.bks.cpg/sg2_149_cif.got.tgz:297424.got - 2010.06.03 11:33:40.
