data_PCOD9044903
_publ_section_title
;
Structure prediction by ZEFSAII (Michael W. Deem and Ramdas Pophale) SiO2 
 PCOD9044903
Probable space group: P -1
;
_chemical_formula_sum "Si O2"
_cell_formula_units_Z 14
_cell_length_a 13.017190
_cell_length_b 8.751517
_cell_length_c 6.593099
_cell_angle_alpha 106.244566
_cell_angle_beta 118.404444
_cell_angle_gamma 110.046982
_cell_volume 524.002621
_symmetry_space_group_name_H-M "P -1"
_symmetry_group_IT_number 2
_symmetry_cell_setting 'triclinic'
loop_
_space_group_symop_operation_xyz
x,y,z
-x,-y,-z
loop_
_atom_site_type_symbol
_atom_site_label
_atom_site_fract_x
_atom_site_fract_y
_atom_site_fract_z
Si Si1 0.598976 0.327848 0.087167
Si Si2 0.344159 0.834318 0.375384
Si Si3 0.332314 0.984241 0.838075
Si Si4 0.952361 0.480758 0.210936
Si Si5 0.851485 0.645782 0.713757
Si Si6 0.620377 0.489668 0.714314
Si Si7 0.028793 0.861855 0.589132
O O1 0.622873 0.150585 0.064663
O O2 0.728930 0.509974 0.385834
O O3 0.594771 0.415423 0.896985
O O4 0.446360 0.213169 0.008021
O O5 0.304157 0.919024 0.552050
O O6 0.374082 0.684163 0.438390
O O7 0.204990 0.700338 0.056342
O O8 0.500000 0.000000 0.500000
O O9 0.192461 0.942011 0.790971
O O10 0.000000 0.500000 0.500000
O O11 0.066233 0.456738 0.193481
O O12 0.965245 0.679748 0.306126
O O13 0.770548 0.667034 0.831483
O O14 0.962987 0.817610 0.736260
O O15 0.500000 0.500000 0.500000
O O16 0.000000 0.000000 0.500000
#
# Coordination Sequence:
#
# PCOD9044903 Si02
#       7
#     2   2   2   2   2   2   2
#     4  11  24  49  78 110 158 202 272 318 390 473
#     4  12  25  47  82 119 160 208 268 327 390 481
#     4  11  25  46  79 117 151 209 267 326 390 475
#     4  10  23  47  80 114 153 207 267 320 387 478
#     4  11  25  49  77 111 148 215 261 322 393 473
#     4  12  27  46  73 118 159 200 261 330 404 464
#     4  11  25  45  74 112 158 199 262 325 401 458
#
# _framework density 26.717423
#
# number of rings (size 3 to 8) (size 9 to 14) (size 15 to 20)
#    0.000    0.857    4.286    1.714    4.000    4.000 
#    2.571    0.000    0.000    7.714    0.000    0.000 
#    0.000    0.000    0.000    0.000    0.000    0.000 
#
# Total GULP energy -78221.701066 kJ/mol
# GULP energy per Si atom -5587.264362 kJ/mol
# Density = 2.665661 g / cm^3
# Si number density = 26.717423 Si / 1000 Ang^3
#
#
#
# Elastic Constant Matrix: (Units=GPa)
#
#
# Indices 1 2 3 4 5 6 
#
# 1 118.0154 81.3754 70.7193 -5.7976 31.0444 34.4323
# 2 81.3754 157.9912 71.6148 -20.0034 25.7935 38.4496
# 3 70.7193 71.6148 175.8322 -2.9796 27.3404 8.9580
# 4 -5.7976 -20.0034 -2.9796 47.2733 -6.4721 7.2097
# 5 31.0444 25.7935 27.3404 -6.4721 50.7396 8.8193
# 6 34.4323 38.4496 8.9580 7.2097 8.8193 68.2295
#
#
#
# Elastic Compliance Matrix: (Units=1/GPa)
#
#
# Indices 1 2 3 4 5 6 
#
# 1 0.016799 -0.005150 -0.003668 -0.000356 -0.004961 -0.004415
# 2 -0.005150 0.011710 -0.002375 0.004784 -0.000187 -0.004169
# 3 -0.003668 -0.002375 0.008228 -0.001535 -0.001608 0.002480
# 4 -0.000356 0.004784 -0.001535 0.024188 0.002603 -0.005207
# 5 -0.004961 -0.000187 -0.001608 0.002603 0.024138 -0.000575
# 6 -0.004415 -0.004169 0.002480 -0.005207 -0.000575 0.019533
#
#
# Mechanical properties :
#
#
# Convention : Reuss Voigt Hill
#
# Bulk Modulus (GPa) = 69.69544 99.91753 84.80649
# Shear Modulus (GPa) = 37.94640 48.45712 43.20176
#
# Velocity S-wave (km/s) = 3.77276 4.26336 4.02554
# Velocity P-wave (km/s) = 6.71722 7.85583 7.30873
#
# Compressibility (1/GPa) = 0.01434814
#
# Stress axis : x y z
#
# Youngs Moduli (GPa) = 59.52887 85.39951 121.53878
#
# Poissons Ratio (x) = 0.43983 0.44585
# Poissons Ratio (y) = 0.30659 0.28869
# Poissons Ratio (z) = 0.21837 0.20285
#
# Static dielectric constant tensor:
#      x y z
#    x 2.262630 0.117400 -0.084370 
#    y 0.117400 2.328150 -0.010950 
#    z -0.084370 -0.010950 2.204410 
# 
# From -- ./inp_files/292392.got.cif
#   From: 2010.05.17/outbox.cif.g08.bks.cpg/sg2_147_cif.got.tgz:292392.got - 2010.06.03 11:33:40.
