data_PCOD9044611
_publ_section_title
;
Structure prediction by ZEFSAII (Michael W. Deem and Ramdas Pophale) SiO2 
 PCOD9044611
Probable space group: P -1
;
_chemical_formula_sum "Si O2"
_cell_formula_units_Z 16
_cell_length_a 11.239503
_cell_length_b 12.135314
_cell_length_c 15.155881
_cell_angle_alpha 53.944757
_cell_angle_beta 111.413973
_cell_angle_gamma 65.677367
_cell_volume 861.390666
_symmetry_space_group_name_H-M "P -1"
_symmetry_group_IT_number 2
_symmetry_cell_setting 'triclinic'
loop_
_space_group_symop_operation_xyz
x,y,z
-x,-y,-z
loop_
_atom_site_type_symbol
_atom_site_label
_atom_site_fract_x
_atom_site_fract_y
_atom_site_fract_z
Si Si1 0.134775 0.899953 0.174824
Si Si2 0.889041 0.881265 0.547572
Si Si3 0.429754 0.376243 0.514793
Si Si4 0.328154 0.765981 0.536889
Si Si5 0.233648 0.349472 0.177745
Si Si6 0.280090 0.626785 0.042877
Si Si7 0.172743 0.839656 0.736453
Si Si8 0.295837 0.232282 0.453590
O O1 0.240763 0.660477 0.345493
O O2 0.360520 0.797247 0.277373
O O3 0.955809 0.117765 0.094374
O O4 0.000000 0.000000 0.000000
O O5 0.884200 0.729206 0.593317
O O6 0.120855 0.755581 0.698161
O O7 0.737165 0.034603 0.523881
O O8 0.775133 0.077495 0.349074
O O9 0.561005 0.300912 0.494613
O O10 0.315743 0.333371 0.483218
O O11 0.516607 0.526518 0.761124
O O12 0.084838 0.905671 0.411801
O O13 0.230586 0.349244 0.284185
O O14 0.452795 0.063297 0.344037
O O15 0.260959 0.481502 0.092614
O O16 0.000000 0.500000 0.000000
O O17 0.318525 0.667677 0.941317
#
# Coordination Sequence:
#
# PCOD9044611 Si02
#       8
#     2   2   2   2   2   2   2   2
#     4  11  21  34  52  78 103 132 176 217 265 311
#     4   9  18  36  51  72 113 143 168 208 246 310
#     4  11  21  33  54  76 107 136 167 220 265 307
#     4  10  17  34  50  79 104 134 167 209 261 298
#     4  11  20  28  50  77 106 142 161 201 265 317
#     4  12  19  32  53  77 105 133 172 216 257 303
#     4   9  20  34  50  78 107 138 181 205 247 304
#     4  11  19  35  47  75 113 135 169 206 260 321
#
# _framework density 18.574614
#
# number of rings (size 3 to 8) (size 9 to 14) (size 15 to 20)
#    0.750    0.750    5.000    2.250    0.000    0.500 
#    0.000    0.000    0.000    0.750    0.000    1.750 
#    0.000    0.000    0.000    0.000    0.000    0.000 
#
# Total GULP energy -89194.258840 kJ/mol
# GULP energy per Si atom -5574.641178 kJ/mol
# Density = 1.853234 g / cm^3
# Si number density = 18.574614 Si / 1000 Ang^3
#
#
#
# Elastic Constant Matrix: (Units=GPa)
#
#
# Indices 1 2 3 4 5 6 
#
# 1 71.5809 18.4226 9.3750 8.1263 -4.4897 13.1070
# 2 18.4226 54.5750 15.3799 -5.1283 0.3960 19.9518
# 3 9.3750 15.3799 94.8738 18.7281 4.9085 3.0552
# 4 8.1263 -5.1283 18.7281 30.8937 -4.6005 3.7951
# 5 -4.4897 0.3960 4.9085 -4.6005 22.6904 3.9470
# 6 13.1070 19.9518 3.0552 3.7951 3.9470 28.1050
#
#
#
# Elastic Compliance Matrix: (Units=1/GPa)
#
#
# Indices 1 2 3 4 5 6 
#
# 1 0.016594 -0.004207 -0.000228 -0.003836 0.003445 -0.004693
# 2 -0.004207 0.031227 -0.007129 0.014397 0.006972 -0.022355
# 3 -0.000228 -0.007129 0.014092 -0.011352 -0.006324 0.006056
# 4 -0.003836 0.014397 -0.011352 0.046560 0.013562 -0.015389
# 5 0.003445 0.006972 -0.006324 0.013562 0.051343 -0.014911
# 6 -0.004693 -0.022355 0.006056 -0.015389 -0.014911 0.057153
#
#
# Mechanical properties :
#
#
# Convention : Reuss Voigt Hill
#
# Bulk Modulus (GPa) = 25.78329 34.15386 29.96858
# Shear Modulus (GPa) = 19.76096 28.19463 23.97779
#
# Velocity S-wave (km/s) = 3.26524 3.90027 3.59679
# Velocity P-wave (km/s) = 5.30347 6.22174 5.78087
#
# Compressibility (1/GPa) = 0.03878481
#
# Stress axis : x y z
#
# Youngs Moduli (GPa) = 60.26417 32.02310 70.96458
#
# Poissons Ratio (x) = 0.13472 0.01616
# Poissons Ratio (y) = 0.25353 0.50593
# Poissons Ratio (z) = 0.01372 0.22830
#
# Static dielectric constant tensor:
#      x y z
#    x 1.667380 0.001620 0.033740 
#    y 0.001620 1.663620 0.011340 
#    z 0.033740 0.011340 1.716500 
# 
# From -- ./inp_files/518858.got.cif
#   From: 2010.05.17/outbox.cif.g08.bks.cpg/sg2_260_cif.got.tgz:518858.got - 2010.06.03 11:33:40.
