data_PCOD9044502
_publ_section_title
;
Structure prediction by ZEFSAII (Michael W. Deem and Ramdas Pophale) SiO2 
 PCOD9044502
Probable space group: P -1
;
_chemical_formula_sum "Si O2"
_cell_formula_units_Z 15
_cell_length_a 9.484346
_cell_length_b 12.607687
_cell_length_c 12.212697
_cell_angle_alpha 114.934354
_cell_angle_beta 50.289610
_cell_angle_gamma 144.415284
_cell_volume 637.860351
_symmetry_space_group_name_H-M "P -1"
_symmetry_group_IT_number 2
_symmetry_cell_setting 'triclinic'
loop_
_space_group_symop_operation_xyz
x,y,z
-x,-y,-z
loop_
_atom_site_type_symbol
_atom_site_label
_atom_site_fract_x
_atom_site_fract_y
_atom_site_fract_z
Si Si1 0.199250 0.018206 0.690109
Si Si2 0.367714 0.023454 0.824183
Si Si3 0.780179 0.263920 0.924004
Si Si4 0.585240 0.201709 0.384893
Si Si5 0.917702 0.792335 0.117147
Si Si6 0.698920 0.604520 0.727069
Si Si7 0.000000 0.500000 0.500000
Si Si8 0.429707 0.673457 0.764020
O O1 0.918195 0.801925 0.765686
O O2 0.421893 0.119945 0.726620
O O3 0.339349 0.035541 0.519556
O O4 0.145782 0.127210 0.741300
O O5 0.630610 0.158404 0.838154
O O6 0.294722 0.854092 0.756539
O O7 0.090746 0.930129 0.988754
O O8 0.882125 0.203271 0.918773
O O9 0.080842 0.480137 0.841698
O O10 0.567357 0.237925 0.093744
O O11 0.461455 0.217403 0.354697
O O12 0.817682 0.382236 0.424314
O O13 0.609848 0.581713 0.144742
O O14 0.590127 0.632227 0.692686
O O15 0.862807 0.566831 0.601488
#
# Coordination Sequence:
#
# PCOD9044502 Si02
#       8
#     2   2   2   2   2   2   1   2
#     4  12  27  47  69 113 151 197 250 301 372 451
#     4  12  25  45  76 110 146 198 247 309 373 435
#     4  10  23  46  78 111 150 185 252 308 372 443
#     4  12  27  46  74 106 149 203 246 303 377 439
#     4  11  24  48  75 110 150 189 249 312 368 440
#     4  11  26  47  75 103 152 195 249 303 366 446
#     4  12  26  52  68 102 158 196 244 300 368 454
#     4  10  24  47  75 113 144 199 245 306 373 442
#
# _framework density 23.516119
#
# number of rings (size 3 to 8) (size 9 to 14) (size 15 to 20)
#    0.000    0.800    4.000    2.000    3.733    1.600 
#    0.000    0.000    0.000    0.000    0.000    0.000 
#    0.000    0.000    0.000    0.000    0.000    0.000 
#
# Total GULP energy -83649.542145 kJ/mol
# GULP energy per Si atom -5576.636143 kJ/mol
# Density = 2.346260 g / cm^3
# Si number density = 23.516119 Si / 1000 Ang^3
#
#
#
# Elastic Constant Matrix: (Units=GPa)
#
#
# Indices 1 2 3 4 5 6 
#
# 1 116.2298 9.1506 46.6290 -8.4467 -3.7257 -16.2611
# 2 9.1506 65.1325 10.5784 14.2420 2.5761 12.4846
# 3 46.6290 10.5784 55.5679 6.7073 3.0617 1.7778
# 4 -8.4467 14.2420 6.7073 30.1618 -3.7718 1.4711
# 5 -3.7257 2.5761 3.0617 -3.7718 39.6975 8.5505
# 6 -16.2611 12.4846 1.7778 1.4711 8.5505 35.4433
#
#
#
# Elastic Compliance Matrix: (Units=1/GPa)
#
#
# Indices 1 2 3 4 5 6 
#
# 1 0.017012 -0.003884 -0.015114 0.009767 0.001994 0.009045
# 2 -0.003884 0.019556 0.001089 -0.010290 -0.000958 -0.008067
# 3 -0.015114 0.001089 0.032356 -0.012008 -0.003488 -0.007601
# 4 0.009767 -0.010290 -0.012008 0.043832 0.005476 0.005568
# 5 0.001994 -0.000958 -0.003488 0.005476 0.027394 -0.005409
# 6 0.009045 -0.008067 -0.007601 0.005568 -0.005409 0.036660
#
#
# Mechanical properties :
#
#
# Convention : Reuss Voigt Hill
#
# Bulk Modulus (GPa) = 30.20532 41.07180 35.63856
# Shear Modulus (GPa) = 22.35487 32.43200 27.39344
#
# Velocity S-wave (km/s) = 3.08656 3.71771 3.41674
# Velocity P-wave (km/s) = 5.05716 5.99431 5.54556
#
# Compressibility (1/GPa) = 0.03310675
#
# Stress axis : x y z
#
# Youngs Moduli (GPa) = 58.78176 51.13450 30.90571
#
# Poissons Ratio (x) = 0.19858 0.46712
# Poissons Ratio (y) = 0.22828 -0.03365
# Poissons Ratio (z) = 0.88845 -0.05568
#
# Static dielectric constant tensor:
#      x y z
#    x 1.875030 0.031320 -0.028010 
#    y 0.031320 1.967410 -0.069030 
#    z -0.028010 -0.069030 1.807830 
# 
# From -- ./inp_files/392821.got.cif
#   From: 2010.05.17/outbox.cif.g08.bks.cpg/sg2_197_cif.got.tgz:392821.got - 2010.06.03 11:33:40.
