data_PCOD9044160
_publ_section_title
;
Structure prediction by ZEFSAII (Michael W. Deem and Ramdas Pophale) SiO2 
 PCOD9044160
Probable space group: P -1
;
_chemical_formula_sum "Si O2"
_cell_formula_units_Z 15
_cell_length_a 12.254194
_cell_length_b 6.922774
_cell_length_c 10.641604
_cell_angle_alpha 109.148072
_cell_angle_beta 76.595496
_cell_angle_gamma 129.098114
_cell_volume 661.456603
_symmetry_space_group_name_H-M "P -1"
_symmetry_group_IT_number 2
_symmetry_cell_setting 'triclinic'
loop_
_space_group_symop_operation_xyz
x,y,z
-x,-y,-z
loop_
_atom_site_type_symbol
_atom_site_label
_atom_site_fract_x
_atom_site_fract_y
_atom_site_fract_z
Si Si1 0.211705 0.791670 0.491402
Si Si2 0.851742 0.594892 0.768287
Si Si3 0.587453 0.564948 0.816491
Si Si4 0.254371 0.630120 0.708525
Si Si5 0.454046 0.258443 0.378168
Si Si6 0.945497 0.961570 0.364410
Si Si7 0.701276 0.878478 0.102007
Si Si8 0.000000 0.000000 0.000000
O O1 0.126423 0.583600 0.358347
O O2 0.228451 0.657728 0.574643
O O3 0.358733 0.010199 0.435732
O O4 0.145292 0.930132 0.586251
O O5 0.687868 0.477502 0.786953
O O6 0.927125 0.701045 0.903311
O O7 0.929706 0.866262 0.730837
O O8 0.624567 0.728648 0.716054
O O9 0.422761 0.321331 0.809866
O O10 0.624739 0.752392 0.962839
O O11 0.409014 0.707711 0.696988
O O12 0.143358 0.334448 0.710629
O O13 0.253816 0.840143 0.827945
O O14 0.500000 0.500000 0.500000
O O15 0.000000 0.000000 0.500000
O O16 0.843004 0.902962 0.067823
#
# Coordination Sequence:
#
# PCOD9044160 Si02
#       8
#     2   2   2   2   2   2   2   1
#     4  12  24  43  68  98 141 179 223 285 342 398
#     4  11  23  44  67  99 135 186 222 276 343 398
#     4  10  23  46  70  96 142 177 231 280 337 405
#     4  12  25  42  70 103 133 182 228 280 344 401
#     4  12  23  41  68 102 135 178 227 283 331 405
#     4  12  25  42  66 101 140 175 229 284 334 410
#     4  10  23  46  71 100 134 182 224 284 342 403
#     4  10  24  42  72  98 130 174 226 278 336 404
#
# _framework density 22.677226000000001
#
# number of rings (size 3 to 8) (size 9 to 14) (size 15 to 20)
#    0.000    0.800    2.667    4.800    3.733    0.533 
#    2.400    1.333    0.000    0.000    0.000    0.000 
#    0.000    0.000    0.000    0.000    0.000    0.000 
#
# Total GULP energy -83675.628694 kJ/mol
# GULP energy per Si atom -5578.375246 kJ/mol
# Density = 2.262561 g / cm^3
# Si number density = 22.677226 Si / 1000 Ang^3
#
#
#
# Elastic Constant Matrix: (Units=GPa)
#
#
# Indices 1 2 3 4 5 6 
#
# 1 79.7131 21.7461 -0.2150 2.7918 -13.9329 19.3829
# 2 21.7461 145.7309 33.0884 23.3785 -19.3461 18.9504
# 3 -0.2150 33.0884 65.3148 36.6668 -9.1864 -3.6968
# 4 2.7918 23.3785 36.6668 44.6824 0.7214 -6.5045
# 5 -13.9329 -19.3461 -9.1864 0.7214 32.5449 -7.7045
# 6 19.3829 18.9504 -3.6968 -6.5045 -7.7045 35.8604
#
#
#
# Elastic Compliance Matrix: (Units=1/GPa)
#
#
# Indices 1 2 3 4 5 6 
#
# 1 0.015665 -0.000657 0.003269 -0.004485 0.005587 -0.007396
# 2 -0.000657 0.009127 -0.002483 -0.003423 0.003428 -0.004609
# 3 0.003269 -0.002483 0.032272 -0.025496 0.009675 0.000326
# 4 -0.004485 -0.003423 -0.025496 0.046684 -0.010327 0.007854
# 5 0.005587 0.003428 0.009675 -0.010327 0.038736 0.002615
# 6 -0.007396 -0.004609 0.000326 0.007854 0.002615 0.036339
#
#
# Mechanical properties :
#
#
# Convention : Reuss Voigt Hill
#
# Bulk Modulus (GPa) = 17.44517 44.44420 30.94468
# Shear Modulus (GPa) = 25.29457 38.36017 31.82737
#
# Velocity S-wave (km/s) = 3.34341 4.11733 3.75039
# Velocity P-wave (km/s) = 4.75542 6.49957 5.69467
#
# Compressibility (1/GPa) = 0.05732246
#
# Stress axis : x y z
#
# Youngs Moduli (GPa) = 63.83640 109.56113 30.98706
#
# Poissons Ratio (x) = 0.07197 -0.10130
# Poissons Ratio (y) = 0.04194 0.07694
# Poissons Ratio (z) = -0.20869 0.27204
#
# Static dielectric constant tensor:
#      x y z
#    x 1.848990 0.028340 0.050590 
#    y 0.028340 1.824540 -0.008510 
#    z 0.050590 -0.008510 1.945530 
# 
# From -- ./inp_files/77574.got.cif
#   From: 2010.05.17/outbox.cif.g08.bks.cpg/sg2_39_cif.got.tgz:77574.got - 2010.06.03 11:33:40.
