data_PCOD9044781
_publ_section_title
;
Structure prediction by ZEFSAII (Michael W. Deem and Ramdas Pophale) SiO2 
 PCOD9044781
Probable space group: P -1
;
_chemical_formula_sum "Si O2"
_cell_formula_units_Z 13
_cell_length_a 7.704838
_cell_length_b 9.597242
_cell_length_c 11.757243
_cell_angle_alpha 141.408166
_cell_angle_beta 73.122109
_cell_angle_gamma 90.906056
_cell_volume 485.398004
_symmetry_space_group_name_H-M "P -1"
_symmetry_group_IT_number 2
_symmetry_cell_setting 'triclinic'
loop_
_space_group_symop_operation_xyz
x,y,z
-x,-y,-z
loop_
_atom_site_type_symbol
_atom_site_label
_atom_site_fract_x
_atom_site_fract_y
_atom_site_fract_z
Si Si1 0.298077 0.821792 0.956369
Si Si2 0.216132 0.840482 0.620052
Si Si3 0.000000 0.000000 0.000000
Si Si4 0.061232 0.277662 0.760579
Si Si5 0.670808 0.259670 0.839616
Si Si6 0.258355 0.328319 0.292214
Si Si7 0.650928 0.759378 0.515762
O O1 0.524123 0.753830 0.851533
O O2 0.270120 0.771690 0.058684
O O3 0.186769 0.111113 0.124460
O O4 0.179525 0.737853 0.834151
O O5 0.152855 0.607215 0.464188
O O6 0.448518 0.720321 0.513605
O O7 0.168939 0.031348 0.649931
O O8 0.114776 0.989047 0.844744
O O9 0.195114 0.319915 0.664865
O O10 0.862569 0.257010 0.737667
O O11 0.000000 0.500000 0.000000
O O12 0.595367 0.046406 0.695991
O O13 0.500000 0.500000 0.000000
O O14 0.281229 0.291637 0.399443
#
# Coordination Sequence:
#
# PCOD9044781 Si02
#       7
#     2   2   1   2   2   2   2
#     4  10  23  47  73 108 141 187 243 298 363 424
#     4  12  26  44  74 108 143 193 235 304 358 434
#     4  12  24  44  72 108 146 182 248 294 362 416
#     4  12  28  47  70 105 145 192 248 294 360 432
#     4  11  25  48  74 103 146 193 242 298 359 435
#     4  10  24  45  73 102 144 188 239 297 362 431
#     4  11  25  47  70 107 145 194 236 298 363 426
#
# _framework density 26.782147999999999
#
# number of rings (size 3 to 8) (size 9 to 14) (size 15 to 20)
#    0.000    0.923    3.077    2.308    6.462    0.615 
#    0.000    0.000    0.000    0.000    0.000    0.000 
#    0.000    0.000    0.000    0.000    0.000    0.000 
#
# Total GULP energy -72681.046631 kJ/mol
# GULP energy per Si atom -5590.849741 kJ/mol
# Density = 2.672119 g / cm^3
# Si number density = 26.782148 Si / 1000 Ang^3
#
#
#
# Elastic Constant Matrix: (Units=GPa)
#
#
# Indices 1 2 3 4 5 6 
#
# 1 117.0096 26.7086 4.8004 -9.8463 -25.5176 13.0627
# 2 26.7086 135.4176 47.5668 2.1051 7.3899 7.4843
# 3 4.8004 47.5668 80.6930 -10.7750 21.3768 16.8004
# 4 -9.8463 2.1051 -10.7750 64.3955 22.5998 -7.0312
# 5 -25.5176 7.3899 21.3768 22.5998 53.8383 -1.7867
# 6 13.0627 7.4843 16.8004 -7.0312 -1.7867 45.9871
#
#
#
# Elastic Compliance Matrix: (Units=1/GPa)
#
#
# Indices 1 2 3 4 5 6 
#
# 1 0.010473 -0.002056 -0.000507 -0.000652 0.005643 -0.002336
# 2 -0.002056 0.010011 -0.006583 -0.002028 0.001153 0.001094
# 3 -0.000507 -0.006583 0.021351 0.006886 -0.010902 -0.005956
# 4 -0.000652 -0.002028 0.006886 0.020745 -0.011449 0.000727
# 5 0.005643 0.001153 -0.010902 -0.011449 0.030279 0.001618
# 6 -0.002336 0.001094 -0.005956 0.000727 0.001618 0.024580
#
#
# Mechanical properties :
#
#
# Convention : Reuss Voigt Hill
#
# Bulk Modulus (GPa) = 42.47558 54.58574 48.53066
# Shear Modulus (GPa) = 34.82426 49.78049 42.30237
#
# Velocity S-wave (km/s) = 3.60985 4.31596 3.97860
# Velocity P-wave (km/s) = 5.76791 6.72773 6.26622
#
# Compressibility (1/GPa) = 0.02354294
#
# Stress axis : x y z
#
# Youngs Moduli (GPa) = 95.48271 99.89481 46.83673
#
# Poissons Ratio (x) = 0.20543 0.02373
# Poissons Ratio (y) = 0.19635 0.30831
# Poissons Ratio (z) = 0.04837 0.65758
#
# Static dielectric constant tensor:
#      x y z
#    x 2.984030 -0.170580 0.452360 
#    y -0.170580 2.091390 0.085670 
#    z 0.452360 0.085670 2.556330 
# 
# From -- ./inp_files/214090.got.cif
#   From: 2010.05.17/outbox.cif.g08.bks.cpg/sg2_108_cif.got.tgz:214090.got - 2010.06.03 11:33:40.
