data_PCOD9044074
_publ_section_title
;
Structure prediction by ZEFSAII (Michael W. Deem and Ramdas Pophale) SiO2 
 PCOD9044074
Probable space group: P -1
;
_chemical_formula_sum "Si O2"
_cell_formula_units_Z 16
_cell_length_a 9.016087
_cell_length_b 11.985577
_cell_length_c 14.818095
_cell_angle_alpha 55.777334
_cell_angle_beta 55.514692
_cell_angle_gamma 32.661546
_cell_volume 698.956806
_symmetry_space_group_name_H-M "P -1"
_symmetry_group_IT_number 2
_symmetry_cell_setting 'triclinic'
loop_
_space_group_symop_operation_xyz
x,y,z
-x,-y,-z
loop_
_atom_site_type_symbol
_atom_site_label
_atom_site_fract_x
_atom_site_fract_y
_atom_site_fract_z
Si Si1 0.411729 0.288122 0.762841
Si Si2 0.499391 0.940829 0.823708
Si Si3 0.331666 0.646486 0.902094
Si Si4 0.716200 0.369697 0.566740
Si Si5 0.011864 0.886017 0.156830
Si Si6 0.752171 0.494792 0.668435
Si Si7 0.354554 0.369250 0.952624
Si Si8 0.888476 0.680931 0.638985
O O1 0.659001 0.256812 0.680907
O O2 0.321628 0.345009 0.872228
O O3 0.148519 0.482179 0.702676
O O4 0.514470 0.083305 0.789164
O O5 0.172475 0.082363 0.870643
O O6 0.630133 0.849354 0.720023
O O7 0.661934 0.744387 0.921873
O O8 0.147453 0.883558 0.875319
O O9 0.536062 0.582541 0.782135
O O10 0.176200 0.602623 0.938037
O O11 0.500000 0.500000 0.000000
O O12 0.500000 0.500000 0.500000
O O13 0.635543 0.532717 0.592474
O O14 0.015410 0.238331 0.481543
O O15 0.023827 0.757730 0.284397
O O16 0.328007 0.753625 0.091985
O O17 0.848156 0.588271 0.619473
#
# Coordination Sequence:
#
# PCOD9044074 Si02
#       8
#     2   2   2   2   2   2   2   2
#     4  11  24  44  63  93 136 176 217 267 328 395
#     4  12  24  40  64 101 130 172 221 266 326 388
#     4  11  21  36  66 101 129 164 219 262 321 388
#     4  10  23  46  69  93 129 179 217 272 334 384
#     4  11  22  38  68  94 131 168 215 270 322 389
#     4  11  21  43  67  95 130 169 222 270 327 382
#     4  11  24  41  66  96 135 177 211 268 333 389
#     4  11  24  42  70  93 130 171 223 276 318 386
#
# _framework density 22.891255999999998
#
# number of rings (size 3 to 8) (size 9 to 14) (size 15 to 20)
#    0.000    1.000    6.250    1.125    1.750    3.000 
#    0.000    3.125    0.000    0.000    0.000    0.000 
#    0.000    0.000    0.000    0.000    0.000    0.000 
#
# Total GULP energy -89356.052095 kJ/mol
# GULP energy per Si atom -5584.753256 kJ/mol
# Density = 2.283915 g / cm^3
# Si number density = 22.891256 Si / 1000 Ang^3
#
#
#
# Elastic Constant Matrix: (Units=GPa)
#
#
# Indices 1 2 3 4 5 6 
#
# 1 162.3443 46.0128 45.0320 10.7664 -0.2216 34.1213
# 2 46.0128 66.1335 8.8960 0.7187 -8.3884 27.3033
# 3 45.0320 8.8960 65.4307 20.4147 4.4119 0.9829
# 4 10.7664 0.7187 20.4147 21.5553 7.0965 -3.4930
# 5 -0.2216 -8.3884 4.4119 7.0965 42.4726 5.5592
# 6 34.1213 27.3033 0.9829 -3.4930 5.5592 38.3736
#
#
#
# Elastic Compliance Matrix: (Units=1/GPa)
#
#
# Indices 1 2 3 4 5 6 
#
# 1 0.010404 -0.003401 -0.006569 -0.000302 0.001010 -0.006837
# 2 -0.003401 0.025389 -0.000014 -0.004426 0.007909 -0.016589
# 3 -0.006569 -0.000014 0.026383 -0.021310 0.000366 0.003183
# 4 -0.000302 -0.004426 -0.021310 0.072995 -0.012484 0.012417
# 5 0.001010 0.007909 0.000366 -0.012484 0.028708 -0.011831
# 6 -0.006837 -0.016589 0.003183 0.012417 -0.011831 0.046705
#
#
# Mechanical properties :
#
#
# Convention : Reuss Voigt Hill
#
# Bulk Modulus (GPa) = 23.69278 54.86556 39.27917
# Shear Modulus (GPa) = 20.43956 33.41148 26.92552
#
# Velocity S-wave (km/s) = 2.99138 3.82458 3.43335
# Velocity P-wave (km/s) = 4.72269 6.59721 5.73703
#
# Compressibility (1/GPa) = 0.04220696
#
# Stress axis : x y z
#
# Youngs Moduli (GPa) = 96.11289 39.38679 37.90333
#
# Poissons Ratio (x) = 0.13396 0.24901
# Poissons Ratio (y) = 0.32689 0.00054
# Poissons Ratio (z) = 0.63141 0.00056
#
# Static dielectric constant tensor:
#      x y z
#    x 1.901230 -0.024350 0.000800 
#    y -0.024350 1.906780 0.017440 
#    z 0.000800 0.017440 1.906050 
# 
# From -- ./inp_files/314018.got.cif
#   From: 2010.05.17/outbox.cif.g08.bks.cpg/sg2_158_cif.got.tgz:314018.got - 2010.06.03 11:33:40.
