data_PCOD9044659
_publ_section_title
;
Structure prediction by ZEFSAII (Michael W. Deem and Ramdas Pophale) SiO2 
 PCOD9044659
Probable space group: P -1
;
_chemical_formula_sum "Si O2"
_cell_formula_units_Z 14
_cell_length_a 18.615674
_cell_length_b 11.714603
_cell_length_c 17.697460
_cell_angle_alpha 26.568563
_cell_angle_beta 157.248133
_cell_angle_gamma 150.684198
_cell_volume 642.327245
_symmetry_space_group_name_H-M "P -1"
_symmetry_group_IT_number 2
_symmetry_cell_setting 'triclinic'
loop_
_space_group_symop_operation_xyz
x,y,z
-x,-y,-z
loop_
_atom_site_type_symbol
_atom_site_label
_atom_site_fract_x
_atom_site_fract_y
_atom_site_fract_z
Si Si1 0.856061 0.702617 0.044135
Si Si2 0.060622 0.312612 0.557409
Si Si3 0.523012 0.758827 0.316634
Si Si4 0.276324 0.965415 0.513716
Si Si5 0.525075 0.371857 0.180803
Si Si6 0.188937 0.484053 0.058075
Si Si7 0.073641 0.168289 0.397524
O O1 0.978556 0.517462 0.308292
O O2 0.669984 0.693312 0.921319
O O3 0.782763 0.572899 0.968484
O O4 0.000000 0.000000 0.000000
O O5 0.287890 0.428017 0.719008
O O6 0.012178 0.027501 0.638622
O O7 0.923732 0.251855 0.534482
O O8 0.500000 0.500000 0.500000
O O9 0.595120 0.992633 0.309392
O O10 0.339767 0.724294 0.105854
O O11 0.698777 0.771935 0.423485
O O12 0.212463 0.225648 0.276291
O O13 0.400902 0.884840 0.616415
O O14 0.500000 0.500000 0.000000
O O15 0.989509 0.561707 0.825638
O O16 0.000000 0.000000 0.500000
#
# Coordination Sequence:
#
# PCOD9044659 Si02
#       7
#     2   2   2   2   2   2   2
#     4  12  28  46  70 104 139 180 231 289 344 401
#     4  11  25  46  69 105 140 173 240 280 339 420
#     4   9  23  43  67 103 137 172 231 274 334 410
#     4  10  23  47  70 105 140 179 233 284 334 413
#     4  12  27  45  75  98 135 194 227 278 351 405
#     4  11  25  44  73 100 143 178 225 288 339 403
#     4  11  24  43  70 102 138 180 218 282 351 397
#
# _framework density 21.795745
#
# number of rings (size 3 to 8) (size 9 to 14) (size 15 to 20)
#    0.000    1.143    2.857    1.286    6.000   10.286 
#    0.000    0.000    0.000    0.000    0.000    0.000 
#    0.000    0.000    0.000    0.000    0.000    0.000 
#
# Total GULP energy -78212.533430 kJ/mol
# GULP energy per Si atom -5586.609531 kJ/mol
# Density = 2.174614 g / cm^3
# Si number density = 21.795745 Si / 1000 Ang^3
#
#
#
# Elastic Constant Matrix: (Units=GPa)
#
#
# Indices 1 2 3 4 5 6 
#
# 1 98.5535 26.9010 25.4219 10.1529 10.9334 6.2111
# 2 26.9010 67.9964 24.3458 2.9995 7.8280 5.8444
# 3 25.4219 24.3458 76.0850 -5.6505 -5.3714 3.1582
# 4 10.1529 2.9995 -5.6505 43.1925 -1.7416 7.1094
# 5 10.9334 7.8280 -5.3714 -1.7416 29.9511 -2.0998
# 6 6.2111 5.8444 3.1582 7.1094 -2.0998 35.1174
#
#
#
# Elastic Compliance Matrix: (Units=1/GPa)
#
#
# Indices 1 2 3 4 5 6 
#
# 1 0.012916 -0.002888 -0.003947 -0.003376 -0.004938 -0.001061
# 2 -0.002888 0.018564 -0.005322 -0.001151 -0.004971 -0.002164
# 3 -0.003947 -0.005322 0.016889 0.003808 0.006058 -0.000344
# 4 -0.003376 -0.001151 0.003808 0.025400 0.003378 -0.004494
# 5 -0.004938 -0.004971 0.006058 0.003378 0.037965 0.002742
# 6 -0.001061 -0.002164 -0.000344 -0.004494 0.002742 0.030128
#
#
# Mechanical properties :
#
#
# Convention : Reuss Voigt Hill
#
# Bulk Modulus (GPa) = 41.56954 43.99694 42.78324
# Shear Modulus (GPa) = 28.70384 32.71661 30.71023
#
# Velocity S-wave (km/s) = 3.63291 3.87855 3.75774
# Velocity P-wave (km/s) = 6.05897 6.34723 6.20478
#
# Compressibility (1/GPa) = 0.02405608
#
# Stress axis : x y z
#
# Youngs Moduli (GPa) = 77.42538 53.86888 59.20866
#
# Poissons Ratio (x) = 0.15557 0.23368
# Poissons Ratio (y) = 0.22361 0.31508
# Poissons Ratio (z) = 0.30558 0.28667
#
# Static dielectric constant tensor:
#      x y z
#    x 1.835180 -0.039150 0.002080 
#    y -0.039150 1.824650 -0.010230 
#    z 0.002080 -0.010230 1.779070 
# 
# From -- ./inp_files/69517.got.cif
#   From: 2010.05.17/outbox.cif.g08.bks.cpg/sg2_35_cif.got.tgz:69517.got - 2010.06.03 11:33:40.
