data_PCOD9044055
_publ_section_title
;
Structure prediction by ZEFSAII (Michael W. Deem and Ramdas Pophale) SiO2 
 PCOD9044055
Probable space group: P -1
;
_chemical_formula_sum "Si O2"
_cell_formula_units_Z 14
_cell_length_a 9.542874
_cell_length_b 11.235615
_cell_length_c 10.889158
_cell_angle_alpha 143.837498
_cell_angle_beta 110.649033
_cell_angle_gamma 52.636212
_cell_volume 523.570194
_symmetry_space_group_name_H-M "P -1"
_symmetry_group_IT_number 2
_symmetry_cell_setting 'triclinic'
loop_
_space_group_symop_operation_xyz
x,y,z
-x,-y,-z
loop_
_atom_site_type_symbol
_atom_site_label
_atom_site_fract_x
_atom_site_fract_y
_atom_site_fract_z
Si Si1 0.346386 0.901267 0.198910
Si Si2 0.309388 0.413832 0.348102
Si Si3 0.043936 0.876104 0.777867
Si Si4 0.216620 0.762198 0.371255
Si Si5 0.073867 0.295768 0.052874
Si Si6 0.607949 0.014763 0.258372
Si Si7 0.687795 0.511210 0.093080
O O1 0.331989 0.669117 0.975972
O O2 0.453020 0.971213 0.203043
O O3 0.496120 0.777290 0.250453
O O4 0.130308 0.114286 0.318450
O O5 0.225088 0.601252 0.592535
O O6 0.264807 0.577813 0.348300
O O7 0.519482 0.197251 0.263923
O O8 0.188406 0.307988 0.205797
O O9 0.069871 0.056659 0.856457
O O10 0.000000 0.000000 0.000000
O O11 0.339869 0.861857 0.522053
O O12 0.265612 0.617963 0.136399
O O13 0.000000 0.000000 0.500000
O O14 0.860235 0.517184 0.179215
O O15 0.198317 0.243262 0.929428
#
# Coordination Sequence:
#
# PCOD9044055 Si02
#       7
#     2   2   2   2   2   2   2
#     4  10  24  45  67 103 143 182 244 287 357 414
#     4  12  27  45  75 108 143 191 237 293 367 414
#     4  11  25  47  68  99 146 186 236 294 350 430
#     4  12  24  44  73 104 147 184 242 294 355 422
#     4  11  24  46  73 103 144 184 240 290 357 426
#     4  12  25  44  73 110 142 187 240 300 348 432
#     4  10  23  46  69 105 141 196 227 301 354 419
#
# _framework density 26.739488999999999
#
# number of rings (size 3 to 8) (size 9 to 14) (size 15 to 20)
#    0.000    0.857    2.857    3.429    4.000    4.000 
#    5.143    0.000    0.000    0.000    0.000    0.000 
#    0.000    0.000    0.000    0.000    0.000    0.000 
#
# Total GULP energy -78264.284225 kJ/mol
# GULP energy per Si atom -5590.306016 kJ/mol
# Density = 2.667863 g / cm^3
# Si number density = 26.739489 Si / 1000 Ang^3
#
#
#
# Elastic Constant Matrix: (Units=GPa)
#
#
# Indices 1 2 3 4 5 6 
#
# 1 170.3900 58.7180 37.7024 -5.5597 24.0160 -21.1865
# 2 58.7180 131.6810 15.5060 -9.1813 12.0943 -20.1836
# 3 37.7024 15.5060 119.9288 -27.3188 4.1703 1.0273
# 4 -5.5597 -9.1813 -27.3188 32.2304 -5.0000 5.4805
# 5 24.0160 12.0943 4.1703 -5.0000 26.4934 -3.3845
# 6 -21.1865 -20.1836 1.0273 5.4805 -3.3845 49.6559
#
#
#
# Elastic Compliance Matrix: (Units=1/GPa)
#
#
# Indices 1 2 3 4 5 6 
#
# 1 0.008538 -0.002725 -0.002844 -0.003121 -0.006316 0.002508
# 2 -0.002725 0.009397 0.000038 0.001645 -0.001209 0.002392
# 3 -0.002844 0.000038 0.011441 0.009985 0.002341 -0.002377
# 4 -0.003121 0.001645 0.009985 0.041452 0.007701 -0.004920
# 5 -0.006316 -0.001209 0.002341 0.007701 0.044978 -0.001019
# 6 0.002508 0.002392 -0.002377 -0.004920 -0.001019 0.022704
#
#
# Mechanical properties :
#
#
# Convention : Reuss Voigt Hill
#
# Bulk Modulus (GPa) = 54.60716 71.76138 63.18427
# Shear Modulus (GPa) = 32.11795 42.34750 37.23273
#
# Velocity S-wave (km/s) = 3.46951 3.98390 3.73557
# Velocity P-wave (km/s) = 6.04287 6.93235 6.50283
#
# Compressibility (1/GPa) = 0.01831262
#
# Stress axis : x y z
#
# Youngs Moduli (GPa) = 117.12852 106.41406 87.40440
#
# Poissons Ratio (x) = 0.29000 0.24861
# Poissons Ratio (y) = 0.31920 -0.00331
# Poissons Ratio (z) = 0.33316 -0.00403
#
# Static dielectric constant tensor:
#      x y z
#    x 2.163070 0.056760 -0.008090 
#    y 0.056760 2.126010 0.022930 
#    z -0.008090 0.022930 2.057740 
# 
# From -- ./inp_files/393316.got.cif
#   From: 2010.05.17/outbox.cif.g08.bks.cpg/sg2_197_cif.got.tgz:393316.got - 2010.06.03 11:33:40.
