data_PCOD9044191
_publ_section_title
;
Structure prediction by ZEFSAII (Michael W. Deem and Ramdas Pophale) SiO2 
 PCOD9044191
Probable space group: P -1
;
_chemical_formula_sum "Si O2"
_cell_formula_units_Z 16
_cell_length_a 8.825183
_cell_length_b 14.144164
_cell_length_c 13.484167
_cell_angle_alpha 114.167144
_cell_angle_beta 102.898591
_cell_angle_gamma 28.800783
_cell_volume 703.769600
_symmetry_space_group_name_H-M "P -1"
_symmetry_group_IT_number 2
_symmetry_cell_setting 'triclinic'
loop_
_space_group_symop_operation_xyz
x,y,z
-x,-y,-z
loop_
_atom_site_type_symbol
_atom_site_label
_atom_site_fract_x
_atom_site_fract_y
_atom_site_fract_z
Si Si1 0.420969 0.637302 0.626569
Si Si2 0.779646 0.029051 0.995321
Si Si3 0.762800 0.925219 0.663812
Si Si4 0.249436 0.234029 0.879147
Si Si5 0.341294 0.355801 0.701262
Si Si6 0.775986 0.531885 0.482818
Si Si7 0.782811 0.404585 0.050472
Si Si8 0.753649 0.582885 0.784193
O O1 0.500000 0.500000 0.500000
O O2 0.476425 0.703825 0.591579
O O3 0.673239 0.517844 0.699084
O O4 0.067793 0.818331 0.698961
O O5 0.585319 0.162667 0.126808
O O6 0.489987 0.178772 0.938379
O O7 0.000000 0.000000 0.000000
O O8 0.003542 0.796159 0.934419
O O9 0.955886 0.714760 0.556096
O O10 0.516065 0.025155 0.753821
O O11 0.565037 0.121328 0.648548
O O12 0.978063 0.436798 0.851214
O O13 0.045236 0.295257 0.961068
O O14 0.376591 0.391893 0.616852
O O15 0.370472 0.415230 0.825269
O O16 0.969438 0.530125 0.725057
O O17 0.000000 0.500000 0.500000
O O18 0.500000 0.500000 0.000000
#
# Coordination Sequence:
#
# PCOD9044191 Si02
#       8
#     2   2   2   2   2   2   2   2
#     4  10  23  46  71 102 139 183 239 300 357 420
#     4  12  25  41  72 100 147 190 230 290 367 418
#     4  10  25  43  73  99 144 182 236 290 365 415
#     4  11  24  45  68 104 144 187 237 286 354 441
#     4  11  25  46  68 105 141 183 244 289 349 440
#     4  11  23  45  74 100 139 182 238 300 360 414
#     4  12  28  44  69 106 147 188 241 291 349 435
#     4  11  23  40  73  99 139 184 236 292 352 423
#
# _framework density 22.734711000000001
#
# number of rings (size 3 to 8) (size 9 to 14) (size 15 to 20)
#    0.000    1.000    2.500    3.000    8.750    4.000 
#    2.250    0.000    0.000    0.000    0.000    0.000 
#    0.000    0.000    0.000    0.000    0.000    0.000 
#
# Total GULP energy -89233.998778 kJ/mol
# GULP energy per Si atom -5577.124924 kJ/mol
# Density = 2.268297 g / cm^3
# Si number density = 22.734711 Si / 1000 Ang^3
#
#
#
# Elastic Constant Matrix: (Units=GPa)
#
#
# Indices 1 2 3 4 5 6 
#
# 1 99.8307 36.2649 10.3548 1.7533 -6.6896 -17.8588
# 2 36.2649 83.2349 36.6736 -3.1664 3.2389 -0.8472
# 3 10.3548 36.6736 55.3675 -4.7184 -4.6583 1.4253
# 4 1.7533 -3.1664 -4.7184 33.2785 -2.9572 5.3472
# 5 -6.6896 3.2389 -4.6583 -2.9572 46.2456 -1.3008
# 6 -17.8588 -0.8472 1.4253 5.3472 -1.3008 45.4469
#
#
#
# Elastic Compliance Matrix: (Units=1/GPa)
#
#
# Indices 1 2 3 4 5 6 
#
# 1 0.013473 -0.006845 0.001954 -0.001712 0.002667 0.005383
# 2 -0.006845 0.020719 -0.012659 0.000539 -0.003740 -0.002077
# 3 0.001954 -0.012659 0.026682 0.002919 0.004029 -0.000533
# 4 -0.001712 0.000539 0.002919 0.031481 0.001898 -0.004404
# 5 0.002667 -0.003740 0.004029 0.001898 0.022835 0.001282
# 6 0.005383 -0.002077 -0.000533 -0.004404 0.001282 0.024652
#
#
# Mechanical properties :
#
#
# Convention : Reuss Voigt Hill
#
# Bulk Modulus (GPa) = 38.79840 45.00217 41.90028
# Shear Modulus (GPa) = 27.24331 35.33686 31.29008
#
# Velocity S-wave (km/s) = 3.46542 3.94675 3.71389
# Velocity P-wave (km/s) = 5.75456 6.37233 6.07131
#
# Compressibility (1/GPa) = 0.02577426
#
# Stress axis : x y z
#
# Youngs Moduli (GPa) = 74.22473 48.26514 37.47879
#
# Poissons Ratio (x) = 0.33038 -0.07324
# Poissons Ratio (y) = 0.50807 0.47443
# Poissons Ratio (z) = -0.14505 0.61097
#
# Static dielectric constant tensor:
#      x y z
#    x 1.920090 -0.006900 -0.007700 
#    y -0.006900 1.858910 -0.002400 
#    z -0.007700 -0.002400 1.978170 
# 
# From -- ./inp_files/399316.got.cif
#   From: 2010.05.17/outbox.cif.g08.bks.cpg/sg2_200_cif.got.tgz:399316.got - 2010.06.03 11:33:40.
