data_PCOD9044553
_publ_section_title
;
Structure prediction by ZEFSAII (Michael W. Deem and Ramdas Pophale) SiO2 
 PCOD9044553
Probable space group: P -1
;
_chemical_formula_sum "Si O2"
_cell_formula_units_Z 16
_cell_length_a 14.509750
_cell_length_b 8.603633
_cell_length_c 12.567253
_cell_angle_alpha 70.328555
_cell_angle_beta 38.954897
_cell_angle_gamma 53.643603
_cell_volume 770.018744
_symmetry_space_group_name_H-M "P -1"
_symmetry_group_IT_number 2
_symmetry_cell_setting 'triclinic'
loop_
_space_group_symop_operation_xyz
x,y,z
-x,-y,-z
loop_
_atom_site_type_symbol
_atom_site_label
_atom_site_fract_x
_atom_site_fract_y
_atom_site_fract_z
Si Si1 0.389898 0.060219 0.747197
Si Si2 0.782099 0.232700 0.858200
Si Si3 0.041180 0.090445 0.040892
Si Si4 0.091800 0.287159 0.517398
Si Si5 0.292584 0.366029 0.489208
Si Si6 0.545860 0.042898 0.832796
Si Si7 0.827505 0.513350 0.199216
Si Si8 0.560524 0.393724 0.811233
O O1 0.436333 0.021302 0.840979
O O2 0.353773 0.278617 0.716479
O O3 0.532478 0.858385 0.604706
O O4 0.204854 0.105213 0.861685
O O5 0.682011 0.252129 0.833298
O O6 0.942752 0.248497 0.679242
O O7 0.876504 0.044597 0.895832
O O8 0.627367 0.423619 0.018057
O O9 0.865007 0.305246 0.174267
O O10 0.000000 0.000000 0.000000
O O11 0.173481 0.312408 0.544041
O O12 0.000000 0.500000 0.500000
O O13 0.251226 0.121644 0.340492
O O14 0.185441 0.479690 0.663987
O O15 0.347723 0.501795 0.348097
O O16 0.525143 0.254378 0.804050
O O17 0.500000 0.000000 0.000000
O O18 0.000000 0.500000 0.000000
#
# Coordination Sequence:
#
# PCOD9044553 Si02
#       8
#     2   2   2   2   2   2   2   2
#     4  10  23  47  66  98 133 182 230 278 338 417
#     4  11  24  43  69  97 146 171 234 276 350 407
#     4  11  25  43  69 100 135 180 229 282 344 401
#     4  11  24  41  66 103 134 180 222 282 345 411
#     4  11  23  45  70  99 138 178 234 280 349 407
#     4  11  25  42  70 100 139 181 231 277 353 411
#     4  10  25  43  67  95 132 180 228 278 343 401
#     4  11  24  43  73 102 133 189 220 288 345 406
#
# _framework density 20.778714000000001
#
# number of rings (size 3 to 8) (size 9 to 14) (size 15 to 20)
#    0.000    1.250    2.500    1.875   10.500    4.500 
#    0.000    1.250    0.000    0.000    0.000    0.000 
#    0.000    0.000    0.000    0.000    0.000    0.000 
#
# Total GULP energy -89174.318169 kJ/mol
# GULP energy per Si atom -5573.394886 kJ/mol
# Density = 2.073142 g / cm^3
# Si number density = 20.778714 Si / 1000 Ang^3
#
#
#
# Elastic Constant Matrix: (Units=GPa)
#
#
# Indices 1 2 3 4 5 6 
#
# 1 70.4450 23.1117 46.0348 10.0201 0.1495 18.1328
# 2 23.1117 108.5417 19.8698 14.9140 13.4554 3.4438
# 3 46.0348 19.8698 108.0719 13.5711 16.9272 13.4433
# 4 10.0201 14.9140 13.5711 20.9468 5.7882 9.6684
# 5 0.1495 13.4554 16.9272 5.7882 31.5071 5.1225
# 6 18.1328 3.4438 13.4433 9.6684 5.1225 31.2680
#
#
#
# Elastic Compliance Matrix: (Units=1/GPa)
#
#
# Indices 1 2 3 4 5 6 
#
# 1 0.024831 -0.004258 -0.009800 0.000272 0.008742 -0.011234
# 2 -0.004258 0.011391 0.000863 -0.007109 -0.004620 0.003799
# 3 -0.009800 0.000863 0.014791 -0.004187 -0.007792 0.001800
# 4 0.000272 -0.007109 -0.004187 0.064183 -0.003775 -0.016802
# 5 0.008742 -0.004620 -0.007792 -0.003775 0.039612 -0.006533
# 6 -0.011234 0.003799 0.001800 -0.016802 -0.006533 0.043570
#
#
# Mechanical properties :
#
#
# Convention : Reuss Voigt Hill
#
# Bulk Modulus (GPa) = 40.61236 51.67679 46.14458
# Shear Modulus (GPa) = 21.46137 29.94718 25.70428
#
# Velocity S-wave (km/s) = 3.21729 3.80049 3.52099
# Velocity P-wave (km/s) = 5.77831 6.64698 6.22781
#
# Compressibility (1/GPa) = 0.02462304
#
# Stress axis : x y z
#
# Youngs Moduli (GPa) = 40.27176 87.79122 67.60676
#
# Poissons Ratio (x) = 0.37381 0.66258
# Poissons Ratio (y) = 0.17148 -0.05836
# Poissons Ratio (z) = 0.39468 -0.07579
#
# Static dielectric constant tensor:
#      x y z
#    x 1.731070 -0.010790 0.016570 
#    y -0.010790 1.786140 -0.025860 
#    z 0.016570 -0.025860 1.739990 
# 
# From -- ./inp_files/272153.got.cif
#   From: 2010.05.17/outbox.cif.g08.bks.cpg/sg2_137_cif.got.tgz:272153.got - 2010.06.03 11:33:40.
