data_PCOD9044836
_publ_section_title
;
Structure prediction by ZEFSAII (Michael W. Deem and Ramdas Pophale) SiO2 
 PCOD9044836
Probable space group: P -1
;
_chemical_formula_sum "Si O2"
_cell_formula_units_Z 10
_cell_length_a 7.262513
_cell_length_b 9.242679
_cell_length_c 8.785785
_cell_angle_alpha 46.647081
_cell_angle_beta 110.703926
_cell_angle_gamma 119.282466
_cell_volume 373.884876
_symmetry_space_group_name_H-M "P -1"
_symmetry_group_IT_number 2
_symmetry_cell_setting 'triclinic'
loop_
_space_group_symop_operation_xyz
x,y,z
-x,-y,-z
loop_
_atom_site_type_symbol
_atom_site_label
_atom_site_fract_x
_atom_site_fract_y
_atom_site_fract_z
Si Si1 0.301887 0.574861 0.492066
Si Si2 0.107221 0.619516 0.097364
Si Si3 0.270465 0.029232 0.685369
Si Si4 0.827806 0.089085 0.598975
Si Si5 0.799940 0.789973 0.045200
O O1 0.206260 0.527326 0.328201
O O2 0.532739 0.753320 0.416085
O O3 0.177168 0.705063 0.457210
O O4 0.308047 0.368725 0.734851
O O5 0.906555 0.651313 0.087792
O O6 0.000000 0.500000 0.000000
O O7 0.278823 0.848659 0.935196
O O8 0.053014 0.062398 0.646991
O O9 0.258559 0.934175 0.580050
O O10 0.695133 0.891045 0.814051
O O11 0.000000 0.000000 0.000000
#
# Coordination Sequence:
#
# PCOD9044836 Si02
#       5
#     2   2   2   2   2
#     4  12  24  46  79 104 145 198 243 297 364 434
#     4  11  24  44  74 107 147 194 239 301 370 424
#     4  10  24  45  76 112 145 186 251 300 355 445
#     4  10  23  47  75 104 152 186 237 306 371 422
#     4  11  24  44  75 105 142 195 240 293 373 431
#
# _framework density 26.746203999999999
#
# number of rings (size 3 to 8) (size 9 to 14) (size 15 to 20)
#    0.000    1.200    2.000    3.000    2.800    0.800 
#    0.000   12.000    0.000    1.200    0.000    0.000 
#    0.000    0.000    0.000    0.000    0.000    0.000 
#
# Total GULP energy -55931.758286 kJ/mol
# GULP energy per Si atom -5593.175829 kJ/mol
# Density = 2.668533 g / cm^3
# Si number density = 26.746204 Si / 1000 Ang^3
#
#
#
# Elastic Constant Matrix: (Units=GPa)
#
#
# Indices 1 2 3 4 5 6 
#
# 1 107.1404 43.8690 51.5355 8.1232 -12.5279 -13.3848
# 2 43.8690 136.5516 57.1274 24.4422 -14.0813 -22.2956
# 3 51.5355 57.1274 299.7987 -15.4088 -25.3530 5.6744
# 4 8.1232 24.4422 -15.4088 53.8742 0.6754 -13.0969
# 5 -12.5279 -14.0813 -25.3530 0.6754 40.7577 -7.5612
# 6 -13.3848 -22.2956 5.6744 -13.0969 -7.5612 44.4408
#
#
#
# Elastic Compliance Matrix: (Units=1/GPa)
#
#
# Indices 1 2 3 4 5 6 
#
# 1 0.011649 -0.002365 -0.001424 -0.000445 0.002401 0.002781
# 2 -0.002365 0.010386 -0.001623 -0.003877 0.002661 0.004016
# 3 -0.001424 -0.001623 0.004119 0.001872 0.001349 -0.000988
# 4 -0.000445 -0.003877 0.001872 0.021934 0.000097 0.004163
# 5 0.002401 0.002661 0.001349 0.000097 0.028278 0.006726
# 6 0.002781 0.004016 -0.000988 0.004163 0.006726 0.027851
#
#
# Mechanical properties :
#
#
# Convention : Reuss Voigt Hill
#
# Bulk Modulus (GPa) = 65.23529 94.28384 79.75956
# Shear Modulus (GPa) = 41.61441 53.87844 47.74643
#
# Velocity S-wave (km/s) = 3.94877 4.49311 4.22971
# Velocity P-wave (km/s) = 6.72561 7.88957 7.33072
#
# Compressibility (1/GPa) = 0.01532913
#
# Stress axis : x y z
#
# Youngs Moduli (GPa) = 85.84451 96.28382 242.80005
#
# Poissons Ratio (x) = 0.22774 0.34580
# Poissons Ratio (y) = 0.20305 0.39399
# Poissons Ratio (z) = 0.12226 0.15624
#
# Static dielectric constant tensor:
#      x y z
#    x 2.128580 -0.000550 -0.011660 
#    y -0.000550 1.943430 -0.050910 
#    z -0.011660 -0.050910 2.131580 
# 
# From -- ./inp_files/144203.got.cif
#   From: 2010.05.17/outbox.cif.g08.bks.cpg/sg2_73_cif.got.tgz:144203.got - 2010.06.03 11:33:40.
