data_PCOD9044351
_publ_section_title
;
Structure prediction by ZEFSAII (Michael W. Deem and Ramdas Pophale) SiO2 
 PCOD9044351
Probable space group: P -1
;
_chemical_formula_sum "Si O2"
_cell_formula_units_Z 15
_cell_length_a 11.725466
_cell_length_b 8.827530
_cell_length_c 11.967839
_cell_angle_alpha 52.159965
_cell_angle_beta 131.280926
_cell_angle_gamma 125.911294
_cell_volume 699.814817
_symmetry_space_group_name_H-M "P -1"
_symmetry_group_IT_number 2
_symmetry_cell_setting 'triclinic'
loop_
_space_group_symop_operation_xyz
x,y,z
-x,-y,-z
loop_
_atom_site_type_symbol
_atom_site_label
_atom_site_fract_x
_atom_site_fract_y
_atom_site_fract_z
Si Si1 0.667064 0.788840 0.990930
Si Si2 0.497158 0.084705 0.837315
Si Si3 0.576230 0.431989 0.246935
Si Si4 0.873859 0.103418 0.323441
Si Si5 0.121299 0.696211 0.546181
Si Si6 0.404374 0.461292 0.340961
Si Si7 0.000000 0.000000 0.000000
Si Si8 0.077862 0.118814 0.246391
O O1 0.572095 0.644688 0.897199
O O2 0.845935 0.878038 0.028143
O O3 0.580206 0.959009 0.870393
O O4 0.655524 0.663535 0.154979
O O5 0.598196 0.317281 0.795110
O O6 0.308204 0.035558 0.712786
O O7 0.500000 0.000000 0.000000
O O8 0.703755 0.315971 0.360616
O O9 0.513353 0.403613 0.343925
O O10 0.896023 0.293286 0.334973
O O11 0.926903 0.139451 0.211996
O O12 0.000000 0.000000 0.500000
O O13 0.000000 0.500000 0.500000
O O14 0.097916 0.899682 0.388211
O O15 0.500000 0.500000 0.500000
O O16 0.233991 0.293695 0.310940
O O17 0.929346 0.868044 0.897587
#
# Coordination Sequence:
#
# PCOD9044351 Si02
#       8
#     2   2   2   2   2   2   1   2
#     4  11  24  46  74 102 143 193 249 305 358 443
#     4  12  24  47  76 107 139 202 249 293 369 455
#     4  11  24  46  72 102 144 195 244 300 367 442
#     4  10  23  46  73 104 147 191 246 300 366 448
#     4  11  24  42  77 106 139 194 250 296 374 450
#     4  12  27  45  72 108 153 187 242 309 376 431
#     4  12  24  48  70 102 150 184 242 316 366 416
#     4  11  26  47  68 107 148 191 237 313 366 435
#
# _framework density 21.434242000000001
#
# number of rings (size 3 to 8) (size 9 to 14) (size 15 to 20)
#    0.000    0.800    4.000    3.200    5.600    1.600 
#    4.800    1.333    0.000    0.000    0.000    0.000 
#    0.000    0.000    0.000    0.000    0.000    0.000 
#
# Total GULP energy -83572.127970 kJ/mol
# GULP energy per Si atom -5571.475198 kJ/mol
# Density = 2.138546 g / cm^3
# Si number density = 21.434242 Si / 1000 Ang^3
#
#
#
# Elastic Constant Matrix: (Units=GPa)
#
#
# Indices 1 2 3 4 5 6 
#
# 1 98.1081 23.3403 -5.0212 -14.0644 -9.0799 -5.8357
# 2 23.3403 138.9541 12.9983 -1.8985 0.2100 14.5760
# 3 -5.0212 12.9983 32.5440 0.9200 -7.5877 -5.6631
# 4 -14.0644 -1.8985 0.9200 34.3760 -7.3214 -2.6335
# 5 -9.0799 0.2100 -7.5877 -7.3214 27.5178 7.6463
# 6 -5.8357 14.5760 -5.6631 -2.6335 7.6463 43.9365
#
#
#
# Elastic Compliance Matrix: (Units=1/GPa)
#
#
# Indices 1 2 3 4 5 6 
#
# 1 0.012812 -0.002792 0.004891 0.006564 0.006651 0.002494
# 2 -0.002792 0.008476 -0.004785 -0.001166 -0.001618 -0.003588
# 3 0.004891 -0.004785 0.036838 0.003559 0.011301 0.005232
# 4 0.006564 -0.001166 0.003559 0.034260 0.011794 0.001718
# 5 0.006651 -0.001618 0.011301 0.011794 0.046031 -0.004427
# 6 0.002494 -0.003588 0.005232 0.001718 -0.004427 0.025829
#
#
# Mechanical properties :
#
#
# Convention : Reuss Voigt Hill
#
# Bulk Modulus (GPa) = 18.95544 36.91567 27.93556
# Shear Modulus (GPa) = 26.70906 37.05197 31.88051
#
# Velocity S-wave (km/s) = 3.53383 4.16220 3.86082
# Velocity P-wave (km/s) = 5.05108 6.35284 5.73899
#
# Compressibility (1/GPa) = 0.05275529
#
# Stress axis : x y z
#
# Youngs Moduli (GPa) = 78.05024 117.98051 27.14593
#
# Poissons Ratio (x) = 0.32936 -0.13277
# Poissons Ratio (y) = 0.21789 0.12989
# Poissons Ratio (z) = -0.38174 0.56451
#
# Static dielectric constant tensor:
#      x y z
#    x 1.762480 -0.028130 -0.005510 
#    y -0.028130 1.825470 0.013970 
#    z -0.005510 0.013970 1.809520 
# 
# From -- ./inp_files/240770.got.cif
#   From: 2010.05.17/outbox.cif.g08.bks.cpg/sg2_121_cif.got.tgz:240770.got - 2010.06.03 11:33:40.
