data_PCOD9044304
_publ_section_title
;
Structure prediction by ZEFSAII (Michael W. Deem and Ramdas Pophale) SiO2 
 PCOD9044304
Probable space group: P -1
;
_chemical_formula_sum "Si O2"
_cell_formula_units_Z 13
_cell_length_a 9.161326
_cell_length_b 5.004290
_cell_length_c 11.188188
_cell_angle_alpha 69.924425
_cell_angle_beta 97.588866
_cell_angle_gamma 81.293777
_cell_volume 466.767870
_symmetry_space_group_name_H-M "P -1"
_symmetry_group_IT_number 2
_symmetry_cell_setting 'triclinic'
loop_
_space_group_symop_operation_xyz
x,y,z
-x,-y,-z
loop_
_atom_site_type_symbol
_atom_site_label
_atom_site_fract_x
_atom_site_fract_y
_atom_site_fract_z
Si Si1 0.500000 0.500000 0.000000
Si Si2 0.021835 0.994650 0.160859
Si Si3 0.189910 0.271671 0.959644
Si Si4 0.951078 0.268106 0.331861
Si Si5 0.751645 0.568613 0.671543
Si Si6 0.473937 0.913242 0.713103
Si Si7 0.669028 0.432642 0.429301
O O1 0.360191 0.307064 0.992455
O O2 0.440077 0.711550 0.848174
O O3 0.976507 0.980446 0.297459
O O4 0.158436 0.713307 0.205922
O O5 0.102963 0.243653 0.079002
O O6 0.866357 0.998439 0.071627
O O7 0.115547 0.514727 0.818230
O O8 0.838586 0.352415 0.413180
O O9 0.116624 0.287541 0.385324
O O10 0.646056 0.792506 0.712464
O O11 0.665116 0.466494 0.565838
O O12 0.394325 0.825053 0.598733
O O13 0.415254 0.252508 0.680369
#
# Coordination Sequence:
#
# PCOD9044304 Si02
#       7
#     1   2   2   2   2   2   2
#     4  12  26  48  80 108 164 196 262 322 410 456
#     4  10  24  45  81 112 157 202 271 319 399 463
#     4  10  23  46  72 118 154 209 254 335 385 483
#     4  11  24  46  75 114 152 201 265 324 391 461
#     4  11  27  48  79 109 152 215 259 323 390 479
#     4  12  30  50  77 114 158 207 265 325 402 470
#     4  12  29  51  76 114 161 205 264 331 392 472
#
# _framework density 27.851101
#
# number of rings (size 3 to 8) (size 9 to 14) (size 15 to 20)
#    0.000    0.923    1.538    2.769   10.769    4.923 
#    0.000    0.000    0.000    0.000    0.000    0.000 
#    0.000    0.000    0.000    0.000    0.000    0.000 
#
# Total GULP energy -72460.569964 kJ/mol
# GULP energy per Si atom -5573.889997 kJ/mol
# Density = 2.778771 g / cm^3
# Si number density = 27.851101 Si / 1000 Ang^3
#
#
#
# Elastic Constant Matrix: (Units=GPa)
#
#
# Indices 1 2 3 4 5 6 
#
# 1 174.1867 43.3637 36.0361 -3.9071 2.3432 16.2919
# 2 43.3637 103.0954 39.9022 -17.5966 -2.2927 -8.4990
# 3 36.0361 39.9022 140.0882 -4.2521 2.5662 4.4540
# 4 -3.9071 -17.5966 -4.2521 34.6020 19.2901 12.8491
# 5 2.3432 -2.2927 2.5662 19.2901 46.5133 11.6663
# 6 16.2919 -8.4990 4.4540 12.8491 11.6663 48.6731
#
#
#
# Elastic Compliance Matrix: (Units=1/GPa)
#
#
# Indices 1 2 3 4 5 6 
#
# 1 0.006871 -0.002733 -0.000897 0.000212 0.000181 -0.002794
# 2 -0.002733 0.013218 -0.002897 0.006489 -0.002327 0.002333
# 3 -0.000897 -0.002897 0.008225 -0.000072 -0.000304 -0.000866
# 4 0.000212 0.006489 -0.000072 0.043660 -0.016141 -0.006588
# 5 0.000181 -0.002327 -0.000304 -0.016141 0.028863 -0.003096
# 6 -0.002794 0.002333 -0.000866 -0.006588 -0.003096 0.024448
#
#
# Mechanical properties :
#
#
# Convention : Reuss Voigt Hill
#
# Bulk Modulus (GPa) = 65.52617 72.88604 69.20610
# Shear Modulus (GPa) = 34.86143 45.82892 40.34518
#
# Velocity S-wave (km/s) = 3.54179 4.06087 3.81018
# Velocity P-wave (km/s) = 6.34855 6.94365 6.65276
#
# Compressibility (1/GPa) = 0.01526108
#
# Stress axis : x y z
#
# Youngs Moduli (GPa) = 145.54890 75.65221 121.57908
#
# Poissons Ratio (x) = 0.20674 0.10906
# Poissons Ratio (y) = 0.39775 0.35218
# Poissons Ratio (z) = 0.13056 0.21914
#
# Static dielectric constant tensor:
#      x y z
#    x 2.081510 -0.212020 -0.084480 
#    y -0.212020 1.991640 -0.044120 
#    z -0.084480 -0.044120 2.164830 
# 
# From -- ./inp_files/371766.got.cif
#   From: 2010.05.17/outbox.cif.g08.bks.cpg/sg2_186_cif.got.tgz:371766.got - 2010.06.03 11:33:40.
