data_PCOD9044164
_publ_section_title
;
Structure prediction by ZEFSAII (Michael W. Deem and Ramdas Pophale) SiO2 
 PCOD9044164
Probable space group: P -1
;
_chemical_formula_sum "Si O2"
_cell_formula_units_Z 10
_cell_length_a 14.138455
_cell_length_b 8.179350
_cell_length_c 5.572763
_cell_angle_alpha 67.154075
_cell_angle_beta 62.119102
_cell_angle_gamma 48.008142
_cell_volume 420.586352
_symmetry_space_group_name_H-M "P -1"
_symmetry_group_IT_number 2
_symmetry_cell_setting 'triclinic'
loop_
_space_group_symop_operation_xyz
x,y,z
-x,-y,-z
loop_
_atom_site_type_symbol
_atom_site_label
_atom_site_fract_x
_atom_site_fract_y
_atom_site_fract_z
Si Si1 0.727753 0.862889 0.315053
Si Si2 0.593991 0.574368 0.377553
Si Si3 0.139281 0.642490 0.595601
Si Si4 0.470204 0.167875 0.184973
Si Si5 0.893523 0.032530 0.922134
O O1 0.830892 0.596434 0.331631
O O2 0.626997 0.904336 0.621524
O O3 0.626459 0.968966 0.147916
O O4 0.793788 0.988841 0.179607
O O5 0.500000 0.500000 0.500000
O O6 0.754139 0.394317 0.312416
O O7 0.561764 0.685294 0.619610
O O8 0.565300 0.707847 0.091086
O O9 0.986183 0.829227 0.740648
O O10 0.167141 0.740147 0.277098
O O11 0.000000 0.000000 0.000000
#
# Coordination Sequence:
#
# PCOD9044164 Si02
#       5
#     2   2   2   2   2
#     4  10  23  46  70  97 143 177 227 289 347 413
#     4  11  23  42  73 104 143 177 230 289 347 413
#     4  10  25  44  66 100 134 185 233 279 352 407
#     4  10  24  43  69 108 134 183 228 281 356 415
#     4  11  25  45  67 100 135 181 240 284 337 412
#
# _framework density 23.776330999999999
#
# number of rings (size 3 to 8) (size 9 to 14) (size 15 to 20)
#    0.000    1.600    0.000    2.400    8.400    8.000 
#   14.400    3.000    0.000    0.000    0.000    0.000 
#    0.000    0.000    0.000    0.000    0.000    0.000 
#
# Total GULP energy -55867.160525 kJ/mol
# GULP energy per Si atom -5586.716052 kJ/mol
# Density = 2.372221 g / cm^3
# Si number density = 23.776331 Si / 1000 Ang^3
#
#
#
# Elastic Constant Matrix: (Units=GPa)
#
#
# Indices 1 2 3 4 5 6 
#
# 1 129.1452 23.0080 107.2911 -29.2282 -13.3579 11.3537
# 2 23.0080 89.6848 44.1279 -10.9355 16.7188 -13.0595
# 3 107.2911 44.1279 181.1690 -51.7904 8.5934 7.5607
# 4 -29.2282 -10.9355 -51.7904 51.4477 -1.3962 12.2652
# 5 -13.3579 16.7188 8.5934 -1.3962 55.1792 -11.9029
# 6 11.3537 -13.0595 7.5607 12.2652 -11.9029 32.1155
#
#
#
# Elastic Compliance Matrix: (Units=1/GPa)
#
#
# Indices 1 2 3 4 5 6 
#
# 1 0.016945 -0.000691 -0.010069 -0.000068 0.005480 -0.001844
# 2 -0.000691 0.014611 -0.004398 -0.003622 -0.002331 0.007741
# 3 -0.010069 -0.004398 0.016581 0.011954 -0.005249 -0.008643
# 4 -0.000068 -0.003622 0.011954 0.035123 -0.004027 -0.019170
# 5 0.005480 -0.002331 -0.005249 -0.004027 0.022659 0.008286
# 6 -0.001844 0.007741 -0.008643 -0.019170 0.008286 0.047364
#
#
# Mechanical properties :
#
#
# Convention : Reuss Voigt Hill
#
# Bulk Modulus (GPa) = 56.11210 83.20590 69.65900
# Shear Modulus (GPa) = 26.37948 42.78662 34.58305
#
# Velocity S-wave (km/s) = 3.33451 4.24671 3.81795
# Velocity P-wave (km/s) = 6.20294 7.68878 6.98548
#
# Compressibility (1/GPa) = 0.01782147
#
# Stress axis : x y z
#
# Youngs Moduli (GPa) = 59.01322 68.44012 60.30924
#
# Poissons Ratio (x) = 0.04730 0.60728
# Poissons Ratio (y) = 0.04079 0.26522
# Poissons Ratio (z) = 0.59423 0.30097
#
# Static dielectric constant tensor:
#      x y z
#    x 1.850290 0.022400 -0.008500 
#    y 0.022400 2.100160 0.052980 
#    z -0.008500 0.052980 1.890970 
# 
# From -- ./inp_files/87862.got.cif
#   From: 2010.05.17/outbox.cif.g08.bks.cpg/sg2_44_cif.got.tgz:87862.got - 2010.06.03 11:33:40.
