data_PCOD9044638
_publ_section_title
;
Structure prediction by ZEFSAII (Michael W. Deem and Ramdas Pophale) SiO2 
 PCOD9044638
Probable space group: P -1
;
_chemical_formula_sum "Si O2"
_cell_formula_units_Z 15
_cell_length_a 6.379363
_cell_length_b 9.187602
_cell_length_c 10.492939
_cell_angle_alpha 80.044840
_cell_angle_beta 100.728116
_cell_angle_gamma 91.201711
_cell_volume 595.114934
_symmetry_space_group_name_H-M "P -1"
_symmetry_group_IT_number 2
_symmetry_cell_setting 'triclinic'
loop_
_space_group_symop_operation_xyz
x,y,z
-x,-y,-z
loop_
_atom_site_type_symbol
_atom_site_label
_atom_site_fract_x
_atom_site_fract_y
_atom_site_fract_z
Si Si1 0.275264 0.061900 0.850589
Si Si2 0.370523 0.560853 0.856695
Si Si3 0.604793 0.471478 0.653965
Si Si4 0.873437 0.204499 0.638535
Si Si5 0.861821 0.748773 0.574558
Si Si6 0.941159 0.220524 0.164637
Si Si7 0.597942 0.854024 0.874933
Si Si8 0.500000 0.000000 0.500000
O O1 0.066702 0.130199 0.752913
O O2 0.204206 0.895961 0.909838
O O3 0.482291 0.008886 0.800170
O O4 0.359755 0.148570 0.968364
O O5 0.429617 0.475759 0.747191
O O6 0.137201 0.609261 0.873257
O O7 0.457340 0.725907 0.819285
O O8 0.500000 0.500000 0.000000
O O9 0.500000 0.500000 0.500000
O O10 0.737820 0.320138 0.689150
O O11 0.769030 0.606836 0.658231
O O12 0.709370 0.094876 0.567312
O O13 0.008166 0.289323 0.531674
O O14 0.037607 0.818938 0.677699
O O15 0.663378 0.858296 0.513906
O O16 0.172527 0.179826 0.147854
#
# Coordination Sequence:
#
# PCOD9044638 Si02
#       8
#     2   2   2   2   2   2   2   1
#     4  10  24  42  70 108 138 185 245 304 364 441
#     4  11  27  46  71 106 143 194 251 302 367 447
#     4  12  26  50  72 106 155 198 248 308 376 449
#     4  12  27  45  76 110 148 192 251 305 376 446
#     4  12  26  45  75 106 147 198 244 300 379 446
#     4  11  23  43  76  96 145 190 239 300 376 432
#     4  10  23  47  69  99 146 188 242 305 367 435
#     4  12  26  46  74 110 154 186 248 316 370 452
#
# _framework density 25.205214999999999
#
# number of rings (size 3 to 8) (size 9 to 14) (size 15 to 20)
#    0.000    0.800    4.000    2.000    3.733    2.667 
#    0.000    0.000    0.000    0.000    0.000    0.000 
#    0.000    0.000    0.000    0.000    0.000    0.000 
#
# Total GULP energy -83547.286274 kJ/mol
# GULP energy per Si atom -5569.819085 kJ/mol
# Density = 2.514785 g / cm^3
# Si number density = 25.205215 Si / 1000 Ang^3
#
#
#
# Elastic Constant Matrix: (Units=GPa)
#
#
# Indices 1 2 3 4 5 6 
#
# 1 137.9342 55.6622 56.5166 -0.9357 34.7130 -41.1416
# 2 55.6622 100.1136 24.8287 10.3275 -0.3450 -37.9642
# 3 56.5166 24.8287 98.1384 -1.9450 28.0566 -22.4830
# 4 -0.9357 10.3275 -1.9450 23.2471 -2.9524 9.3476
# 5 34.7130 -0.3450 28.0566 -2.9524 53.2830 1.0808
# 6 -41.1416 -37.9642 -22.4830 9.3476 1.0808 62.4325
#
#
#
# Elastic Compliance Matrix: (Units=1/GPa)
#
#
# Indices 1 2 3 4 5 6 
#
# 1 0.014172 -0.004970 -0.003559 -0.000588 -0.007530 0.005253
# 2 -0.004970 0.017332 -0.000576 -0.011068 0.002864 0.008664
# 3 -0.003559 -0.000576 0.014546 -0.000446 -0.005424 0.002703
# 4 -0.000588 -0.011068 -0.000446 0.054607 0.003887 -0.015522
# 5 -0.007530 0.002864 -0.005424 0.003887 0.026889 -0.006221
# 6 0.005253 0.008664 0.002703 -0.015522 -0.006221 0.028153
#
#
# Mechanical properties :
#
#
# Convention : Reuss Voigt Hill
#
# Bulk Modulus (GPa) = 35.92037 67.80014 51.86025
# Shear Modulus (GPa) = 27.29414 41.07108 34.18261
#
# Velocity S-wave (km/s) = 3.29428 4.04105 3.68662
# Velocity P-wave (km/s) = 5.36207 6.98076 6.22426
#
# Compressibility (1/GPa) = 0.02783936
#
# Stress axis : x y z
#
# Youngs Moduli (GPa) = 70.56369 57.69708 68.74580
#
# Poissons Ratio (x) = 0.28673 0.24469
# Poissons Ratio (y) = 0.35067 0.03961
# Poissons Ratio (z) = 0.25117 0.03325
#
# Static dielectric constant tensor:
#      x y z
#    x 2.270100 -0.010310 0.000790 
#    y -0.010310 2.063070 0.046890 
#    z 0.000790 0.046890 2.112240 
# 
# From -- ./inp_files/360691.got.cif
#   From: 2010.05.17/outbox.cif.g08.bks.cpg/sg2_181_cif.got.tgz:360691.got - 2010.06.03 11:33:40.
