data_PCOD9044138
_publ_section_title
;
Structure prediction by ZEFSAII (Michael W. Deem and Ramdas Pophale) SiO2 
 PCOD9044138
Probable space group: P -1
;
_chemical_formula_sum "Si O2"
_cell_formula_units_Z 13
_cell_length_a 7.381835
_cell_length_b 14.568589
_cell_length_c 7.873561
_cell_angle_alpha 136.896706
_cell_angle_beta 93.625667
_cell_angle_gamma 107.465060
_cell_volume 497.446162
_symmetry_space_group_name_H-M "P -1"
_symmetry_group_IT_number 2
_symmetry_cell_setting 'triclinic'
loop_
_space_group_symop_operation_xyz
x,y,z
-x,-y,-z
loop_
_atom_site_type_symbol
_atom_site_label
_atom_site_fract_x
_atom_site_fract_y
_atom_site_fract_z
Si Si1 0.720197 0.764082 0.232674
Si Si2 0.500000 0.500000 0.000000
Si Si3 0.358316 0.649484 0.636981
Si Si4 0.791672 0.120718 0.975997
Si Si5 0.231580 0.355726 0.457848
Si Si6 0.817134 0.067174 0.510445
Si Si7 0.578598 0.213607 0.506607
O O1 0.517410 0.702939 0.268462
O O2 0.951196 0.865585 0.458433
O O3 0.703871 0.880012 0.259062
O O4 0.663501 0.591895 0.960619
O O5 0.293951 0.414080 0.733071
O O6 0.327912 0.782439 0.903304
O O7 0.240952 0.493723 0.529599
O O8 0.593218 0.681003 0.657585
O O9 0.283950 0.669173 0.471426
O O10 0.000565 0.206537 0.216046
O O11 0.848551 0.111953 0.772066
O O12 0.628751 0.943452 0.784833
O O13 0.695069 0.143058 0.522994
#
# Coordination Sequence:
#
# PCOD9044138 Si02
#       7
#     2   1   2   2   2   2   2
#     4  10  23  46  70 106 136 187 231 283 333 410
#     4  12  26  48  74  96 136 190 234 282 342 418
#     4  11  26  46  68 106 143 179 226 292 344 409
#     4  11  25  45  71 106 137 180 230 289 343 401
#     4  11  28  47  69  99 142 185 231 282 351 406
#     4  10  25  44  76 103 139 183 232 281 343 407
#     4  11  24  46  72 107 138 182 232 280 346 410
#
# _framework density 26.133485
#
# number of rings (size 3 to 8) (size 9 to 14) (size 15 to 20)
#    0.000    1.231    1.538    2.769   10.769    3.077 
#    0.000    2.308    0.000    0.000    0.000    0.000 
#    0.000    0.000    0.000    0.000    0.000    0.000 
#
# Total GULP energy -72544.008858 kJ/mol
# GULP energy per Si atom -5580.308374 kJ/mol
# Density = 2.607400 g / cm^3
# Si number density = 26.133485 Si / 1000 Ang^3
#
#
#
# Elastic Constant Matrix: (Units=GPa)
#
#
# Indices 1 2 3 4 5 6 
#
# 1 102.7245 32.2084 48.9845 1.9391 0.0252 -19.1779
# 2 32.2084 186.9688 51.2436 14.7934 4.4779 -27.1452
# 3 48.9845 51.2436 143.8397 4.9170 4.1161 -13.1828
# 4 1.9391 14.7934 4.9170 43.2129 -13.7592 -11.0257
# 5 0.0252 4.4779 4.1161 -13.7592 40.9040 -9.7396
# 6 -19.1779 -27.1452 -13.1828 -11.0257 -9.7396 27.6489
#
#
#
# Elastic Compliance Matrix: (Units=1/GPa)
#
#
# Indices 1 2 3 4 5 6 
#
# 1 0.013474 -0.000173 -0.003829 0.003856 0.004158 0.010352
# 2 -0.000173 0.006718 -0.001819 -0.000432 0.000651 0.005665
# 3 -0.003829 -0.001819 0.008879 -0.000849 -0.001209 -0.000973
# 4 0.003856 -0.000432 -0.000849 0.033905 0.016585 0.021208
# 5 0.004158 0.000651 -0.001209 0.016585 0.035312 0.022000
# 6 0.010352 0.005665 -0.000973 0.021208 0.022000 0.064653
#
#
# Mechanical properties :
#
#
# Convention : Reuss Voigt Hill
#
# Bulk Modulus (GPa) = 57.37824 77.60066 67.48945
# Shear Modulus (GPa) = 27.71744 42.42624 35.07184
#
# Velocity S-wave (km/s) = 3.26023 4.03357 3.66734
# Velocity P-wave (km/s) = 6.01462 7.17296 6.61918
#
# Compressibility (1/GPa) = 0.01742821
#
# Stress axis : x y z
#
# Youngs Moduli (GPa) = 74.21839 148.85435 112.63129
#
# Poissons Ratio (x) = 0.02581 0.43123
# Poissons Ratio (y) = 0.01287 0.20487
# Poissons Ratio (z) = 0.28416 0.27076
#
# Static dielectric constant tensor:
#      x y z
#    x 2.092900 -0.029910 -0.099850 
#    y -0.029910 2.206240 0.105030 
#    z -0.099850 0.105030 2.286400 
# 
# From -- ./inp_files/198712.got.cif
#   From: 2010.05.17/outbox.cif.g08.bks.cpg/sg2_100_cif.got.tgz:198712.got - 2010.06.03 11:33:40.
