data_PCOD9044226
_publ_section_title
;
Structure prediction by ZEFSAII (Michael W. Deem and Ramdas Pophale) SiO2 
 PCOD9044226
Probable space group: P -1
;
_chemical_formula_sum "Si O2"
_cell_formula_units_Z 14
_cell_length_a 9.739829
_cell_length_b 12.141634
_cell_length_c 18.085737
_cell_angle_alpha 133.031999
_cell_angle_beta 150.320689
_cell_angle_gamma 36.533402
_cell_volume 629.521207
_symmetry_space_group_name_H-M "P -1"
_symmetry_group_IT_number 2
_symmetry_cell_setting 'triclinic'
loop_
_space_group_symop_operation_xyz
x,y,z
-x,-y,-z
loop_
_atom_site_type_symbol
_atom_site_label
_atom_site_fract_x
_atom_site_fract_y
_atom_site_fract_z
Si Si1 0.643961 0.416584 0.609961
Si Si2 0.684669 0.368831 0.850972
Si Si3 0.585873 0.747393 0.820393
Si Si4 0.784900 0.070179 0.856897
Si Si5 0.331042 0.314547 0.535196
Si Si6 0.127054 0.804865 0.761856
Si Si7 0.257929 0.040825 0.673510
O O1 0.500000 0.500000 0.500000
O O2 0.619278 0.569510 0.720751
O O3 0.426210 0.354298 0.518930
O O4 0.027083 0.237844 0.696573
O O5 0.622845 0.275431 0.710248
O O6 0.412134 0.589944 0.819726
O O7 0.641961 0.278178 0.861890
O O8 0.062863 0.315679 0.006077
O O9 0.284161 0.839843 0.781260
O O10 0.496142 0.884521 0.773225
O O11 0.033530 0.938574 0.847698
O O12 0.476945 0.051514 0.717439
O O13 0.000000 0.000000 0.000000
O O14 0.000000 0.500000 0.500000
O O15 0.211816 0.181479 0.411751
O O16 0.000000 0.000000 0.500000
#
# Coordination Sequence:
#
# PCOD9044226 Si02
#       7
#     2   2   2   2   2   2   2
#     4  12  26  45  76 104 147 190 240 297 357 429
#     4  11  26  45  75 102 148 185 244 292 360 424
#     4  12  26  47  71 111 140 191 241 295 365 424
#     4  12  29  49  68 110 144 188 239 299 364 423
#     4  10  23  46  71 109 136 185 246 289 353 425
#     4  11  27  46  78 101 144 189 244 295 356 429
#     4  12  28  46  71 106 149 187 241 295 361 427
#
# _framework density 22.239124
#
# number of rings (size 3 to 8) (size 9 to 14) (size 15 to 20)
#    0.000    0.571    5.714    1.286   10.000    1.714 
#    0.000    0.000    0.000    0.000    0.000    0.000 
#    0.000    0.000    0.000    0.000    0.000    0.000 
#
# Total GULP energy -78395.307587 kJ/mol
# GULP energy per Si atom -5599.664828 kJ/mol
# Density = 2.218851 g / cm^3
# Si number density = 22.239124 Si / 1000 Ang^3
#
#
#
# Elastic Constant Matrix: (Units=GPa)
#
#
# Indices 1 2 3 4 5 6 
#
# 1 126.2901 11.1849 26.0703 -0.2472 16.9784 0.1504
# 2 11.1849 69.6325 -4.3713 -12.7518 -0.4894 -5.9391
# 3 26.0703 -4.3713 124.7648 -0.3175 8.3929 -2.9376
# 4 -0.2472 -12.7518 -0.3175 24.5554 3.5396 -8.8430
# 5 16.9784 -0.4894 8.3929 3.5396 39.6054 6.1070
# 6 0.1504 -5.9391 -2.9376 -8.8430 6.1070 45.5835
#
#
#
# Elastic Compliance Matrix: (Units=1/GPa)
#
#
# Indices 1 2 3 4 5 6 
#
# 1 0.008869 -0.001591 -0.001675 -0.000234 -0.003457 0.000073
# 2 -0.001591 0.017000 0.001126 0.010581 -0.000983 0.004477
# 3 -0.001675 0.001126 0.008526 0.001283 -0.001364 0.001133
# 4 -0.000234 0.010581 0.001283 0.051629 -0.006561 0.012357
# 5 -0.003457 -0.000983 -0.001364 -0.006561 0.028409 -0.005283
# 6 0.000073 0.004477 0.001133 0.012357 -0.005283 0.025699
#
#
# Mechanical properties :
#
#
# Convention : Reuss Voigt Hill
#
# Bulk Modulus (GPa) = 33.20446 42.93945 38.07195
# Shear Modulus (GPa) = 32.37296 41.13578 36.75437
#
# Velocity S-wave (km/s) = 3.81947 4.30548 4.06974
# Velocity P-wave (km/s) = 5.86636 6.63824 6.26420
#
# Compressibility (1/GPa) = 0.03011644
#
# Stress axis : x y z
#
# Youngs Moduli (GPa) = 112.74933 58.82391 117.28373
#
# Poissons Ratio (x) = 0.09357 0.19649
# Poissons Ratio (y) = 0.17934 -0.13211
# Poissons Ratio (z) = 0.18889 -0.06626
#
# Static dielectric constant tensor:
#      x y z
#    x 1.784650 0.026090 0.028480 
#    y 0.026090 1.828290 0.021700 
#    z 0.028480 0.021700 1.725740 
# 
# From -- ./inp_files/244327.got.cif
#   From: 2010.05.17/outbox.cif.g08.bks.cpg/sg2_123_cif.got.tgz:244327.got - 2010.06.03 11:33:40.
