data_PCOD9044720
_publ_section_title
;
Structure prediction by ZEFSAII (Michael W. Deem and Ramdas Pophale) SiO2 
 PCOD9044720
Probable space group: P -1
;
_chemical_formula_sum "Si O2"
_cell_formula_units_Z 16
_cell_length_a 8.791204
_cell_length_b 12.973830
_cell_length_c 10.531972
_cell_angle_alpha 109.558845
_cell_angle_beta 134.214460
_cell_angle_gamma 52.644002
_cell_volume 676.083994
_symmetry_space_group_name_H-M "P -1"
_symmetry_group_IT_number 2
_symmetry_cell_setting 'triclinic'
loop_
_space_group_symop_operation_xyz
x,y,z
-x,-y,-z
loop_
_atom_site_type_symbol
_atom_site_label
_atom_site_fract_x
_atom_site_fract_y
_atom_site_fract_z
Si Si1 0.228016 0.358530 0.526187
Si Si2 0.063754 0.121707 0.020645
Si Si3 0.450880 0.164045 0.809201
Si Si4 0.346937 0.389723 0.025192
Si Si5 0.011999 0.869185 0.487033
Si Si6 0.118627 0.742686 0.769088
Si Si7 0.735921 0.286287 0.677501
Si Si8 0.074574 0.350259 0.055946
O O1 0.382376 0.263011 0.694247
O O2 0.437319 0.359938 0.562966
O O3 0.000000 0.500000 0.500000
O O4 0.094265 0.289130 0.364194
O O5 0.903298 0.188545 0.082416
O O6 0.275926 0.970612 0.095956
O O7 0.111709 0.841198 0.191371
O O8 0.196398 0.203143 0.111860
O O9 0.252401 0.120288 0.680884
O O10 0.398339 0.258831 0.935337
O O11 0.599742 0.385668 0.142406
O O12 0.101173 0.530694 0.901076
O O13 0.274979 0.372564 0.117607
O O14 0.081500 0.828114 0.657699
O O15 0.198104 0.758757 0.447257
O O16 0.000000 0.000000 0.500000
O O17 0.866871 0.361011 0.835988
#
# Coordination Sequence:
#
# PCOD9044720 Si02
#       8
#     2   2   2   2   2   2   2   2
#     4  11  26  44  67 102 149 190 226 288 357 429
#     4  10  25  45  74 103 136 182 243 297 342 417
#     4  11  25  45  72 106 142 181 243 288 361 417
#     4  11  22  44  71 105 139 179 243 298 343 425
#     4  11  27  44  67 103 149 185 227 293 363 424
#     4  11  27  42  69 107 137 191 233 290 356 421
#     4  10  23  47  72 102 137 190 235 283 354 420
#     4   9  23  42  72 102 135 180 236 298 352 400
#
# _framework density 23.665699
#
# number of rings (size 3 to 8) (size 9 to 14) (size 15 to 20)
#    0.750    0.750    1.250    1.500    8.750    3.500 
#    2.250    1.875    0.000    0.000    0.000    0.000 
#    0.000    0.000    0.000    0.000    0.000    0.000 
#
# Total GULP energy -89365.414195 kJ/mol
# GULP energy per Si atom -5585.338387 kJ/mol
# Density = 2.361183 g / cm^3
# Si number density = 23.665699 Si / 1000 Ang^3
#
#
#
# Elastic Constant Matrix: (Units=GPa)
#
#
# Indices 1 2 3 4 5 6 
#
# 1 99.9916 7.3114 21.7312 0.9799 4.8524 -9.7292
# 2 7.3114 111.4461 11.6487 -6.2950 -3.0475 -0.9436
# 3 21.7312 11.6487 64.9012 -1.4303 0.8082 -1.3910
# 4 0.9799 -6.2950 -1.4303 32.3029 1.4923 5.7723
# 5 4.8524 -3.0475 0.8082 1.4923 37.1921 -7.9337
# 6 -9.7292 -0.9436 -1.3910 5.7723 -7.9337 41.3328
#
#
#
# Elastic Compliance Matrix: (Units=1/GPa)
#
#
# Indices 1 2 3 4 5 6 
#
# 1 0.011103 -0.000409 -0.003603 -0.000976 -0.000840 0.002458
# 2 -0.000409 0.009275 -0.001500 0.001723 0.000771 -0.000028
# 3 -0.003603 -0.001500 0.016890 0.000648 -0.000138 -0.000431
# 4 -0.000976 0.001723 0.000648 0.032360 -0.002131 -0.005097
# 5 -0.000840 0.000771 -0.000138 -0.002131 0.028333 0.005551
# 6 0.002458 -0.000028 -0.000431 -0.005097 0.005551 0.026535
#
#
# Mechanical properties :
#
#
# Convention : Reuss Voigt Hill
#
# Bulk Modulus (GPa) = 38.10282 39.74684 38.92483
# Shear Modulus (GPa) = 34.65773 37.87540 36.26657
#
# Velocity S-wave (km/s) = 3.83099 4.00488 3.91890
# Velocity P-wave (km/s) = 5.97529 6.18199 6.07952
#
# Compressibility (1/GPa) = 0.02624478
#
# Stress axis : x y z
#
# Youngs Moduli (GPa) = 90.06367 107.81996 59.20548
#
# Poissons Ratio (x) = 0.04412 0.21330
# Poissons Ratio (y) = 0.03685 0.08880
# Poissons Ratio (z) = 0.32447 0.16172
#
# Static dielectric constant tensor:
#      x y z
#    x 1.949000 0.038000 -0.021310 
#    y 0.038000 1.874850 -0.019440 
#    z -0.021310 -0.019440 1.977160 
# 
# From -- ./inp_files/392750.got.cif
#   From: 2010.05.17/outbox.cif.g08.bks.cpg/sg2_197_cif.got.tgz:392750.got - 2010.06.03 11:33:40.
