data_PCOD9044803
_publ_section_title
;
Structure prediction by ZEFSAII (Michael W. Deem and Ramdas Pophale) SiO2 
 PCOD9044803
Probable space group: P -1
;
_chemical_formula_sum "Si O2"
_cell_formula_units_Z 16
_cell_length_a 5.309474
_cell_length_b 22.225374
_cell_length_c 9.572413
_cell_angle_alpha 41.666427
_cell_angle_beta 116.880246
_cell_angle_gamma 104.180608
_cell_volume 661.559557
_symmetry_space_group_name_H-M "P -1"
_symmetry_group_IT_number 2
_symmetry_cell_setting 'triclinic'
loop_
_space_group_symop_operation_xyz
x,y,z
-x,-y,-z
loop_
_atom_site_type_symbol
_atom_site_label
_atom_site_fract_x
_atom_site_fract_y
_atom_site_fract_z
Si Si1 0.459387 0.866292 0.125743
Si Si2 0.737786 0.667576 0.581721
Si Si3 0.464263 0.606857 0.347581
Si Si4 0.039597 0.892493 0.748652
Si Si5 0.144380 0.403196 0.767111
Si Si6 0.401794 0.653781 0.809682
Si Si7 0.419651 0.833252 0.690284
Si Si8 0.696678 0.036781 0.799935
O O1 0.678505 0.772932 0.331692
O O2 0.452318 0.893966 0.239042
O O3 0.152087 0.864244 0.982744
O O4 0.540401 0.949469 0.910662
O O5 0.589679 0.614123 0.519331
O O6 0.555705 0.664729 0.682392
O O7 0.077469 0.634329 0.744409
O O8 0.500000 0.500000 0.500000
O O9 0.668082 0.649451 0.217757
O O10 0.128754 0.643267 0.181169
O O11 0.273596 0.839629 0.792566
O O12 0.741187 0.854670 0.727359
O O13 0.000000 0.000000 0.500000
O O14 0.000000 0.500000 0.500000
O O15 0.365139 0.415667 0.923696
O O16 0.383296 0.745225 0.740718
O O17 0.259671 0.918445 0.412931
O O18 0.000000 0.000000 0.000000
#
# Coordination Sequence:
#
# PCOD9044803 Si02
#       8
#     2   2   2   2   2   2   2   2
#     4  11  26  40  66  98 137 184 240 286 350 406
#     4  12  26  45  70 109 140 184 239 289 344 429
#     4  10  23  47  74 106 142 179 224 283 354 422
#     4  12  26  44  64  99 133 186 243 294 340 412
#     4  10  23  47  74 104 140 180 226 275 358 425
#     4  12  26  46  71 106 143 182 234 291 353 409
#     4  12  26  43  66  96 141 180 239 289 350 401
#     4  11  23  43  66  90 140 187 229 295 345 406
#
# _framework density 24.185275000000001
#
# number of rings (size 3 to 8) (size 9 to 14) (size 15 to 20)
#    0.000    0.750    2.500    4.125    7.000    0.000 
#    0.000   15.000    0.000    0.000    0.000    0.000 
#    0.000    0.000    0.000    0.000    0.000    0.000 
#
# Total GULP energy -89502.175496 kJ/mol
# GULP energy per Si atom -5593.885969 kJ/mol
# Density = 2.413023 g / cm^3
# Si number density = 24.185275 Si / 1000 Ang^3
#
#
#
# Elastic Constant Matrix: (Units=GPa)
#
#
# Indices 1 2 3 4 5 6 
#
# 1 147.7495 37.0611 13.1664 6.5111 21.1386 -13.9346
# 2 37.0611 114.5302 28.0203 11.6361 2.3937 -7.2800
# 3 13.1664 28.0203 104.2936 11.4340 18.8588 -7.2415
# 4 6.5111 11.6361 11.4340 31.2040 4.9979 0.4229
# 5 21.1386 2.3937 18.8588 4.9979 44.9556 16.7917
# 6 -13.9346 -7.2800 -7.2415 0.4229 16.7917 31.1992
#
#
#
# Elastic Compliance Matrix: (Units=1/GPa)
#
#
# Indices 1 2 3 4 5 6 
#
# 1 0.009182 -0.002641 0.001559 -0.000363 -0.007797 0.008048
# 2 -0.002641 0.010422 -0.002621 -0.002735 0.002298 -0.000556
# 3 0.001559 -0.002621 0.012405 -0.002667 -0.008287 0.007460
# 4 -0.000363 -0.002735 -0.002667 0.034470 -0.002118 -0.000746
# 5 -0.007797 0.002298 -0.008287 -0.002118 0.039185 -0.025931
# 6 0.008048 -0.000556 0.007460 -0.000746 -0.025931 0.051214
#
#
# Mechanical properties :
#
#
# Convention : Reuss Voigt Hill
#
# Bulk Modulus (GPa) = 40.64760 58.11877 49.38318
# Shear Modulus (GPa) = 28.98799 40.69347 34.84073
#
# Velocity S-wave (km/s) = 3.46581 4.10637 3.79961
# Velocity P-wave (km/s) = 5.73228 6.82391 6.30178
#
# Compressibility (1/GPa) = 0.02460170
#
# Stress axis : x y z
#
# Youngs Moduli (GPa) = 108.90540 95.95296 80.61559
#
# Poissons Ratio (x) = 0.25345 -0.12566
# Poissons Ratio (y) = 0.28766 0.21128
# Poissons Ratio (z) = -0.16976 0.25148
#
# Static dielectric constant tensor:
#      x y z
#    x 2.012090 0.022610 0.089940 
#    y 0.022610 2.088540 0.103130 
#    z 0.089940 0.103130 2.373550 
# 
# From -- ./inp_files/141169.got.cif
#   From: 2010.05.17/outbox.cif.g08.bks.cpg/sg2_71_cif.got.tgz:141169.got - 2010.06.03 11:33:40.
