data_PCOD9044038
_publ_section_title
;
Structure prediction by ZEFSAII (Michael W. Deem and Ramdas Pophale) SiO2 
 PCOD9044038
Probable space group: P -1
;
_chemical_formula_sum "Si O2"
_cell_formula_units_Z 16
_cell_length_a 8.665164
_cell_length_b 9.434476
_cell_length_c 11.355848
_cell_angle_alpha 121.420935
_cell_angle_beta 59.200026
_cell_angle_gamma 111.103249
_cell_volume 674.974234
_symmetry_space_group_name_H-M "P -1"
_symmetry_group_IT_number 2
_symmetry_cell_setting 'triclinic'
loop_
_space_group_symop_operation_xyz
x,y,z
-x,-y,-z
loop_
_atom_site_type_symbol
_atom_site_label
_atom_site_fract_x
_atom_site_fract_y
_atom_site_fract_z
Si Si1 0.475968 0.575602 0.772588
Si Si2 0.267484 0.282549 0.859943
Si Si3 0.007253 0.807679 0.882074
Si Si4 0.859859 0.537378 0.668511
Si Si5 0.900397 0.228321 0.661331
Si Si6 0.577257 0.186077 0.301626
Si Si7 0.750922 0.917733 0.443154
Si Si8 0.534050 0.174202 0.905470
O O1 0.315686 0.440624 0.824437
O O2 0.658192 0.492414 0.681567
O O3 0.469840 0.651927 0.679384
O O4 0.486184 0.731346 0.925315
O O5 0.258355 0.122723 0.708277
O O6 0.427471 0.268501 0.886910
O O7 0.082992 0.282266 0.004603
O O8 0.207951 0.782195 0.754506
O O9 0.886403 0.727852 0.786600
O O10 0.000000 0.000000 0.000000
O O11 0.898444 0.418810 0.709658
O O12 0.000000 0.500000 0.500000
O O13 0.747376 0.184826 0.800317
O O14 0.094849 0.182673 0.603267
O O15 0.822126 0.109136 0.531527
O O16 0.441658 0.141706 0.444844
O O17 0.544648 0.019238 0.160334
#
# Coordination Sequence:
#
# PCOD9044038 Si02
#       8
#     2   2   2   2   2   2   2   2
#     4  12  25  45  69 104 144 180 240 296 354 421
#     4  12  25  44  73 100 141 186 231 294 350 423
#     4  12  27  47  69 107 146 184 241 293 355 426
#     4  12  26  42  72 101 143 190 237 292 359 418
#     4  10  23  46  69 101 139 183 242 289 353 430
#     4  11  26  45  71 102 142 188 233 295 355 420
#     4  10  26  46  72 103 142 185 241 293 359 422
#     4  11  22  46  71 100 136 190 234 290 355 427
#
# _framework density 23.704606999999999
#
# number of rings (size 3 to 8) (size 9 to 14) (size 15 to 20)
#    0.000    0.750    3.750    2.250    7.000    3.000 
#    2.250    0.000    0.000    0.000    0.000    0.000 
#    0.000    0.000    0.000    0.000    0.000    0.000 
#
# Total GULP energy -89554.044726 kJ/mol
# GULP energy per Si atom -5597.127795 kJ/mol
# Density = 2.365065 g / cm^3
# Si number density = 23.704607 Si / 1000 Ang^3
#
#
#
# Elastic Constant Matrix: (Units=GPa)
#
#
# Indices 1 2 3 4 5 6 
#
# 1 62.6827 10.4988 34.3633 -7.2349 -21.9529 19.8251
# 2 10.4988 88.0795 7.4671 -2.5014 -3.7988 8.7135
# 3 34.3633 7.4671 102.3314 -8.4143 1.2910 19.3042
# 4 -7.2349 -2.5014 -8.4143 31.0334 6.2939 -12.9465
# 5 -21.9529 -3.7988 1.2910 6.2939 38.2175 -5.1388
# 6 19.8251 8.7135 19.3042 -12.9465 -5.1388 32.5772
#
#
#
# Elastic Compliance Matrix: (Units=1/GPa)
#
#
# Indices 1 2 3 4 5 6 
#
# 1 0.029548 -0.001076 -0.008124 -0.003580 0.016149 -0.011755
# 2 -0.001076 0.011741 -0.000047 -0.000456 0.000277 -0.002596
# 3 -0.008124 -0.000047 0.013314 0.001540 -0.005810 -0.003238
# 4 -0.003580 -0.000456 0.001540 0.039852 -0.006539 0.016194
# 5 0.016149 0.000277 -0.005810 -0.006539 0.036295 -0.003333
# 6 -0.011755 -0.002596 -0.003238 0.016194 -0.003333 0.046373
#
#
# Mechanical properties :
#
#
# Convention : Reuss Voigt Hill
#
# Bulk Modulus (GPa) = 27.69322 39.75024 33.72173
# Shear Modulus (GPa) = 24.07855 33.74990 28.91422
#
# Velocity S-wave (km/s) = 3.19058 3.77738 3.49631
# Velocity P-wave (km/s) = 5.02803 5.98583 5.52771
#
# Compressibility (1/GPa) = 0.03610993
#
# Stress axis : x y z
#
# Youngs Moduli (GPa) = 33.84334 85.16911 75.10620
#
# Poissons Ratio (x) = 0.09160 0.61020
# Poissons Ratio (y) = 0.03640 0.00352
# Poissons Ratio (z) = 0.27496 0.00400
#
# Static dielectric constant tensor:
#      x y z
#    x 1.863470 -0.043150 0.026620 
#    y -0.043150 1.815780 0.065670 
#    z 0.026620 0.065670 1.865160 
# 
# From -- ./inp_files/383132.got.cif
#   From: 2010.05.17/outbox.cif.g08.bks.cpg/sg2_192_cif.got.tgz:383132.got - 2010.06.03 11:33:40.
