data_PCOD9044576
_publ_section_title
;
Structure prediction by ZEFSAII (Michael W. Deem and Ramdas Pophale) SiO2 
 PCOD9044576
Probable space group: P -1
;
_chemical_formula_sum "Si O2"
_cell_formula_units_Z 16
_cell_length_a 13.957701
_cell_length_b 11.657267
_cell_length_c 8.423626
_cell_angle_alpha 47.322000
_cell_angle_beta 53.168852
_cell_angle_gamma 49.734369
_cell_volume 736.397825
_symmetry_space_group_name_H-M "P -1"
_symmetry_group_IT_number 2
_symmetry_cell_setting 'triclinic'
loop_
_space_group_symop_operation_xyz
x,y,z
-x,-y,-z
loop_
_atom_site_type_symbol
_atom_site_label
_atom_site_fract_x
_atom_site_fract_y
_atom_site_fract_z
Si Si1 0.285754 0.528134 0.384058
Si Si2 0.644218 0.981152 0.327344
Si Si3 0.461468 0.486360 0.732071
Si Si4 0.008522 0.877183 0.854267
Si Si5 0.110907 0.346494 0.635641
Si Si6 0.742406 0.251769 0.100730
Si Si7 0.186738 0.836364 0.414420
Si Si8 0.423189 0.910537 0.058719
O O1 0.442348 0.458247 0.306041
O O2 0.201296 0.418595 0.575100
O O3 0.248195 0.649524 0.458615
O O4 0.249223 0.630619 0.160328
O O5 0.771228 0.814338 0.416932
O O6 0.500000 0.000000 0.500000
O O7 0.662754 0.145446 0.219858
O O8 0.638732 0.984682 0.137512
O O9 0.500000 0.500000 0.500000
O O10 0.321493 0.619835 0.808267
O O11 0.488984 0.285059 0.905196
O O12 0.113960 0.883936 0.867298
O O13 0.085939 0.842179 0.643850
O O14 0.885411 0.049041 0.773798
O O15 0.962596 0.735956 0.099267
O O16 0.000000 0.500000 0.500000
O O17 0.302493 0.895463 0.290054
O O18 0.500000 0.000000 0.000000
#
# Coordination Sequence:
#
# PCOD9044576 Si02
#       8
#     2   2   2   2   2   2   2   2
#     4  11  23  42  69  95 140 179 238 298 360 422
#     4  12  28  45  72 108 143 191 244 300 368 428
#     4  11  25  43  70 101 137 189 239 294 363 428
#     4  11  24  43  71  96 139 185 240 289 366 433
#     4  12  26  45  69 108 146 185 240 308 362 427
#     4  12  23  44  73  99 142 188 239 296 364 438
#     4  10  23  47  68 100 134 193 237 290 360 439
#     4  11  25  46  70 101 145 182 233 299 364 431
#
# _framework density 21.727385000000002
#
# number of rings (size 3 to 8) (size 9 to 14) (size 15 to 20)
#    0.000    0.750    5.000    2.625    8.750    1.500 
#    0.000    2.500    0.000    0.000    0.000    0.000 
#    0.000    0.000    0.000    0.000    0.000    0.000 
#
# Total GULP energy -89281.035949 kJ/mol
# GULP energy per Si atom -5580.064747 kJ/mol
# Density = 2.167793 g / cm^3
# Si number density = 21.727385 Si / 1000 Ang^3
#
#
#
# Elastic Constant Matrix: (Units=GPa)
#
#
# Indices 1 2 3 4 5 6 
#
# 1 123.3318 39.4503 38.7298 -20.1303 -21.4129 3.0920
# 2 39.4503 96.2458 28.8262 -0.6420 -10.7382 -12.4272
# 3 38.7298 28.8262 114.2981 1.1851 -22.9979 0.4409
# 4 -20.1303 -0.6420 1.1851 33.5079 0.0562 2.1332
# 5 -21.4129 -10.7382 -22.9979 0.0562 51.3382 -8.4474
# 6 3.0920 -12.4272 0.4409 2.1332 -8.4474 34.2416
#
#
#
# Elastic Compliance Matrix: (Units=1/GPa)
#
#
# Indices 1 2 3 4 5 6 
#
# 1 0.011919 -0.004086 -0.002556 0.007318 0.002577 -0.002346
# 2 -0.004086 0.013456 -0.001749 -0.002503 0.001275 0.005746
# 3 -0.002556 -0.001749 0.010773 -0.001984 0.003468 0.000437
# 4 0.007318 -0.002503 -0.001984 0.034479 0.001037 -0.003436
# 5 0.002577 0.001275 0.003468 0.001037 0.023340 0.005879
# 6 -0.002346 0.005746 0.000437 -0.003436 0.005879 0.033160
#
#
# Mechanical properties :
#
#
# Convention : Reuss Voigt Hill
#
# Bulk Modulus (GPa) = 51.63917 60.87646 56.25782
# Shear Modulus (GPa) = 33.25247 38.94217 36.09732
#
# Velocity S-wave (km/s) = 3.91633 4.23816 4.08042
# Velocity P-wave (km/s) = 6.65347 7.21308 6.93892
#
# Compressibility (1/GPa) = 0.01936515
#
# Stress axis : x y z
#
# Youngs Moduli (GPa) = 83.90149 74.31523 92.82507
#
# Poissons Ratio (x) = 0.30368 0.23729
# Poissons Ratio (y) = 0.34285 0.16232
# Poissons Ratio (z) = 0.21448 0.12996
#
# Static dielectric constant tensor:
#      x y z
#    x 1.867510 -0.045000 -0.008180 
#    y -0.045000 1.845560 -0.022920 
#    z -0.008180 -0.022920 1.825630 
# 
# From -- ./inp_files/306137.got.cif
#   From: 2010.05.17/outbox.cif.g08.bks.cpg/sg2_154_cif.got.tgz:306137.got - 2010.06.03 11:33:40.
