data_PCOD9044501
_publ_section_title
;
Structure prediction by ZEFSAII (Michael W. Deem and Ramdas Pophale) SiO2 
 PCOD9044501
Probable space group: P -1
;
_chemical_formula_sum "Si O2"
_cell_formula_units_Z 14
_cell_length_a 11.612884
_cell_length_b 8.092274
_cell_length_c 12.925647
_cell_angle_alpha 131.276979
_cell_angle_beta 49.857250
_cell_angle_gamma 93.440381
_cell_volume 538.598478
_symmetry_space_group_name_H-M "P -1"
_symmetry_group_IT_number 2
_symmetry_cell_setting 'triclinic'
loop_
_space_group_symop_operation_xyz
x,y,z
-x,-y,-z
loop_
_atom_site_type_symbol
_atom_site_label
_atom_site_fract_x
_atom_site_fract_y
_atom_site_fract_z
Si Si1 0.907979 0.860364 0.386716
Si Si2 0.773680 0.146660 0.187071
Si Si3 0.649033 0.002741 0.788585
Si Si4 0.867475 0.858562 0.807175
Si Si5 0.673075 0.494242 0.565074
Si Si6 0.333962 0.974472 0.598079
Si Si7 0.778346 0.462202 0.777624
O O1 0.840852 0.835034 0.304307
O O2 0.854829 0.165961 0.561151
O O3 0.779362 0.865788 0.553546
O O4 0.129982 0.618756 0.193995
O O5 0.663758 0.456085 0.430722
O O6 0.736273 0.988992 0.227658
O O7 0.747319 0.095147 0.064521
O O8 0.000000 0.000000 0.000000
O O9 0.596347 0.801478 0.766930
O O10 0.226531 0.013276 0.196645
O O11 0.453237 0.311456 0.002305
O O12 0.854243 0.611195 0.737971
O O13 0.094153 0.714824 0.629139
O O14 0.592660 0.344507 0.599016
O O15 0.500000 0.000000 0.500000
#
# Coordination Sequence:
#
# PCOD9044501 Si02
#       7
#     2   2   2   2   2   2   2
#     4  11  26  47  71 111 154 192 246 315 385 442
#     4   8  20  41  76 107 142 193 250 298 371 445
#     4  12  24  43  77 113 146 195 256 310 372 451
#     4  11  21  43  75 111 145 191 255 311 367 446
#     4   9  21  43  76 106 147 198 249 309 372 442
#     4  10  23  46  78 105 150 202 247 306 379 447
#     4  11  26  43  73 108 150 195 244 316 379 445
#
# _framework density 25.993389000000001
#
# number of rings (size 3 to 8) (size 9 to 14) (size 15 to 20)
#    0.857    0.857    1.429    2.143    6.000    0.000 
#    0.000    5.000    0.000    0.000    0.000    0.000 
#    0.000    0.000    0.000    0.000    0.000    0.000 
#
# Total GULP energy -78395.940998 kJ/mol
# GULP energy per Si atom -5599.710071 kJ/mol
# Density = 2.593423 g / cm^3
# Si number density = 25.993389 Si / 1000 Ang^3
#
#
#
# Elastic Constant Matrix: (Units=GPa)
#
#
# Indices 1 2 3 4 5 6 
#
# 1 184.7836 64.9667 50.0154 10.0281 -12.1210 -17.9792
# 2 64.9667 127.7985 42.6093 -3.3162 -16.1033 6.8873
# 3 50.0154 42.6093 90.9976 15.6834 -3.9093 -9.9399
# 4 10.0281 -3.3162 15.6834 45.1188 -2.2136 -11.3626
# 5 -12.1210 -16.1033 -3.9093 -2.2136 47.4591 -0.1642
# 6 -17.9792 6.8873 -9.9399 -11.3626 -0.1642 63.6909
#
#
#
# Elastic Compliance Matrix: (Units=1/GPa)
#
#
# Indices 1 2 3 4 5 6 
#
# 1 0.007353 -0.003008 -0.002300 -0.000533 0.000650 0.001948
# 2 -0.003008 0.011298 -0.004199 0.002526 0.002829 -0.002268
# 3 -0.002300 -0.004199 0.015145 -0.004779 -0.000983 0.001313
# 4 -0.000533 0.002526 -0.004779 0.025034 0.001506 0.003301
# 5 0.000650 0.002829 -0.000983 0.001506 0.022186 0.000050
# 6 0.001948 -0.002268 0.001313 0.003301 0.000050 0.017290
#
#
# Mechanical properties :
#
#
# Convention : Reuss Voigt Hill
#
# Bulk Modulus (GPa) = 67.65060 79.86249 73.75654
# Shear Modulus (GPa) = 40.90078 47.65301 44.27690
#
# Velocity S-wave (km/s) = 3.97105 4.28632 4.13169
# Velocity P-wave (km/s) = 6.86354 7.43556 7.15527
#
# Compressibility (1/GPa) = 0.01478184
#
# Stress axis : x y z
#
# Youngs Moduli (GPa) = 135.99772 88.51085 66.03057
#
# Poissons Ratio (x) = 0.26624 0.15190
# Poissons Ratio (y) = 0.40907 0.27723
# Poissons Ratio (z) = 0.31285 0.37162
#
# Static dielectric constant tensor:
#      x y z
#    x 2.056290 -0.027010 0.014290 
#    y -0.027010 2.040380 -0.033400 
#    z 0.014290 -0.033400 2.078410 
# 
# From -- ./inp_files/527709.got.cif
#   From: 2010.05.17/outbox.cif.g08.bks.cpg/sg2_264_cif.got.tgz:527709.got - 2010.06.03 11:33:40.
