data_PCOD9044821
_publ_section_title
;
Structure prediction by ZEFSAII (Michael W. Deem and Ramdas Pophale) SiO2 
 PCOD9044821
Probable space group: P -1
;
_chemical_formula_sum "Si O2"
_cell_formula_units_Z 16
_cell_length_a 14.325209
_cell_length_b 8.707254
_cell_length_c 8.131076
_cell_angle_alpha 50.811146
_cell_angle_beta 98.634978
_cell_angle_gamma 124.878303
_cell_volume 608.268688
_symmetry_space_group_name_H-M "P -1"
_symmetry_group_IT_number 2
_symmetry_cell_setting 'triclinic'
loop_
_space_group_symop_operation_xyz
x,y,z
-x,-y,-z
loop_
_atom_site_type_symbol
_atom_site_label
_atom_site_fract_x
_atom_site_fract_y
_atom_site_fract_z
Si Si1 0.223483 0.794188 0.031304
Si Si2 0.381250 0.613875 0.603307
Si Si3 0.401641 0.843042 0.794294
Si Si4 0.812557 0.808979 0.386739
Si Si5 0.943732 0.834289 0.932605
Si Si6 0.594640 0.784127 0.962510
Si Si7 0.028803 0.564422 0.658000
Si Si8 0.759376 0.845418 0.698563
O O1 0.292634 0.763603 0.932685
O O2 0.201279 0.987135 0.827757
O O3 0.096728 0.534439 0.224573
O O4 0.309178 0.945459 0.107782
O O5 0.367881 0.746393 0.663454
O O6 0.260509 0.435910 0.583920
O O7 0.498200 0.851710 0.380046
O O8 0.408457 0.425987 0.798228
O O9 0.470575 0.739037 0.948602
O O10 0.749939 0.727259 0.601910
O O11 0.956912 0.975213 0.306924
O O12 0.818796 0.773903 0.894825
O O13 0.937553 0.595325 0.132719
O O14 0.000000 0.000000 0.000000
O O15 0.646108 0.800133 0.784893
O O16 0.000000 0.500000 0.500000
O O17 0.139053 0.855799 0.505771
#
# Coordination Sequence:
#
# PCOD9044821 Si02
#       8
#     2   2   2   2   2   2   2   2
#     4  10  23  47  74 113 147 191 255 303 369 448
#     4  10  25  50  74 102 148 198 248 314 374 431
#     4  11  25  48  80 108 141 197 254 308 380 434
#     4  10  25  46  70 108 154 196 244 310 368 445
#     4  11  22  44  72 106 150 194 251 297 363 443
#     4  11  24  47  73 110 152 192 245 310 367 447
#     4  11  22  46  77 107 154 200 234 309 367 437
#     4  12  25  45  73 112 152 199 247 293 377 444
#
# _framework density 26.304165999999999
#
# number of rings (size 3 to 8) (size 9 to 14) (size 15 to 20)
#    0.000    1.250    2.500    2.625    3.500    7.000 
#   11.250    2.500    0.000    0.000    0.000    0.000 
#    0.000    0.000    0.000    0.000    0.000    0.000 
#
# Total GULP energy -89895.335237 kJ/mol
# GULP energy per Si atom -5618.458452 kJ/mol
# Density = 2.624430 g / cm^3
# Si number density = 26.304166 Si / 1000 Ang^3
#
#
#
# Elastic Constant Matrix: (Units=GPa)
#
#
# Indices 1 2 3 4 5 6 
#
# 1 125.1070 6.3726 39.5824 -6.0446 -17.4372 -8.9526
# 2 6.3726 88.7620 21.2552 -12.1460 4.7770 1.4141
# 3 39.5824 21.2552 140.5902 -30.2309 -9.7651 -10.2105
# 4 -6.0446 -12.1460 -30.2309 50.2047 -4.5613 1.7052
# 5 -17.4372 4.7770 -9.7651 -4.5613 46.9588 6.3433
# 6 -8.9526 1.4141 -10.2105 1.7052 6.3433 29.3929
#
#
#
# Elastic Compliance Matrix: (Units=1/GPa)
#
#
# Indices 1 2 3 4 5 6 
#
# 1 0.009213 -0.000306 -0.002279 -0.000135 0.002771 0.001439
# 2 -0.000306 0.011989 -0.001487 0.001882 -0.001323 -0.001010
# 3 -0.002279 -0.001487 0.009309 0.005036 0.001459 0.002004
# 4 -0.000135 0.001882 0.005036 0.023693 0.003167 -0.000440
# 5 0.002771 -0.001323 0.001459 0.003167 0.023591 -0.003861
# 6 0.001439 -0.001010 0.002004 -0.000440 -0.003861 0.036063
#
#
# Mechanical properties :
#
#
# Convention : Reuss Voigt Hill
#
# Bulk Modulus (GPa) = 44.71083 54.31995 49.51539
# Shear Modulus (GPa) = 38.62251 44.46121 41.54186
#
# Velocity S-wave (km/s) = 3.83600 4.11575 3.97834
# Velocity P-wave (km/s) = 6.05429 6.57886 6.32202
#
# Compressibility (1/GPa) = 0.02236595
#
# Stress axis : x y z
#
# Youngs Moduli (GPa) = 108.54740 83.40979 107.42073
#
# Poissons Ratio (x) = 0.02552 0.24486
# Poissons Ratio (y) = 0.03322 0.15972
# Poissons Ratio (z) = 0.24743 0.12402
#
# Static dielectric constant tensor:
#      x y z
#    x 2.024580 0.005020 0.014040 
#    y 0.005020 2.042660 0.014720 
#    z 0.014040 0.014720 2.077340 
# 
# From -- ./inp_files/294151.got.cif
#   From: 2010.05.17/outbox.cif.g08.bks.cpg/sg2_148_cif.got.tgz:294151.got - 2010.06.03 11:33:40.
