data_PCOD9044969
_publ_section_title
;
Structure prediction by ZEFSAII (Michael W. Deem and Ramdas Pophale) SiO2 
 PCOD9044969
Probable space group: P -1
;
_chemical_formula_sum "Si O2"
_cell_formula_units_Z 16
_cell_length_a 21.546736
_cell_length_b 6.626414
_cell_length_c 5.702081
_cell_angle_alpha 104.561181
_cell_angle_beta 70.763290
_cell_angle_gamma 115.953520
_cell_volume 685.616918
_symmetry_space_group_name_H-M "P -1"
_symmetry_group_IT_number 2
_symmetry_cell_setting 'triclinic'
loop_
_space_group_symop_operation_xyz
x,y,z
-x,-y,-z
loop_
_atom_site_type_symbol
_atom_site_label
_atom_site_fract_x
_atom_site_fract_y
_atom_site_fract_z
Si Si1 0.844763 0.021825 0.650555
Si Si2 0.105300 0.557974 0.989740
Si Si3 0.665182 0.291044 0.279884
Si Si4 0.553884 0.897019 0.009807
Si Si5 0.036234 0.109167 0.738006
Si Si6 0.448223 0.510614 0.363205
Si Si7 0.794715 0.610097 0.910255
Si Si8 0.767984 0.222499 0.464833
O O1 0.784251 0.064176 0.587786
O O2 0.888346 0.917864 0.399861
O O3 0.810285 0.854686 0.860468
O O4 0.899221 0.258362 0.765776
O O5 0.048125 0.372251 0.840485
O O6 0.167808 0.706167 0.780159
O O7 0.135256 0.406151 0.068726
O O8 0.613696 0.404516 0.476347
O O9 0.695777 0.163574 0.392538
O O10 0.618849 0.102336 0.099580
O O11 0.731325 0.492414 0.136905
O O12 0.502496 0.706474 0.191412
O O13 0.582290 0.743627 0.771045
O O14 0.500000 0.000000 0.000000
O O15 0.000000 0.000000 0.500000
O O16 0.000000 0.000000 0.000000
O O17 0.500000 0.500000 0.500000
O O18 0.775268 0.446155 0.663017
#
# Coordination Sequence:
#
# PCOD9044969 Si02
#       8
#     2   2   2   2   2   2   2   2
#     4  11  25  49  78 102 154 197 241 311 392 423
#     4  10  24  48  73 106 151 193 247 305 380 436
#     4  11  25  47  70 106 146 180 256 298 366 461
#     4  11  25  47  71 100 144 188 237 306 373 440
#     4  12  28  48  79 116 154 204 258 313 370 468
#     4  11  25  47  70 101 138 196 229 297 380 431
#     4  10  23  48  70 107 145 193 240 318 365 444
#     4  10  24  46  72 105 141 193 241 308 368 443
#
# _framework density 23.336645999999998
#
# number of rings (size 3 to 8) (size 9 to 14) (size 15 to 20)
#    0.000    1.250    2.500    1.125    7.000    1.000 
#   18.000    0.000    0.000    0.000    0.000    0.000 
#    0.000    0.000    0.000    0.000    0.000    0.000 
#
# Total GULP energy -89406.966956 kJ/mol
# GULP energy per Si atom -5587.935435 kJ/mol
# Density = 2.328353 g / cm^3
# Si number density = 23.336646 Si / 1000 Ang^3
#
#
#
# Elastic Constant Matrix: (Units=GPa)
#
#
# Indices 1 2 3 4 5 6 
#
# 1 105.8596 61.1934 29.7858 0.4325 23.8561 -6.9107
# 2 61.1934 139.7938 47.6194 1.4981 11.0063 -20.3678
# 3 29.7858 47.6194 92.7133 7.9962 3.4412 -5.0315
# 4 0.4325 1.4981 7.9962 48.4319 -7.3164 8.1123
# 5 23.8561 11.0063 3.4412 -7.3164 51.7040 -1.7350
# 6 -6.9107 -20.3678 -5.0315 8.1123 -1.7350 31.5411
#
#
#
# Elastic Compliance Matrix: (Units=1/GPa)
#
#
# Indices 1 2 3 4 5 6 
#
# 1 0.014140 -0.005329 -0.001618 -0.000370 -0.005361 -0.000801
# 2 -0.005329 0.011661 -0.003917 -0.000604 0.000350 0.005912
# 3 -0.001618 -0.003917 0.013464 -0.001994 0.000395 -0.000202
# 4 -0.000370 -0.000604 -0.001994 0.022588 0.003413 -0.006411
# 5 -0.005361 0.000350 0.000395 0.003413 0.022178 -0.000543
# 6 -0.000801 0.005912 -0.000202 -0.006411 -0.000543 0.036934
#
#
# Mechanical properties :
#
#
# Convention : Reuss Voigt Hill
#
# Bulk Modulus (GPa) = 57.02619 68.39600 62.71110
# Shear Modulus (GPa) = 33.66130 39.65326 36.65728
#
# Velocity S-wave (km/s) = 3.80204 4.12659 3.96764
# Velocity P-wave (km/s) = 6.61539 7.21644 6.92244
#
# Compressibility (1/GPa) = 0.01753580
#
# Stress axis : x y z
#
# Youngs Moduli (GPa) = 70.72336 85.75791 74.27158
#
# Poissons Ratio (x) = 0.45700 0.12018
# Poissons Ratio (y) = 0.37688 0.29094
# Poissons Ratio (z) = 0.11444 0.33594
#
# Static dielectric constant tensor:
#      x y z
#    x 1.864100 0.014270 0.034560 
#    y 0.014270 1.855680 0.022020 
#    z 0.034560 0.022020 1.922910 
# 
# From -- ./inp_files/121746.got.cif
#   From: 2010.05.17/outbox.cif.g08.bks.cpg/sg2_61_cif.got.tgz:121746.got - 2010.06.03 11:33:40.
