data_PCOD9044490
_publ_section_title
;
Structure prediction by ZEFSAII (Michael W. Deem and Ramdas Pophale) SiO2 
 PCOD9044490
Probable space group: P -1
;
_chemical_formula_sum "Si O2"
_cell_formula_units_Z 12
_cell_length_a 4.980853
_cell_length_b 11.145115
_cell_length_c 12.426740
_cell_angle_alpha 108.386953
_cell_angle_beta 125.073126
_cell_angle_gamma 56.245505
_cell_volume 469.394547
_symmetry_space_group_name_H-M "P -1"
_symmetry_group_IT_number 2
_symmetry_cell_setting 'triclinic'
loop_
_space_group_symop_operation_xyz
x,y,z
-x,-y,-z
loop_
_atom_site_type_symbol
_atom_site_label
_atom_site_fract_x
_atom_site_fract_y
_atom_site_fract_z
Si Si1 0.307976 0.301924 0.544232
Si Si2 0.359753 0.243834 0.306168
Si Si3 0.415286 0.876815 0.900112
Si Si4 0.328269 0.396244 0.968189
Si Si5 0.861511 0.001109 0.630948
Si Si6 0.185585 0.571148 0.332061
O O1 0.178670 0.266811 0.390296
O O2 0.714953 0.170052 0.634276
O O3 0.431918 0.424280 0.597953
O O4 0.015563 0.339688 0.582398
O O5 0.309394 0.197464 0.160657
O O6 0.295719 0.404043 0.317771
O O7 0.777761 0.111039 0.384054
O O8 0.453887 0.752698 0.955934
O O9 0.001278 0.954340 0.772351
O O10 0.500000 0.000000 0.000000
O O11 0.500000 0.500000 0.000000
O O12 0.000000 0.500000 0.000000
O O13 0.131674 0.364956 0.813737
O O14 0.500000 0.000000 0.500000
#
# Coordination Sequence:
#
# PCOD9044490 Si02
#       6
#     2   2   2   2   2   2
#     4  12  25  46  75 116 151 207 259 326 402 475
#     4  10  24  45  77 109 159 195 265 324 397 464
#     4  10  24  49  81 114 160 211 271 326 403 481
#     4  12  25  50  78 110 158 212 264 330 401 477
#     4  10  23  46  77 110 159 204 259 329 399 467
#     4  12  26  46  78 111 156 204 266 326 398 477
#
# _framework density 25.564845999999999
#
# number of rings (size 3 to 8) (size 9 to 14) (size 15 to 20)
#    1.000    0.000    1.667    4.500    0.000    2.667 
#    0.000    1.667    0.000    0.000    0.000    0.000 
#    0.000    0.000    0.000    0.000    0.000    0.000 
#
# Total GULP energy -67027.157139 kJ/mol
# GULP energy per Si atom -5585.596428 kJ/mol
# Density = 2.550666 g / cm^3
# Si number density = 25.564846 Si / 1000 Ang^3
#
#
#
# Elastic Constant Matrix: (Units=GPa)
#
#
# Indices 1 2 3 4 5 6 
#
# 1 124.8084 16.6758 48.2395 11.8488 -10.9952 4.4087
# 2 16.6758 155.0230 58.3805 -7.4924 -13.2578 7.7238
# 3 48.2395 58.3805 201.2560 -0.1297 -7.9306 20.9203
# 4 11.8488 -7.4924 -0.1297 62.1784 0.2356 -3.9404
# 5 -10.9952 -13.2578 -7.9306 0.2356 40.2883 7.0528
# 6 4.4087 7.7238 20.9203 -3.9404 7.0528 45.7777
#
#
#
# Elastic Compliance Matrix: (Units=1/GPa)
#
#
# Indices 1 2 3 4 5 6 
#
# 1 0.009193 -0.000100 -0.002047 -0.001803 0.002157 -0.000421
# 2 -0.000100 0.007467 -0.001996 0.000869 0.002136 -0.000592
# 3 -0.002047 -0.001996 0.006307 0.000008 0.000449 -0.002417
# 4 -0.001803 0.000869 0.000008 0.016631 -0.000572 0.001543
# 5 0.002157 0.002136 0.000449 -0.000572 0.027079 -0.004995
# 6 -0.000421 -0.000592 -0.002417 0.001543 -0.004995 0.023992
#
#
# Mechanical properties :
#
#
# Convention : Reuss Voigt Hill
#
# Bulk Modulus (GPa) = 68.10920 80.85324 74.48122
# Shear Modulus (GPa) = 48.14708 53.50166 50.82437
#
# Velocity S-wave (km/s) = 4.34444 4.57966 4.46360
# Velocity P-wave (km/s) = 7.20175 7.72397 7.46743
#
# Compressibility (1/GPa) = 0.01468230
#
# Stress axis : x y z
#
# Youngs Moduli (GPa) = 108.78035 133.91925 158.54478
#
# Poissons Ratio (x) = 0.01335 0.32454
# Poissons Ratio (y) = 0.01084 0.31644
# Poissons Ratio (z) = 0.22267 0.26729
#
# Static dielectric constant tensor:
#      x y z
#    x 2.106760 0.174550 0.081050 
#    y 0.174550 2.361360 0.000210 
#    z 0.081050 0.000210 2.060230 
# 
# From -- ./inp_files/365116.got.cif
#   From: 2010.05.17/outbox.cif.g08.bks.cpg/sg2_183_cif.got.tgz:365116.got - 2010.06.03 11:33:40.
