data_PCOD9044948
_publ_section_title
;
Structure prediction by ZEFSAII (Michael W. Deem and Ramdas Pophale) SiO2 
 PCOD9044948
Probable space group: P -1
;
_chemical_formula_sum "Si O2"
_cell_formula_units_Z 16
_cell_length_a 6.570739
_cell_length_b 5.578699
_cell_length_c 22.969938
_cell_angle_alpha 101.223889
_cell_angle_beta 54.237646
_cell_angle_gamma 104.349532
_cell_volume 660.586049
_symmetry_space_group_name_H-M "P -1"
_symmetry_group_IT_number 2
_symmetry_cell_setting 'triclinic'
loop_
_space_group_symop_operation_xyz
x,y,z
-x,-y,-z
loop_
_atom_site_type_symbol
_atom_site_label
_atom_site_fract_x
_atom_site_fract_y
_atom_site_fract_z
Si Si1 0.962836 0.879129 0.231006
Si Si2 0.343601 0.275736 0.252275
Si Si3 0.646458 0.302718 0.433955
Si Si4 0.483044 0.487847 0.650211
Si Si5 0.591841 0.412220 0.845630
Si Si6 0.797296 0.154489 0.515679
Si Si7 0.816592 0.027295 0.134055
Si Si8 0.374143 0.245333 0.041061
O O1 0.180981 0.714937 0.172998
O O2 0.715125 0.717183 0.292812
O O3 0.100174 0.081784 0.263538
O O4 0.884737 0.982512 0.187790
O O5 0.398278 0.312777 0.312598
O O6 0.336081 0.530688 0.231217
O O7 0.596659 0.191435 0.180383
O O8 0.500000 0.500000 0.500000
O O9 0.679632 0.407427 0.368471
O O10 0.848497 0.245375 0.445033
O O11 0.459706 0.044588 0.448523
O O12 0.714917 0.375745 0.577163
O O13 0.601245 0.664675 0.891686
O O14 0.322225 0.229674 0.883618
O O15 0.000000 0.000000 0.500000
O O16 0.078776 0.163091 0.069433
O O17 0.500000 0.500000 0.000000
O O18 0.500000 0.000000 0.000000
#
# Coordination Sequence:
#
# PCOD9044948 Si02
#       8
#     2   2   2   2   2   2   2   2
#     4  11  24  46  71 107 146 190 238 312 377 440
#     4  11  25  44  73 108 139 192 239 305 381 435
#     4   9  22  46  65  95 136 185 225 293 362 426
#     4  11  24  44  71 104 141 181 250 295 370 456
#     4  11  25  47  73 104 149 196 244 309 386 430
#     4  10  23  48  69  97 142 188 234 297 368 435
#     4  11  25  47  75 100 157 189 242 315 379 432
#     4  12  28  47  76 113 152 209 261 304 374 465
#
# _framework density 24.220915999999999
#
# number of rings (size 3 to 8) (size 9 to 14) (size 15 to 20)
#    0.000    1.250    2.500    1.500    5.250    3.000 
#   18.000    0.000    0.000    0.000    0.000    0.000 
#    0.000    0.000    0.000    0.000    0.000    0.000 
#
# Total GULP energy -89522.462147 kJ/mol
# GULP energy per Si atom -5595.153884 kJ/mol
# Density = 2.416579 g / cm^3
# Si number density = 24.220916 Si / 1000 Ang^3
#
#
#
# Elastic Constant Matrix: (Units=GPa)
#
#
# Indices 1 2 3 4 5 6 
#
# 1 148.5452 48.6946 48.0159 0.7215 -7.8869 -4.6675
# 2 48.6946 87.4508 25.9245 2.1180 -7.4613 9.0893
# 3 48.0159 25.9245 71.4643 2.1473 0.5423 2.8640
# 4 0.7215 2.1180 2.1473 55.1971 0.8969 4.8246
# 5 -7.8869 -7.4613 0.5423 0.8969 39.9854 -13.3609
# 6 -4.6675 9.0893 2.8640 4.8246 -13.3609 62.4686
#
#
#
# Elastic Compliance Matrix: (Units=1/GPa)
#
#
# Indices 1 2 3 4 5 6 
#
# 1 0.009923 -0.003990 -0.005315 0.000025 0.001946 0.001980
# 2 -0.003990 0.014756 -0.002593 -0.000258 0.001332 -0.002021
# 3 -0.005315 -0.002593 0.018586 -0.000403 -0.002214 -0.001314
# 4 0.000025 -0.000258 -0.000403 0.018294 -0.000970 -0.001562
# 5 0.001946 0.001332 -0.002214 -0.000970 0.027717 0.006056
# 6 0.001980 -0.002021 -0.001314 -0.001562 0.006056 0.017926
#
#
# Mechanical properties :
#
#
# Convention : Reuss Voigt Hill
#
# Bulk Modulus (GPa) = 51.36400 61.41448 56.38924
# Shear Modulus (GPa) = 36.36660 43.85189 40.10924
#
# Velocity S-wave (km/s) = 3.87906 4.25961 4.07378
# Velocity P-wave (km/s) = 6.42770 7.04297 6.74236
#
# Compressibility (1/GPa) = 0.01946889
#
# Stress axis : x y z
#
# Youngs Moduli (GPa) = 100.77198 67.77066 53.80360
#
# Poissons Ratio (x) = 0.27043 0.28595
# Poissons Ratio (y) = 0.40212 0.13951
# Poissons Ratio (z) = 0.53557 0.17573
#
# Static dielectric constant tensor:
#      x y z
#    x 2.111160 -0.554180 -0.373310 
#    y -0.554180 3.427380 1.085570 
#    z -0.373310 1.085570 2.810540 
# 
# From -- ./inp_files/11174.got.cif
#   From: 2010.05.17/outbox.cif.g08.bks.cpg/sg2_6_cif.got.tgz:11174.got - 2010.06.03 11:33:40.
