data_PCOD9044736
_publ_section_title
;
Structure prediction by ZEFSAII (Michael W. Deem and Ramdas Pophale) SiO2 
 PCOD9044736
Probable space group: P -1
;
_chemical_formula_sum "Si O2"
_cell_formula_units_Z 16
_cell_length_a 8.474834
_cell_length_b 7.308188
_cell_length_c 13.726959
_cell_angle_alpha 124.823530
_cell_angle_beta 96.447491
_cell_angle_gamma 108.966371
_cell_volume 609.517645
_symmetry_space_group_name_H-M "P -1"
_symmetry_group_IT_number 2
_symmetry_cell_setting 'triclinic'
loop_
_space_group_symop_operation_xyz
x,y,z
-x,-y,-z
loop_
_atom_site_type_symbol
_atom_site_label
_atom_site_fract_x
_atom_site_fract_y
_atom_site_fract_z
Si Si1 0.914921 0.603970 0.851874
Si Si2 0.276947 0.623246 0.553443
Si Si3 0.822714 0.997199 0.442318
Si Si4 0.442289 0.830801 0.817148
Si Si5 0.809356 0.553234 0.183121
Si Si6 0.298935 0.123566 0.390959
Si Si7 0.367215 0.595351 0.063667
Si Si8 0.169874 0.037400 0.151558
O O1 0.723518 0.466324 0.854524
O O2 0.908230 0.769329 0.811610
O O3 0.001953 0.432427 0.769409
O O4 0.941565 0.191830 0.999793
O O5 0.282566 0.651760 0.678798
O O6 0.231647 0.336299 0.444268
O O7 0.490663 0.771380 0.586779
O O8 0.176054 0.762340 0.538188
O O9 0.763908 0.763203 0.290371
O O10 0.708941 0.948611 0.518591
O O11 0.000000 0.000000 0.500000
O O12 0.346151 0.728684 0.881912
O O13 0.621344 0.801343 0.819009
O O14 0.518588 0.108445 0.862028
O O15 0.800760 0.550808 0.065646
O O16 0.188903 0.961338 0.239510
O O17 0.500000 0.500000 0.000000
#
# Coordination Sequence:
#
# PCOD9044736 Si02
#       8
#     2   2   2   2   2   2   2   2
#     4  11  26  45  69 108 142 186 239 300 367 437
#     4  10  23  47  72 105 139 191 244 299 351 432
#     4  12  28  44  70 110 145 191 241 298 369 430
#     4  11  23  46  70 100 144 191 239 293 364 433
#     4  12  26  45  69 103 149 189 238 298 362 440
#     4  10  23  48  75 101 143 189 241 300 360 425
#     4  12  26  43  71 103 140 188 244 300 361 435
#     4  10  24  44  75  99 142 188 237 301 370 426
#
# _framework density 26.250264000000001
#
# number of rings (size 3 to 8) (size 9 to 14) (size 15 to 20)
#    0.000    1.000    2.500    2.625    7.000    2.500 
#    0.000    0.000    0.000    0.000    0.000    0.000 
#    0.000    0.000    0.000    0.000    0.000    0.000 
#
# Total GULP energy -89406.994858 kJ/mol
# GULP energy per Si atom -5587.937179 kJ/mol
# Density = 2.619052 g / cm^3
# Si number density = 26.250264 Si / 1000 Ang^3
#
#
#
# Elastic Constant Matrix: (Units=GPa)
#
#
# Indices 1 2 3 4 5 6 
#
# 1 102.5374 33.2298 -7.2325 0.0030 -9.7464 -18.7986
# 2 33.2298 98.0531 26.0685 -6.6638 -7.4344 -19.1840
# 3 -7.2325 26.0685 59.0339 0.3134 -5.7343 4.0680
# 4 0.0030 -6.6638 0.3134 34.6243 2.2326 -9.2984
# 5 -9.7464 -7.4344 -5.7343 2.2326 33.8785 -2.0093
# 6 -18.7986 -19.1840 4.0680 -9.2984 -2.0093 55.0287
#
#
#
# Elastic Compliance Matrix: (Units=1/GPa)
#
#
# Indices 1 2 3 4 5 6 
#
# 1 0.012187 -0.004391 0.003591 -0.000445 0.003323 0.002413
# 2 -0.004391 0.015001 -0.007455 0.004255 0.000785 0.005028
# 3 0.003591 -0.007455 0.021201 -0.002701 0.002969 -0.003288
# 4 -0.000445 0.004255 -0.002701 0.031645 -0.001332 0.006829
# 5 0.003323 0.000785 0.002969 -0.001332 0.031361 0.002109
# 6 0.002413 0.005028 -0.003288 0.006829 0.002109 0.022224
#
#
# Mechanical properties :
#
#
# Convention : Reuss Voigt Hill
#
# Bulk Modulus (GPa) = 31.36909 40.41734 35.89321
# Shear Modulus (GPa) = 31.10333 38.54354 34.82343
#
# Velocity S-wave (km/s) = 3.44594 3.83601 3.64619
# Velocity P-wave (km/s) = 5.27339 5.92033 5.60620
#
# Compressibility (1/GPa) = 0.03187852
#
# Stress axis : x y z
#
# Youngs Moduli (GPa) = 82.05384 66.66181 47.16838
#
# Poissons Ratio (x) = 0.29271 -0.16938
# Poissons Ratio (y) = 0.36030 0.35164
# Poissons Ratio (z) = -0.29465 0.49697
#
# Static dielectric constant tensor:
#      x y z
#    x 2.130490 0.012050 -0.005390 
#    y 0.012050 2.050710 0.022040 
#    z -0.005390 0.022040 2.200980 
# 
# From -- ./inp_files/488699.got.cif
#   From: 2010.05.17/outbox.cif.g08.bks.cpg/sg2_245_cif.got.tgz:488699.got - 2010.06.03 11:33:40.
