data_PCOD9044834
_publ_section_title
;
Structure prediction by ZEFSAII (Michael W. Deem and Ramdas Pophale) SiO2 
 PCOD9044834
Probable space group: P -1
;
_chemical_formula_sum "Si O2"
_cell_formula_units_Z 12
_cell_length_a 5.212508
_cell_length_b 17.519667
_cell_length_c 14.009104
_cell_angle_alpha 28.249213
_cell_angle_beta 121.632362
_cell_angle_gamma 104.360131
_cell_volume 436.868650
_symmetry_space_group_name_H-M "P -1"
_symmetry_group_IT_number 2
_symmetry_cell_setting 'triclinic'
loop_
_space_group_symop_operation_xyz
x,y,z
-x,-y,-z
loop_
_atom_site_type_symbol
_atom_site_label
_atom_site_fract_x
_atom_site_fract_y
_atom_site_fract_z
Si Si1 0.597307 0.006936 0.254195
Si Si2 0.936558 0.204785 0.147240
Si Si3 0.702142 0.426355 0.306642
Si Si4 0.836880 0.290768 0.811907
Si Si5 0.488273 0.233915 0.643790
Si Si6 0.351739 0.301002 0.251718
O O1 0.583504 0.919934 0.246522
O O2 0.554066 0.873323 0.467507
O O3 0.927189 0.013604 0.354237
O O4 0.243481 0.218698 0.947290
O O5 0.611682 0.357183 0.980992
O O6 0.847401 0.253220 0.966165
O O7 0.251121 0.233972 0.209832
O O8 0.634014 0.318009 0.499519
O O9 0.651812 0.348653 0.280868
O O10 0.088490 0.393790 0.421324
O O11 0.500000 0.500000 0.500000
O O12 0.747180 0.168889 0.856279
O O13 0.000000 0.500000 0.000000
#
# Coordination Sequence:
#
# PCOD9044834 Si02
#       6
#     2   2   2   2   2   2
#     4  11  26  44  73 111 141 192 245 306 366 434
#     4  11  24  44  74 106 147 191 244 304 365 434
#     4  10  23  47  75 104 144 198 243 299 364 435
#     4  12  26  45  72 107 150 194 241 299 366 442
#     4  11  25  46  73 105 150 192 246 296 368 435
#     4   9  22  49  73 105 142 190 247 303 369 435
#
# _framework density 27.468211
#
# number of rings (size 3 to 8) (size 9 to 14) (size 15 to 20)
#    0.000    1.333    1.667    2.000    7.000    2.667 
#    6.000    7.500    0.000    0.000    0.000    0.000 
#    0.000    0.000    0.000    0.000    0.000    0.000 
#
# Total GULP energy -67123.377290 kJ/mol
# GULP energy per Si atom -5593.614774 kJ/mol
# Density = 2.740569 g / cm^3
# Si number density = 27.468211 Si / 1000 Ang^3
#
#
#
# Elastic Constant Matrix: (Units=GPa)
#
#
# Indices 1 2 3 4 5 6 
#
# 1 103.0736 38.0905 23.5420 16.2064 14.2423 14.7882
# 2 38.0905 256.1963 39.6327 35.7391 1.2084 21.5120
# 3 23.5420 39.6327 78.6299 5.1720 22.5468 3.4417
# 4 16.2064 35.7391 5.1720 60.3484 -0.0345 11.9386
# 5 14.2423 1.2084 22.5468 -0.0345 44.4176 9.0641
# 6 14.7882 21.5120 3.4417 11.9386 9.0641 41.7730
#
#
#
# Elastic Compliance Matrix: (Units=1/GPa)
#
#
# Indices 1 2 3 4 5 6 
#
# 1 0.011454 -0.000892 -0.002159 -0.001882 -0.002057 -0.002433
# 2 -0.000892 0.004847 -0.002469 -0.002068 0.001767 -0.001769
# 3 -0.002159 -0.002469 0.016875 0.000113 -0.008299 0.002414
# 4 -0.001882 -0.002068 0.000113 0.019092 0.001443 -0.004048
# 5 -0.002057 0.001767 -0.008299 0.001443 0.028586 -0.006113
# 6 -0.002433 -0.001769 0.002414 -0.004048 -0.006113 0.027996
#
#
# Mechanical properties :
#
#
# Convention : Reuss Voigt Hill
#
# Bulk Modulus (GPa) = 45.17780 71.15891 58.16836
# Shear Modulus (GPa) = 39.28658 51.75010 45.51834
#
# Velocity S-wave (km/s) = 3.78598 4.34522 4.07520
# Velocity P-wave (km/s) = 5.96611 7.15099 6.58526
#
# Compressibility (1/GPa) = 0.02213476
#
# Stress axis : x y z
#
# Youngs Moduli (GPa) = 87.30522 206.33320 59.25800
#
# Poissons Ratio (x) = 0.18412 0.12796
# Poissons Ratio (y) = 0.07790 0.14630
# Poissons Ratio (z) = 0.18853 0.50941
#
# Static dielectric constant tensor:
#      x y z
#    x 2.196160 -0.016590 0.006550 
#    y -0.016590 2.183250 -0.085370 
#    z 0.006550 -0.085370 2.192370 
# 
# From -- ./inp_files/21600.got.cif
#   From: 2010.05.17/outbox.cif.g08.bks.cpg/sg2_11_cif.got.tgz:21600.got - 2010.06.03 11:33:40.
