data_PCOD9044097
_publ_section_title
;
Structure prediction by ZEFSAII (Michael W. Deem and Ramdas Pophale) SiO2 
 PCOD9044097
Probable space group: P -1
;
_chemical_formula_sum "Si O2"
_cell_formula_units_Z 12
_cell_length_a 5.071470
_cell_length_b 14.200298
_cell_length_c 8.352924
_cell_angle_alpha 55.917239
_cell_angle_beta 117.676715
_cell_angle_gamma 94.668669
_cell_volume 427.888679
_symmetry_space_group_name_H-M "P -1"
_symmetry_group_IT_number 2
_symmetry_cell_setting 'triclinic'
loop_
_space_group_symop_operation_xyz
x,y,z
-x,-y,-z
loop_
_atom_site_type_symbol
_atom_site_label
_atom_site_fract_x
_atom_site_fract_y
_atom_site_fract_z
Si Si1 0.907077 0.702822 0.320158
Si Si2 0.971232 0.413580 0.870017
Si Si3 0.122111 0.823865 0.765218
Si Si4 0.257578 0.090517 0.125831
Si Si5 0.406394 0.166081 0.619663
Si Si6 0.491081 0.392083 0.277298
O O1 0.615934 0.764670 0.285017
O O2 0.930505 0.622768 0.247465
O O3 0.148644 0.625886 0.584308
O O4 0.964420 0.821405 0.142361
O O5 0.684261 0.523143 0.712934
O O6 0.872696 0.305318 0.037887
O O7 0.275633 0.432157 0.026664
O O8 0.453822 0.850822 0.819486
O O9 0.916056 0.910206 0.755551
O O10 0.933891 0.840662 0.530581
O O11 0.389335 0.964396 0.207115
O O12 0.477534 0.257773 0.426632
#
# Coordination Sequence:
#
# PCOD9044097 Si02
#       6
#     2   2   2   2   2   2
#     4  11  25  40  70 100 138 181 228 290 339 412
#     4   9  22  48  69  98 141 177 235 283 349 403
#     4  10  24  45  73 100 138 187 232 281 344 410
#     4  11  25  45  70 102 143 184 227 288 340 412
#     4  11  25  40  69 103 136 182 233 281 348 408
#     4  10  23  46  69  99 137 183 231 283 346 414
#
# _framework density 28.044674000000001
#
# number of rings (size 3 to 8) (size 9 to 14) (size 15 to 20)
#    0.000    1.667    0.000    2.000   14.000    1.333 
#    6.000    2.500    0.000    0.000    0.000    0.000 
#    0.000    0.000    0.000    0.000    0.000    0.000 
#
# Total GULP energy -67273.107700 kJ/mol
# GULP energy per Si atom -5606.092308 kJ/mol
# Density = 2.798084 g / cm^3
# Si number density = 28.044674 Si / 1000 Ang^3
#
#
#
# Elastic Constant Matrix: (Units=GPa)
#
#
# Indices 1 2 3 4 5 6 
#
# 1 127.6979 56.4699 18.3865 -5.3803 21.5636 -22.0024
# 2 56.4699 161.6892 63.2738 -33.6269 9.9761 -34.4841
# 3 18.3865 63.2738 122.7973 -17.4782 14.7463 -23.6298
# 4 -5.3803 -33.6269 -17.4782 48.6199 -8.3238 -1.2777
# 5 21.5636 9.9761 14.7463 -8.3238 35.2380 -6.1248
# 6 -22.0024 -34.4841 -23.6298 -1.2777 -6.1248 67.5845
#
#
#
# Elastic Compliance Matrix: (Units=1/GPa)
#
#
# Indices 1 2 3 4 5 6 
#
# 1 0.010564 -0.003936 0.001107 -0.002170 -0.006113 0.001223
# 2 -0.003936 0.010906 -0.003850 0.006325 0.003005 0.003329
# 3 0.001107 -0.003850 0.010873 0.000798 -0.003621 0.001884
# 4 -0.002170 0.006325 0.000798 0.026124 0.006042 0.003841
# 5 -0.006113 0.003005 -0.003621 0.006042 0.034475 0.001515
# 6 0.001223 0.003329 0.001884 0.003841 0.001515 0.017762
#
#
# Mechanical properties :
#
#
# Convention : Reuss Voigt Hill
#
# Bulk Modulus (GPa) = 52.67525 76.49386 64.58455
# Shear Modulus (GPa) = 38.34666 48.55876 43.45271
#
# Velocity S-wave (km/s) = 3.70177 4.16562 3.94053
# Velocity P-wave (km/s) = 6.09050 7.10432 6.61686
#
# Compressibility (1/GPa) = 0.01898425
#
# Stress axis : x y z
#
# Youngs Moduli (GPa) = 94.66421 91.69228 91.97394
#
# Poissons Ratio (x) = 0.36088 -0.10181
# Poissons Ratio (y) = 0.37258 0.35412
# Poissons Ratio (z) = -0.10478 0.35303
#
# Static dielectric constant tensor:
#      x y z
#    x 2.210190 0.081250 0.001920 
#    y 0.081250 2.161850 0.070350 
#    z 0.001920 0.070350 2.207620 
# 
# From -- ./inp_files/29813.got.cif
#   From: 2010.05.17/outbox.cif.g08.bks.cpg/sg2_15_cif.got.tgz:29813.got - 2010.06.03 11:33:40.
