data_PCOD9044118
_publ_section_title
;
Structure prediction by ZEFSAII (Michael W. Deem and Ramdas Pophale) SiO2 
 PCOD9044118
Probable space group: P -1
;
_chemical_formula_sum "Si O2"
_cell_formula_units_Z 12
_cell_length_a 5.223185
_cell_length_b 10.552479
_cell_length_c 9.759552
_cell_angle_alpha 107.499493
_cell_angle_beta 87.626425
_cell_angle_gamma 108.085651
_cell_volume 486.879655
_symmetry_space_group_name_H-M "P -1"
_symmetry_group_IT_number 2
_symmetry_cell_setting 'triclinic'
loop_
_space_group_symop_operation_xyz
x,y,z
-x,-y,-z
loop_
_atom_site_type_symbol
_atom_site_label
_atom_site_fract_x
_atom_site_fract_y
_atom_site_fract_z
Si Si1 0.616754 0.878748 0.504295
Si Si2 0.755196 0.415125 0.070359
Si Si3 0.272085 0.047739 0.193538
Si Si4 0.865582 0.162635 0.108525
Si Si5 0.468172 0.342852 0.780938
Si Si6 0.705326 0.422499 0.532950
O O1 0.811490 0.953300 0.646793
O O2 0.684183 0.798191 0.344982
O O3 0.415671 0.744298 0.547246
O O4 0.500000 0.000000 0.500000
O O5 0.834421 0.312516 0.136401
O O6 0.664446 0.535033 0.181138
O O7 0.539021 0.327689 0.932213
O O8 0.000000 0.500000 0.000000
O O9 0.591420 0.075893 0.166480
O O10 0.143434 0.160120 0.168264
O O11 0.138360 0.907622 0.063981
O O12 0.717585 0.410281 0.694470
O O13 0.500000 0.500000 0.500000
O O14 0.000000 0.500000 0.500000
#
# Coordination Sequence:
#
# PCOD9044118 Si02
#       6
#     2   2   2   2   2   2
#     4  10  23  46  75 107 150 191 245 305 375 436
#     4  11  24  42  70  98 145 192 237 306 356 433
#     4  10  23  46  70 103 135 191 231 304 349 442
#     4  10  24  44  71 101 140 184 247 282 367 425
#     4   9  25  42  67 106 139 193 246 298 367 438
#     4  10  25  46  72 105 149 189 242 302 362 441
#
# _framework density 24.646750999999998
#
# number of rings (size 3 to 8) (size 9 to 14) (size 15 to 20)
#    1.000    1.000    0.000    1.000    9.333    1.333 
#    6.000    4.167    0.000    0.000    0.000    0.000 
#    0.000    0.000    0.000    0.000    0.000    0.000 
#
# Total GULP energy -66956.185540 kJ/mol
# GULP energy per Si atom -5579.682128 kJ/mol
# Density = 2.459065 g / cm^3
# Si number density = 24.646751 Si / 1000 Ang^3
#
#
#
# Elastic Constant Matrix: (Units=GPa)
#
#
# Indices 1 2 3 4 5 6 
#
# 1 83.3092 22.5989 19.7457 -1.3041 -0.7119 0.8207
# 2 22.5989 124.8974 42.7895 3.4804 9.2686 -17.9586
# 3 19.7457 42.7895 139.1340 48.0995 14.0357 -19.5027
# 4 -1.3041 3.4804 48.0995 34.9664 -5.6726 -4.4732
# 5 -0.7119 9.2686 14.0357 -5.6726 24.8669 -8.8342
# 6 0.8207 -17.9586 -19.5027 -4.4732 -8.8342 44.8789
#
#
#
# Elastic Compliance Matrix: (Units=1/GPa)
#
#
# Indices 1 2 3 4 5 6 
#
# 1 0.013820 -0.001561 -0.005081 0.008370 0.005328 -0.001202
# 2 -0.001561 0.010021 -0.004577 0.005789 0.001137 0.002850
# 3 -0.005081 -0.004577 0.023602 -0.035189 -0.019363 0.001199
# 4 0.008370 0.005789 -0.035189 0.083217 0.037857 0.002618
# 5 0.005328 0.001137 -0.019363 0.037857 0.062346 0.007989
# 6 -0.001202 0.002850 0.001199 0.002618 0.007989 0.025800
#
#
# Mechanical properties :
#
#
# Convention : Reuss Voigt Hill
#
# Bulk Modulus (GPa) = 39.99141 57.51209 48.75175
# Shear Modulus (GPa) = 20.03374 38.42287 29.22830
#
# Velocity S-wave (km/s) = 2.85412 3.95263 3.44741
# Velocity P-wave (km/s) = 5.20792 6.64953 5.97238
#
# Compressibility (1/GPa) = 0.02500537
#
# Stress axis : x y z
#
# Youngs Moduli (GPa) = 72.36083 99.78741 42.36855
#
# Poissons Ratio (x) = 0.15581 0.21526
# Poissons Ratio (y) = 0.11298 0.19392
# Poissons Ratio (z) = 0.36764 0.45672
#
# Static dielectric constant tensor:
#      x y z
#    x 2.001450 0.062600 0.032710 
#    y 0.062600 2.103080 0.084710 
#    z 0.032710 0.084710 2.133050 
# 
# From -- ./inp_files/129839.got.cif
#   From: 2010.05.17/outbox.cif.g08.bks.cpg/sg2_65_cif.got.tgz:129839.got - 2010.06.03 11:33:40.
