data_PCOD9044911
_publ_section_title
;
Structure prediction by ZEFSAII (Michael W. Deem and Ramdas Pophale) SiO2 
 PCOD9044911
Probable space group: P -1
;
_chemical_formula_sum "Si O2"
_cell_formula_units_Z 8
_cell_length_a 6.575873
_cell_length_b 9.747400
_cell_length_c 7.158178
_cell_angle_alpha 138.574295
_cell_angle_beta 77.278606
_cell_angle_gamma 115.365437
_cell_volume 270.369383
_symmetry_space_group_name_H-M "P -1"
_symmetry_group_IT_number 2
_symmetry_cell_setting 'triclinic'
loop_
_space_group_symop_operation_xyz
x,y,z
-x,-y,-z
loop_
_atom_site_type_symbol
_atom_site_label
_atom_site_fract_x
_atom_site_fract_y
_atom_site_fract_z
Si Si1 0.436172 0.401426 0.620230
Si Si2 0.624089 0.863203 0.229221
Si Si3 0.235931 0.958123 0.010175
Si Si4 0.881046 0.577133 0.934456
O O1 0.500000 0.500000 0.500000
O O2 0.226720 0.243793 0.793004
O O3 0.666452 0.402597 0.676746
O O4 0.247515 0.157639 0.351332
O O5 0.431106 0.626810 0.949422
O O6 0.784773 0.990035 0.150944
O O7 0.500000 0.000000 0.500000
O O8 0.069415 0.720154 0.887526
O O9 0.500000 0.000000 0.000000
O O10 0.000000 0.500000 0.000000
#
# Coordination Sequence:
#
# PCOD9044911 Si02
#       4
#     2   2   2   2
#     4   8  20  43  84 118 170 224 294 341 436 518
#     4   9  21  49  82 120 174 224 285 356 434 519
#     4  11  23  47  85 120 168 231 292 349 436 524
#     4  10  23  47  86 129 172 221 290 364 435 513
#
# _framework density 29.589147000000001
#
# number of rings (size 3 to 8) (size 9 to 14) (size 15 to 20)
#    1.500    1.000    0.000    0.750    0.000    2.000 
#    4.500   13.750    0.000    4.500    0.000    0.000 
#    0.000    0.000    0.000    0.000    0.000    0.000 
#
# Total GULP energy -44694.056746 kJ/mol
# GULP energy per Si atom -5586.757093 kJ/mol
# Density = 2.952180 g / cm^3
# Si number density = 29.589147 Si / 1000 Ang^3
#
#
#
# Elastic Constant Matrix: (Units=GPa)
#
#
# Indices 1 2 3 4 5 6 
#
# 1 250.9937 104.6308 95.0601 -1.7139 22.1671 -16.4665
# 2 104.6308 174.6176 91.5454 24.9593 8.7140 -9.7285
# 3 95.0601 91.5454 235.5953 -25.3370 -6.4112 -9.9044
# 4 -1.7139 24.9593 -25.3370 54.1619 5.2784 14.3814
# 5 22.1671 8.7140 -6.4112 5.2784 54.1058 2.4406
# 6 -16.4665 -9.7285 -9.9044 14.3814 2.4406 70.7802
#
#
#
# Elastic Compliance Matrix: (Units=1/GPa)
#
#
# Indices 1 2 3 4 5 6 
#
# 1 0.005887 -0.002915 -0.001165 0.001021 -0.002210 0.000675
# 2 -0.002915 0.010461 -0.003580 -0.007007 -0.000308 0.001693
# 3 -0.001165 -0.003580 0.006624 0.004803 0.001409 -0.000860
# 4 0.001021 -0.007007 0.004803 0.025444 -0.000969 -0.005190
# 5 -0.002210 -0.000308 0.001409 -0.000969 0.019737 -0.000843
# 6 0.000675 0.001693 -0.000860 -0.005190 -0.000843 0.015481
#
#
# Mechanical properties :
#
#
# Convention : Reuss Voigt Hill
#
# Bulk Modulus (GPa) = 130.65052 138.18658 134.41855
# Shear Modulus (GPa) = 49.25933 60.47426 54.86679
#
# Velocity S-wave (km/s) = 4.08459 4.52574 4.31082
# Velocity P-wave (km/s) = 8.15450 8.60889 8.38478
#
# Compressibility (1/GPa) = 0.00765401
#
# Stress axis : x y z
#
# Youngs Moduli (GPa) = 169.87169 95.59016 150.96412
#
# Poissons Ratio (x) = 0.27863 0.17582
# Poissons Ratio (y) = 0.49515 0.54040
# Poissons Ratio (z) = 0.19784 0.34218
#
# Static dielectric constant tensor:
#      x y z
#    x 2.452090 -0.116000 -0.025280 
#    y -0.116000 2.071090 0.297790 
#    z -0.025280 0.297790 1.906470 
# 
# From -- ./inp_files/129487.got.cif
#   From: 2010.05.17/outbox.cif.g08.bks.cpg/sg2_65_cif.got.tgz:129487.got - 2010.06.03 11:33:40.
