data_PCOD9044142
_publ_section_title
;
Structure prediction by ZEFSAII (Michael W. Deem and Ramdas Pophale) SiO2 
 PCOD9044142
Probable space group: P -1
;
_chemical_formula_sum "Si O2"
_cell_formula_units_Z 13
_cell_length_a 12.246152
_cell_length_b 14.208255
_cell_length_c 9.000152
_cell_angle_alpha 134.557137
_cell_angle_beta 142.924382
_cell_angle_gamma 31.267913
_cell_volume 489.051586
_symmetry_space_group_name_H-M "P -1"
_symmetry_group_IT_number 2
_symmetry_cell_setting 'triclinic'
loop_
_space_group_symop_operation_xyz
x,y,z
-x,-y,-z
loop_
_atom_site_type_symbol
_atom_site_label
_atom_site_fract_x
_atom_site_fract_y
_atom_site_fract_z
Si Si1 0.651356 0.487083 0.783688
Si Si2 0.907296 0.090721 0.662702
Si Si3 0.905302 0.619300 0.301443
Si Si4 0.373280 0.253829 0.542552
Si Si5 0.397981 0.002605 0.735709
Si Si6 0.679650 0.313777 0.076531
Si Si7 0.000000 0.000000 0.000000
O O1 0.500000 0.500000 0.500000
O O2 0.842706 0.276356 0.801372
O O3 0.799677 0.550155 0.010920
O O4 0.436023 0.619601 0.816371
O O5 0.665473 0.119193 0.447174
O O6 0.056745 0.979655 0.850555
O O7 0.000000 0.000000 0.500000
O O8 0.755420 0.692474 0.376826
O O9 0.189847 0.442458 0.458168
O O10 0.834167 0.786129 0.319292
O O11 0.424513 0.098054 0.328288
O O12 0.641895 0.190051 0.805620
O O13 0.500000 0.000000 0.000000
O O14 0.957648 0.186094 0.179329
O O15 0.500000 0.500000 0.000000
#
# Coordination Sequence:
#
# PCOD9044142 Si02
#       7
#     2   2   2   2   2   2   1
#     4  11  23  47  71 106 150 188 243 308 365 444
#     4  12  28  48  72 113 148 193 252 311 370 442
#     4  10  25  44  78 104 141 196 238 303 368 441
#     4  10  23  46  70 107 145 184 250 297 366 443
#     4  12  26  47  71 106 149 192 241 308 369 438
#     4  11  22  41  69 103 140 188 241 299 365 439
#     4  12  24  44  76 104 144 192 242 306 374 428
#
# _framework density 26.582063000000002
#
# number of rings (size 3 to 8) (size 9 to 14) (size 15 to 20)
#    0.000    0.923    3.077    2.308    4.308    3.077 
#    2.769    0.000    0.000    0.000    0.000    0.000 
#    0.000    0.000    0.000    0.000    0.000    0.000 
#
# Total GULP energy -72525.898649 kJ/mol
# GULP energy per Si atom -5578.915281 kJ/mol
# Density = 2.652156 g / cm^3
# Si number density = 26.582063 Si / 1000 Ang^3
#
#
#
# Elastic Constant Matrix: (Units=GPa)
#
#
# Indices 1 2 3 4 5 6 
#
# 1 68.5849 23.2334 48.1568 2.6914 -21.2065 -18.7226
# 2 23.2334 135.0816 37.4477 16.3438 -26.9947 -28.7201
# 3 48.1568 37.4477 213.2691 -13.6774 -29.2952 -14.4427
# 4 2.6914 16.3438 -13.6774 58.5713 -2.3860 -11.8902
# 5 -21.2065 -26.9947 -29.2952 -2.3860 60.5518 7.7058
# 6 -18.7226 -28.7201 -14.4427 -11.8902 7.7058 32.0622
#
#
#
# Elastic Compliance Matrix: (Units=1/GPa)
#
#
# Indices 1 2 3 4 5 6 
#
# 1 0.021059 0.000360 -0.003484 0.000351 0.004581 0.010079
# 2 0.000360 0.009988 -0.000995 -0.001398 0.003094 0.007446
# 3 -0.003484 -0.000995 0.005959 0.001914 0.001274 0.000162
# 4 0.000351 -0.001398 0.001914 0.019308 0.000308 0.006901
# 5 0.004581 0.003094 0.001274 0.000308 0.019957 0.001339
# 6 0.010079 0.007446 0.000162 0.006901 0.001339 0.046055
#
#
# Mechanical properties :
#
#
# Convention : Reuss Voigt Hill
#
# Bulk Modulus (GPa) = 34.76210 70.51237 52.63724
# Shear Modulus (GPa) = 35.67503 50.77690 43.22597
#
# Velocity S-wave (km/s) = 3.66740 4.37532 4.03691
# Velocity P-wave (km/s) = 5.57125 7.21862 6.44776
#
# Compressibility (1/GPa) = 0.02876696
#
# Stress axis : x y z
#
# Youngs Moduli (GPa) = 47.48524 100.12336 167.81050
#
# Poissons Ratio (x) = -0.03603 0.58465
# Poissons Ratio (y) = -0.01709 0.16703
# Poissons Ratio (z) = 0.16544 0.09966
#
# Static dielectric constant tensor:
#      x y z
#    x 2.185830 -0.030930 0.039490 
#    y -0.030930 2.276500 -0.090570 
#    z 0.039490 -0.090570 2.253840 
# 
# From -- ./inp_files/183462.got.cif
#   From: 2010.05.17/outbox.cif.g08.bks.cpg/sg2_92_cif.got.tgz:183462.got - 2010.06.03 11:33:40.
