data_PCOD9044950
_publ_section_title
;
Structure prediction by ZEFSAII (Michael W. Deem and Ramdas Pophale) SiO2 
 PCOD9044950
Probable space group: P -1
;
_chemical_formula_sum "Si O2"
_cell_formula_units_Z 16
_cell_length_a 5.452645
_cell_length_b 10.174212
_cell_length_c 11.923808
_cell_angle_alpha 74.902222
_cell_angle_beta 86.267580
_cell_angle_gamma 80.903485
_cell_volume 630.426118
_symmetry_space_group_name_H-M "P -1"
_symmetry_group_IT_number 2
_symmetry_cell_setting 'triclinic'
loop_
_space_group_symop_operation_xyz
x,y,z
-x,-y,-z
loop_
_atom_site_type_symbol
_atom_site_label
_atom_site_fract_x
_atom_site_fract_y
_atom_site_fract_z
Si Si1 0.857758 0.542274 0.880725
Si Si2 0.707885 0.006191 0.401377
Si Si3 0.870358 0.209872 0.520621
Si Si4 0.795116 0.267048 0.946812
Si Si5 0.237721 0.081353 0.940922
Si Si6 0.743106 0.455895 0.312261
Si Si7 0.520014 0.232953 0.735385
Si Si8 0.544639 0.238291 0.194287
O O1 0.676932 0.427713 0.911447
O O2 0.733419 0.697920 0.841707
O O3 0.020219 0.513763 0.771430
O O4 0.000000 0.500000 0.000000
O O5 0.868182 0.115371 0.430066
O O6 0.579744 0.092831 0.283938
O O7 0.500000 0.000000 0.500000
O O8 0.869783 0.857081 0.417926
O O9 0.824590 0.365029 0.440766
O O10 0.665242 0.191650 0.624958
O O11 0.711069 0.218359 0.839047
O O12 0.094130 0.229601 0.954778
O O13 0.691767 0.219660 0.077574
O O14 0.322295 0.136192 0.806039
O O15 0.500000 0.000000 0.000000
O O16 0.000000 0.000000 0.000000
O O17 0.588055 0.604713 0.308273
O O18 0.623167 0.352181 0.254009
#
# Coordination Sequence:
#
# PCOD9044950 Si02
#       8
#     2   2   2   2   2   2   2   2
#     4  12  22  39  67 106 149 189 244 309 373 446
#     4  10  23  48  69  98 140 186 250 305 369 447
#     4  10  25  45  72 103 139 195 246 308 373 447
#     4  12  25  42  68 109 144 197 245 308 379 448
#     4  12  28  49  70 104 153 201 249 305 378 458
#     4  11  22  44  69 105 147 188 249 306 369 448
#     4  12  25  46  73 104 154 193 250 309 379 458
#     4  11  24  39  70 102 142 191 244 303 375 438
#
# _framework density 25.379660000000001
#
# number of rings (size 3 to 8) (size 9 to 14) (size 15 to 20)
#    0.000    0.750    5.000    2.250    1.750    2.000 
#    0.000    0.625    0.000    0.000    0.000    0.000 
#    0.000    0.000    0.000    0.000    0.000    0.000 
#
# Total GULP energy -89221.327298 kJ/mol
# GULP energy per Si atom -5576.332956 kJ/mol
# Density = 2.532189 g / cm^3
# Si number density = 25.379660 Si / 1000 Ang^3
#
#
#
# Elastic Constant Matrix: (Units=GPa)
#
#
# Indices 1 2 3 4 5 6 
#
# 1 82.2389 50.3793 51.0436 -16.1336 -3.4336 -33.6114
# 2 50.3793 150.5850 78.8178 -26.3640 7.0988 -36.4916
# 3 51.0436 78.8178 195.2930 -44.0027 -8.8250 -26.3809
# 4 -16.1336 -26.3640 -44.0027 62.9665 -3.9002 4.7366
# 5 -3.4336 7.0988 -8.8250 -3.9002 46.1085 -0.5545
# 6 -33.6114 -36.4916 -26.3809 4.7366 -0.5545 58.8398
#
#
#
# Elastic Compliance Matrix: (Units=1/GPa)
#
#
# Indices 1 2 3 4 5 6 
#
# 1 0.019023 -0.003107 -0.002241 0.001523 0.001689 0.007828
# 2 -0.003107 0.010181 -0.002687 0.001212 -0.002172 0.003216
# 3 -0.002241 -0.002687 0.007786 0.003851 0.002066 0.000254
# 4 0.001523 0.001212 0.003851 0.019479 0.002333 0.001802
# 5 0.001689 -0.002172 0.002066 0.002333 0.022748 0.000571
# 6 0.007828 0.003216 0.000254 0.001802 0.000571 0.023436
#
#
# Mechanical properties :
#
#
# Convention : Reuss Voigt Hill
#
# Bulk Modulus (GPa) = 47.80491 87.62202 67.71347
# Shear Modulus (GPa) = 39.77856 50.10805 44.94331
#
# Velocity S-wave (km/s) = 3.96326 4.44817 4.21270
# Velocity P-wave (km/s) = 6.31031 7.80904 7.09934
#
# Compressibility (1/GPa) = 0.02091835
#
# Stress axis : x y z
#
# Youngs Moduli (GPa) = 52.56880 98.22340 128.43524
#
# Poissons Ratio (x) = 0.30520 0.28783
# Poissons Ratio (y) = 0.16334 0.34515
# Poissons Ratio (z) = 0.11781 0.26396
#
# Static dielectric constant tensor:
#      x y z
#    x 2.132260 0.088910 0.045160 
#    y 0.088910 2.047440 -0.130530 
#    z 0.045160 -0.130530 1.863870 
# 
# From -- ./inp_files/364056.got.cif
#   From: 2010.05.17/outbox.cif.g08.bks.cpg/sg2_183_cif.got.tgz:364056.got - 2010.06.03 11:33:40.
