data_PCOD9044940
_publ_section_title
;
Structure prediction by ZEFSAII (Michael W. Deem and Ramdas Pophale) SiO2 
 PCOD9044940
Probable space group: P -1
;
_chemical_formula_sum "Si O2"
_cell_formula_units_Z 16
_cell_length_a 8.389834
_cell_length_b 14.488070
_cell_length_c 8.156073
_cell_angle_alpha 88.605890
_cell_angle_beta 135.192433
_cell_angle_gamma 101.332253
_cell_volume 675.472497
_symmetry_space_group_name_H-M "P -1"
_symmetry_group_IT_number 2
_symmetry_cell_setting 'triclinic'
loop_
_space_group_symop_operation_xyz
x,y,z
-x,-y,-z
loop_
_atom_site_type_symbol
_atom_site_label
_atom_site_fract_x
_atom_site_fract_y
_atom_site_fract_z
Si Si1 0.651224 0.426696 0.571272
Si Si2 0.706179 0.252031 0.824587
Si Si3 0.311782 0.026837 0.974676
Si Si4 0.442231 0.360973 0.067104
Si Si5 0.745797 0.815082 0.274429
Si Si6 0.131599 0.510463 0.770424
Si Si7 0.489859 0.105999 0.431695
Si Si8 0.041261 0.169623 0.234247
O O1 0.500000 0.500000 0.500000
O O2 0.653494 0.348214 0.714881
O O3 0.916401 0.489374 0.737544
O O4 0.544625 0.373108 0.325855
O O5 0.503792 0.201339 0.809651
O O6 0.699078 0.183945 0.662823
O O7 0.956051 0.255055 0.085929
O O8 0.172226 0.082656 0.755784
O O9 0.151257 0.929671 0.931865
O O10 0.452470 0.096755 0.212207
O O11 0.500000 0.000000 0.000000
O O12 0.293736 0.260830 0.896470
O O13 0.278681 0.433205 0.917130
O O14 0.666676 0.392546 0.107466
O O15 0.922573 0.807326 0.547950
O O16 0.000000 0.500000 0.500000
O O17 0.272022 0.144130 0.336634
O O18 0.500000 0.000000 0.500000
#
# Coordination Sequence:
#
# PCOD9044940 Si02
#       8
#     2   2   2   2   2   2   2   2
#     4  11  26  47  73 106 141 187 238 297 362 426
#     4  11  25  45  68 105 141 184 240 289 349 425
#     4  12  22  44  68 102 139 185 232 283 348 411
#     4  10  23  48  69 105 137 181 239 290 361 423
#     4  11  25  42  69 101 142 181 234 292 337 428
#     4   9  22  44  74 100 134 176 233 292 359 417
#     4  11  23  44  71 101 143 184 234 290 349 416
#     4  11  24  46  69 101 141 191 230 290 352 410
#
# _framework density 23.687121000000001
#
# number of rings (size 3 to 8) (size 9 to 14) (size 15 to 20)
#    0.000    1.250    2.500    2.250    5.250    5.500 
#    4.500    0.000    0.000    0.000    0.000    0.000 
#    0.000    0.000    0.000    0.000    0.000    0.000 
#
# Total GULP energy -89459.231486 kJ/mol
# GULP energy per Si atom -5591.201968 kJ/mol
# Density = 2.363321 g / cm^3
# Si number density = 23.687121 Si / 1000 Ang^3
#
#
#
# Elastic Constant Matrix: (Units=GPa)
#
#
# Indices 1 2 3 4 5 6 
#
# 1 65.5823 13.5362 20.8488 -7.4020 -6.5427 -5.3242
# 2 13.5362 114.4379 40.2985 -29.7736 -8.0012 -5.3880
# 3 20.8488 40.2985 132.9995 -28.4350 -23.6647 -13.8872
# 4 -7.4020 -29.7736 -28.4350 50.3677 -4.1842 -6.9453
# 5 -6.5427 -8.0012 -23.6647 -4.1842 45.2646 3.7455
# 6 -5.3242 -5.3880 -13.8872 -6.9453 3.7455 24.3510
#
#
#
# Elastic Compliance Matrix: (Units=1/GPa)
#
#
# Indices 1 2 3 4 5 6 
#
# 1 0.016423 -0.000773 -0.001439 0.001654 0.001402 0.002855
# 2 -0.000773 0.011190 -0.001330 0.006304 0.001496 0.003116
# 3 -0.001439 -0.001330 0.011308 0.006801 0.005524 0.006930
# 4 0.001654 0.006304 0.006801 0.030029 0.006594 0.013185
# 5 0.001402 0.001496 0.005524 0.006594 0.025918 0.001682
# 6 0.002855 0.003116 0.006930 0.013185 0.001682 0.049834
#
#
# Mechanical properties :
#
#
# Convention : Reuss Voigt Hill
#
# Bulk Modulus (GPa) = 31.41021 51.37630 41.39326
# Shear Modulus (GPa) = 30.78866 39.88571 35.33719
#
# Velocity S-wave (km/s) = 3.60919 4.10793 3.86661
# Velocity P-wave (km/s) = 5.53693 6.65107 6.11941
#
# Compressibility (1/GPa) = 0.03183678
#
# Stress axis : x y z
#
# Youngs Moduli (GPa) = 60.88865 89.36911 88.43466
#
# Poissons Ratio (x) = 0.06908 0.12726
# Poissons Ratio (y) = 0.04707 0.11761
# Poissons Ratio (z) = 0.08762 0.11885
#
# Static dielectric constant tensor:
#      x y z
#    x 1.902230 0.010260 0.013450 
#    y 0.010260 1.929610 -0.008400 
#    z 0.013450 -0.008400 1.976280 
# 
# From -- ./inp_files/207469.got.cif
#   From: 2010.05.17/outbox.cif.g08.bks.cpg/sg2_104_cif.got.tgz:207469.got - 2010.06.03 11:33:40.
