data_PCOD9044454
_publ_section_title
;
Structure prediction by ZEFSAII (Michael W. Deem and Ramdas Pophale) SiO2 
 PCOD9044454
Probable space group: P -1
;
_chemical_formula_sum "Si O2"
_cell_formula_units_Z 14
_cell_length_a 5.150608
_cell_length_b 9.711107
_cell_length_c 17.505481
_cell_angle_alpha 134.718954
_cell_angle_beta 106.665502
_cell_angle_gamma 70.779468
_cell_volume 585.497767
_symmetry_space_group_name_H-M "P -1"
_symmetry_group_IT_number 2
_symmetry_cell_setting 'triclinic'
loop_
_space_group_symop_operation_xyz
x,y,z
-x,-y,-z
loop_
_atom_site_type_symbol
_atom_site_label
_atom_site_fract_x
_atom_site_fract_y
_atom_site_fract_z
Si Si1 0.671590 0.065759 0.313839
Si Si2 0.693649 0.402335 0.546988
Si Si3 0.865555 0.334779 0.961491
Si Si4 0.602631 0.649372 0.180839
Si Si5 0.512823 0.437571 0.242834
Si Si6 0.202382 0.125522 0.027469
Si Si7 0.031256 0.253108 0.296659
O O1 0.703510 0.174736 0.439682
O O2 0.357757 0.141460 0.280193
O O3 0.883743 0.151060 0.310565
O O4 0.752531 0.831297 0.245453
O O5 0.500000 0.500000 0.500000
O O6 0.583636 0.461863 0.645361
O O7 0.948846 0.515025 0.600202
O O8 0.679667 0.270652 0.856375
O O9 0.706289 0.442373 0.063891
O O10 0.000000 0.500000 0.000000
O O11 0.094704 0.168651 0.949760
O O12 0.563469 0.590643 0.241338
O O13 0.266834 0.325945 0.150318
O O14 0.801186 0.283587 0.221454
O O15 0.500000 0.000000 0.000000
O O16 0.000000 0.000000 0.000000
#
# Coordination Sequence:
#
# PCOD9044454 Si02
#       7
#     2   2   2   2   2   2   2
#     4  11  26  45  77 108 145 198 256 298 363 462
#     4  10  23  46  75 107 150 192 248 307 382 424
#     4  11  26  52  72 101 157 200 237 309 385 439
#     4  11  28  48  73 110 151 204 246 300 385 448
#     4  12  26  47  74 109 155 193 243 316 376 436
#     4  12  30  47  76 114 142 191 257 309 361 441
#     4  11  24  44  73 107 145 191 247 310 365 425
#
# _framework density 23.911280000000001
#
# number of rings (size 3 to 8) (size 9 to 14) (size 15 to 20)
#    0.000    0.857    4.286    1.286   14.000    0.571 
#    0.000    0.714    0.000    0.000    0.000    0.000 
#    0.000    0.000    0.000    0.000    0.000    0.000 
#
# Total GULP energy -78172.167203 kJ/mol
# GULP energy per Si atom -5583.726229 kJ/mol
# Density = 2.385686 g / cm^3
# Si number density = 23.911280 Si / 1000 Ang^3
#
#
#
# Elastic Constant Matrix: (Units=GPa)
#
#
# Indices 1 2 3 4 5 6 
#
# 1 129.3536 46.1564 17.0625 -11.0727 13.0652 13.1632
# 2 46.1564 153.0051 40.7949 -13.5125 0.1840 17.4460
# 3 17.0625 40.7949 83.0033 -14.1399 -0.5239 7.2756
# 4 -11.0727 -13.5125 -14.1399 43.3774 7.6089 1.2917
# 5 13.0652 0.1840 -0.5239 7.6089 38.3924 0.0183
# 6 13.1632 17.4460 7.2756 1.2917 0.0183 44.2951
#
#
#
# Elastic Compliance Matrix: (Units=1/GPa)
#
#
# Indices 1 2 3 4 5 6 
#
# 1 0.009348 -0.002335 -0.000245 0.002270 -0.003622 -0.001883
# 2 -0.002335 0.008449 -0.003327 0.000922 0.000527 -0.002114
# 3 -0.000245 -0.003327 0.014461 0.003725 -0.000441 -0.001101
# 4 0.002270 0.000922 0.003725 0.026246 -0.005927 -0.002413
# 5 -0.003622 0.000527 -0.000441 -0.005927 0.028445 0.001102
# 6 -0.001883 -0.002114 -0.001101 -0.002413 0.001102 0.024219
#
#
# Mechanical properties :
#
#
# Convention : Reuss Voigt Hill
#
# Bulk Modulus (GPa) = 48.91248 63.70996 56.31122
# Shear Modulus (GPa) = 38.52154 42.63620 40.57887
#
# Velocity S-wave (km/s) = 4.01810 4.22726 4.12401
# Velocity P-wave (km/s) = 6.48283 7.10834 6.80278
#
# Compressibility (1/GPa) = 0.02044468
#
# Stress axis : x y z
#
# Youngs Moduli (GPa) = 106.97341 118.35633 69.14921
#
# Poissons Ratio (x) = 0.27638 0.01694
# Poissons Ratio (y) = 0.24980 0.23005
# Poissons Ratio (z) = 0.02621 0.39375
#
# Static dielectric constant tensor:
#      x y z
#    x 1.974760 -0.057390 -0.006360 
#    y -0.057390 1.907990 0.102280 
#    z -0.006360 0.102280 2.189440 
# 
# From -- ./inp_files/547597.got.cif
#   From: 2010.05.17/outbox.cif.g08.bks.cpg/sg2_274_cif.got.tgz:547597.got - 2010.06.03 11:33:40.
