data_PCOD9044236
_publ_section_title
;
Structure prediction by ZEFSAII (Michael W. Deem and Ramdas Pophale) SiO2 
 PCOD9044236
Probable space group: P -1
;
_chemical_formula_sum "Si O2"
_cell_formula_units_Z 16
_cell_length_a 15.213954
_cell_length_b 5.596772
_cell_length_c 14.553807
_cell_angle_alpha 71.510604
_cell_angle_beta 132.884028
_cell_angle_gamma 131.701157
_cell_volume 656.810452
_symmetry_space_group_name_H-M "P -1"
_symmetry_group_IT_number 2
_symmetry_cell_setting 'triclinic'
loop_
_space_group_symop_operation_xyz
x,y,z
-x,-y,-z
loop_
_atom_site_type_symbol
_atom_site_label
_atom_site_fract_x
_atom_site_fract_y
_atom_site_fract_z
Si Si1 0.737581 0.190360 0.362762
Si Si2 0.564491 0.063836 0.880003
Si Si3 0.839101 0.504819 0.136628
Si Si4 0.051329 0.148362 0.290370
Si Si5 0.609003 0.724116 0.789148
Si Si6 0.951351 0.235127 0.389405
Si Si7 0.619296 0.668826 0.479668
Si Si8 0.932303 0.332226 0.874067
O O1 0.794312 0.023236 0.364781
O O2 0.898130 0.530328 0.467805
O O3 0.624375 0.208077 0.219162
O O4 0.647593 0.980998 0.415957
O O5 0.590926 0.403037 0.841221
O O6 0.612278 0.928451 0.850961
O O7 0.667955 0.167387 0.031883
O O8 0.920608 0.438955 0.278620
O O9 0.933080 0.623177 0.092830
O O10 0.886067 0.843683 0.163197
O O11 0.206278 0.186916 0.388038
O O12 0.102607 0.473425 0.237461
O O13 0.003324 0.106528 0.366959
O O14 0.468296 0.597204 0.633316
O O15 0.772767 0.966686 0.821801
O O16 0.500000 0.500000 0.500000
O O17 0.000000 0.500000 0.000000
#
# Coordination Sequence:
#
# PCOD9044236 Si02
#       8
#     2   2   2   2   2   2   2   2
#     4  10  23  47  68  99 134 182 230 298 345 422
#     4  11  25  44  69 100 144 178 235 289 356 412
#     4  11  23  41  65 101 133 178 238 286 347 417
#     4  11  24  40  67  97 136 182 235 292 340 422
#     4  11  25  42  65 101 142 189 225 285 353 426
#     4  10  23  46  71  94 133 180 245 281 352 410
#     4  11  24  41  69 105 142 179 232 291 361 419
#     4  11  23  38  63  94 136 188 226 280 346 420
#
# _framework density 24.360147999999999
#
# number of rings (size 3 to 8) (size 9 to 14) (size 15 to 20)
#    0.000    1.250    2.500    2.250    8.750    2.500 
#    4.500    0.625    0.000    0.000    0.000    0.000 
#    0.000    0.000    0.000    0.000    0.000    0.000 
#
# Total GULP energy -89356.926751 kJ/mol
# GULP energy per Si atom -5584.807922 kJ/mol
# Density = 2.430470 g / cm^3
# Si number density = 24.360148 Si / 1000 Ang^3
#
#
#
# Elastic Constant Matrix: (Units=GPa)
#
#
# Indices 1 2 3 4 5 6 
#
# 1 113.5022 19.1772 32.5544 3.4415 -11.9364 6.4211
# 2 19.1772 64.7838 15.2272 -3.0048 -9.2887 5.7027
# 3 32.5544 15.2272 137.4967 24.7703 0.2858 -0.7835
# 4 3.4415 -3.0048 24.7703 31.9604 -0.7023 1.7855
# 5 -11.9364 -9.2887 0.2858 -0.7023 35.3053 3.9204
# 6 6.4211 5.7027 -0.7835 1.7855 3.9204 37.2617
#
#
#
# Elastic Compliance Matrix: (Units=1/GPa)
#
#
# Indices 1 2 3 4 5 6 
#
# 1 0.010220 -0.001802 -0.002372 0.000746 0.003227 -0.001911
# 2 -0.001802 0.017585 -0.002242 0.003855 0.004454 -0.003081
# 3 -0.002372 -0.002242 0.009425 -0.007382 -0.001781 0.001491
# 4 0.000746 0.003855 -0.007382 0.037508 0.002397 -0.002923
# 5 0.003227 0.004454 -0.001781 0.002397 0.031168 -0.004669
# 6 -0.001911 -0.003081 0.001491 -0.002923 -0.004669 0.028301
#
#
# Mechanical properties :
#
#
# Convention : Reuss Voigt Hill
#
# Bulk Modulus (GPa) = 40.98824 49.96670 45.47747
# Shear Modulus (GPa) = 32.22209 37.49374 34.85792
#
# Velocity S-wave (km/s) = 3.64089 3.92745 3.78688
# Velocity P-wave (km/s) = 5.87684 6.41269 6.15061
#
# Compressibility (1/GPa) = 0.02439724
#
# Stress axis : x y z
#
# Youngs Moduli (GPa) = 97.84577 56.86621 106.10043
#
# Poissons Ratio (x) = 0.10249 0.25169
# Poissons Ratio (y) = 0.17634 0.23789
# Poissons Ratio (z) = 0.23211 0.12750
#
# Static dielectric constant tensor:
#      x y z
#    x 1.979430 -0.060200 0.006060 
#    y -0.060200 1.968280 0.024620 
#    z 0.006060 0.024620 1.999200 
# 
# From -- ./inp_files/69023.got.cif
#   From: 2010.05.17/outbox.cif.g08.bks.cpg/sg2_35_cif.got.tgz:69023.got - 2010.06.03 11:33:40.
