data_PCOD9044847
_publ_section_title
;
Structure prediction by ZEFSAII (Michael W. Deem and Ramdas Pophale) SiO2 
 PCOD9044847
Probable space group: P -1
;
_chemical_formula_sum "Si O2"
_cell_formula_units_Z 14
_cell_length_a 11.430804
_cell_length_b 14.777853
_cell_length_c 6.231478
_cell_angle_alpha 93.584000
_cell_angle_beta 85.535245
_cell_angle_gamma 148.793251
_cell_volume 543.729201
_symmetry_space_group_name_H-M "P -1"
_symmetry_group_IT_number 2
_symmetry_cell_setting 'triclinic'
loop_
_space_group_symop_operation_xyz
x,y,z
-x,-y,-z
loop_
_atom_site_type_symbol
_atom_site_label
_atom_site_fract_x
_atom_site_fract_y
_atom_site_fract_z
Si Si1 0.978185 0.411324 0.176225
Si Si2 0.682934 0.713998 0.107533
Si Si3 0.940388 0.190179 0.933911
Si Si4 0.184356 0.009115 0.688831
Si Si5 0.666511 0.282506 0.538650
Si Si6 0.405474 0.935670 0.253553
Si Si7 0.319199 0.371505 0.321415
O O1 0.988682 0.318606 0.059570
O O2 0.149560 0.524334 0.373846
O O3 0.744224 0.285574 0.309187
O O4 0.000000 0.500000 0.000000
O O5 0.427564 0.526411 0.193064
O O6 0.806787 0.880525 0.220396
O O7 0.845717 0.733853 0.124995
O O8 0.658981 0.700673 0.851232
O O9 0.794146 0.036269 0.103837
O O10 0.794768 0.123688 0.741505
O O11 0.943279 0.813056 0.608187
O O12 0.413168 0.151003 0.542925
O O13 0.500000 0.000000 0.500000
O O14 0.682898 0.224441 0.727519
O O15 0.500000 0.000000 0.000000
O O16 0.500000 0.500000 0.500000
#
# Coordination Sequence:
#
# PCOD9044847 Si02
#       7
#     2   2   2   2   2   2   2
#     4  11  25  49  75 117 164 212 283 344 430 501
#     4  10  25  50  77 117 165 218 278 344 423 508
#     4  11  23  48  81 111 164 218 273 351 418 515
#     4  11  25  48  85 118 168 217 283 348 426 515
#     4  11  26  45  77 117 164 217 274 354 420 510
#     4  12  25  46  77 120 161 217 282 349 425 511
#     4  10  23  47  75 110 158 215 278 341 410 494
#
# _framework density 25.74811
#
# number of rings (size 3 to 8) (size 9 to 14) (size 15 to 20)
#    0.000    1.143    2.857    2.571    6.000    1.714 
#    5.143    4.286    0.000    0.000    0.000    0.000 
#    0.000    0.000    0.000    0.000    0.000    0.000 
#
# Total GULP energy -77970.702742 kJ/mol
# GULP energy per Si atom -5569.335910 kJ/mol
# Density = 2.568951 g / cm^3
# Si number density = 25.748110 Si / 1000 Ang^3
#
#
#
# Elastic Constant Matrix: (Units=GPa)
#
#
# Indices 1 2 3 4 5 6 
#
# 1 167.7192 71.4133 77.4415 13.1119 -18.5138 15.0621
# 2 71.4133 157.3760 75.4421 0.1688 -14.3436 31.0490
# 3 77.4415 75.4421 184.4874 20.8336 -0.9290 23.7445
# 4 13.1119 0.1688 20.8336 60.3439 9.0547 5.1880
# 5 -18.5138 -14.3436 -0.9290 9.0547 43.7910 5.5662
# 6 15.0621 31.0490 23.7445 5.1880 5.5662 49.1973
#
#
#
# Elastic Compliance Matrix: (Units=1/GPa)
#
#
# Indices 1 2 3 4 5 6 
#
# 1 0.008578 -0.002429 -0.002409 -0.001480 0.003102 -0.000126
# 2 -0.002429 0.009812 -0.002542 0.001413 0.002431 -0.004646
# 3 -0.002409 -0.002542 0.007822 -0.001902 -0.001152 -0.001103
# 4 -0.001480 0.001413 -0.001902 0.018209 -0.003841 -0.001006
# 5 0.003102 0.002431 -0.001152 -0.003841 0.026285 -0.004497
# 6 -0.000126 -0.004646 -0.001103 -0.001006 -0.004497 0.024444
#
#
# Mechanical properties :
#
#
# Convention : Reuss Voigt Hill
#
# Bulk Modulus (GPa) = 87.31544 106.46404 96.88974
# Shear Modulus (GPa) = 43.96541 49.68550 46.82545
#
# Velocity S-wave (km/s) = 4.13670 4.39757 4.26913
# Velocity P-wave (km/s) = 7.53667 8.19896 7.87478
#
# Compressibility (1/GPa) = 0.01145273
#
# Stress axis : x y z
#
# Youngs Moduli (GPa) = 116.57647 101.92037 127.84542
#
# Poissons Ratio (x) = 0.24754 0.30793
# Poissons Ratio (y) = 0.28313 0.32499
# Poissons Ratio (z) = 0.28079 0.25909
#
# Static dielectric constant tensor:
#      x y z
#    x 1.411790 0.510520 0.354010 
#    y 0.510520 1.943710 -0.211140 
#    z 0.354010 -0.211140 2.051520 
# 
# From -- ./inp_files/273705.got.cif
#   From: 2010.05.17/outbox.cif.g08.bks.cpg/sg2_137_cif.got.tgz:273705.got - 2010.06.03 11:33:40.
