data_PCOD9044853
_publ_section_title
;
Structure prediction by ZEFSAII (Michael W. Deem and Ramdas Pophale) SiO2 
 PCOD9044853
Probable space group: P -1
;
_chemical_formula_sum "Si O2"
_cell_formula_units_Z 15
_cell_length_a 15.508683
_cell_length_b 9.310143
_cell_length_c 14.647068
_cell_angle_alpha 140.984115
_cell_angle_beta 153.045130
_cell_angle_gamma 42.255495
_cell_volume 595.048446
_symmetry_space_group_name_H-M "P -1"
_symmetry_group_IT_number 2
_symmetry_cell_setting 'triclinic'
loop_
_space_group_symop_operation_xyz
x,y,z
-x,-y,-z
loop_
_atom_site_type_symbol
_atom_site_label
_atom_site_fract_x
_atom_site_fract_y
_atom_site_fract_z
Si Si1 0.765349 0.433807 0.957072
Si Si2 0.029680 0.375769 0.605506
Si Si3 0.702560 0.729334 0.811119
Si Si4 0.440197 0.814968 0.780439
Si Si5 0.869308 0.243693 0.765186
Si Si6 0.000000 0.000000 0.500000
Si Si7 0.745243 0.745932 0.414551
Si Si8 0.389076 0.934343 0.272274
O O1 0.548681 0.565314 0.797386
O O2 0.861377 0.341873 0.909335
O O3 0.768902 0.213652 0.916930
O O4 0.882911 0.612954 0.204980
O O5 0.200179 0.358319 0.684525
O O6 0.940756 0.145344 0.419633
O O7 0.878294 0.591735 0.537649
O O8 0.545968 0.828969 0.789065
O O9 0.727446 0.452207 0.685845
O O10 0.672371 0.847410 0.742410
O O11 0.910960 0.771790 0.064832
O O12 0.209815 0.873650 0.588840
O O13 0.500000 0.000000 0.000000
O O14 0.797502 0.001789 0.585499
O O15 0.531100 0.765029 0.256951
O O16 0.500000 0.000000 0.500000
#
# Coordination Sequence:
#
# PCOD9044853 Si02
#       8
#     2   2   2   2   2   1   2   2
#     4  11  24  47  70 106 146 191 245 298 368 434
#     4  11  26  43  72 102 143 192 242 303 358 443
#     4  10  25  45  71 107 141 189 246 298 367 431
#     4  11  24  47  72 110 144 191 248 300 365 438
#     4  10  23  47  75  99 146 191 241 305 360 434
#     4  12  24  46  74 104 146 192 234 310 364 430
#     4  11  25  46  65 107 141 192 245 291 374 428
#     4  12  25  44  68 105 146 189 239 307 357 441
#
# _framework density 25.208033
#
# number of rings (size 3 to 8) (size 9 to 14) (size 15 to 20)
#    0.000    1.067    2.667    2.400    3.733    3.200 
#    2.400    0.000    0.000    0.000    0.000    0.000 
#    0.000    0.000    0.000    0.000    0.000    0.000 
#
# Total GULP energy -83764.573244 kJ/mol
# GULP energy per Si atom -5584.304883 kJ/mol
# Density = 2.515066 g / cm^3
# Si number density = 25.208033 Si / 1000 Ang^3
#
#
#
# Elastic Constant Matrix: (Units=GPa)
#
#
# Indices 1 2 3 4 5 6 
#
# 1 123.0946 71.1583 21.7124 -15.5991 22.9690 9.9211
# 2 71.1583 157.7622 28.2950 -22.5721 -3.0052 19.3322
# 3 21.7124 28.2950 57.5108 -8.2697 0.0451 -16.4631
# 4 -15.5991 -22.5721 -8.2697 27.1487 -9.6196 1.2900
# 5 22.9690 -3.0052 0.0451 -9.6196 35.7464 -8.7343
# 6 9.9211 19.3322 -16.4631 1.2900 -8.7343 55.6551
#
#
#
# Elastic Compliance Matrix: (Units=1/GPa)
#
#
# Indices 1 2 3 4 5 6 
#
# 1 0.014188 -0.005748 -0.003659 -0.001403 -0.010773 -0.003273
# 2 -0.005748 0.010962 -0.003051 0.007079 0.005806 -0.002938
# 3 -0.003659 -0.003051 0.023546 0.004017 0.005452 0.009439
# 4 -0.001403 0.007079 0.004017 0.048274 0.014516 0.000139
# 5 -0.010773 0.005806 0.005452 0.014516 0.041151 0.007638
# 6 -0.003273 -0.002938 0.009439 0.000139 0.007638 0.023560
#
#
# Mechanical properties :
#
#
# Convention : Reuss Voigt Hill
#
# Bulk Modulus (GPa) = 42.05131 64.52212 53.28671
# Shear Modulus (GPa) = 25.70385 38.19015 31.94700
#
# Velocity S-wave (km/s) = 3.19669 3.89652 3.56383
# Velocity P-wave (km/s) = 5.50845 6.77460 6.17407
#
# Compressibility (1/GPa) = 0.02378047
#
# Stress axis : x y z
#
# Youngs Moduli (GPa) = 70.48086 91.22351 42.47039
#
# Poissons Ratio (x) = 0.52438 0.15538
# Poissons Ratio (y) = 0.40514 0.12957
# Poissons Ratio (z) = 0.25786 0.27832
#
# Static dielectric constant tensor:
#      x y z
#    x 1.980040 -0.036180 -0.088470 
#    y -0.036180 1.879190 -0.177800 
#    z -0.088470 -0.177800 1.772780 
# 
# From -- ./inp_files/530287.got.cif
#   From: 2010.05.17/outbox.cif.g08.bks.cpg/sg2_266_cif.got.tgz:530287.got - 2010.06.03 11:33:40.
