data_PCOD9044137
_publ_section_title
;
Structure prediction by ZEFSAII (Michael W. Deem and Ramdas Pophale) SiO2 
 PCOD9044137
Probable space group: P -1
;
_chemical_formula_sum "Si O2"
_cell_formula_units_Z 16
_cell_length_a 9.221589
_cell_length_b 14.745635
_cell_length_c 5.316927
_cell_angle_alpha 97.928433
_cell_angle_beta 96.669978
_cell_angle_gamma 91.260927
_cell_volume 710.696935
_symmetry_space_group_name_H-M "P -1"
_symmetry_group_IT_number 2
_symmetry_cell_setting 'triclinic'
loop_
_space_group_symop_operation_xyz
x,y,z
-x,-y,-z
loop_
_atom_site_type_symbol
_atom_site_label
_atom_site_fract_x
_atom_site_fract_y
_atom_site_fract_z
Si Si1 0.525154 0.584953 0.216190
Si Si2 0.294247 0.267559 0.018990
Si Si3 0.208941 0.424602 0.434788
Si Si4 0.035255 0.124051 0.806071
Si Si5 0.604514 0.191946 0.153695
Si Si6 0.035517 0.580935 0.234690
Si Si7 0.858156 0.082379 0.257925
Si Si8 0.278153 0.713747 0.287393
O O1 0.622902 0.559472 0.458909
O O2 0.371040 0.624051 0.247966
O O3 0.500000 0.500000 0.000000
O O4 0.618870 0.668283 0.137917
O O5 0.213731 0.341303 0.206801
O O6 0.430588 0.210627 0.144821
O O7 0.170069 0.197467 0.863525
O O8 0.143364 0.523647 0.408721
O O9 0.106768 0.393144 0.633388
O O10 0.925221 0.126849 0.546009
O O11 0.105863 0.024123 0.767991
O O12 0.945211 0.125058 0.050569
O O13 0.684842 0.097215 0.191741
O O14 0.685364 0.252570 0.411089
O O15 0.659358 0.220626 0.896155
O O16 0.115356 0.673603 0.190550
O O17 0.000000 0.500000 0.000000
#
# Coordination Sequence:
#
# PCOD9044137 Si02
#       8
#     2   2   2   2   2   2   2   2
#     4  11  24  42  65  90 132 180 228 276 338 395
#     4  11  25  42  66 103 134 181 228 284 340 408
#     4  11  24  41  64  89 130 172 228 283 339 395
#     4  10  24  44  74 101 141 174 228 273 343 411
#     4  11  25  42  68  99 138 171 226 272 343 400
#     4  11  26  41  59  92 126 174 232 281 340 392
#     4  10  23  46  70 106 135 182 217 280 343 412
#     4  11  25  42  64  95 130 175 222 281 332 404
#
# _framework density 22.513110999999999
#
# number of rings (size 3 to 8) (size 9 to 14) (size 15 to 20)
#    0.000    1.250    1.250    3.000   10.500    3.500 
#    0.000    0.000    0.000    6.750    0.000    0.000 
#    0.000    0.000    0.000    0.000    0.000    0.000 
#
# Total GULP energy -89318.923600 kJ/mol
# GULP energy per Si atom -5582.432725 kJ/mol
# Density = 2.246187 g / cm^3
# Si number density = 22.513111 Si / 1000 Ang^3
#
#
#
# Elastic Constant Matrix: (Units=GPa)
#
#
# Indices 1 2 3 4 5 6 
#
# 1 114.1912 37.2603 15.9763 -4.0289 0.6821 -4.0951
# 2 37.2603 66.1403 11.0417 -0.1437 13.1725 -5.9611
# 3 15.9763 11.0417 89.8585 -2.8703 3.1872 18.9109
# 4 -4.0289 -0.1437 -2.8703 25.4666 -1.1716 10.2305
# 5 0.6821 13.1725 3.1872 -1.1716 39.1635 -4.8622
# 6 -4.0951 -5.9611 18.9109 10.2305 -4.8622 52.8677
#
#
#
# Elastic Compliance Matrix: (Units=1/GPa)
#
#
# Indices 1 2 3 4 5 6 
#
# 1 0.011092 -0.006411 -0.001327 0.001457 0.002180 0.000530
# 2 -0.006411 0.020496 -0.001704 -0.002301 -0.006429 0.002278
# 3 -0.001327 -0.001704 0.012919 0.003472 -0.001057 -0.005685
# 4 0.001457 -0.002301 0.003472 0.043847 0.000558 -0.009822
# 5 0.002180 -0.006429 -0.001057 0.000558 0.028046 0.002293
# 6 0.000530 0.002278 -0.005685 -0.009822 0.002293 0.023358
#
#
# Mechanical properties :
#
#
# Convention : Reuss Voigt Hill
#
# Bulk Modulus (GPa) = 39.02437 44.30516 41.66477
# Shear Modulus (GPa) = 29.90770 37.22703 33.56737
#
# Velocity S-wave (km/s) = 3.64875 4.07082 3.86555
# Velocity P-wave (km/s) = 5.92646 6.46668 6.20245
#
# Compressibility (1/GPa) = 0.02562501
#
# Stress axis : x y z
#
# Youngs Moduli (GPa) = 90.15554 48.79012 77.40784
#
# Poissons Ratio (x) = 0.31277 0.10269
# Poissons Ratio (y) = 0.57794 0.13187
# Poissons Ratio (z) = 0.11960 0.08312
#
# Static dielectric constant tensor:
#      x y z
#    x 1.844970 -0.016630 0.009280 
#    y -0.016630 1.463630 0.138570 
#    z 0.009280 0.138570 1.779540 
# 
# From -- ./inp_files/39986.got.cif
#   From: 2010.05.17/outbox.cif.g08.bks.cpg/sg2_20_cif.got.tgz:39986.got - 2010.06.03 11:33:40.
