data_PCOD9044393
_publ_section_title
;
Structure prediction by ZEFSAII (Michael W. Deem and Ramdas Pophale) SiO2 
 PCOD9044393
Probable space group: P -1
;
_chemical_formula_sum "Si O2"
_cell_formula_units_Z 14
_cell_length_a 9.436070
_cell_length_b 7.570260
_cell_length_c 9.505115
_cell_angle_alpha 111.450128
_cell_angle_beta 72.712106
_cell_angle_gamma 112.396758
_cell_volume 574.372226
_symmetry_space_group_name_H-M "P -1"
_symmetry_group_IT_number 2
_symmetry_cell_setting 'triclinic'
loop_
_space_group_symop_operation_xyz
x,y,z
-x,-y,-z
loop_
_atom_site_type_symbol
_atom_site_label
_atom_site_fract_x
_atom_site_fract_y
_atom_site_fract_z
Si Si1 0.140772 0.541729 0.251664
Si Si2 0.867743 0.497868 0.151305
Si Si3 0.309226 0.269418 0.600628
Si Si4 0.740834 0.004557 0.723385
Si Si5 0.374278 0.894136 0.813373
Si Si6 0.656052 0.356559 0.509846
Si Si7 0.164269 0.129599 0.056943
O O1 0.211215 0.573165 0.394486
O O2 0.955662 0.481336 0.267331
O O3 0.202451 0.758765 0.228649
O O4 0.189290 0.364250 0.113039
O O5 0.722334 0.299856 0.125535
O O6 0.000000 0.500000 0.000000
O O7 0.244352 0.082709 0.461513
O O8 0.482428 0.290327 0.610520
O O9 0.335500 0.459371 0.542678
O O10 0.192286 0.310428 0.762012
O O11 0.556933 0.935295 0.792641
O O12 0.829816 0.925403 0.795481
O O13 0.340816 0.828314 0.641844
O O14 0.302991 0.066353 0.925842
O O15 0.000000 0.000000 0.000000
#
# Coordination Sequence:
#
# PCOD9044393 Si02
#       7
#     2   2   2   2   2   2   2
#     4  12  26  43  71 108 142 184 243 284 352 435
#     4  11  24  44  68 104 146 186 234 291 353 425
#     4   9  20  43  75  98 143 188 227 298 354 413
#     4  11  25  47  74 107 139 185 244 291 351 422
#     4  10  23  46  74 100 146 189 228 300 354 415
#     4   9  20  44  73 106 132 187 244 280 355 424
#     4  12  25  45  70 102 149 193 225 294 362 410
#
# _framework density 24.374437
#
# number of rings (size 3 to 8) (size 9 to 14) (size 15 to 20)
#    0.000    1.429    2.857    2.143    0.000    6.857 
#    5.143    0.000    0.000    0.000    0.000    0.000 
#    0.000    0.000    0.000    0.000    0.000    0.000 
#
# Total GULP energy -78388.476471 kJ/mol
# GULP energy per Si atom -5599.176891 kJ/mol
# Density = 2.431896 g / cm^3
# Si number density = 24.374437 Si / 1000 Ang^3
#
#
#
# Elastic Constant Matrix: (Units=GPa)
#
#
# Indices 1 2 3 4 5 6 
#
# 1 76.8870 29.3928 39.1664 6.5483 -16.7679 7.6150
# 2 29.3928 143.6854 24.0691 24.1917 -18.7643 -13.1528
# 3 39.1664 24.0691 88.1576 19.4081 -16.7791 -4.4758
# 4 6.5483 24.1917 19.4081 33.4134 -6.7106 -6.3678
# 5 -16.7679 -18.7643 -16.7791 -6.7106 55.2127 9.6006
# 6 7.6150 -13.1528 -4.4758 -6.3678 9.6006 38.4113
#
#
#
# Elastic Compliance Matrix: (Units=1/GPa)
#
#
# Indices 1 2 3 4 5 6 
#
# 1 0.019550 -0.003194 -0.007993 0.002676 0.003865 -0.006423
# 2 -0.003194 0.008800 0.000531 -0.005349 0.001089 0.002550
# 3 -0.007993 0.000531 0.016898 -0.007931 0.001572 0.002028
# 4 0.002676 -0.005349 -0.007931 0.038594 0.000768 0.002920
# 5 0.003865 0.001089 0.001572 0.000768 0.021160 -0.005372
# 6 -0.006423 0.002550 0.002028 0.002920 -0.005372 0.030243
#
#
# Mechanical properties :
#
#
# Convention : Reuss Voigt Hill
#
# Bulk Modulus (GPa) = 41.78042 54.88740 48.33391
# Shear Modulus (GPa) = 30.38828 39.81426 35.10127
#
# Velocity S-wave (km/s) = 3.53473 4.04597 3.79896
# Velocity P-wave (km/s) = 5.81699 6.66287 6.25425
#
# Compressibility (1/GPa) = 0.02393465
#
# Stress axis : x y z
#
# Youngs Moduli (GPa) = 51.15081 113.63204 59.17979
#
# Poissons Ratio (x) = 0.36295 0.47304
# Poissons Ratio (y) = 0.16338 -0.03140
# Poissons Ratio (z) = 0.40886 -0.06030
#
# Static dielectric constant tensor:
#      x y z
#    x 1.929530 -0.011920 0.014410 
#    y -0.011920 1.935800 -0.004200 
#    z 0.014410 -0.004200 2.064950 
# 
# From -- ./inp_files/158745.got.cif
#   From: 2010.05.17/outbox.cif.g08.bks.cpg/sg2_80_cif.got.tgz:158745.got - 2010.06.03 11:33:40.
