data_PCOD9044886
_publ_section_title
;
Structure prediction by ZEFSAII (Michael W. Deem and Ramdas Pophale) SiO2 
 PCOD9044886
Probable space group: P -1
;
_chemical_formula_sum "Si O2"
_cell_formula_units_Z 12
_cell_length_a 5.235325
_cell_length_b 18.895637
_cell_length_c 5.820388
_cell_angle_alpha 111.098549
_cell_angle_beta 77.891272
_cell_angle_gamma 99.051625
_cell_volume 523.113594
_symmetry_space_group_name_H-M "P -1"
_symmetry_group_IT_number 2
_symmetry_cell_setting 'triclinic'
loop_
_space_group_symop_operation_xyz
x,y,z
-x,-y,-z
loop_
_atom_site_type_symbol
_atom_site_label
_atom_site_fract_x
_atom_site_fract_y
_atom_site_fract_z
Si Si1 0.247512 0.926415 0.206293
Si Si2 0.493518 0.582349 0.481698
Si Si3 0.692771 0.287306 0.016905
Si Si4 0.484966 0.097736 0.363257
Si Si5 0.810390 0.810414 0.189337
Si Si6 0.060540 0.581489 0.200632
O O1 0.343971 0.903723 0.425452
O O2 0.944361 0.893942 0.191108
O O3 0.310358 0.017029 0.295027
O O4 0.378642 0.897771 0.909226
O O5 0.500000 0.500000 0.500000
O O6 0.390710 0.655258 0.708134
O O7 0.271062 0.562193 0.319255
O O8 0.785095 0.605591 0.367987
O O9 0.434446 0.232606 0.943369
O O10 0.792377 0.348120 0.876934
O O11 0.942660 0.239042 0.941939
O O12 0.311213 0.169000 0.516592
O O13 0.000000 0.500000 0.000000
#
# Coordination Sequence:
#
# PCOD9044886 Si02
#       6
#     2   2   2   2   2   2
#     4  10  23  47  78 110 149 201 254 307 371 448
#     4  12  26  46  75 103 139 188 246 307 364 442
#     4  12  28  46  71 106 144 192 242 302 381 436
#     4  10  23  47  78 110 149 201 254 307 371 448
#     4  12  25  48  68 110 152 190 244 314 380 446
#     4  12  26  46  75 103 139 188 246 307 364 442
#
# _framework density 22.939568000000001
#
# number of rings (size 3 to 8) (size 9 to 14) (size 15 to 20)
#    0.000    0.667    3.333    3.500    2.333    5.333 
#    6.000    5.000    0.000    0.000    0.000    0.000 
#    0.000    0.000    0.000    0.000    0.000    0.000 
#
# Total GULP energy -66878.420322 kJ/mol
# GULP energy per Si atom -5573.201694 kJ/mol
# Density = 2.288736 g / cm^3
# Si number density = 22.939568 Si / 1000 Ang^3
#
#
#
# Elastic Constant Matrix: (Units=GPa)
#
#
# Indices 1 2 3 4 5 6 
#
# 1 188.1382 50.6157 97.2903 13.4952 0.0275 22.4786
# 2 50.6157 80.8957 44.4055 4.4416 21.2687 20.4023
# 3 97.2903 44.4055 194.5445 38.0589 -11.3890 3.7603
# 4 13.4952 4.4416 38.0589 48.4592 -0.9111 -1.1728
# 5 0.0275 21.2687 -11.3890 -0.9111 40.1511 17.4880
# 6 22.4786 20.4023 3.7603 -1.1728 17.4880 45.3628
#
#
#
# Elastic Compliance Matrix: (Units=1/GPa)
#
#
# Indices 1 2 3 4 5 6 
#
# 1 0.008206 -0.003082 -0.003328 0.000573 0.002087 -0.003194
# 2 -0.003082 0.019761 -0.003861 0.001814 -0.010183 -0.003068
# 3 -0.003328 -0.003861 0.009023 -0.005707 0.004077 0.000918
# 4 0.000573 0.001814 -0.005707 0.024770 -0.002432 0.000951
# 5 0.002087 -0.010183 0.004077 -0.002432 0.036090 -0.010768
# 6 -0.003194 -0.003068 0.000918 0.000951 -0.010768 0.029107
#
#
# Mechanical properties :
#
#
# Convention : Reuss Voigt Hill
#
# Bulk Modulus (GPa) = 60.79957 94.24459 77.52208
# Shear Modulus (GPa) = 32.68373 44.87908 38.78140
#
# Velocity S-wave (km/s) = 3.77871 4.42793 4.11614
# Velocity P-wave (km/s) = 6.75278 8.20458 7.51382
#
# Compressibility (1/GPa) = 0.01644749
#
# Stress axis : x y z
#
# Youngs Moduli (GPa) = 121.86577 50.60571 110.82232
#
# Poissons Ratio (x) = 0.15596 0.36887
# Poissons Ratio (y) = 0.37557 0.42787
# Poissons Ratio (z) = 0.40562 0.19538
#
# Static dielectric constant tensor:
#      x y z
#    x 1.855720 -0.037640 -0.013960 
#    y -0.037640 1.930380 0.013440 
#    z -0.013960 0.013440 1.943270 
# 
# From -- ./inp_files/8590.got.cif
#   From: 2010.05.17/outbox.cif.g08.bks.cpg/sg2_5_cif.got.tgz:8590.got - 2010.06.03 11:33:40.
