data_PCOD9044864
_publ_section_title
;
Structure prediction by ZEFSAII (Michael W. Deem and Ramdas Pophale) SiO2 
 PCOD9044864
Probable space group: P -1
;
_chemical_formula_sum "Si O2"
_cell_formula_units_Z 10
_cell_length_a 7.714261
_cell_length_b 7.884138
_cell_length_c 7.891140
_cell_angle_alpha 120.374111
_cell_angle_beta 59.198592
_cell_angle_gamma 102.880067
_cell_volume 355.240515
_symmetry_space_group_name_H-M "P -1"
_symmetry_group_IT_number 2
_symmetry_cell_setting 'triclinic'
loop_
_space_group_symop_operation_xyz
x,y,z
-x,-y,-z
loop_
_atom_site_type_symbol
_atom_site_label
_atom_site_fract_x
_atom_site_fract_y
_atom_site_fract_z
Si Si1 0.657373 0.265922 0.333088
Si Si2 0.078256 0.422603 0.742388
Si Si3 0.529127 0.284978 0.797448
Si Si4 0.733610 0.930257 0.683965
Si Si5 0.111190 0.212824 0.105253
O O1 0.706717 0.479832 0.345433
O O2 0.604236 0.271257 0.560667
O O3 0.487367 0.161295 0.262056
O O4 0.882522 0.159731 0.144666
O O5 0.123432 0.192357 0.582502
O O6 0.684308 0.153631 0.769084
O O7 0.000000 0.500000 0.000000
O O8 0.935088 0.544351 0.742692
O O9 0.500000 0.500000 0.000000
O O10 0.306197 0.195801 0.876900
O O11 0.826990 0.867781 0.783805
#
# Coordination Sequence:
#
# PCOD9044864 Si02
#       5
#     2   2   2   2   2
#     4  10  26  49  77 110 156 192 260 316 380 456
#     4  10  23  47  76 113 154 195 249 317 386 450
#     4  12  27  49  77 113 157 204 256 315 377 454
#     4  12  24  49  79 113 154 204 252 313 383 457
#     4  10  26  48  74 112 155 194 258 312 385 456
#
# _framework density 28.149940000000001
#
# number of rings (size 3 to 8) (size 9 to 14) (size 15 to 20)
#    1.200    0.000    0.000    4.800    2.800    3.200 
#    3.600    0.000    0.000    0.000    0.000    0.000 
#    0.000    0.000    0.000    0.000    0.000    0.000 
#
# Total GULP energy -56091.354188 kJ/mol
# GULP energy per Si atom -5609.135419 kJ/mol
# Density = 2.808587 g / cm^3
# Si number density = 28.149940 Si / 1000 Ang^3
#
#
#
# Elastic Constant Matrix: (Units=GPa)
#
#
# Indices 1 2 3 4 5 6 
#
# 1 196.6489 63.3045 52.6039 15.2760 -12.2300 -22.4913
# 2 63.3045 139.7217 64.6929 9.5917 -2.7446 -26.7357
# 3 52.6039 64.6929 196.3098 -3.0035 -8.0305 -21.5632
# 4 15.2760 9.5917 -3.0035 53.3204 0.9954 -19.0919
# 5 -12.2300 -2.7446 -8.0305 0.9954 57.5403 -13.7587
# 6 -22.4913 -26.7357 -21.5632 -19.0919 -13.7587 74.2341
#
#
#
# Elastic Compliance Matrix: (Units=1/GPa)
#
#
# Indices 1 2 3 4 5 6 
#
# 1 0.006283 -0.002198 -0.000834 -0.001186 0.001329 0.000811
# 2 -0.002198 0.009682 -0.002381 -0.000525 0.000155 0.002023
# 3 -0.000834 -0.002381 0.006297 0.001455 0.000862 0.001253
# 4 -0.001186 -0.000525 0.001455 0.021221 0.000872 0.005494
# 5 0.001329 0.000155 0.000862 0.000872 0.018832 0.004424
# 6 0.000811 0.002023 0.001253 0.005494 0.004424 0.017042
#
#
# Mechanical properties :
#
#
# Convention : Reuss Voigt Hill
#
# Bulk Modulus (GPa) = 87.44172 99.32032 93.38102
# Shear Modulus (GPa) = 53.19382 60.49088 56.84235
#
# Velocity S-wave (km/s) = 4.35174 4.64063 4.49850
# Velocity P-wave (km/s) = 7.50869 8.00457 7.76059
#
# Compressibility (1/GPa) = 0.01143619
#
# Stress axis : x y z
#
# Youngs Moduli (GPa) = 159.14879 103.28956 158.79827
#
# Poissons Ratio (x) = 0.22702 0.13246
# Poissons Ratio (y) = 0.34980 0.37809
# Poissons Ratio (z) = 0.13275 0.24593
#
# Static dielectric constant tensor:
#      x y z
#    x 2.198030 0.031470 -0.094260 
#    y 0.031470 2.562700 0.151310 
#    z -0.094260 0.151310 2.194160 
# 
# From -- ./inp_files/148140.got.cif
#   From: 2010.05.17/outbox.cif.g08.bks.cpg/sg2_75_cif.got.tgz:148140.got - 2010.06.03 11:33:40.
