data_PCOD9044760
_publ_section_title
;
Structure prediction by ZEFSAII (Michael W. Deem and Ramdas Pophale) SiO2 
 PCOD9044760
Probable space group: P -1
;
_chemical_formula_sum "Si O2"
_cell_formula_units_Z 16
_cell_length_a 9.061801
_cell_length_b 13.619643
_cell_length_c 13.949087
_cell_angle_alpha 150.581818
_cell_angle_beta 51.669144
_cell_angle_gamma 127.352538
_cell_volume 653.377437
_symmetry_space_group_name_H-M "P -1"
_symmetry_group_IT_number 2
_symmetry_cell_setting 'triclinic'
loop_
_space_group_symop_operation_xyz
x,y,z
-x,-y,-z
loop_
_atom_site_type_symbol
_atom_site_label
_atom_site_fract_x
_atom_site_fract_y
_atom_site_fract_z
Si Si1 0.355405 0.424816 0.221250
Si Si2 0.156655 0.163810 0.387091
Si Si3 0.351086 0.057304 0.035559
Si Si4 0.826682 0.789608 0.237717
Si Si5 0.970459 0.211655 0.141877
Si Si6 0.493383 0.755213 0.181638
Si Si7 0.574303 0.838514 0.551620
Si Si8 0.078658 0.506984 0.179335
O O1 0.428763 0.248938 0.102307
O O2 0.416171 0.643210 0.427864
O O3 0.124219 0.372669 0.273586
O O4 0.440751 0.391575 0.052339
O O5 0.197988 0.136443 0.235282
O O6 0.337855 0.139385 0.359107
O O7 0.084495 0.372024 0.618956
O O8 0.983574 0.987142 0.331634
O O9 0.500000 0.000000 0.000000
O O10 0.253944 0.858892 0.846294
O O11 0.649378 0.791450 0.235447
O O12 0.748514 0.788147 0.374148
O O13 0.920084 0.593175 0.010035
O O14 0.044459 0.302019 0.084624
O O15 0.000000 0.000000 0.000000
O O16 0.283553 0.660468 0.227298
O O17 0.483391 0.963016 0.305633
#
# Coordination Sequence:
#
# PCOD9044760 Si02
#       8
#     2   2   2   2   2   2   2   2
#     4  11  24  46  72 104 141 186 234 291 360 407
#     4  12  28  46  68 107 145 191 239 284 354 432
#     4  11  25  50  74  96 142 190 240 297 347 418
#     4  12  24  45  72 104 148 185 230 296 358 416
#     4  10  23  47  73 101 137 184 239 291 350 413
#     4  12  24  43  76 110 142 183 237 296 350 427
#     4  12  27  43  67 111 148 184 238 285 353 431
#     4  12  24  43  78 102 144 186 230 292 362 416
#
# _framework density 24.488142
#
# number of rings (size 3 to 8) (size 9 to 14) (size 15 to 20)
#    0.000    0.500    5.000    2.625    3.500    2.000 
#    4.500    1.250    0.000    0.000    0.000    0.000 
#    0.000    0.000    0.000    0.000    0.000    0.000 
#
# Total GULP energy -89310.629723 kJ/mol
# GULP energy per Si atom -5581.914358 kJ/mol
# Density = 2.443241 g / cm^3
# Si number density = 24.488142 Si / 1000 Ang^3
#
#
#
# Elastic Constant Matrix: (Units=GPa)
#
#
# Indices 1 2 3 4 5 6 
#
# 1 108.5149 49.1568 16.2144 8.3412 5.9740 -5.7118
# 2 49.1568 119.8268 28.9676 30.1852 4.1369 6.3264
# 3 16.2144 28.9676 108.3360 -2.7680 3.2812 10.4787
# 4 8.3412 30.1852 -2.7680 38.0041 1.9001 9.6935
# 5 5.9740 4.1369 3.2812 1.9001 30.6923 -1.5753
# 6 -5.7118 6.3264 10.4787 9.6935 -1.5753 19.0787
#
#
#
# Elastic Compliance Matrix: (Units=1/GPa)
#
#
# Indices 1 2 3 4 5 6 
#
# 1 0.011961 -0.004859 -0.001018 -0.000250 -0.001252 0.005775
# 2 -0.004859 0.013674 -0.003301 -0.010317 0.000150 0.001079
# 3 -0.001018 -0.003301 0.011282 0.005909 -0.001366 -0.008522
# 4 -0.000250 -0.010317 0.005909 0.040398 -0.002753 -0.020652
# 5 -0.001252 0.000150 -0.001366 -0.002753 0.033351 0.004478
# 6 0.005775 0.001079 -0.008522 -0.020652 0.004478 0.069329
#
#
# Mechanical properties :
#
#
# Convention : Reuss Voigt Hill
#
# Bulk Modulus (GPa) = 53.88002 58.37280 56.12641
# Shear Modulus (GPa) = 24.44530 33.71095 29.07813
#
# Velocity S-wave (km/s) = 3.16294 3.71431 3.44966
# Velocity P-wave (km/s) = 5.94888 6.50260 6.23189
#
# Compressibility (1/GPa) = 0.01855976
#
# Stress axis : x y z
#
# Youngs Moduli (GPa) = 83.60656 73.13298 88.63493
#
# Poissons Ratio (x) = 0.35537 0.09022
# Poissons Ratio (y) = 0.40627 0.29262
# Poissons Ratio (z) = 0.08510 0.24144
#
# Static dielectric constant tensor:
#      x y z
#    x 1.972030 0.026720 -0.035120 
#    y 0.026720 1.950080 -0.049710 
#    z -0.035120 -0.049710 2.012850 
# 
# From -- ./inp_files/505698.got.cif
#   From: 2010.05.17/outbox.cif.g08.bks.cpg/sg2_253_cif.got.tgz:505698.got - 2010.06.03 11:33:40.
