data_PCOD9044806
_publ_section_title
;
Structure prediction by ZEFSAII (Michael W. Deem and Ramdas Pophale) SiO2 
 PCOD9044806
Probable space group: P -1
;
_chemical_formula_sum "Si O2"
_cell_formula_units_Z 14
_cell_length_a 10.226906
_cell_length_b 5.668569
_cell_length_c 25.781227
_cell_angle_alpha 60.399553
_cell_angle_beta 25.341638
_cell_angle_gamma 61.757386
_cell_volume 554.775205
_symmetry_space_group_name_H-M "P -1"
_symmetry_group_IT_number 2
_symmetry_cell_setting 'triclinic'
loop_
_space_group_symop_operation_xyz
x,y,z
-x,-y,-z
loop_
_atom_site_type_symbol
_atom_site_label
_atom_site_fract_x
_atom_site_fract_y
_atom_site_fract_z
Si Si1 0.626018 0.738676 0.186648
Si Si2 0.639442 0.256509 0.355155
Si Si3 0.262458 0.758333 0.559529
Si Si4 0.281860 0.767181 0.969701
Si Si5 0.716768 0.932026 0.879587
Si Si6 0.665288 0.487762 0.774927
Si Si7 0.185775 0.744094 0.432154
O O1 0.462055 0.512156 0.237873
O O2 0.376080 0.857030 0.303631
O O3 0.713838 0.926672 0.086612
O O4 0.939353 0.696775 0.110187
O O5 0.777250 0.198689 0.369377
O O6 0.451486 0.552259 0.388556
O O7 0.939803 0.195318 0.218340
O O8 0.398620 0.026113 0.458329
O O9 0.500000 0.500000 0.500000
O O10 0.957494 0.660036 0.655240
O O11 0.520508 0.745233 0.933150
O O12 0.399827 0.598959 0.896202
O O13 0.763118 0.199437 0.798920
O O14 0.500000 0.000000 0.000000
O O15 0.000000 0.500000 0.500000
O O16 0.000000 0.000000 0.500000
#
# Coordination Sequence:
#
# PCOD9044806 Si02
#       7
#     2   2   2   2   2   2   2
#     4  10  26  47  73 107 149 203 264 314 385 471
#     4  11  27  48  72 115 152 205 260 327 406 466
#     4  11  24  44  79 109 151 199 264 329 391 476
#     4  10  23  47  74 105 147 202 256 324 385 464
#     4  11  25  44  73 117 155 200 257 326 403 474
#     4  11  23  43  78 108 149 202 265 317 395 464
#     4  12  33  52  77 113 161 215 264 330 403 475
#
# _framework density 25.235448000000002
#
# number of rings (size 3 to 8) (size 9 to 14) (size 15 to 20)
#    0.000    1.143    2.857    0.429   10.000    2.857 
#    0.000    0.000    0.000    0.000    0.000    0.000 
#    0.000    0.000    0.000    0.000    0.000    0.000 
#
# Total GULP energy -78245.852079 kJ/mol
# GULP energy per Si atom -5588.989434 kJ/mol
# Density = 2.517801 g / cm^3
# Si number density = 25.235448 Si / 1000 Ang^3
#
#
#
# Elastic Constant Matrix: (Units=GPa)
#
#
# Indices 1 2 3 4 5 6 
#
# 1 72.4381 37.1283 67.8896 -17.2588 -11.4158 21.5163
# 2 37.1283 140.2008 82.0612 9.0203 -17.2081 5.4001
# 3 67.8896 82.0612 203.9367 20.4495 -16.2921 18.0033
# 4 -17.2588 9.0203 20.4495 50.0019 10.3076 14.3461
# 5 -11.4158 -17.2081 -16.2921 10.3076 37.9312 6.2741
# 6 21.5163 5.4001 18.0033 14.3461 6.2741 41.5452
#
#
#
# Elastic Compliance Matrix: (Units=1/GPa)
#
#
# Indices 1 2 3 4 5 6 
#
# 1 0.042587 -0.004336 -0.012756 0.027675 0.002125 -0.025842
# 2 -0.004336 0.010088 -0.002253 -0.003786 0.002873 0.002784
# 3 -0.012756 -0.002253 0.010730 -0.010318 0.001631 0.005566
# 4 0.027675 -0.003786 -0.010318 0.042215 -0.005468 -0.023121
# 5 0.002125 0.002873 0.001631 -0.005468 0.031323 -0.005023
# 6 -0.025842 0.002784 0.005566 -0.023121 -0.005023 0.043422
#
#
# Mechanical properties :
#
#
# Convention : Reuss Voigt Hill
#
# Bulk Modulus (GPa) = 40.46060 87.85933 64.15996
# Shear Modulus (GPa) = 21.99792 41.19542 31.59667
#
# Velocity S-wave (km/s) = 2.95567 4.04473 3.54231
# Velocity P-wave (km/s) = 5.26460 7.53024 6.49695
#
# Compressibility (1/GPa) = 0.02471540
#
# Stress axis : x y z
#
# Youngs Moduli (GPa) = 23.48142 99.12468 93.19713
#
# Poissons Ratio (x) = 0.42980 1.18885
# Poissons Ratio (y) = 0.10181 0.20994
# Poissons Ratio (z) = 0.29954 0.22329
#
# Static dielectric constant tensor:
#      x y z
#    x 2.053970 -0.011000 0.001850 
#    y -0.011000 2.117280 -0.000500 
#    z 0.001850 -0.000500 2.118100 
# 
# From -- ./inp_files/622856.got.cif
#   From: 2010.05.17/outbox.cif.g08.bks.cpg/sg2_312_cif.got.tgz:622856.got - 2010.06.03 11:33:40.
