data_PCOD9044117
_publ_section_title
;
Structure prediction by ZEFSAII (Michael W. Deem and Ramdas Pophale) SiO2 
 PCOD9044117
Probable space group: P -1
;
_chemical_formula_sum "Si O2"
_cell_formula_units_Z 12
_cell_length_a 4.955709
_cell_length_b 10.177174
_cell_length_c 12.165130
_cell_angle_alpha 122.695858
_cell_angle_beta 64.078486
_cell_angle_gamma 109.975199
_cell_volume 459.854743
_symmetry_space_group_name_H-M "P -1"
_symmetry_group_IT_number 2
_symmetry_cell_setting 'triclinic'
loop_
_space_group_symop_operation_xyz
x,y,z
-x,-y,-z
loop_
_atom_site_type_symbol
_atom_site_label
_atom_site_fract_x
_atom_site_fract_y
_atom_site_fract_z
Si Si1 0.391650 0.649163 0.453837
Si Si2 0.833485 0.258290 0.858233
Si Si3 0.730219 0.938681 0.845138
Si Si4 0.065527 0.824070 0.428032
Si Si5 0.195142 0.716864 0.743079
Si Si6 0.341113 0.539063 0.843706
O O1 0.237554 0.790612 0.492503
O O2 0.240576 0.610346 0.580563
O O3 0.387265 0.513610 0.300597
O O4 0.745564 0.711914 0.433400
O O5 0.745123 0.223053 0.732168
O O6 0.135189 0.385060 0.856913
O O7 0.891561 0.094722 0.827815
O O8 0.600591 0.339375 0.011365
O O9 0.518520 0.828798 0.749223
O O10 0.952827 0.833495 0.815645
O O11 0.500000 0.000000 0.000000
O O12 0.000000 0.000000 0.500000
O O13 0.157160 0.624520 0.822991
#
# Coordination Sequence:
#
# PCOD9044117 Si02
#       6
#     2   2   2   2   2   2
#     4  11  24  43  68 101 140 181 232 282 346 414
#     4  10  23  46  70 102 143 181 236 286 350 411
#     4  12  26  47  72 105 138 183 237 290 346 412
#     4  11  23  43  68 102 137 186 230 286 345 409
#     4  12  25  47  74 103 141 183 237 288 346 415
#     4  10  24  45  71 106 142 188 228 288 353 416
#
# _framework density 26.095198
#
# number of rings (size 3 to 8) (size 9 to 14) (size 15 to 20)
#    0.000    1.000    1.667    4.500    0.000    7.333 
#    3.000    5.833    0.000    0.000    0.000    0.000 
#    0.000    0.000    0.000    0.000    0.000    0.000 
#
# Total GULP energy -67301.950252 kJ/mol
# GULP energy per Si atom -5608.495854 kJ/mol
# Density = 2.603580 g / cm^3
# Si number density = 26.095198 Si / 1000 Ang^3
#
#
#
# Elastic Constant Matrix: (Units=GPa)
#
#
# Indices 1 2 3 4 5 6 
#
# 1 89.6922 62.7521 29.7579 -2.5149 -16.9499 -18.2896
# 2 62.7521 183.6072 26.8539 -2.9849 -15.4269 -5.1700
# 3 29.7579 26.8539 178.2563 -11.0053 -1.6347 -3.6455
# 4 -2.5149 -2.9849 -11.0053 42.1503 -1.0536 -1.2891
# 5 -16.9499 -15.4269 -1.6347 -1.0536 31.5565 3.1345
# 6 -18.2896 -5.1700 -3.6455 -1.2891 3.1345 38.7599
#
#
#
# Elastic Compliance Matrix: (Units=1/GPa)
#
#
# Indices 1 2 3 4 5 6 
#
# 1 0.018103 -0.005144 -0.002007 0.000572 0.006412 0.007168
# 2 -0.005144 0.007279 -0.000254 0.000118 0.000940 -0.001552
# 3 -0.002007 -0.000254 0.006057 0.001414 -0.000811 -0.000298
# 4 0.000572 0.000118 0.001414 0.024199 0.001134 0.001132
# 5 0.006412 0.000940 -0.000811 0.001134 0.035565 0.000236
# 6 0.007168 -0.001552 -0.000298 0.001132 0.000236 0.028966
#
#
# Mechanical properties :
#
#
# Convention : Reuss Voigt Hill
#
# Bulk Modulus (GPa) = 60.12936 76.69818 68.41377
# Shear Modulus (GPa) = 35.58189 44.63947 40.11068
#
# Velocity S-wave (km/s) = 3.69662 4.14047 3.92483
# Velocity P-wave (km/s) = 6.42747 7.23281 6.84200
#
# Compressibility (1/GPa) = 0.01663081
#
# Stress axis : x y z
#
# Youngs Moduli (GPa) = 55.23867 137.38581 165.10206
#
# Poissons Ratio (x) = 0.70669 0.33128
# Poissons Ratio (y) = 0.28414 0.04188
# Poissons Ratio (z) = 0.11084 0.03485
#
# Static dielectric constant tensor:
#      x y z
#    x 2.011460 0.039300 0.019510 
#    y 0.039300 1.994600 0.022820 
#    z 0.019510 0.022820 2.103950 
# 
# From -- ./inp_files/62611.got.cif
#   From: 2010.05.17/outbox.cif.g08.bks.cpg/sg2_32_cif.got.tgz:62611.got - 2010.06.03 11:33:40.
