data_PCOD9044729
_publ_section_title
;
Structure prediction by ZEFSAII (Michael W. Deem and Ramdas Pophale) SiO2 
 PCOD9044729
Probable space group: P -1
;
_chemical_formula_sum "Si O2"
_cell_formula_units_Z 14
_cell_length_a 8.584331
_cell_length_b 14.598295
_cell_length_c 4.862852
_cell_angle_alpha 90.622937
_cell_angle_beta 100.971511
_cell_angle_gamma 61.486746
_cell_volume 523.428558
_symmetry_space_group_name_H-M "P -1"
_symmetry_group_IT_number 2
_symmetry_cell_setting 'triclinic'
loop_
_space_group_symop_operation_xyz
x,y,z
-x,-y,-z
loop_
_atom_site_type_symbol
_atom_site_label
_atom_site_fract_x
_atom_site_fract_y
_atom_site_fract_z
Si Si1 0.054731 0.393690 0.350526
Si Si2 0.836531 0.821142 0.413876
Si Si3 0.126377 0.875282 0.542847
Si Si4 0.342507 0.831412 0.132515
Si Si5 0.332814 0.046292 0.152168
Si Si6 0.670357 0.433113 0.246983
Si Si7 0.423290 0.364696 0.438499
O O1 0.119765 0.296821 0.577745
O O2 0.242018 0.367279 0.246692
O O3 0.000000 0.500000 0.500000
O O4 0.866766 0.400292 0.172868
O O5 0.674267 0.891079 0.573721
O O6 0.001995 0.829142 0.608408
O O7 0.808799 0.870051 0.106538
O O8 0.179524 0.834634 0.251216
O O9 0.298556 0.846273 0.796262
O O10 0.000000 0.000000 0.500000
O O11 0.508251 0.724370 0.300151
O O12 0.320182 0.943318 0.220135
O O13 0.500000 0.000000 0.000000
O O14 0.605194 0.352641 0.343630
O O15 0.654542 0.517603 0.470195
O O16 0.500000 0.500000 0.000000
#
# Coordination Sequence:
#
# PCOD9044729 Si02
#       7
#     2   2   2   2   2   2   2
#     4  10  24  50  72 107 148 190 255 312 379 445
#     4  12  25  45  70 105 145 197 244 305 374 442
#     4  12  23  43  70 106 147 194 247 305 369 442
#     4  12  24  42  71 104 147 192 247 305 372 450
#     4  12  25  44  67 101 149 191 244 300 369 448
#     4  10  23  47  72 103 138 188 249 311 377 443
#     4  10  24  44  71 102 144 189 245 308 377 440
#
# _framework density 26.746727
#
# number of rings (size 3 to 8) (size 9 to 14) (size 15 to 20)
#    0.000    0.857    2.857    3.429    4.000    1.714 
#   10.286    0.000    0.000    0.000    0.000    0.000 
#    0.000    0.000    0.000    0.000    0.000    0.000 
#
# Total GULP energy -78091.740346 kJ/mol
# GULP energy per Si atom -5577.981453 kJ/mol
# Density = 2.668585 g / cm^3
# Si number density = 26.746727 Si / 1000 Ang^3
#
#
#
# Elastic Constant Matrix: (Units=GPa)
#
#
# Indices 1 2 3 4 5 6 
#
# 1 193.1348 39.5619 40.2355 -26.5381 18.5632 -11.9740
# 2 39.5619 156.5833 27.1049 -21.1188 -4.4082 37.7095
# 3 40.2355 27.1049 116.7142 -20.5009 -1.9879 6.8000
# 4 -26.5381 -21.1188 -20.5009 36.8700 -3.2804 -9.1205
# 5 18.5632 -4.4082 -1.9879 -3.2804 35.0039 -0.5680
# 6 -11.9740 37.7095 6.8000 -9.1205 -0.5680 38.9947
#
#
#
# Elastic Compliance Matrix: (Units=1/GPa)
#
#
# Indices 1 2 3 4 5 6 
#
# 1 0.007326 -0.002551 -0.001635 0.004018 -0.003827 0.005886
# 2 -0.002551 0.009712 -0.000549 0.001231 0.002502 -0.009755
# 3 -0.001635 -0.000549 0.010046 0.004064 0.001737 -0.000747
# 4 0.004018 0.001231 0.004064 0.034992 0.001657 0.007543
# 5 -0.003827 0.002502 0.001737 0.001657 0.031117 -0.003057
# 6 0.005886 -0.009755 -0.000747 0.007543 -0.003057 0.038735
#
#
# Mechanical properties :
#
#
# Convention : Reuss Voigt Hill
#
# Bulk Modulus (GPa) = 56.77588 75.58188 66.17888
# Shear Modulus (GPa) = 33.95117 46.14238 40.04678
#
# Velocity S-wave (km/s) = 3.56667 4.15801 3.87364
# Velocity P-wave (km/s) = 6.18343 7.16741 6.69353
#
# Compressibility (1/GPa) = 0.01761311
#
# Stress axis : x y z
#
# Youngs Moduli (GPa) = 136.50324 102.96951 99.54038
#
# Poissons Ratio (x) = 0.26269 0.16279
# Poissons Ratio (y) = 0.34824 0.05462
# Poissons Ratio (z) = 0.22323 0.05650
#
# Static dielectric constant tensor:
#      x y z
#    x 1.843990 -0.372270 0.278970 
#    y -0.372270 1.957950 0.130130 
#    z 0.278970 0.130130 1.951980 
# 
# From -- ./inp_files/44673.got.cif
#   From: 2010.05.17/outbox.cif.g08.bks.cpg/sg2_23_cif.got.tgz:44673.got - 2010.06.03 11:33:40.
