data_PCOD9044600
_publ_section_title
;
Structure prediction by ZEFSAII (Michael W. Deem and Ramdas Pophale) SiO2 
 PCOD9044600
Probable space group: P -1
;
_chemical_formula_sum "Si O2"
_cell_formula_units_Z 14
_cell_length_a 15.406459
_cell_length_b 11.311147
_cell_length_c 9.548835
_cell_angle_alpha 115.079399
_cell_angle_beta 141.250813
_cell_angle_gamma 39.369003
_cell_volume 589.664826
_symmetry_space_group_name_H-M "P -1"
_symmetry_group_IT_number 2
_symmetry_cell_setting 'triclinic'
loop_
_space_group_symop_operation_xyz
x,y,z
-x,-y,-z
loop_
_atom_site_type_symbol
_atom_site_label
_atom_site_fract_x
_atom_site_fract_y
_atom_site_fract_z
Si Si1 0.589767 0.654833 0.265153
Si Si2 0.745856 0.699003 0.235758
Si Si3 0.156269 0.771245 0.526023
Si Si4 0.117689 0.071667 0.991681
Si Si5 0.490147 0.122390 0.253943
Si Si6 0.202016 0.290118 0.234733
Si Si7 0.325960 0.733933 0.448189
O O1 0.600848 0.704778 0.148624
O O2 0.712924 0.425067 0.311355
O O3 0.721906 0.662875 0.530413
O O4 0.344895 0.833141 0.115632
O O5 0.000000 0.500000 0.500000
O O6 0.661868 0.902827 0.281009
O O7 0.700100 0.714770 0.021415
O O8 0.323206 0.721582 0.606403
O O9 0.000000 0.000000 0.500000
O O10 0.997677 0.803583 0.239533
O O11 0.924515 0.122369 0.835254
O O12 0.148706 0.184076 0.168424
O O13 0.390854 0.133112 0.274401
O O14 0.599751 0.178872 0.459973
O O15 0.000000 0.500000 0.000000
O O16 0.500000 0.500000 0.500000
#
# Coordination Sequence:
#
# PCOD9044600 Si02
#       7
#     2   2   2   2   2   2   2
#     4  12  24  44  74 106 132 182 252 285 343 421
#     4  11  27  42  71 104 140 180 232 291 350 410
#     4  10  25  43  70  97 144 185 230 283 362 416
#     4  10  24  41  70 102 137 181 236 292 342 421
#     4  11  25  46  69 100 145 177 228 290 354 411
#     4  12  21  44  76  98 136 186 234 292 344 413
#     4  10  23  47  68  97 143 191 223 282 366 416
#
# _framework density 23.742301999999999
#
# number of rings (size 3 to 8) (size 9 to 14) (size 15 to 20)
#    0.857    0.286    2.857    3.000    4.000    0.571 
#    2.571    1.429    0.000    0.000    0.000    0.000 
#    0.000    0.000    0.000    0.000    0.000    0.000 
#
# Total GULP energy -78320.991314 kJ/mol
# GULP energy per Si atom -5594.356522 kJ/mol
# Density = 2.368826 g / cm^3
# Si number density = 23.742302 Si / 1000 Ang^3
#
#
#
# Elastic Constant Matrix: (Units=GPa)
#
#
# Indices 1 2 3 4 5 6 
#
# 1 64.7247 22.8605 14.1984 9.4566 -3.8922 -0.8640
# 2 22.8605 130.3224 36.3855 -14.0647 12.1093 8.8521
# 3 14.1984 36.3855 124.8637 -2.2454 12.9976 4.6607
# 4 9.4566 -14.0647 -2.2454 37.1819 0.0095 0.5325
# 5 -3.8922 12.1093 12.9976 0.0095 36.7404 -3.5712
# 6 -0.8640 8.8521 4.6607 0.5325 -3.5712 40.0320
#
#
#
# Elastic Compliance Matrix: (Units=1/GPa)
#
#
# Indices 1 2 3 4 5 6 
#
# 1 0.018374 -0.003974 -0.001530 -0.006297 0.003983 0.001893
# 2 -0.003974 0.009871 -0.001915 0.004664 -0.003231 -0.002396
# 3 -0.001530 -0.001915 0.009074 0.000227 -0.002831 -0.000921
# 4 -0.006297 0.004664 0.000227 0.030301 -0.002469 -0.001817
# 5 0.003983 -0.003231 -0.002831 -0.002469 0.030081 0.003846
# 6 0.001893 -0.002396 -0.000921 -0.001817 0.003846 0.026025
#
#
# Mechanical properties :
#
#
# Convention : Reuss Voigt Hill
#
# Bulk Modulus (GPa) = 44.48111 51.86662 48.17386
# Shear Modulus (GPa) = 34.23292 39.22195 36.72744
#
# Velocity S-wave (km/s) = 3.80129 4.06887 3.93736
# Velocity P-wave (km/s) = 6.16783 6.63079 6.40349
#
# Compressibility (1/GPa) = 0.02248145
#
# Stress axis : x y z
#
# Youngs Moduli (GPa) = 54.42436 101.30233 110.20715
#
# Poissons Ratio (x) = 0.40260 0.16859
# Poissons Ratio (y) = 0.21630 0.21104
# Poissons Ratio (z) = 0.08326 0.19399
#
# Static dielectric constant tensor:
#      x y z
#    x 1.906420 0.008290 -0.028720 
#    y 0.008290 1.856110 -0.008240 
#    z -0.028720 -0.008240 1.951260 
# 
# From -- ./inp_files/464758.got.cif
#   From: 2010.05.17/outbox.cif.g08.bks.cpg/sg2_233_cif.got.tgz:464758.got - 2010.06.03 11:33:40.
