data_PCOD9044499
_publ_section_title
;
Structure prediction by ZEFSAII (Michael W. Deem and Ramdas Pophale) SiO2 
 PCOD9044499
Probable space group: P -1
;
_chemical_formula_sum "Si O2"
_cell_formula_units_Z 12
_cell_length_a 8.414916
_cell_length_b 12.371920
_cell_length_c 8.847118
_cell_angle_alpha 143.531274
_cell_angle_beta 67.643791
_cell_angle_gamma 114.531018
_cell_volume 496.204999
_symmetry_space_group_name_H-M "P -1"
_symmetry_group_IT_number 2
_symmetry_cell_setting 'triclinic'
loop_
_space_group_symop_operation_xyz
x,y,z
-x,-y,-z
loop_
_atom_site_type_symbol
_atom_site_label
_atom_site_fract_x
_atom_site_fract_y
_atom_site_fract_z
Si Si1 0.813087 0.948989 0.437012
Si Si2 0.722575 0.342853 0.430785
Si Si3 0.604348 0.580078 0.200165
Si Si4 0.634639 0.226667 0.996098
Si Si5 0.326725 0.330728 0.334791
Si Si6 0.964535 0.136957 0.297810
O O1 0.845416 0.018522 0.333578
O O2 0.754232 0.733359 0.247729
O O3 0.690591 0.068175 0.700285
O O4 0.000000 0.000000 0.500000
O O5 0.524437 0.313205 0.536118
O O6 0.730080 0.261251 0.165117
O O7 0.763880 0.565383 0.643406
O O8 0.852747 0.276200 0.423167
O O9 0.657708 0.413675 0.092713
O O10 0.500000 0.500000 0.000000
O O11 0.429099 0.180115 0.064270
O O12 0.500000 0.500000 0.500000
O O13 0.161616 0.242350 0.398464
O O14 0.000000 0.000000 0.000000
#
# Coordination Sequence:
#
# PCOD9044499 Si02
#       6
#     2   2   2   2   2   2
#     4  12  30  47  73 112 151 191 247 308 366 437
#     4  10  23  46  78 104 143 196 246 297 365 436
#     4  11  26  48  77 110 150 196 243 303 373 437
#     4  10  24  50  79 103 149 196 247 295 371 437
#     4   9  22  46  75 101 138 196 242 291 365 436
#     4  12  27  45  72 110 148 185 248 307 363 433
#
# _framework density 24.183554000000001
#
# number of rings (size 3 to 8) (size 9 to 14) (size 15 to 20)
#    0.000    1.333    0.000    4.000   16.333    2.667 
#    9.000    0.000    0.000    0.000    0.000    0.000 
#    0.000    0.000    0.000    0.000    0.000    0.000 
#
# Total GULP energy -66974.060562 kJ/mol
# GULP energy per Si atom -5581.171713 kJ/mol
# Density = 2.412851 g / cm^3
# Si number density = 24.183554 Si / 1000 Ang^3
#
#
#
# Elastic Constant Matrix: (Units=GPa)
#
#
# Indices 1 2 3 4 5 6 
#
# 1 80.4828 45.1641 -4.7837 9.7289 9.5834 -8.1968
# 2 45.1641 144.6229 12.2750 -8.6021 16.8672 -5.3131
# 3 -4.7837 12.2750 50.7867 -15.0970 10.6472 -17.2173
# 4 9.7289 -8.6021 -15.0970 39.1975 -2.9081 9.6684
# 5 9.5834 16.8672 10.6472 -2.9081 37.7706 6.8986
# 6 -8.1968 -5.3131 -17.2173 9.6684 6.8986 41.1884
#
#
#
# Elastic Compliance Matrix: (Units=1/GPa)
#
#
# Indices 1 2 3 4 5 6 
#
# 1 0.017818 -0.005456 0.004712 -0.005931 -0.005161 0.007068
# 2 -0.005456 0.009107 -0.001887 0.002756 -0.001746 -0.001054
# 3 0.004712 -0.001887 0.028921 0.005508 -0.010501 0.013249
# 4 -0.005931 0.002756 0.005508 0.031430 0.002289 -0.006283
# 5 -0.005161 -0.001746 -0.010501 0.002289 0.033866 -0.011851
# 6 0.007068 -0.001054 0.013249 -0.006283 -0.011851 0.034548
#
#
# Mechanical properties :
#
#
# Convention : Reuss Voigt Hill
#
# Bulk Modulus (GPa) = 19.76888 42.35592 31.06240
# Shear Modulus (GPa) = 28.11956 38.51375 33.31665
#
# Velocity S-wave (km/s) = 3.41362 3.99502 3.71571
# Velocity P-wave (km/s) = 4.87128 6.23158 5.59294
#
# Compressibility (1/GPa) = 0.05058456
#
# Stress axis : x y z
#
# Youngs Moduli (GPa) = 56.12341 109.80257 34.57728
#
# Poissons Ratio (x) = 0.59903 -0.16292
# Poissons Ratio (y) = 0.30618 0.06525
# Poissons Ratio (z) = -0.26445 0.20720
#
# Static dielectric constant tensor:
#      x y z
#    x 2.028560 0.056780 0.043770 
#    y 0.056780 2.303030 -0.073190 
#    z 0.043770 -0.073190 2.070670 
# 
# From -- ./inp_files/173539.got.cif
#   From: 2010.05.17/outbox.cif.g08.bks.cpg/sg2_87_cif.got.tgz:173539.got - 2010.06.03 11:33:40.
