data_PCOD9044579
_publ_section_title
;
Structure prediction by ZEFSAII (Michael W. Deem and Ramdas Pophale) SiO2 
 PCOD9044579
Probable space group: P -1
;
_chemical_formula_sum "Si O2"
_cell_formula_units_Z 12
_cell_length_a 16.039875
_cell_length_b 7.896987
_cell_length_c 5.572506
_cell_angle_alpha 119.961750
_cell_angle_beta 59.208189
_cell_angle_gamma 124.667203
_cell_volume 476.551365
_symmetry_space_group_name_H-M "P -1"
_symmetry_group_IT_number 2
_symmetry_cell_setting 'triclinic'
loop_
_space_group_symop_operation_xyz
x,y,z
-x,-y,-z
loop_
_atom_site_type_symbol
_atom_site_label
_atom_site_fract_x
_atom_site_fract_y
_atom_site_fract_z
Si Si1 0.088335 0.144315 0.665119
Si Si2 0.520314 0.776203 0.554073
Si Si3 0.803596 0.534499 0.665311
Si Si4 0.771166 0.920360 0.239116
Si Si5 0.562641 0.258302 0.848686
Si Si6 0.057095 0.666457 0.820293
O O1 0.170274 0.359497 0.562772
O O2 0.157640 0.026605 0.586099
O O3 0.000000 0.000000 0.500000
O O4 0.021366 0.214364 0.006462
O O5 0.646948 0.848022 0.408376
O O6 0.467065 0.665651 0.305003
O O7 0.504062 0.998805 0.744671
O O8 0.470784 0.664982 0.800404
O O9 0.689612 0.335424 0.716601
O O10 0.898546 0.459453 0.519115
O O11 0.790434 0.720258 0.967519
O O12 0.830153 0.130309 0.136143
O O13 0.000000 0.500000 0.000000
#
# Coordination Sequence:
#
# PCOD9044579 Si02
#       6
#     2   2   2   2   2   2
#     4  11  25  46  69 104 147 183 240 304 361 432
#     4  10  24  45  76 104 149 190 241 307 358 444
#     4  11  25  44  72 104 140 191 241 296 365 439
#     4  12  25  45  74 105 139 192 241 301 367 429
#     4  10  23  47  71 110 144 192 244 295 375 431
#     4  10  23  47  68 100 142 187 234 297 357 431
#
# _framework density 25.180917999999998
#
# number of rings (size 3 to 8) (size 9 to 14) (size 15 to 20)
#    0.000    1.333    3.333    0.500    4.667    2.000 
#    9.000    0.000    0.000    0.000    0.000    0.000 
#    0.000    0.000    0.000    0.000    0.000    0.000 
#
# Total GULP energy -67041.262966 kJ/mol
# GULP energy per Si atom -5586.771914 kJ/mol
# Density = 2.512361 g / cm^3
# Si number density = 25.180918 Si / 1000 Ang^3
#
#
#
# Elastic Constant Matrix: (Units=GPa)
#
#
# Indices 1 2 3 4 5 6 
#
# 1 119.9537 -2.5250 67.3571 -15.0037 -12.8453 -0.0541
# 2 -2.5250 81.4978 15.2490 -7.4370 0.0539 -4.7828
# 3 67.3571 15.2490 173.1364 -6.5345 -10.9563 13.1553
# 4 -15.0037 -7.4370 -6.5345 51.7784 8.7271 -10.7120
# 5 -12.8453 0.0539 -10.9563 8.7271 39.5087 -1.7257
# 6 -0.0541 -4.7828 13.1553 -10.7120 -1.7257 36.4616
#
#
#
# Elastic Compliance Matrix: (Units=1/GPa)
#
#
# Indices 1 2 3 4 5 6 
#
# 1 0.011598 0.001705 -0.004645 0.003320 0.001877 0.002981
# 2 0.001705 0.013153 -0.001994 0.002895 -0.000513 0.003273
# 3 -0.004645 -0.001994 0.008029 -0.001508 0.000896 -0.003566
# 4 0.003320 0.002895 -0.001508 0.022714 -0.004036 0.007411
# 5 0.001877 -0.000513 0.000896 -0.004036 0.027049 -0.000294
# 6 0.002981 0.003273 -0.003566 0.007411 -0.000294 0.031310
#
#
# Mechanical properties :
#
#
# Convention : Reuss Voigt Hill
#
# Bulk Modulus (GPa) = 43.64260 59.41667 51.52964
# Shear Modulus (GPa) = 38.06393 45.18350 41.62372
#
# Velocity S-wave (km/s) = 3.89217 4.24058 4.07010
# Velocity P-wave (km/s) = 6.12927 6.90100 6.52655
#
# Compressibility (1/GPa) = 0.02291339
#
# Stress axis : x y z
#
# Youngs Moduli (GPa) = 86.22027 76.02950 124.54626
#
# Poissons Ratio (x) = -0.12963 0.57848
# Poissons Ratio (y) = -0.14701 0.24831
# Poissons Ratio (z) = 0.40047 0.15158
#
# Static dielectric constant tensor:
#      x y z
#    x 1.984090 -0.021870 0.059760 
#    y -0.021870 2.036440 0.053220 
#    z 0.059760 0.053220 2.029270 
# 
# From -- ./inp_files/86584.got.cif
#   From: 2010.05.17/outbox.cif.g08.bks.cpg/sg2_44_cif.got.tgz:86584.got - 2010.06.03 11:33:40.
