data_PCOD9044069
_publ_section_title
;
Structure prediction by ZEFSAII (Michael W. Deem and Ramdas Pophale) SiO2 
 PCOD9044069
Probable space group: P -1
;
_chemical_formula_sum "Si O2"
_cell_formula_units_Z 14
_cell_length_a 9.461326
_cell_length_b 18.158956
_cell_length_c 5.121498
_cell_angle_alpha 81.923460
_cell_angle_beta 104.207407
_cell_angle_gamma 141.460657
_cell_volume 529.529521
_symmetry_space_group_name_H-M "P -1"
_symmetry_group_IT_number 2
_symmetry_cell_setting 'triclinic'
loop_
_space_group_symop_operation_xyz
x,y,z
-x,-y,-z
loop_
_atom_site_type_symbol
_atom_site_label
_atom_site_fract_x
_atom_site_fract_y
_atom_site_fract_z
Si Si1 0.907532 0.390056 0.876997
Si Si2 0.964561 0.195040 0.870156
Si Si3 0.381412 0.312439 0.343667
Si Si4 0.989738 0.082287 0.536050
Si Si5 0.383681 0.734205 0.703492
Si Si6 0.488580 0.067458 0.643774
Si Si7 0.280688 0.440168 0.766543
O O1 0.802254 0.361236 0.557283
O O2 0.122758 0.423009 0.903480
O O3 0.719421 0.287069 0.052422
O O4 0.000000 0.500000 0.000000
O O5 0.931296 0.100112 0.775126
O O6 0.104260 0.304688 0.668361
O O7 0.730331 0.146449 0.863631
O O8 0.160705 0.266008 0.141976
O O9 0.255079 0.214963 0.555863
O O10 0.466032 0.280966 0.201991
O O11 0.593866 0.452537 0.429764
O O12 0.000000 0.000000 0.500000
O O13 0.766580 0.026163 0.297725
O O14 0.494554 0.850929 0.562339
O O15 0.500000 0.000000 0.500000
O O16 0.500000 0.500000 0.000000
#
# Coordination Sequence:
#
# PCOD9044069 Si02
#       7
#     2   2   2   2   2   2   2
#     4  12  26  47  76 113 150 198 252 307 377 454
#     4  10  24  47  68 106 150 190 251 311 387 438
#     4  11  25  43  72 110 144 198 248 307 381 447
#     4  11  24  44  71 104 147 196 260 306 370 444
#     4  12  26  47  77 112 152 196 255 311 374 449
#     4  10  23  48  70 108 148 198 258 313 376 444
#     4  10  23  46  69 111 148 189 243 311 385 451
#
# _framework density 26.438564
#
# number of rings (size 3 to 8) (size 9 to 14) (size 15 to 20)
#    0.000    1.143    4.286    0.429    2.000    6.286 
#    5.143    0.000    0.000    0.000    0.000    0.000 
#    0.000    0.000    0.000    0.000    0.000    0.000 
#
# Total GULP energy -78146.155880 kJ/mol
# GULP energy per Si atom -5581.868277 kJ/mol
# Density = 2.637839 g / cm^3
# Si number density = 26.438564 Si / 1000 Ang^3
#
#
#
# Elastic Constant Matrix: (Units=GPa)
#
#
# Indices 1 2 3 4 5 6 
#
# 1 185.8369 47.7066 39.8842 22.2370 -2.7113 12.3902
# 2 47.7066 77.4917 8.4159 6.3357 0.4964 -12.5298
# 3 39.8842 8.4159 77.6733 5.4667 -4.9542 13.4299
# 4 22.2370 6.3357 5.4667 31.2640 0.2631 -3.7547
# 5 -2.7113 0.4964 -4.9542 0.2631 38.6456 6.1551
# 6 12.3902 -12.5298 13.4299 -3.7547 6.1551 63.6917
#
#
#
# Elastic Compliance Matrix: (Units=1/GPa)
#
#
# Indices 1 2 3 4 5 6 
#
# 1 0.007818 -0.004495 -0.002808 -0.004420 0.000616 -0.002133
# 2 -0.004495 0.016375 -0.000325 0.000464 -0.001257 0.004313
# 3 -0.002808 -0.000325 0.015072 -0.000947 0.002218 -0.002966
# 4 -0.004420 0.000464 -0.000947 0.035616 -0.001216 0.003368
# 5 0.000616 -0.001257 0.002218 -0.001216 0.026785 -0.003495
# 6 -0.002133 0.004313 -0.002966 0.003368 -0.003495 0.018126
#
#
# Mechanical properties :
#
#
# Convention : Reuss Voigt Hill
#
# Bulk Modulus (GPa) = 41.65078 59.22392 50.43735
# Shear Modulus (GPa) = 34.95262 43.05329 39.00295
#
# Velocity S-wave (km/s) = 3.63992 4.03976 3.84504
# Velocity P-wave (km/s) = 5.78389 6.64896 6.23146
#
# Compressibility (1/GPa) = 0.02400915
#
# Stress axis : x y z
#
# Youngs Moduli (GPa) = 127.91207 61.06899 66.34605
#
# Poissons Ratio (x) = 0.27453 0.18630
# Poissons Ratio (y) = 0.57503 0.02153
# Poissons Ratio (z) = 0.35919 0.01982
#
# Static dielectric constant tensor:
#      x y z
#    x 2.095490 0.013170 0.081280 
#    y 0.013170 2.356170 -0.116750 
#    z 0.081280 -0.116750 2.225650 
# 
# From -- ./inp_files/47528.got.cif
#   From: 2010.05.17/outbox.cif.g08.bks.cpg/sg2_24_cif.got.tgz:47528.got - 2010.06.03 11:33:40.
