data_PCOD9044875
_publ_section_title
;
Structure prediction by ZEFSAII (Michael W. Deem and Ramdas Pophale) SiO2 
 PCOD9044875
Probable space group: P -1
;
_chemical_formula_sum "Si O2"
_cell_formula_units_Z 16
_cell_length_a 9.255395
_cell_length_b 14.932523
_cell_length_c 5.148527
_cell_angle_alpha 108.319913
_cell_angle_beta 101.388978
_cell_angle_gamma 90.239262
_cell_volume 660.514045
_symmetry_space_group_name_H-M "P -1"
_symmetry_group_IT_number 2
_symmetry_cell_setting 'triclinic'
loop_
_space_group_symop_operation_xyz
x,y,z
-x,-y,-z
loop_
_atom_site_type_symbol
_atom_site_label
_atom_site_fract_x
_atom_site_fract_y
_atom_site_fract_z
Si Si1 0.284638 0.707702 0.459003
Si Si2 0.686375 0.143968 0.764350
Si Si3 0.086931 0.462277 0.743706
Si Si4 0.324497 0.979527 0.870247
Si Si5 0.624293 0.450201 0.336885
Si Si6 0.985342 0.759032 0.548682
Si Si7 0.531071 0.739966 0.955979
Si Si8 0.839005 0.829173 0.075837
O O1 0.247849 0.751282 0.209118
O O2 0.286107 0.599538 0.444498
O O3 0.445587 0.747736 0.656467
O O4 0.158371 0.747709 0.625257
O O5 0.690465 0.080401 0.453028
O O6 0.523765 0.174607 0.816044
O O7 0.737154 0.080786 0.959332
O O8 0.258343 0.496854 0.766453
O O9 0.076575 0.348290 0.635808
O O10 0.000000 0.500000 0.500000
O O11 0.000000 0.500000 0.000000
O O12 0.237267 0.073224 0.898572
O O13 0.500000 0.000000 0.000000
O O14 0.500000 0.500000 0.500000
O O15 0.535473 0.363259 0.072626
O O16 0.944854 0.825958 0.357876
O O17 0.920528 0.799421 0.821271
O O18 0.703792 0.750518 0.001242
#
# Coordination Sequence:
#
# PCOD9044875 Si02
#       8
#     2   2   2   2   2   2   2   2
#     4  10  25  47  75 100 148 200 235 290 378 429
#     4  12  23  43  75 105 138 193 239 300 359 443
#     4  12  25  47  75 108 147 201 247 295 373 445
#     4  12  24  44  74 106 149 180 246 299 373 432
#     4  10  23  47  77 110 150 191 261 310 359 438
#     4  12  28  47  73 102 158 183 247 291 373 434
#     4  10  24  43  76 102 148 185 250 290 374 417
#     4  12  27  46  72 113 136 194 236 311 358 435
#
# _framework density 24.223559999999999
#
# number of rings (size 3 to 8) (size 9 to 14) (size 15 to 20)
#    0.750    0.000    3.750    2.625    7.000    0.000 
#    0.000    5.625    0.000    0.000    0.000    0.000 
#    0.000    0.000    0.000    0.000    0.000    0.000 
#
# Total GULP energy -89375.216815 kJ/mol
# GULP energy per Si atom -5585.951051 kJ/mol
# Density = 2.416843 g / cm^3
# Si number density = 24.223560 Si / 1000 Ang^3
#
#
#
# Elastic Constant Matrix: (Units=GPa)
#
#
# Indices 1 2 3 4 5 6 
#
# 1 43.0044 3.1383 -12.2080 -3.6001 -6.5270 -6.1667
# 2 3.1383 129.0230 29.7956 -11.6674 -9.0384 -2.6396
# 3 -12.2080 29.7956 116.5409 -20.7127 -23.3922 0.2525
# 4 -3.6001 -11.6674 -20.7127 40.5463 -3.5376 0.1585
# 5 -6.5270 -9.0384 -23.3922 -3.5376 40.0661 1.6432
# 6 -6.1667 -2.6396 0.2525 0.1585 1.6432 42.4904
#
#
#
# Elastic Compliance Matrix: (Units=1/GPa)
#
#
# Indices 1 2 3 4 5 6 
#
# 1 0.027095 -0.000820 0.005640 0.005725 0.007883 0.003522
# 2 -0.000820 0.008386 -0.001801 0.001491 0.000823 0.000375
# 3 0.005640 -0.001801 0.012610 0.007164 0.008496 0.000276
# 4 0.005725 0.001491 0.007164 0.029964 0.008079 0.000457
# 5 0.007883 0.000823 0.008496 0.008079 0.032108 -0.000127
# 6 0.003522 0.000375 0.000276 0.000457 -0.000127 0.024071
#
#
# Mechanical properties :
#
#
# Convention : Reuss Voigt Hill
#
# Bulk Modulus (GPa) = 18.47363 36.66889 27.57126
# Shear Modulus (GPa) = 34.19106 42.47670 38.33388
#
# Velocity S-wave (km/s) = 3.76104 4.19206 3.98239
# Velocity P-wave (km/s) = 5.14815 6.21303 5.70549
#
# Compressibility (1/GPa) = 0.05413120
#
# Stress axis : x y z
#
# Youngs Moduli (GPa) = 36.90720 119.23946 79.30292
#
# Poissons Ratio (x) = 0.09772 -0.44726
# Poissons Ratio (y) = 0.03025 0.14279
# Poissons Ratio (z) = -0.20815 0.21469
#
# Static dielectric constant tensor:
#      x y z
#    x 1.976110 0.065340 0.019320 
#    y 0.065340 1.973830 -0.001590 
#    z 0.019320 -0.001590 1.991390 
# 
# From -- ./inp_files/39837.got.cif
#   From: 2010.05.17/outbox.cif.g08.bks.cpg/sg2_20_cif.got.tgz:39837.got - 2010.06.03 11:33:40.
