data_PCOD9044355
_publ_section_title
;
Structure prediction by ZEFSAII (Michael W. Deem and Ramdas Pophale) SiO2 
 PCOD9044355
Probable space group: P -1
;
_chemical_formula_sum "Si O2"
_cell_formula_units_Z 14
_cell_length_a 12.769852
_cell_length_b 7.444995
_cell_length_c 10.830377
_cell_angle_alpha 108.248449
_cell_angle_beta 135.425665
_cell_angle_gamma 101.368478
_cell_volume 532.764626
_symmetry_space_group_name_H-M "P -1"
_symmetry_group_IT_number 2
_symmetry_cell_setting 'triclinic'
loop_
_space_group_symop_operation_xyz
x,y,z
-x,-y,-z
loop_
_atom_site_type_symbol
_atom_site_label
_atom_site_fract_x
_atom_site_fract_y
_atom_site_fract_z
Si Si1 0.366032 0.850465 0.698549
Si Si2 0.436440 0.756586 0.470033
Si Si3 0.012301 0.785975 0.454503
Si Si4 0.286389 0.120634 0.449350
Si Si5 0.933493 0.684067 0.629707
Si Si6 0.574380 0.365227 0.970120
Si Si7 0.979206 0.754921 0.955660
O O1 0.452207 0.830116 0.641627
O O2 0.260480 0.589201 0.614432
O O3 0.177001 0.835022 0.517529
O O4 0.510814 0.120873 0.930924
O O5 0.595141 0.738498 0.546618
O O6 0.226364 0.490932 0.226544
O O7 0.500000 0.000000 0.500000
O O8 0.058490 0.759861 0.629072
O O9 0.801849 0.553631 0.188132
O O10 0.000000 0.000000 0.500000
O O11 0.145171 0.166979 0.393550
O O12 0.461352 0.252487 0.721588
O O13 0.137479 0.843658 0.212921
O O14 0.016885 0.701859 0.838173
O O15 0.500000 0.500000 0.000000
O O16 0.000000 0.000000 0.000000
#
# Coordination Sequence:
#
# PCOD9044355 Si02
#       7
#     2   2   2   2   2   2   2
#     4  11  25  46  69 109 144 186 244 291 365 422
#     4  11  24  45  72 110 145 186 241 299 360 432
#     4  12  25  46  74  98 143 190 239 297 353 430
#     4  11  23  47  74 107 146 189 240 295 366 430
#     4  10  23  46  73 105 143 188 238 295 363 427
#     4  12  24  46  69 109 138 193 242 291 359 427
#     4   9  23  44  71 105 144 189 235 294 363 428
#
# _framework density 26.278020000000001
#
# number of rings (size 3 to 8) (size 9 to 14) (size 15 to 20)
#    0.000    1.143    4.286    0.429    0.000   12.000 
#    0.000    4.286    0.000    0.000    0.000    0.000 
#    0.000    0.000    0.000    0.000    0.000    0.000 
#
# Total GULP energy -78157.442459 kJ/mol
# GULP energy per Si atom -5582.674461 kJ/mol
# Density = 2.621821 g / cm^3
# Si number density = 26.278020 Si / 1000 Ang^3
#
#
#
# Elastic Constant Matrix: (Units=GPa)
#
#
# Indices 1 2 3 4 5 6 
#
# 1 123.5725 7.3550 36.3649 -6.6484 -7.6433 7.8240
# 2 7.3550 79.6552 25.8021 19.9483 -9.0636 11.4265
# 3 36.3649 25.8021 213.0967 18.0393 -12.3205 7.4339
# 4 -6.6484 19.9483 18.0393 48.6200 5.3123 -5.7135
# 5 -7.6433 -9.0636 -12.3205 5.3123 51.5188 1.2395
# 6 7.8240 11.4265 7.4339 -5.7135 1.2395 34.1796
#
#
#
# Elastic Compliance Matrix: (Units=1/GPa)
#
#
# Indices 1 2 3 4 5 6 
#
# 1 0.008780 -0.000500 -0.001500 0.001738 0.000707 -0.001251
# 2 -0.000500 0.016062 -0.000797 -0.007503 0.003490 -0.006463
# 3 -0.001500 -0.000797 0.005321 -0.002088 0.001148 -0.000938
# 4 0.001738 -0.007503 -0.002088 0.025971 -0.004410 0.007066
# 5 0.000707 0.003490 0.001148 -0.004410 0.020932 -0.003074
# 6 -0.001251 -0.006463 -0.000938 0.007066 -0.003074 0.033201
#
#
# Mechanical properties :
#
#
# Convention : Reuss Voigt Hill
#
# Bulk Modulus (GPa) = 40.70338 61.70758 51.20548
# Shear Modulus (GPa) = 40.30588 49.98384 45.14486
#
# Velocity S-wave (km/s) = 3.92066 4.36606 4.14934
# Velocity P-wave (km/s) = 6.00154 6.99644 6.51800
#
# Compressibility (1/GPa) = 0.02456799
#
# Stress axis : x y z
#
# Youngs Moduli (GPa) = 113.89286 62.25971 187.93154
#
# Poissons Ratio (x) = 0.03114 0.28198
# Poissons Ratio (y) = 0.05696 0.14978
# Poissons Ratio (z) = 0.17089 0.04962
#
# Static dielectric constant tensor:
#      x y z
#    x 2.063880 -0.096130 -0.007670 
#    y -0.096130 2.444750 -0.138560 
#    z -0.007670 -0.138560 2.067360 
# 
# From -- ./inp_files/447892.got.cif
#   From: 2010.05.17/outbox.cif.g08.bks.cpg/sg2_224_cif.got.tgz:447892.got - 2010.06.03 11:33:40.
