data_PCOD9044877
_publ_section_title
;
Structure prediction by ZEFSAII (Michael W. Deem and Ramdas Pophale) SiO2 
 PCOD9044877
Probable space group: P -1
;
_chemical_formula_sum "Si O2"
_cell_formula_units_Z 16
_cell_length_a 19.449782
_cell_length_b 9.380135
_cell_length_c 8.856118
_cell_angle_alpha 116.758741
_cell_angle_beta 47.780685
_cell_angle_gamma 149.693487
_cell_volume 566.167764
_symmetry_space_group_name_H-M "P -1"
_symmetry_group_IT_number 2
_symmetry_cell_setting 'triclinic'
loop_
_space_group_symop_operation_xyz
x,y,z
-x,-y,-z
loop_
_atom_site_type_symbol
_atom_site_label
_atom_site_fract_x
_atom_site_fract_y
_atom_site_fract_z
Si Si1 0.259852 0.125342 0.070686
Si Si2 0.453180 0.678450 0.417469
Si Si3 0.875050 0.688244 0.955666
Si Si4 0.023870 0.700279 0.968061
Si Si5 0.669496 0.802081 0.489160
Si Si6 0.553812 0.302631 0.040026
Si Si7 0.362333 0.812152 0.387719
Si Si8 0.992295 0.651415 0.488938
O O1 0.371861 0.449385 0.061077
O O2 0.164911 0.930202 0.267718
O O3 0.386903 0.176407 0.836637
O O4 0.102893 0.928254 0.089083
O O5 0.317966 0.344026 0.505387
O O6 0.357233 0.667925 0.452309
O O7 0.543486 0.905367 0.530836
O O8 0.695709 0.490511 0.054786
O O9 0.860139 0.529146 0.032702
O O10 0.960433 0.736304 0.703972
O O11 0.000000 0.000000 0.000000
O O12 0.171479 0.574673 0.491493
O O13 0.000000 0.500000 0.000000
O O14 0.500000 0.500000 0.500000
O O15 0.825197 0.074103 0.276404
O O16 0.614085 0.866563 0.710800
O O17 0.538233 0.126570 0.871171
O O18 0.000000 0.500000 0.500000
#
# Coordination Sequence:
#
# PCOD9044877 Si02
#       8
#     2   2   2   2   2   2   2   2
#     4  11  24  46  77 111 151 204 266 319 398 469
#     4  10  24  48  79 113 153 212 263 331 398 478
#     4  11  23  48  77 117 154 209 264 327 397 474
#     4  12  26  46  80 117 156 208 268 321 395 483
#     4  11  22  47  82 110 154 208 267 316 400 481
#     4  10  23  47  77 116 152 201 264 337 389 472
#     4  10  25  49  72 119 162 200 267 334 402 463
#     4  11  27  46  75 111 162 212 263 325 402 477
#
# _framework density 28.260176000000001
#
# number of rings (size 3 to 8) (size 9 to 14) (size 15 to 20)
#    0.000    1.250    3.750    0.750    3.500    7.000 
#    2.250    6.875    0.000    0.000    0.000    0.000 
#    0.000    0.000    0.000    0.000    0.000    0.000 
#
# Total GULP energy -89843.431524 kJ/mol
# GULP energy per Si atom -5615.214470 kJ/mol
# Density = 2.819585 g / cm^3
# Si number density = 28.260176 Si / 1000 Ang^3
#
#
#
# Elastic Constant Matrix: (Units=GPa)
#
#
# Indices 1 2 3 4 5 6 
#
# 1 236.0516 87.3620 67.3662 -7.2448 25.8573 0.5292
# 2 87.3620 158.0417 99.8563 -6.4783 4.3477 -13.3502
# 3 67.3662 99.8563 234.2283 -4.0054 12.1132 -12.7537
# 4 -7.2448 -6.4783 -4.0054 69.4930 -6.6950 25.7977
# 5 25.8573 4.3477 12.1132 -6.6950 40.3048 9.4082
# 6 0.5292 -13.3502 -12.7537 25.7977 9.4082 54.7894
#
#
#
# Elastic Compliance Matrix: (Units=1/GPa)
#
#
# Indices 1 2 3 4 5 6 
#
# 1 0.005758 -0.002965 -0.000243 0.000131 -0.003199 -0.000347
# 2 -0.002965 0.010277 -0.003530 0.000068 0.001536 0.001415
# 3 -0.000243 -0.003530 0.005976 -0.000563 -0.001603 0.001074
# 4 0.000131 0.000068 -0.000563 0.018530 0.005438 -0.009774
# 5 -0.003199 0.001536 -0.001603 0.005438 0.029870 -0.007658
# 6 -0.000347 0.001415 0.001074 -0.009774 -0.007658 0.024767
#
#
# Mechanical properties :
#
#
# Convention : Reuss Voigt Hill
#
# Bulk Modulus (GPa) = 117.16834 126.38784 121.77809
# Shear Modulus (GPa) = 44.84340 57.83325 51.33832
#
# Velocity S-wave (km/s) = 3.98779 4.52869 4.26682
# Velocity P-wave (km/s) = 7.92174 8.49502 8.21338
#
# Compressibility (1/GPa) = 0.00853473
#
# Stress axis : x y z
#
# Youngs Moduli (GPa) = 173.65829 97.30591 167.34310
#
# Poissons Ratio (x) = 0.28856 0.04070
# Poissons Ratio (y) = 0.51497 0.59064
# Poissons Ratio (z) = 0.04223 0.34344
#
# Static dielectric constant tensor:
#      x y z
#    x 2.322050 -0.012920 -0.039630 
#    y -0.012920 2.179160 -0.005070 
#    z -0.039630 -0.005070 2.189860 
# 
# From -- ./inp_files/343745.got.cif
#   From: 2010.05.17/outbox.cif.g08.bks.cpg/sg2_172_cif.got.tgz:343745.got - 2010.06.03 11:33:40.
