data_PCOD9044679
_publ_section_title
;
Structure prediction by ZEFSAII (Michael W. Deem and Ramdas Pophale) SiO2 
 PCOD9044679
Probable space group: P -1
;
_chemical_formula_sum "Si O2"
_cell_formula_units_Z 14
_cell_length_a 14.470934
_cell_length_b 8.750587
_cell_length_c 14.266464
_cell_angle_alpha 120.562152
_cell_angle_beta 31.538654
_cell_angle_gamma 99.329179
_cell_volume 649.568610
_symmetry_space_group_name_H-M "P -1"
_symmetry_group_IT_number 2
_symmetry_cell_setting 'triclinic'
loop_
_space_group_symop_operation_xyz
x,y,z
-x,-y,-z
loop_
_atom_site_type_symbol
_atom_site_label
_atom_site_fract_x
_atom_site_fract_y
_atom_site_fract_z
Si Si1 0.232104 0.394643 0.553429
Si Si2 0.256984 0.432287 0.944284
Si Si3 0.199764 0.832173 0.207018
Si Si4 0.686924 0.664807 0.751793
Si Si5 0.422663 0.641088 0.515581
Si Si6 0.081733 0.178982 0.272395
Si Si7 0.369706 0.002148 0.789733
O O1 0.265304 0.316362 0.392363
O O2 0.271561 0.583095 0.580428
O O3 0.418939 0.190604 0.392987
O O4 0.991941 0.487988 0.828068
O O5 0.373078 0.440462 0.754711
O O6 0.398750 0.180181 0.779052
O O7 0.240305 0.599665 0.086540
O O8 0.129651 0.960157 0.208008
O O9 0.429570 0.781753 0.023096
O O10 0.000000 0.000000 0.500000
O O11 0.775515 0.765454 0.773649
O O12 0.832478 0.400898 0.563915
O O13 0.500000 0.500000 0.500000
O O14 0.324218 0.887610 0.711408
O O15 0.168693 0.130973 0.076943
#
# Coordination Sequence:
#
# PCOD9044679 Si02
#       7
#     2   2   2   2   2   2   2
#     4  11  23  46  72  99 140 185 227 288 346 409
#     4  12  25  45  69 107 138 179 240 279 349 418
#     4  12  26  42  67 103 141 183 232 287 347 416
#     4  11  23  45  71  98 139 184 231 289 347 412
#     4  10  23  47  71 102 142 180 229 289 343 411
#     4  11  24  44  71  98 138 186 232 284 356 409
#     4  11  24  42  73 102 136 183 231 285 344 413
#
# _framework density 21.552765999999998
#
# number of rings (size 3 to 8) (size 9 to 14) (size 15 to 20)
#    0.000    0.857    4.286    2.571    4.000    4.571 
#    0.000    0.000    0.000    0.000    0.000    0.000 
#    0.000    0.000    0.000    0.000    0.000    0.000 
#
# Total GULP energy -78333.105220 kJ/mol
# GULP energy per Si atom -5595.221801 kJ/mol
# Density = 2.150371 g / cm^3
# Si number density = 21.552766 Si / 1000 Ang^3
#
#
#
# Elastic Constant Matrix: (Units=GPa)
#
#
# Indices 1 2 3 4 5 6 
#
# 1 65.2502 28.6527 69.9427 -5.3838 13.5710 8.0715
# 2 28.6527 117.1290 50.4271 7.1250 3.3399 7.1721
# 3 69.9427 50.4271 141.6560 -18.1879 4.0891 9.1499
# 4 -5.3838 7.1250 -18.1879 51.4446 -2.9028 4.2600
# 5 13.5710 3.3399 4.0891 -2.9028 44.1189 12.9181
# 6 8.0715 7.1721 9.1499 4.2600 12.9181 24.1825
#
#
#
# Elastic Compliance Matrix: (Units=1/GPa)
#
#
# Indices 1 2 3 4 5 6 
#
# 1 0.036673 -0.000811 -0.017959 -0.003013 -0.009939 0.000635
# 2 -0.000811 0.010531 -0.003639 -0.002760 -0.000121 -0.000924
# 3 -0.017959 -0.003639 0.018023 0.005620 0.005589 -0.003721
# 4 -0.003013 -0.002760 0.005620 0.022237 0.003928 -0.006318
# 5 -0.009939 -0.000121 0.005589 0.003928 0.030006 -0.015482
# 6 0.000635 -0.000924 -0.003721 -0.006318 -0.015482 0.052205
#
#
# Mechanical properties :
#
#
# Convention : Reuss Voigt Hill
#
# Bulk Modulus (GPa) = 49.00418 69.12001 59.06209
# Shear Modulus (GPa) = 22.59400 35.61671 29.10536
#
# Velocity S-wave (km/s) = 3.24128 4.06955 3.67880
# Velocity P-wave (km/s) = 6.06581 7.36352 6.74594
#
# Compressibility (1/GPa) = 0.02040642
#
# Stress axis : x y z
#
# Youngs Moduli (GPa) = 27.26817 94.95839 55.48478
#
# Poissons Ratio (x) = 0.07705 0.99647
# Poissons Ratio (y) = 0.02212 0.20193
# Poissons Ratio (z) = 0.48972 0.34559
#
# Static dielectric constant tensor:
#      x y z
#    x 1.779100 -0.002280 -0.000200 
#    y -0.002280 1.813130 0.024940 
#    z -0.000200 0.024940 1.767370 
# 
# From -- ./inp_files/504641.got.cif
#   From: 2010.05.17/outbox.cif.g08.bks.cpg/sg2_253_cif.got.tgz:504641.got - 2010.06.03 11:33:40.
