data_PCOD9044289
_publ_section_title
;
Structure prediction by ZEFSAII (Michael W. Deem and Ramdas Pophale) SiO2 
 PCOD9044289
Probable space group: P -1
;
_chemical_formula_sum "Si O2"
_cell_formula_units_Z 12
_cell_length_a 8.421696
_cell_length_b 15.392163
_cell_length_c 5.636681
_cell_angle_alpha 66.959521
_cell_angle_beta 57.154661
_cell_angle_gamma 62.510507
_cell_volume 534.718612
_symmetry_space_group_name_H-M "P -1"
_symmetry_group_IT_number 2
_symmetry_cell_setting 'triclinic'
loop_
_space_group_symop_operation_xyz
x,y,z
-x,-y,-z
loop_
_atom_site_type_symbol
_atom_site_label
_atom_site_fract_x
_atom_site_fract_y
_atom_site_fract_z
Si Si1 0.734334 0.861105 0.888522
Si Si2 0.848187 0.287748 0.426353
Si Si3 0.498140 0.404259 0.250875
Si Si4 0.568099 0.219545 0.073617
Si Si5 0.905452 0.481444 0.345735
Si Si6 0.421748 0.937940 0.440282
O O1 0.601720 0.816751 0.870161
O O2 0.958226 0.790239 0.762015
O O3 0.710868 0.976003 0.717413
O O4 0.618047 0.868825 0.220922
O O5 0.703995 0.353388 0.272863
O O6 0.721319 0.234089 0.740441
O O7 0.905166 0.367850 0.458540
O O8 0.319933 0.442310 0.542396
O O9 0.500000 0.500000 0.000000
O O10 0.470848 0.322590 0.179627
O O11 0.675470 0.134155 0.269792
O O12 0.000000 0.500000 0.500000
O O13 0.000000 0.500000 0.000000
O O14 0.500000 0.000000 0.500000
#
# Coordination Sequence:
#
# PCOD9044289 Si02
#       6
#     2   2   2   2   2   2
#     4  10  23  46  72 107 139 187 239 296 375 433
#     4  12  27  43  73 106 144 190 248 305 362 446
#     4  12  26  48  67 105 152 190 248 305 364 438
#     4  11  24  44  73 103 144 191 238 300 364 438
#     4  12  28  47  74 105 147 203 251 307 373 438
#     4   9  21  45  74 100 144 182 233 303 365 449
#
# _framework density 22.441711000000002
#
# number of rings (size 3 to 8) (size 9 to 14) (size 15 to 20)
#    0.000    1.000    1.667    3.500    7.000    3.333 
#    0.000   11.667    0.000    0.000    0.000    0.000 
#    0.000    0.000    0.000    0.000    0.000    0.000 
#
# Total GULP energy -67160.503180 kJ/mol
# GULP energy per Si atom -5596.708598 kJ/mol
# Density = 2.239063 g / cm^3
# Si number density = 22.441711 Si / 1000 Ang^3
#
#
#
# Elastic Constant Matrix: (Units=GPa)
#
#
# Indices 1 2 3 4 5 6 
#
# 1 57.1222 57.1889 65.2597 1.9492 -8.3683 -13.0059
# 2 57.1889 157.5806 82.1882 18.6639 -15.2151 -8.7250
# 3 65.2597 82.1882 155.2633 -7.6882 -0.5032 -9.0919
# 4 1.9492 18.6639 -7.6882 55.1866 6.9102 -9.0008
# 5 -8.3683 -15.2151 -0.5032 6.9102 23.7401 6.3989
# 6 -13.0059 -8.7250 -9.0919 -9.0008 6.3989 41.9198
#
#
#
# Elastic Compliance Matrix: (Units=1/GPa)
#
#
# Indices 1 2 3 4 5 6 
#
# 1 0.044058 -0.007105 -0.014342 -0.001053 0.008961 0.007486
# 2 -0.007105 0.012275 -0.003953 -0.005911 0.007799 -0.002966
# 3 -0.014342 -0.003953 0.014806 0.005077 -0.008855 0.000381
# 4 -0.001053 -0.005911 0.005077 0.023513 -0.012655 0.006524
# 5 0.008961 0.007799 -0.008855 -0.012655 0.056149 -0.008805
# 6 0.007486 -0.002966 0.000381 0.006524 -0.008805 0.028388
#
#
# Mechanical properties :
#
#
# Convention : Reuss Voigt Hill
#
# Bulk Modulus (GPa) = 49.16410 86.58217 67.87314
# Shear Modulus (GPa) = 21.11786 35.19126 28.15456
#
# Velocity S-wave (km/s) = 3.07092 3.96424 3.54583
# Velocity P-wave (km/s) = 5.87614 7.72129 6.86103
#
# Compressibility (1/GPa) = 0.02034004
#
# Stress axis : x y z
#
# Youngs Moduli (GPa) = 22.69761 81.46767 67.53962
#
# Poissons Ratio (x) = 0.57880 0.96865
# Poissons Ratio (y) = 0.16126 0.26696
# Poissons Ratio (z) = 0.32553 0.32201
#
# Static dielectric constant tensor:
#      x y z
#    x 1.873120 -0.006600 0.032730 
#    y -0.006600 1.811040 -0.037900 
#    z 0.032730 -0.037900 1.857090 
# 
# From -- ./inp_files/46481.got.cif
#   From: 2010.05.17/outbox.cif.g08.bks.cpg/sg2_24_cif.got.tgz:46481.got - 2010.06.03 11:33:40.
