data_PCOD9044034
_publ_section_title
;
Structure prediction by ZEFSAII (Michael W. Deem and Ramdas Pophale) SiO2 
 PCOD9044034
Probable space group: P -1
;
_chemical_formula_sum "Si O2"
_cell_formula_units_Z 14
_cell_length_a 11.896808
_cell_length_b 18.555741
_cell_length_c 8.829899
_cell_angle_alpha 127.687730
_cell_angle_beta 66.365960
_cell_angle_gamma 155.031366
_cell_volume 578.497355
_symmetry_space_group_name_H-M "P -1"
_symmetry_group_IT_number 2
_symmetry_cell_setting 'triclinic'
loop_
_space_group_symop_operation_xyz
x,y,z
-x,-y,-z
loop_
_atom_site_type_symbol
_atom_site_label
_atom_site_fract_x
_atom_site_fract_y
_atom_site_fract_z
Si Si1 0.858353 0.450573 0.661769
Si Si2 0.855598 0.602879 0.175618
Si Si3 0.343771 0.697847 0.915262
Si Si4 0.843795 0.706510 0.035085
Si Si5 0.629797 0.794070 0.593501
Si Si6 0.468509 0.489462 0.326153
Si Si7 0.593313 0.958593 0.398270
O O1 0.624333 0.362250 0.597857
O O2 0.626312 0.236534 0.614165
O O3 0.000000 0.500000 0.500000
O O4 0.148899 0.642935 0.863850
O O5 0.849170 0.500364 0.125485
O O6 0.924784 0.673360 0.053095
O O7 0.536368 0.433605 0.157841
O O8 0.074512 0.814992 0.425964
O O9 0.490102 0.734448 0.752658
O O10 0.563806 0.894011 0.167419
O O11 0.500000 0.500000 0.000000
O O12 0.828784 0.685122 0.833614
O O13 0.080767 0.946316 0.253353
O O14 0.681727 0.721191 0.474599
O O15 0.500000 0.500000 0.500000
O O16 0.500000 0.000000 0.500000
#
# Coordination Sequence:
#
# PCOD9044034 Si02
#       7
#     2   2   2   2   2   2   2
#     4  10  23  46  69 101 135 178 226 281 338 405
#     4  11  24  44  66 105 139 179 229 276 344 411
#     4  11  25  43  71 104 140 179 225 283 344 406
#     4  10  25  43  66 100 136 184 230 279 336 401
#     4  11  24  46  71 100 142 183 227 283 344 403
#     4  11  25  44  71 100 140 181 229 282 337 413
#     4  12  25  43  72 100 138 180 227 280 347 406
#
# _framework density 24.200627000000001
#
# number of rings (size 3 to 8) (size 9 to 14) (size 15 to 20)
#    0.000    1.143    4.286    0.429    4.000    5.143 
#    0.000    1.429    0.000    0.000    0.000    0.000 
#    0.000    0.000    0.000    0.000    0.000    0.000 
#
# Total GULP energy -78022.616901 kJ/mol
# GULP energy per Si atom -5573.044064 kJ/mol
# Density = 2.414555 g / cm^3
# Si number density = 24.200627 Si / 1000 Ang^3
#
#
#
# Elastic Constant Matrix: (Units=GPa)
#
#
# Indices 1 2 3 4 5 6 
#
# 1 154.6386 27.8959 39.4184 -10.8911 19.6812 -29.0715
# 2 27.8959 84.2733 32.4005 -12.1145 9.4279 -14.2009
# 3 39.4184 32.4005 167.5847 -10.6171 40.2429 -21.3426
# 4 -10.8911 -12.1145 -10.6171 35.9393 -4.2239 14.1797
# 5 19.6812 9.4279 40.2429 -4.2239 43.4862 -13.0265
# 6 -29.0715 -14.2009 -21.3426 14.1797 -13.0265 32.6476
#
#
#
# Elastic Compliance Matrix: (Units=1/GPa)
#
#
# Indices 1 2 3 4 5 6 
#
# 1 0.008110 -0.001394 -0.000669 -0.000733 -0.000993 0.006101
# 2 -0.001394 0.013846 -0.001970 0.002734 0.000464 0.002491
# 3 -0.000669 -0.001970 0.008241 0.000332 -0.006506 0.001194
# 4 -0.000733 0.002734 0.000332 0.034263 -0.001672 -0.014795
# 5 -0.000993 0.000464 -0.006506 -0.001672 0.031735 0.008453
# 6 0.006101 0.002491 0.001194 -0.014795 0.008453 0.047725
#
#
# Mechanical properties :
#
#
# Convention : Reuss Voigt Hill
#
# Bulk Modulus (GPa) = 45.18528 67.32513 56.25521
# Shear Modulus (GPa) = 31.37471 42.86676 37.12073
#
# Velocity S-wave (km/s) = 3.60452 4.21326 3.92072
# Velocity P-wave (km/s) = 6.00292 7.17974 6.61754
#
# Compressibility (1/GPa) = 0.02213110
#
# Stress axis : x y z
#
# Youngs Moduli (GPa) = 123.29997 72.22370 121.34521
#
# Poissons Ratio (x) = 0.10066 0.08122
# Poissons Ratio (y) = 0.17184 0.23905
# Poissons Ratio (z) = 0.08253 0.14228
#
# Static dielectric constant tensor:
#      x y z
#    x -0.557820 -0.975960 1.468390 
#    y -0.975960 1.594910 0.495140 
#    z 1.468390 0.495140 1.234800 
# 
# From -- ./inp_files/40193.got.cif
#   From: 2010.05.17/outbox.cif.g08.bks.cpg/sg2_21_cif.got.tgz:40193.got - 2010.06.03 11:33:40.
