data_PCOD9044521
_publ_section_title
;
Structure prediction by ZEFSAII (Michael W. Deem and Ramdas Pophale) SiO2 
 PCOD9044521
Probable space group: P -1
;
_chemical_formula_sum "Si O2"
_cell_formula_units_Z 15
_cell_length_a 8.821868
_cell_length_b 20.160660
_cell_length_c 22.168593
_cell_angle_alpha 12.930023
_cell_angle_beta 37.776372
_cell_angle_gamma 38.109420
_cell_volume 536.530337
_symmetry_space_group_name_H-M "P -1"
_symmetry_group_IT_number 2
_symmetry_cell_setting 'triclinic'
loop_
_space_group_symop_operation_xyz
x,y,z
-x,-y,-z
loop_
_atom_site_type_symbol
_atom_site_label
_atom_site_fract_x
_atom_site_fract_y
_atom_site_fract_z
Si Si1 0.784980 0.050239 0.849824
Si Si2 0.865209 0.475063 0.999774
Si Si3 0.740931 0.220240 0.839085
Si Si4 0.559047 0.112562 0.186575
Si Si5 0.114563 0.493044 0.339953
Si Si6 0.026055 0.471488 0.214614
Si Si7 0.577801 0.169479 0.641349
Si Si8 0.500000 0.000000 0.500000
O O1 0.887947 0.066889 0.872200
O O2 0.848544 0.371156 0.520008
O O3 0.500000 0.000000 0.000000
O O4 0.926630 0.789194 0.995668
O O5 0.026278 0.494437 0.871138
O O6 0.719166 0.187241 0.292733
O O7 0.651645 0.757085 0.816981
O O8 0.000000 0.500000 0.000000
O O9 0.889421 0.317731 0.764165
O O10 0.593510 0.522946 0.591647
O O11 0.545637 0.006876 0.112235
O O12 0.426429 0.022362 0.247491
O O13 0.709632 0.818250 0.427485
O O14 0.731861 0.355307 0.893330
O O15 0.849866 0.249518 0.495712
O O16 0.307732 0.320404 0.268350
#
# Coordination Sequence:
#
# PCOD9044521 Si02
#       8
#     2   2   2   2   2   2   2   1
#     4  12  26  49  80 116 166 219 278 354 433 513
#     4  12  30  51  85 124 168 234 287 367 436 522
#     4  10  23  48  76 117 163 217 281 343 426 520
#     4  10  24  46  79 113 161 213 283 346 428 504
#     4  10  24  47  77 116 158 218 277 347 426 518
#     4  12  29  52  81 126 177 222 294 355 440 526
#     4  10  23  46  80 118 162 216 279 348 423 521
#     4  12  30  52  84 120 172 222 292 362 434 522
#
# _framework density 27.957411
#
# number of rings (size 3 to 8) (size 9 to 14) (size 15 to 20)
#    0.000    1.067    1.333    2.400   11.200    2.667 
#    4.800    4.000    0.000    0.000    0.000    0.000 
#    0.000    0.000    0.000    0.000    0.000    0.000 
#
# Total GULP energy -83907.485454 kJ/mol
# GULP energy per Si atom -5593.832364 kJ/mol
# Density = 2.789378 g / cm^3
# Si number density = 27.957411 Si / 1000 Ang^3
#
#
#
# Elastic Constant Matrix: (Units=GPa)
#
#
# Indices 1 2 3 4 5 6 
#
# 1 140.1350 64.6399 55.7161 9.4226 -6.8482 17.2999
# 2 64.6399 182.7894 74.0642 -20.1305 2.0313 35.0271
# 3 55.7161 74.0642 174.0067 19.3343 -11.9336 14.9372
# 4 9.4226 -20.1305 19.3343 55.7408 -6.2759 -3.5902
# 5 -6.8482 2.0313 -11.9336 -6.2759 45.1375 -0.5295
# 6 17.2999 35.0271 14.9372 -3.5902 -0.5295 56.7235
#
#
#
# Elastic Compliance Matrix: (Units=1/GPa)
#
#
# Indices 1 2 3 4 5 6 
#
# 1 0.009265 -0.002763 -0.001432 -0.002026 0.000860 -0.000862
# 2 -0.002763 0.008915 -0.003172 0.004436 -0.001084 -0.003557
# 3 -0.001432 -0.003172 0.008047 -0.003514 0.001565 0.000068
# 4 -0.002026 0.004436 -0.003514 0.021286 0.001525 0.000166
# 5 0.000860 -0.001084 0.001565 0.001525 0.022963 0.000306
# 6 -0.000862 -0.003557 0.000068 0.000166 0.000306 0.020084
#
#
# Mechanical properties :
#
#
# Convention : Reuss Voigt Hill
#
# Bulk Modulus (GPa) = 87.01217 98.41905 92.71561
# Shear Modulus (GPa) = 45.81844 51.68776 48.75310
#
# Velocity S-wave (km/s) = 4.05268 4.30444 4.18045
# Velocity P-wave (km/s) = 7.28627 7.74492 7.51909
#
# Compressibility (1/GPa) = 0.01149265
#
# Stress axis : x y z
#
# Youngs Moduli (GPa) = 107.93551 112.16702 124.26295
#
# Poissons Ratio (x) = 0.30997 0.17797
# Poissons Ratio (y) = 0.29828 0.39413
# Poissons Ratio (z) = 0.15459 0.35577
#
# Static dielectric constant tensor:
#      x y z
#    x 1.779440 0.601040 0.234000 
#    y 0.601040 1.273380 -0.349480 
#    z 0.234000 -0.349480 2.104430 
# 
# From -- ./inp_files/623223.got.cif
#   From: 2010.05.17/outbox.cif.g08.bks.cpg/sg2_312_cif.got.tgz:623223.got - 2010.06.03 11:33:40.
