data_PCOD9044103
_publ_section_title
;
Structure prediction by ZEFSAII (Michael W. Deem and Ramdas Pophale) SiO2 
 PCOD9044103
Probable space group: P -1
;
_chemical_formula_sum "Si O2"
_cell_formula_units_Z 16
_cell_length_a 15.064578
_cell_length_b 9.718430
_cell_length_c 8.558384
_cell_angle_alpha 115.700022
_cell_angle_beta 114.854652
_cell_angle_gamma 36.223414
_cell_volume 661.315914
_symmetry_space_group_name_H-M "P -1"
_symmetry_group_IT_number 2
_symmetry_cell_setting 'triclinic'
loop_
_space_group_symop_operation_xyz
x,y,z
-x,-y,-z
loop_
_atom_site_type_symbol
_atom_site_label
_atom_site_fract_x
_atom_site_fract_y
_atom_site_fract_z
Si Si1 0.555157 0.550024 0.700301
Si Si2 0.124746 0.343924 0.651126
Si Si3 0.380741 0.268728 0.700310
Si Si4 0.640393 0.755819 0.690605
Si Si5 0.862367 0.192970 0.202945
Si Si6 0.132658 0.271017 0.148539
Si Si7 0.774790 0.023584 0.233303
Si Si8 0.161919 0.964464 0.204992
O O1 0.500000 0.500000 0.500000
O O2 0.605160 0.656516 0.726409
O O3 0.407028 0.746559 0.794505
O O4 0.699309 0.296926 0.757076
O O5 0.267885 0.267397 0.663580
O O6 0.000000 0.500000 0.500000
O O7 0.041862 0.523476 0.825806
O O8 0.178449 0.115525 0.640545
O O9 0.396796 0.252651 0.517034
O O10 0.290490 0.529012 0.803197
O O11 0.536106 0.030269 0.777468
O O12 0.808492 0.625342 0.755037
O O13 0.843041 0.110644 0.300258
O O14 0.880126 0.056152 0.004919
O O15 0.010241 0.123546 0.273911
O O16 0.209090 0.079927 0.250712
O O17 0.168258 0.150661 0.951945
#
# Coordination Sequence:
#
# PCOD9044103 Si02
#       8
#     2   2   2   2   2   2   2   2
#     4  12  28  46  68 102 144 184 233 288 343 420
#     4  12  24  45  70 100 138 181 232 287 345 410
#     4  11  23  43  69  98 136 180 231 281 340 409
#     4  11  26  43  68 103 135 182 228 284 344 411
#     4  10  23  46  70 100 139 181 230 285 346 411
#     4  11  25  45  72 102 140 180 232 287 344 412
#     4  11  27  45  69 106 139 184 229 289 349 408
#     4  10  25  43  70 101 137 185 229 282 348 413
#
# _framework density 24.194185000000001
#
# number of rings (size 3 to 8) (size 9 to 14) (size 15 to 20)
#    0.000    1.000    3.750    1.125   10.500    2.500 
#    0.000    1.875    0.000    0.000    0.000    0.000 
#    0.000    0.000    0.000    0.000    0.000    0.000 
#
# Total GULP energy -89526.973285 kJ/mol
# GULP energy per Si atom -5595.435830 kJ/mol
# Density = 2.413912 g / cm^3
# Si number density = 24.194185 Si / 1000 Ang^3
#
#
#
# Elastic Constant Matrix: (Units=GPa)
#
#
# Indices 1 2 3 4 5 6 
#
# 1 147.0166 41.2755 8.8802 -13.3797 -16.2342 28.7454
# 2 41.2755 118.0570 -0.6682 -5.8165 -22.0460 16.3292
# 3 8.8802 -0.6682 28.9962 7.0409 -1.7532 1.6246
# 4 -13.3797 -5.8165 7.0409 39.7494 -0.2774 -7.3312
# 5 -16.2342 -22.0460 -1.7532 -0.2774 27.5626 3.2135
# 6 28.7454 16.3292 1.6246 -7.3312 3.2135 49.7199
#
#
#
# Elastic Compliance Matrix: (Units=1/GPa)
#
#
# Indices 1 2 3 4 5 6 
#
# 1 0.009023 -0.001602 -0.002892 0.002514 0.004400 -0.004510
# 2 -0.001602 0.011067 0.001362 0.000298 0.008377 -0.003251
# 3 -0.002892 0.001362 0.037435 -0.007621 0.001835 -0.001241
# 4 0.002514 0.000298 -0.007621 0.027910 0.001196 0.002736
# 5 0.004400 0.008377 0.001835 0.001196 0.046657 -0.008195
# 6 -0.004510 -0.003251 -0.001241 0.002736 -0.008195 0.024761
#
#
# Mechanical properties :
#
#
# Convention : Reuss Voigt Hill
#
# Bulk Modulus (GPa) = 19.50776 43.67164 31.58970
# Shear Modulus (GPa) = 27.74627 39.71186 33.72906
#
# Velocity S-wave (km/s) = 3.39014 4.05579 3.73781
# Velocity P-wave (km/s) = 4.83783 6.32631 5.63147
#
# Compressibility (1/GPa) = 0.05126166
#
# Stress axis : x y z
#
# Youngs Moduli (GPa) = 110.83100 90.36063 26.71265
#
# Poissons Ratio (x) = 0.14472 0.07725
# Poissons Ratio (y) = 0.17750 -0.03638
# Poissons Ratio (z) = 0.32051 -0.12305
#
# Static dielectric constant tensor:
#      x y z
#    x 1.901250 0.010880 -0.021840 
#    y 0.010880 1.979530 0.037330 
#    z -0.021840 0.037330 1.955130 
# 
# From -- ./inp_files/205635.got.cif
#   From: 2010.05.17/outbox.cif.g08.bks.cpg/sg2_103_cif.got.tgz:205635.got - 2010.06.03 11:33:40.
