data_PCOD9044056
_publ_section_title
;
Structure prediction by ZEFSAII (Michael W. Deem and Ramdas Pophale) SiO2 
 PCOD9044056
Probable space group: P -1
;
_chemical_formula_sum "Si O2"
_cell_formula_units_Z 14
_cell_length_a 8.339107
_cell_length_b 8.008558
_cell_length_c 14.972735
_cell_angle_alpha 108.035634
_cell_angle_beta 144.678413
_cell_angle_gamma 62.144273
_cell_volume 506.098945
_symmetry_space_group_name_H-M "P -1"
_symmetry_group_IT_number 2
_symmetry_cell_setting 'triclinic'
loop_
_space_group_symop_operation_xyz
x,y,z
-x,-y,-z
loop_
_atom_site_type_symbol
_atom_site_label
_atom_site_fract_x
_atom_site_fract_y
_atom_site_fract_z
Si Si1 0.244052 0.320843 0.506077
Si Si2 0.098957 0.013370 0.854466
Si Si3 0.297491 0.339429 0.962891
Si Si4 0.713120 0.604982 0.647676
Si Si5 0.563745 0.989891 0.722924
Si Si6 0.417840 0.529832 0.746996
Si Si7 0.835711 0.025615 0.331684
O O1 0.290241 0.262891 0.416226
O O2 0.476166 0.410840 0.663191
O O3 0.901999 0.480528 0.373651
O O4 0.316216 0.136834 0.568297
O O5 0.026002 0.047342 0.717314
O O6 0.861397 0.007771 0.820118
O O7 0.189384 0.192993 0.943264
O O8 0.376326 0.805837 0.947465
O O9 0.040589 0.451946 0.794819
O O10 0.342933 0.500687 0.072647
O O11 0.500000 0.500000 0.500000
O O12 0.608288 0.769193 0.700602
O O13 0.425153 0.050418 0.769117
O O14 0.312523 0.750814 0.716852
O O15 0.000000 0.000000 0.500000
#
# Coordination Sequence:
#
# PCOD9044056 Si02
#       7
#     2   2   2   2   2   2   2
#     4  11  24  42  72 106 144 189 256 304 363 443
#     4  10  25  47  74 106 149 199 240 308 376 440
#     4  10  24  49  71 101 157 197 240 310 386 435
#     4  12  26  42  73 109 140 195 250 307 373 451
#     4  12  26  45  73 111 145 190 254 309 361 447
#     4  10  23  46  69 105 145 198 240 311 372 440
#     4  11  23  41  73 109 145 189 247 308 368 436
#
# _framework density 27.662575
#
# number of rings (size 3 to 8) (size 9 to 14) (size 15 to 20)
#    0.000    1.143    1.429    3.857    6.000    3.429 
#    0.000   22.857    0.000    0.000    0.000    0.000 
#    0.000    0.000    0.000    0.000    0.000    0.000 
#
# Total GULP energy -78104.437806 kJ/mol
# GULP energy per Si atom -5578.888415 kJ/mol
# Density = 2.759961 g / cm^3
# Si number density = 27.662575 Si / 1000 Ang^3
#
#
#
# Elastic Constant Matrix: (Units=GPa)
#
#
# Indices 1 2 3 4 5 6 
#
# 1 117.0554 -8.5451 42.9968 -6.6964 9.2483 5.8841
# 2 -8.5451 99.7353 35.2641 -4.4643 -0.6938 5.2218
# 3 42.9968 35.2641 180.3359 1.6960 -3.3270 0.7234
# 4 -6.6964 -4.4643 1.6960 60.9541 -1.3675 -0.6721
# 5 9.2483 -0.6938 -3.3270 -1.3675 35.2213 -1.2557
# 6 5.8841 5.2218 0.7234 -0.6721 -1.2557 31.5823
#
#
#
# Elastic Compliance Matrix: (Units=1/GPa)
#
#
# Indices 1 2 3 4 5 6 
#
# 1 0.010167 0.002044 -0.002881 0.001256 -0.002933 -0.002256
# 2 0.002044 0.011320 -0.002714 0.001091 -0.000606 -0.002191
# 3 -0.002881 -0.002714 0.006790 -0.000664 0.001350 0.000869
# 4 0.001256 0.001091 -0.000664 0.016648 0.000274 -0.000034
# 5 -0.002933 -0.000606 0.001350 0.000274 0.029352 0.001789
# 6 -0.002256 -0.002191 0.000869 -0.000034 0.001789 0.032496
#
#
# Mechanical properties :
#
#
# Convention : Reuss Voigt Hill
#
# Bulk Modulus (GPa) = 47.22154 59.61759 53.41957
# Shear Modulus (GPa) = 41.34465 47.37893 44.36179
#
# Velocity S-wave (km/s) = 3.87021 4.14302 4.00894
# Velocity P-wave (km/s) = 6.08925 6.66968 6.38606
#
# Compressibility (1/GPa) = 0.02117677
#
# Stress axis : x y z
#
# Youngs Moduli (GPa) = 98.35483 88.33575 147.26865
#
# Poissons Ratio (x) = -0.18052 0.42423
# Poissons Ratio (y) = -0.20100 0.39962
# Poissons Ratio (z) = 0.28332 0.23970
#
# Static dielectric constant tensor:
#      x y z
#    x 2.452670 -0.009920 0.144630 
#    y -0.009920 2.096520 0.095230 
#    z 0.144630 0.095230 2.351930 
# 
# From -- ./inp_files/495320.got.cif
#   From: 2010.05.17/outbox.cif.g08.bks.cpg/sg2_248_cif.got.tgz:495320.got - 2010.06.03 11:33:40.
