data_PCOD9044666
_publ_section_title
;
Structure prediction by ZEFSAII (Michael W. Deem and Ramdas Pophale) SiO2 
 PCOD9044666
Probable space group: P -1
;
_chemical_formula_sum "Si O2"
_cell_formula_units_Z 16
_cell_length_a 18.004643
_cell_length_b 8.466420
_cell_length_c 8.902458
_cell_angle_alpha 50.935061
_cell_angle_beta 66.060168
_cell_angle_gamma 44.340450
_cell_volume 733.890050
_symmetry_space_group_name_H-M "P -1"
_symmetry_group_IT_number 2
_symmetry_cell_setting 'triclinic'
loop_
_space_group_symop_operation_xyz
x,y,z
-x,-y,-z
loop_
_atom_site_type_symbol
_atom_site_label
_atom_site_fract_x
_atom_site_fract_y
_atom_site_fract_z
Si Si1 0.041172 0.284659 0.959915
Si Si2 0.673043 0.247753 0.439107
Si Si3 0.717654 0.108489 0.141792
Si Si4 0.029329 0.891617 0.374132
Si Si5 0.761365 0.651755 0.520690
Si Si6 0.581344 0.660216 0.772817
Si Si7 0.114674 0.249671 0.419061
Si Si8 0.510834 0.791042 0.406729
O O1 0.963872 0.486485 0.771650
O O2 0.165331 0.081226 0.921797
O O3 0.000000 0.500000 0.000000
O O4 0.019394 0.093008 0.148239
O O5 0.709316 0.217785 0.252670
O O6 0.607261 0.543823 0.378699
O O7 0.592851 0.183649 0.553370
O O8 0.780465 0.022876 0.578747
O O9 0.698079 0.900505 0.311133
O O10 0.624576 0.376612 0.969051
O O11 0.956354 0.822431 0.423641
O O12 0.150854 0.629910 0.454370
O O13 0.000000 0.000000 0.500000
O O14 0.686651 0.629188 0.689962
O O15 0.830239 0.694573 0.538880
O O16 0.537279 0.713181 0.608097
O O17 0.509184 0.935439 0.761912
#
# Coordination Sequence:
#
# PCOD9044666 Si02
#       8
#     2   2   2   2   2   2   2   2
#     4  12  25  42  67 104 138 177 225 272 334 411
#     4  10  24  45  69  97 140 176 222 287 339 388
#     4  11  23  42  71  99 135 175 226 272 336 408
#     4  12  24  41  67  94 137 178 217 270 333 403
#     4  11  23  44  63 100 138 173 218 274 337 398
#     4  11  23  43  76  96 130 179 228 281 335 400
#     4  11  24  41  67  97 139 177 215 274 333 401
#     4  10  23  47  70  97 133 179 228 285 341 388
#
# _framework density 21.801632000000001
#
# number of rings (size 3 to 8) (size 9 to 14) (size 15 to 20)
#    0.000    1.000    6.250    0.375    5.250    3.500 
#    0.000    0.000    0.000    0.000    0.000    0.000 
#    0.000    0.000    0.000    0.000    0.000    0.000 
#
# Total GULP energy -89264.472017 kJ/mol
# GULP energy per Si atom -5579.029501 kJ/mol
# Density = 2.175201 g / cm^3
# Si number density = 21.801632 Si / 1000 Ang^3
#
#
#
# Elastic Constant Matrix: (Units=GPa)
#
#
# Indices 1 2 3 4 5 6 
#
# 1 62.5959 29.7555 11.5675 -0.8251 -1.3544 -6.7333
# 2 29.7555 197.4018 41.5729 -14.8435 5.4788 -17.1528
# 3 11.5675 41.5729 90.0625 -29.7948 -1.1581 -3.6300
# 4 -0.8251 -14.8435 -29.7948 46.7139 -7.0384 1.2018
# 5 -1.3544 5.4788 -1.1581 -7.0384 19.2823 -5.6863
# 6 -6.7333 -17.1528 -3.6300 1.2018 -5.6863 27.5043
#
#
#
# Elastic Compliance Matrix: (Units=1/GPa)
#
#
# Indices 1 2 3 4 5 6 
#
# 1 0.017688 -0.002224 -0.001421 -0.001026 0.002386 0.003294
# 2 -0.002224 0.006196 -0.002439 0.000121 -0.001211 0.002742
# 3 -0.001421 -0.002439 0.015871 0.010130 0.005517 0.000923
# 4 -0.001026 0.000121 0.010130 0.029638 0.012013 0.002350
# 5 0.002386 -0.001211 0.005517 0.012013 0.060806 0.012603
# 6 0.003294 0.002742 0.000923 0.002350 0.012603 0.041499
#
#
# Mechanical properties :
#
#
# Convention : Reuss Voigt Hill
#
# Bulk Modulus (GPa) = 36.25086 57.31690 46.78388
# Shear Modulus (GPa) = 25.89841 36.51106 31.20473
#
# Velocity S-wave (km/s) = 3.45035 4.09674 3.78736
# Velocity P-wave (km/s) = 5.70411 6.98033 6.37424
#
# Compressibility (1/GPa) = 0.02758555
#
# Stress axis : x y z
#
# Youngs Moduli (GPa) = 56.53646 161.40156 63.00610
#
# Poissons Ratio (x) = 0.35896 0.08954
# Poissons Ratio (y) = 0.12574 0.15370
# Poissons Ratio (z) = 0.08035 0.39373
#
# Static dielectric constant tensor:
#      x y z
#    x 1.823600 -0.010570 0.019830 
#    y -0.010570 1.884160 -0.000170 
#    z 0.019830 -0.000170 1.800650 
# 
# From -- ./inp_files/343313.got.cif
#   From: 2010.05.17/outbox.cif.g08.bks.cpg/sg2_172_cif.got.tgz:343313.got - 2010.06.03 11:33:40.
