data_PCOD9044599
_publ_section_title
;
Structure prediction by ZEFSAII (Michael W. Deem and Ramdas Pophale) SiO2 
 PCOD9044599
Probable space group: P -1
;
_chemical_formula_sum "Si O2"
_cell_formula_units_Z 16
_cell_length_a 8.653148
_cell_length_b 15.086523
_cell_length_c 9.403130
_cell_angle_alpha 34.472233
_cell_angle_beta 105.978588
_cell_angle_gamma 97.398940
_cell_volume 656.993621
_symmetry_space_group_name_H-M "P -1"
_symmetry_group_IT_number 2
_symmetry_cell_setting 'triclinic'
loop_
_space_group_symop_operation_xyz
x,y,z
-x,-y,-z
loop_
_atom_site_type_symbol
_atom_site_label
_atom_site_fract_x
_atom_site_fract_y
_atom_site_fract_z
Si Si1 0.024555 0.020122 0.647299
Si Si2 0.454179 0.204177 0.602054
Si Si3 0.249759 0.796508 0.511044
Si Si4 0.131433 0.540594 0.296729
Si Si5 0.872434 0.645597 0.712036
Si Si6 0.636835 0.131241 0.007617
Si Si7 0.212975 0.497160 0.705604
Si Si8 0.411723 0.673365 0.008218
O O1 0.875082 0.045632 0.684099
O O2 0.070136 0.195289 0.438150
O O3 0.000000 0.000000 0.500000
O O4 0.167943 0.882028 0.920228
O O5 0.605079 0.155244 0.603532
O O6 0.318325 0.336766 0.318236
O O7 0.376782 0.046748 0.807702
O O8 0.530845 0.246279 0.715143
O O9 0.195096 0.656718 0.586965
O O10 0.319179 0.720412 0.777081
O O11 0.140554 0.372423 0.437968
O O12 0.174077 0.532251 0.483331
O O13 0.277278 0.603427 0.164215
O O14 0.931867 0.601365 0.153841
O O15 0.000000 0.500000 0.000000
O O16 0.570198 0.174865 0.090001
O O17 0.405588 0.418438 0.859060
#
# Coordination Sequence:
#
# PCOD9044599 Si02
#       8
#     2   2   2   2   2   2   2   2
#     4  11  23  45  67  98 141 181 237 281 355 429
#     4  10  24  44  70  98 137 184 242 289 358 419
#     4  12  24  43  67 101 137 177 241 297 350 423
#     4  11  24  42  68 101 142 187 229 293 359 415
#     4  11  23  42  72 100 139 183 230 292 357 419
#     4  10  23  47  68  96 136 196 230 286 357 435
#     4  11  25  43  66 107 140 181 244 291 354 432
#     4  12  24  42  70 100 144 186 232 293 366 416
#
# _framework density 24.353356999999999
#
# number of rings (size 3 to 8) (size 9 to 14) (size 15 to 20)
#    0.000    1.000    2.500    3.750    1.750    1.000 
#    2.250    0.000    0.000    0.000    0.000    0.000 
#    0.000    0.000    0.000    0.000    0.000    0.000 
#
# Total GULP energy -89286.208837 kJ/mol
# GULP energy per Si atom -5580.388052 kJ/mol
# Density = 2.429793 g / cm^3
# Si number density = 24.353357 Si / 1000 Ang^3
#
#
#
# Elastic Constant Matrix: (Units=GPa)
#
#
# Indices 1 2 3 4 5 6 
#
# 1 154.1404 7.9124 18.3294 10.8439 36.8907 -3.0545
# 2 7.9124 164.7682 24.2737 29.3355 18.4687 -17.3029
# 3 18.3294 24.2737 51.7190 11.7506 16.6669 5.3762
# 4 10.8439 29.3355 11.7506 38.8226 -11.2097 0.6755
# 5 36.8907 18.4687 16.6669 -11.2097 39.1083 -1.0450
# 6 -3.0545 -17.3029 5.3762 0.6755 -1.0450 34.7855
#
#
#
# Elastic Compliance Matrix: (Units=1/GPa)
#
#
# Indices 1 2 3 4 5 6 
#
# 1 0.010355 0.002813 0.001757 -0.009798 -0.014605 0.001789
# 2 0.002813 0.009566 -0.000285 -0.010915 -0.010046 0.004960
# 3 0.001757 -0.000285 0.028121 -0.013783 -0.017580 -0.004594
# 4 -0.009798 -0.010915 -0.013783 0.051031 0.034788 -0.004105
# 5 -0.014605 -0.010046 -0.017580 0.034788 0.061491 -0.002391
# 6 0.001789 0.004960 -0.004594 -0.004105 -0.002391 0.032090
#
#
# Mechanical properties :
#
#
# Convention : Reuss Voigt Hill
#
# Bulk Modulus (GPa) = 17.66415 52.40651 35.03533
# Shear Modulus (GPa) = 24.63617 43.88409 34.26013
#
# Velocity S-wave (km/s) = 3.18404 4.24957 3.75479
# Velocity P-wave (km/s) = 4.55922 6.75606 5.76328
#
# Compressibility (1/GPa) = 0.05661183
#
# Stress axis : x y z
#
# Youngs Moduli (GPa) = 96.57626 104.53445 35.56058
#
# Poissons Ratio (x) = -0.29409 -0.06247
# Poissons Ratio (y) = -0.27170 0.01014
# Poissons Ratio (z) = -0.16967 0.02980
#
# Static dielectric constant tensor:
#      x y z
#    x 2.107990 0.051670 0.017980 
#    y 0.051670 1.976580 -0.029780 
#    z 0.017980 -0.029780 1.945540 
# 
# From -- ./inp_files/205400.got.cif
#   From: 2010.05.17/outbox.cif.g08.bks.cpg/sg2_103_cif.got.tgz:205400.got - 2010.06.03 11:33:40.
