data_PCOD9044926
_publ_section_title
;
Structure prediction by ZEFSAII (Michael W. Deem and Ramdas Pophale) SiO2 
 PCOD9044926
Probable space group: P -1
;
_chemical_formula_sum "Si O2"
_cell_formula_units_Z 14
_cell_length_a 16.676742
_cell_length_b 9.969178
_cell_length_c 7.687884
_cell_angle_alpha 133.856545
_cell_angle_beta 91.955071
_cell_angle_gamma 121.221014
_cell_volume 607.090064
_symmetry_space_group_name_H-M "P -1"
_symmetry_group_IT_number 2
_symmetry_cell_setting 'triclinic'
loop_
_space_group_symop_operation_xyz
x,y,z
-x,-y,-z
loop_
_atom_site_type_symbol
_atom_site_label
_atom_site_fract_x
_atom_site_fract_y
_atom_site_fract_z
Si Si1 0.762993 0.854952 0.699170
Si Si2 0.498298 0.498337 0.211745
Si Si3 0.263817 0.603090 0.824270
Si Si4 0.097240 0.778400 0.638349
Si Si5 0.289284 0.842387 0.685052
Si Si6 0.909694 0.449651 0.075651
Si Si7 0.468706 0.877948 0.581251
O O1 0.625252 0.668605 0.467507
O O2 0.784996 0.686900 0.477556
O O3 0.808917 0.947045 0.985683
O O4 0.841577 0.151476 0.881449
O O5 0.463796 0.648614 0.390037
O O6 0.500000 0.500000 0.000000
O O7 0.400719 0.180679 0.987280
O O8 0.245165 0.706444 0.750925
O O9 0.200887 0.592679 0.976614
O O10 0.410379 0.845786 0.060742
O O11 0.176956 0.762063 0.527474
O O12 0.000000 0.500000 0.500000
O O13 0.008640 0.729792 0.457628
O O14 0.344994 0.757367 0.525544
O O15 0.000000 0.500000 0.000000
O O16 0.500000 0.000000 0.500000
#
# Coordination Sequence:
#
# PCOD9044926 Si02
#       7
#     2   2   2   2   2   2   2
#     4  11  24  46  72 102 144 180 241 292 347 424
#     4  12  25  44  71 106 146 187 228 291 365 417
#     4  12  25  45  71 107 138 184 244 287 351 419
#     4  10  23  48  67 102 137 186 236 287 347 411
#     4  12  25  43  73 102 143 181 237 285 356 414
#     4  11  26  48  74  96 147 189 234 294 348 418
#     4  12  25  43  67 103 145 181 230 294 354 421
#
# _framework density 23.060828000000001
#
# number of rings (size 3 to 8) (size 9 to 14) (size 15 to 20)
#    0.000    0.571    7.143    0.429    6.000    2.286 
#    0.000    0.000    0.000    0.000    0.000    0.000 
#    0.000    0.000    0.000    0.000    0.000    0.000 
#
# Total GULP energy -78120.576975 kJ/mol
# GULP energy per Si atom -5580.041212 kJ/mol
# Density = 2.300834 g / cm^3
# Si number density = 23.060828 Si / 1000 Ang^3
#
#
#
# Elastic Constant Matrix: (Units=GPa)
#
#
# Indices 1 2 3 4 5 6 
#
# 1 136.5248 45.1027 55.1382 17.5944 -18.2201 26.1664
# 2 45.1027 47.0279 20.6124 7.9023 -7.8569 24.4703
# 3 55.1382 20.6124 109.5625 10.2974 -6.6011 -0.1769
# 4 17.5944 7.9023 10.2974 21.7101 -0.1258 -1.8125
# 5 -18.2201 -7.8569 -6.6011 -0.1258 61.4997 -0.8115
# 6 26.1664 24.4703 -0.1769 -1.8125 -0.8115 46.4746
#
#
#
# Elastic Compliance Matrix: (Units=1/GPa)
#
#
# Indices 1 2 3 4 5 6 
#
# 1 0.013594 -0.007414 -0.004700 -0.006407 0.002510 -0.003974
# 2 -0.007414 0.040724 -0.002980 -0.008855 0.002436 -0.017582
# 3 -0.004700 -0.002980 0.012080 -0.000485 -0.000422 0.004235
# 4 -0.006407 -0.008855 -0.000485 0.055558 -0.002831 0.010385
# 5 0.002510 0.002436 -0.000422 -0.002831 0.017231 -0.002507
# 6 -0.003974 -0.017582 0.004235 0.010385 -0.002507 0.033390
#
#
# Mechanical properties :
#
#
# Convention : Reuss Voigt Hill
#
# Bulk Modulus (GPa) = 27.61544 59.42461 43.52002
# Shear Modulus (GPa) = 23.27367 37.42102 30.34735
#
# Velocity S-wave (km/s) = 3.18028 4.03266 3.63156
# Velocity P-wave (km/s) = 5.04843 6.89258 6.04129
#
# Compressibility (1/GPa) = 0.03621163
#
# Stress axis : x y z
#
# Youngs Moduli (GPa) = 73.55928 24.55532 82.78144
#
# Poissons Ratio (x) = 0.18206 0.38905
# Poissons Ratio (y) = 0.54539 0.24666
# Poissons Ratio (z) = 0.34571 0.07317
#
# Static dielectric constant tensor:
#      x y z
#    x 1.305900 0.277080 -0.425770 
#    y 0.277080 1.825260 0.084620 
#    z -0.425770 0.084620 1.541470 
# 
# From -- ./inp_files/332551.got.cif
#   From: 2010.05.17/outbox.cif.g08.bks.cpg/sg2_167_cif.got.tgz:332551.got - 2010.06.03 11:33:40.
