data_PCOD9044732
_publ_section_title
;
Structure prediction by ZEFSAII (Michael W. Deem and Ramdas Pophale) SiO2 
 PCOD9044732
Probable space group: P -1
;
_chemical_formula_sum "Si O2"
_cell_formula_units_Z 14
_cell_length_a 12.939113
_cell_length_b 14.855861
_cell_length_c 5.167203
_cell_angle_alpha 101.169898
_cell_angle_beta 68.511752
_cell_angle_gamma 146.315101
_cell_volume 500.574012
_symmetry_space_group_name_H-M "P -1"
_symmetry_group_IT_number 2
_symmetry_cell_setting 'triclinic'
loop_
_space_group_symop_operation_xyz
x,y,z
-x,-y,-z
loop_
_atom_site_type_symbol
_atom_site_label
_atom_site_fract_x
_atom_site_fract_y
_atom_site_fract_z
Si Si1 0.441012 0.017675 0.308305
Si Si2 0.059389 0.936052 0.498599
Si Si3 0.730014 0.339516 0.449267
Si Si4 0.202001 0.368727 0.704448
Si Si5 0.587151 0.631661 0.190276
Si Si6 0.317072 0.111676 0.889711
Si Si7 0.988456 0.338165 0.337420
O O1 0.200032 0.848495 0.478738
O O2 0.500000 0.000000 0.500000
O O3 0.588455 0.208850 0.267286
O O4 0.500000 0.000000 0.000000
O O5 0.887883 0.739418 0.536091
O O6 0.187819 0.025644 0.694364
O O7 0.000000 0.000000 0.500000
O O8 0.194502 0.989390 0.170078
O O9 0.535007 0.215431 0.742587
O O10 0.886326 0.363642 0.348031
O O11 0.858882 0.520148 0.497282
O O12 0.427544 0.553265 0.513028
O O13 0.231761 0.294171 0.794924
O O14 0.094708 0.363075 0.005466
O O15 0.644967 0.755908 0.032111
O O16 0.500000 0.500000 0.000000
#
# Coordination Sequence:
#
# PCOD9044732 Si02
#       7
#     2   2   2   2   2   2   2
#     4  10  23  47  72 103 148 195 248 308 365 437
#     4  12  26  48  75 109 146 195 251 313 380 453
#     4  10  24  47  74 108 155 196 247 313 374 446
#     4  11  25  46  75 108 148 199 255 313 378 464
#     4  11  25  45  72 105 153 192 248 323 382 446
#     4  12  27  46  75 107 148 192 246 311 383 441
#     4  10  23  48  76 111 147 204 258 300 381 459
#
# _framework density 27.967889
#
# number of rings (size 3 to 8) (size 9 to 14) (size 15 to 20)
#    0.000    1.143    1.429    3.000    6.000    5.143 
#   15.429    0.000    0.000    0.000    0.000    0.000 
#    0.000    0.000    0.000    0.000    0.000    0.000 
#
# Total GULP energy -78239.248204 kJ/mol
# GULP energy per Si atom -5588.517729 kJ/mol
# Density = 2.790423 g / cm^3
# Si number density = 27.967889 Si / 1000 Ang^3
#
#
#
# Elastic Constant Matrix: (Units=GPa)
#
#
# Indices 1 2 3 4 5 6 
#
# 1 99.7167 30.5505 52.7565 1.8628 -13.3445 10.3855
# 2 30.5505 206.6939 84.0456 34.4325 -18.4473 0.6015
# 3 52.7565 84.0456 205.2346 -7.0499 -3.4870 20.9056
# 4 1.8628 34.4325 -7.0499 62.7186 6.3708 -8.9750
# 5 -13.3445 -18.4473 -3.4870 6.3708 51.5843 1.8320
# 6 10.3855 0.6015 20.9056 -8.9750 1.8320 50.3275
#
#
#
# Elastic Compliance Matrix: (Units=1/GPa)
#
#
# Indices 1 2 3 4 5 6 
#
# 1 0.012217 -0.000152 -0.002898 -0.001155 0.003111 -0.001634
# 2 -0.000152 0.007071 -0.002991 -0.004459 0.002828 0.000291
# 3 -0.002898 -0.002991 0.007084 0.002424 -0.001575 -0.001819
# 4 -0.001155 -0.004459 0.002424 0.019549 -0.004248 0.002925
# 5 0.003111 0.002828 -0.001575 -0.004248 0.021675 -0.001568
# 6 -0.001634 0.000291 -0.001819 0.002925 -0.001568 0.021538
#
#
# Mechanical properties :
#
#
# Convention : Reuss Voigt Hill
#
# Bulk Modulus (GPa) = 69.98877 94.03894 82.01386
# Shear Modulus (GPa) = 47.17782 55.87892 51.52837
#
# Velocity S-wave (km/s) = 4.11159 4.47471 4.29699
# Velocity P-wave (km/s) = 6.90067 7.77138 7.34893
#
# Compressibility (1/GPa) = 0.01428801
#
# Stress axis : x y z
#
# Youngs Moduli (GPa) = 81.85641 141.41523 141.15700
#
# Poissons Ratio (x) = 0.02156 0.40910
# Poissons Ratio (y) = 0.01248 0.42226
# Poissons Ratio (z) = 0.23724 0.42303
#
# Static dielectric constant tensor:
#      x y z
#    x 2.306740 -0.007980 0.033300 
#    y -0.007980 2.237490 0.028560 
#    z 0.033300 0.028560 2.210400 
# 
# From -- ./inp_files/99938.got.cif
#   From: 2010.05.17/outbox.cif.g08.bks.cpg/sg2_50_cif.got.tgz:99938.got - 2010.06.03 11:33:40.
