data_PCOD9044261
_publ_section_title
;
Structure prediction by ZEFSAII (Michael W. Deem and Ramdas Pophale) SiO2 
 PCOD9044261
Probable space group: P -1
;
_chemical_formula_sum "Si O2"
_cell_formula_units_Z 13
_cell_length_a 14.796545
_cell_length_b 7.157776
_cell_length_c 8.415483
_cell_angle_alpha 59.628260
_cell_angle_beta 97.572214
_cell_angle_gamma 134.821032
_cell_volume 507.367575
_symmetry_space_group_name_H-M "P -1"
_symmetry_group_IT_number 2
_symmetry_cell_setting 'triclinic'
loop_
_space_group_symop_operation_xyz
x,y,z
-x,-y,-z
loop_
_atom_site_type_symbol
_atom_site_label
_atom_site_fract_x
_atom_site_fract_y
_atom_site_fract_z
Si Si1 0.050083 0.376518 0.152491
Si Si2 0.581060 0.255382 0.552028
Si Si3 0.677687 0.292211 0.105464
Si Si4 0.500000 0.500000 0.500000
Si Si5 0.887823 0.749791 0.211552
Si Si6 0.182523 0.677572 0.379407
Si Si7 0.397550 0.393781 0.161359
O O1 0.079967 0.463753 0.305038
O O2 0.197439 0.582165 0.017516
O O3 0.938084 0.992844 0.259471
O O4 0.000000 0.500000 0.000000
O O5 0.635972 0.593982 0.420303
O O6 0.690314 0.272534 0.627580
O O7 0.500000 0.000000 0.500000
O O8 0.445301 0.086746 0.705181
O O9 0.744876 0.515780 0.184681
O O10 0.609124 0.360179 0.959876
O O11 0.434549 0.376356 0.350979
O O12 0.883640 0.504060 0.390250
O O13 0.000000 0.000000 0.000000
O O14 0.250182 0.031360 0.241517
O O15 0.500000 0.500000 0.000000
#
# Coordination Sequence:
#
# PCOD9044261 Si02
#       7
#     2   2   2   1   2   2   2
#     4  11  26  46  71 107 145 208 259 315 375 457
#     4  12  23  45  73 117 152 196 246 322 399 471
#     4  11  23  46  73 106 154 191 249 320 391 461
#     4  12  26  40  68 110 158 202 244 292 390 486
#     4  10  23  46  72 100 142 202 253 310 373 453
#     4  12  24  46  76 107 156 191 253 327 382 464
#     4  12  25  44  73 115 154 202 248 314 403 478
#
# _framework density 25.622447999999999
#
# number of rings (size 3 to 8) (size 9 to 14) (size 15 to 20)
#    0.000    0.615    4.615    2.308    2.154    2.462 
#    0.000   18.462    0.000    0.000    0.000    0.000 
#    0.000    0.000    0.000    0.000    0.000    0.000 
#
# Total GULP energy -72546.964455 kJ/mol
# GULP energy per Si atom -5580.535727 kJ/mol
# Density = 2.556413 g / cm^3
# Si number density = 25.622448 Si / 1000 Ang^3
#
#
#
# Elastic Constant Matrix: (Units=GPa)
#
#
# Indices 1 2 3 4 5 6 
#
# 1 125.1591 -6.2778 19.8581 8.0995 -1.3933 2.0417
# 2 -6.2778 133.8371 40.3359 15.0306 -5.9491 -1.3723
# 3 19.8581 40.3359 133.2140 11.5430 3.3891 13.7941
# 4 8.0995 15.0306 11.5430 56.7886 16.6510 -0.9723
# 5 -1.3933 -5.9491 3.3891 16.6510 43.8765 -1.7934
# 6 2.0417 -1.3723 13.7941 -0.9723 -1.7934 40.3300
#
#
#
# Elastic Compliance Matrix: (Units=1/GPa)
#
#
# Indices 1 2 3 4 5 6 
#
# 1 0.008385 0.001058 -0.001482 -0.001494 0.001096 0.000131
# 2 0.001058 0.008776 -0.002780 -0.002615 0.002481 0.001243
# 3 -0.001482 -0.002780 0.008976 -0.000637 -0.001005 -0.003150
# 4 -0.001494 -0.002615 -0.000637 0.021096 -0.008345 0.000342
# 5 0.001096 0.002481 -0.001005 -0.008345 0.026462 0.001348
# 6 0.000131 0.001243 -0.003150 0.000342 0.001348 0.025977
#
#
# Mechanical properties :
#
#
# Convention : Reuss Voigt Hill
#
# Bulk Modulus (GPa) = 50.68970 55.56027 53.12498
# Shear Modulus (GPa) = 44.38230 50.75196 47.56713
#
# Velocity S-wave (km/s) = 4.16644 4.45540 4.31334
# Velocity P-wave (km/s) = 6.55530 6.94253 6.75169
#
# Compressibility (1/GPa) = 0.01972787
#
# Stress axis : x y z
#
# Youngs Moduli (GPa) = 119.26328 113.94683 111.40322
#
# Poissons Ratio (x) = -0.12054 0.16513
# Poissons Ratio (y) = -0.12617 0.30973
# Poissons Ratio (z) = 0.17678 0.31680
#
# Static dielectric constant tensor:
#      x y z
#    x 1.875130 0.217090 -0.354890 
#    y 0.217090 1.709880 0.304220 
#    z -0.354890 0.304220 1.759980 
# 
# From -- ./inp_files/325616.got.cif
#   From: 2010.05.17/outbox.cif.g08.bks.cpg/sg2_163_cif.got.tgz:325616.got - 2010.06.03 11:33:40.
