data_PCOD9044825
_publ_section_title
;
Structure prediction by ZEFSAII (Michael W. Deem and Ramdas Pophale) SiO2 
 PCOD9044825
Probable space group: P -1
;
_chemical_formula_sum "Si O2"
_cell_formula_units_Z 16
_cell_length_a 11.970761
_cell_length_b 12.102558
_cell_length_c 5.302994
_cell_angle_alpha 109.533689
_cell_angle_beta 83.795501
_cell_angle_gamma 81.794347
_cell_volume 706.582815
_symmetry_space_group_name_H-M "P -1"
_symmetry_group_IT_number 2
_symmetry_cell_setting 'triclinic'
loop_
_space_group_symop_operation_xyz
x,y,z
-x,-y,-z
loop_
_atom_site_type_symbol
_atom_site_label
_atom_site_fract_x
_atom_site_fract_y
_atom_site_fract_z
Si Si1 0.736842 0.470154 0.329799
Si Si2 0.393886 0.331598 0.811134
Si Si3 0.366120 0.063660 0.605161
Si Si4 0.456368 0.687183 0.749804
Si Si5 0.956774 0.071265 0.815765
Si Si6 0.299224 0.944048 0.036897
Si Si7 0.966648 0.332129 0.953862
Si Si8 0.891136 0.509335 0.714841
O O1 0.703221 0.557224 0.167159
O O2 0.636001 0.397479 0.334125
O O3 0.774423 0.542629 0.612946
O O4 0.855350 0.378334 0.187723
O O5 0.355345 0.204824 0.760289
O O6 0.473025 0.315231 0.527055
O O7 0.466417 0.355233 0.056130
O O8 0.316330 0.034375 0.325223
O O9 0.500000 0.000000 0.500000
O O10 0.309504 0.004545 0.807820
O O11 0.394781 0.823158 0.925082
O O12 0.002021 0.193561 0.877270
O O13 0.820107 0.094686 0.898854
O O14 0.000000 0.000000 0.500000
O O15 0.000000 0.000000 0.000000
O O16 0.911231 0.379082 0.737116
O O17 0.074360 0.395927 0.023255
O O18 0.000000 0.500000 0.500000
#
# Coordination Sequence:
#
# PCOD9044825 Si02
#       8
#     2   2   2   2   2   2   2   2
#     4  11  25  42  71 101 143 187 231 295 352 423
#     4  12  27  42  67 109 142 186 240 291 345 423
#     4  12  23  44  71 100 144 187 242 289 348 424
#     4  12  24  44  71 100 144 185 239 285 353 427
#     4  12  29  49  75 110 143 183 245 306 360 433
#     4  12  24  47  72 102 135 200 230 291 370 420
#     4  10  23  47  74  98 143 186 235 296 365 431
#     4   9  22  44  71 101 132 190 236 286 362 423
#
# _framework density 22.644196000000001
#
# number of rings (size 3 to 8) (size 9 to 14) (size 15 to 20)
#    0.000    0.750    3.750    2.625    7.000    2.000 
#   11.250    0.000    0.000    0.000    0.000    0.000 
#    0.000    0.000    0.000    0.000    0.000    0.000 
#
# Total GULP energy -89473.226355 kJ/mol
# GULP energy per Si atom -5592.076647 kJ/mol
# Density = 2.259266 g / cm^3
# Si number density = 22.644196 Si / 1000 Ang^3
#
#
#
# Elastic Constant Matrix: (Units=GPa)
#
#
# Indices 1 2 3 4 5 6 
#
# 1 85.8120 28.7225 46.2889 -5.4155 19.1986 4.6653
# 2 28.7225 142.2249 39.0696 -4.0056 12.6333 4.6692
# 3 46.2889 39.0696 102.9240 -29.2652 5.7199 -4.2196
# 4 -5.4155 -4.0056 -29.2652 44.8846 1.0790 -0.3394
# 5 19.1986 12.6333 5.7199 1.0790 38.8104 -5.3514
# 6 4.6653 4.6692 -4.2196 -0.3394 -5.3514 34.8686
#
#
#
# Elastic Compliance Matrix: (Units=1/GPa)
#
#
# Indices 1 2 3 4 5 6 
#
# 1 0.018467 -0.000516 -0.008815 -0.003404 -0.008230 -0.004765
# 2 -0.000516 0.008237 -0.003247 -0.001406 -0.002152 -0.001771
# 3 -0.008815 -0.003247 0.017827 0.010228 0.003105 0.004348
# 4 -0.003404 -0.001406 0.010228 0.028425 0.000144 0.002180
# 5 -0.008230 -0.002152 0.003105 0.000144 0.030976 0.006521
# 6 -0.004765 -0.001771 0.004348 0.002180 0.006521 0.031102
#
#
# Mechanical properties :
#
#
# Convention : Reuss Voigt Hill
#
# Bulk Modulus (GPa) = 51.61671 62.12477 56.87074
# Shear Modulus (GPa) = 30.00323 38.17139 34.08731
#
# Velocity S-wave (km/s) = 3.64398 4.11019 3.88409
# Velocity P-wave (km/s) = 6.36781 7.07245 6.72936
#
# Compressibility (1/GPa) = 0.01937357
#
# Stress axis : x y z
#
# Youngs Moduli (GPa) = 54.15135 121.40072 56.09471
#
# Poissons Ratio (x) = 0.06268 0.49447
# Poissons Ratio (y) = 0.02796 0.18216
# Poissons Ratio (z) = 0.47734 0.39424
#
# Static dielectric constant tensor:
#      x y z
#    x 1.903390 -0.026810 -0.043510 
#    y -0.026810 1.792560 0.025180 
#    z -0.043510 0.025180 1.961450 
# 
# From -- ./inp_files/72275.got.cif
#   From: 2010.05.17/outbox.cif.g08.bks.cpg/sg2_37_cif.got.tgz:72275.got - 2010.06.03 11:33:40.
