data_PCOD9044299
_publ_section_title
;
Structure prediction by ZEFSAII (Michael W. Deem and Ramdas Pophale) SiO2 
 PCOD9044299
Probable space group: P -1
;
_chemical_formula_sum "Si O2"
_cell_formula_units_Z 14
_cell_length_a 25.716929
_cell_length_b 7.659155
_cell_length_c 11.193432
_cell_angle_alpha 137.191465
_cell_angle_beta 21.587054
_cell_angle_gamma 136.433011
_cell_volume 543.245167
_symmetry_space_group_name_H-M "P -1"
_symmetry_group_IT_number 2
_symmetry_cell_setting 'triclinic'
loop_
_space_group_symop_operation_xyz
x,y,z
-x,-y,-z
loop_
_atom_site_type_symbol
_atom_site_label
_atom_site_fract_x
_atom_site_fract_y
_atom_site_fract_z
Si Si1 0.231781 0.577057 0.289342
Si Si2 0.563326 0.715356 0.646233
Si Si3 0.619779 0.737248 0.817526
Si Si4 0.611165 0.145279 0.237832
Si Si5 0.075156 0.970681 0.697566
Si Si6 0.835658 0.028637 0.873912
Si Si7 0.186489 0.857690 0.765968
O O1 0.141623 0.708044 0.448842
O O2 0.235861 0.273978 0.111022
O O3 0.177360 0.638565 0.571046
O O4 0.395352 0.716569 0.002744
O O5 0.603372 0.729068 0.707138
O O6 0.590757 0.436436 0.402621
O O7 0.668690 0.944473 0.472814
O O8 0.793588 0.793467 0.490274
O O9 0.500000 0.500000 0.000000
O O10 0.585130 0.971275 0.090040
O O11 0.500000 0.000000 0.500000
O O12 0.766798 0.139717 0.961118
O O13 0.000000 0.000000 0.000000
O O14 0.947965 0.989921 0.887523
O O15 0.000000 0.000000 0.500000
O O16 0.810823 0.200876 0.128829
#
# Coordination Sequence:
#
# PCOD9044299 Si02
#       7
#     2   2   2   2   2   2   2
#     4  11  25  45  73 109 144 183 251 294 358 443
#     4  12  26  46  75 109 142 192 244 298 368 430
#     4  12  24  44  77 103 150 191 239 302 364 425
#     4  12  27  46  69 111 146 187 246 294 367 438
#     4  10  23  46  72 110 141 188 248 294 358 439
#     4  12  29  48  70 108 148 191 241 305 366 426
#     4  11  27  47  78 104 144 194 241 301 367 430
#
# _framework density 25.771053999999999
#
# number of rings (size 3 to 8) (size 9 to 14) (size 15 to 20)
#    0.000    0.571    5.714    1.286    6.000    2.857 
#    0.000    0.000    0.000    0.000    0.000    0.000 
#    0.000    0.000    0.000    0.000    0.000    0.000 
#
# Total GULP energy -78451.494950 kJ/mol
# GULP energy per Si atom -5603.678211 kJ/mol
# Density = 2.571240 g / cm^3
# Si number density = 25.771054 Si / 1000 Ang^3
#
#
#
# Elastic Constant Matrix: (Units=GPa)
#
#
# Indices 1 2 3 4 5 6 
#
# 1 119.7992 12.5586 30.2845 11.0390 4.1657 15.8099
# 2 12.5586 85.2441 20.5902 19.9876 12.4390 10.5524
# 3 30.2845 20.5902 121.0487 -10.9568 -8.8501 9.4421
# 4 11.0390 19.9876 -10.9568 59.9917 4.9530 2.3796
# 5 4.1657 12.4390 -8.8501 4.9530 61.1885 6.6195
# 6 15.8099 10.5524 9.4421 2.3796 6.6195 30.9272
#
#
#
# Elastic Compliance Matrix: (Units=1/GPa)
#
#
# Indices 1 2 3 4 5 6 
#
# 1 0.009661 0.000195 -0.002355 -0.002077 -0.000434 -0.004034
# 2 0.000195 0.014343 -0.002884 -0.005001 -0.002598 -0.003172
# 3 -0.002355 -0.002884 0.009892 0.003088 0.002091 -0.001517
# 4 -0.002077 -0.005001 0.003088 0.019267 0.000008 0.000341
# 5 -0.000434 -0.002598 0.002091 0.000008 0.017558 -0.003289
# 6 -0.004034 -0.003172 -0.001517 0.000341 -0.003289 0.036619
#
#
# Mechanical properties :
#
#
# Convention : Reuss Voigt Hill
#
# Bulk Modulus (GPa) = 42.00219 50.32872 46.16546
# Shear Modulus (GPa) = 39.88356 47.93203 43.90779
#
# Velocity S-wave (km/s) = 3.93824 4.31735 4.13215
# Velocity P-wave (km/s) = 6.08385 6.66516 6.38112
#
# Compressibility (1/GPa) = 0.02380828
#
# Stress axis : x y z
#
# Youngs Moduli (GPa) = 103.50850 69.71895 101.09452
#
# Poissons Ratio (x) = -0.01361 0.23811
# Poissons Ratio (y) = -0.02021 0.29154
# Poissons Ratio (z) = 0.24380 0.20106
#
# Static dielectric constant tensor:
#      x y z
#    x 2.064830 -0.043380 -0.028260 
#    y -0.043380 2.082160 0.030540 
#    z -0.028260 0.030540 2.033330 
# 
# From -- ./inp_files/406874.got.cif
#   From: 2010.05.17/outbox.cif.g08.bks.cpg/sg2_204_cif.got.tgz:406874.got - 2010.06.03 11:33:40.
