data_PCOD9044290
_publ_section_title
;
Structure prediction by ZEFSAII (Michael W. Deem and Ramdas Pophale) SiO2 
 PCOD9044290
Probable space group: P -1
;
_chemical_formula_sum "Si O2"
_cell_formula_units_Z 16
_cell_length_a 5.364001
_cell_length_b 14.191277
_cell_length_c 17.327274
_cell_angle_alpha 149.175399
_cell_angle_beta 86.244941
_cell_angle_gamma 83.441634
_cell_volume 635.834617
_symmetry_space_group_name_H-M "P -1"
_symmetry_group_IT_number 2
_symmetry_cell_setting 'triclinic'
loop_
_space_group_symop_operation_xyz
x,y,z
-x,-y,-z
loop_
_atom_site_type_symbol
_atom_site_label
_atom_site_fract_x
_atom_site_fract_y
_atom_site_fract_z
Si Si1 0.855263 0.468696 0.904710
Si Si2 0.695509 0.739804 0.380234
Si Si3 0.475563 0.808561 0.906553
Si Si4 0.043899 0.559931 0.385837
Si Si5 0.153899 0.904421 0.697279
Si Si6 0.724093 0.139468 0.635803
Si Si7 0.436097 0.864478 0.127166
Si Si8 0.753125 0.362303 0.351068
O O1 0.736615 0.298388 0.807201
O O2 0.076615 0.367616 0.763018
O O3 0.632590 0.660136 0.011997
O O4 0.000000 0.500000 0.000000
O O5 0.806777 0.649191 0.394402
O O6 0.431989 0.728264 0.338815
O O7 0.610774 0.976758 0.555396
O O8 0.315929 0.720662 0.787087
O O9 0.756148 0.638965 0.789404
O O10 0.392652 0.849339 0.025313
O O11 0.500000 0.000000 0.000000
O O12 0.188391 0.717142 0.510523
O O13 0.927192 0.495527 0.419237
O O14 0.124361 0.820926 0.724170
O O15 0.869877 0.055153 0.782566
O O16 0.396175 0.988514 0.755830
O O17 0.000000 0.000000 0.500000
O O18 0.500000 0.500000 0.500000
#
# Coordination Sequence:
#
# PCOD9044290 Si02
#       8
#     2   2   2   2   2   2   2   2
#     4  11  26  45  74 106 152 195 247 320 391 450
#     4  10  23  46  72 107 140 195 258 305 381 460
#     4  12  26  45  75 108 152 202 251 317 386 449
#     4  12  27  44  79 102 149 208 254 317 372 469
#     4  12  28  50  73 111 158 201 260 316 385 459
#     4   9  22  44  71 101 144 185 247 313 373 455
#     4  12  29  49  75 117 156 202 257 321 387 466
#     4  12  26  47  74 110 152 201 256 312 389 451
#
# _framework density 25.163777
#
# number of rings (size 3 to 8) (size 9 to 14) (size 15 to 20)
#    0.000    0.750    3.750    1.875    7.000    4.500 
#    0.000    0.000    0.000    0.000    0.000    0.000 
#    0.000    0.000    0.000    0.000    0.000    0.000 
#
# Total GULP energy -89557.432343 kJ/mol
# GULP energy per Si atom -5597.339521 kJ/mol
# Density = 2.510650 g / cm^3
# Si number density = 25.163777 Si / 1000 Ang^3
#
#
#
# Elastic Constant Matrix: (Units=GPa)
#
#
# Indices 1 2 3 4 5 6 
#
# 1 74.5280 21.7100 39.1125 -3.0025 2.7849 -27.8017
# 2 21.7100 157.6597 47.4055 9.7412 5.5804 -38.7200
# 3 39.1125 47.4055 141.4893 10.6195 16.4382 -11.8639
# 4 -3.0025 9.7412 10.6195 38.4377 -10.5686 -10.1994
# 5 2.7849 5.5804 16.4382 -10.5686 45.9684 -0.9655
# 6 -27.8017 -38.7200 -11.8639 -10.1994 -0.9655 45.8942
#
#
#
# Elastic Compliance Matrix: (Units=1/GPa)
#
#
# Indices 1 2 3 4 5 6 
#
# 1 0.022090 0.002054 -0.006430 0.007804 0.002826 0.015246
# 2 0.002054 0.008897 -0.002963 0.000970 0.000250 0.008206
# 3 -0.006430 -0.002963 0.010291 -0.005062 -0.004198 -0.004948
# 4 0.007804 0.000970 -0.005062 0.033444 0.009158 0.011863
# 5 0.002826 0.000250 -0.004198 0.009158 0.025231 0.003404
# 6 0.015246 0.008206 -0.004948 0.011863 0.003404 0.039377
#
#
# Mechanical properties :
#
#
# Convention : Reuss Voigt Hill
#
# Bulk Modulus (GPa) = 37.59426 65.57032 51.58229
# Shear Modulus (GPa) = 30.69839 43.75665 37.22752
#
# Velocity S-wave (km/s) = 3.49656 4.17451 3.85048
# Velocity P-wave (km/s) = 5.59227 7.02491 6.34913
#
# Compressibility (1/GPa) = 0.02659981
#
# Stress axis : x y z
#
# Youngs Moduli (GPa) = 45.26854 112.39536 97.17564
#
# Poissons Ratio (x) = -0.23083 0.62487
# Poissons Ratio (y) = -0.09297 0.28789
# Poissons Ratio (z) = 0.29109 0.33298
#
# Static dielectric constant tensor:
#      x y z
#    x 2.091410 0.062450 -0.024960 
#    y 0.062450 2.129790 -0.197500 
#    z -0.024960 -0.197500 2.207320 
# 
# From -- ./inp_files/52259.got.cif
#   From: 2010.05.17/outbox.cif.g08.bks.cpg/sg2_27_cif.got.tgz:52259.got - 2010.06.03 11:33:40.
