data_PCOD9044116
_publ_section_title
;
Structure prediction by ZEFSAII (Michael W. Deem and Ramdas Pophale) SiO2 
 PCOD9044116
Probable space group: P -1
;
_chemical_formula_sum "Si O2"
_cell_formula_units_Z 15
_cell_length_a 8.611702
_cell_length_b 16.707141
_cell_length_c 11.491051
_cell_angle_alpha 134.482258
_cell_angle_beta 56.588857
_cell_angle_gamma 146.498243
_cell_volume 648.700775
_symmetry_space_group_name_H-M "P -1"
_symmetry_group_IT_number 2
_symmetry_cell_setting 'triclinic'
loop_
_space_group_symop_operation_xyz
x,y,z
-x,-y,-z
loop_
_atom_site_type_symbol
_atom_site_label
_atom_site_fract_x
_atom_site_fract_y
_atom_site_fract_z
Si Si1 0.901346 0.493021 0.749481
Si Si2 0.694799 0.722267 0.925670
Si Si3 0.430803 0.199228 0.500300
Si Si4 0.500000 0.500000 0.000000
Si Si5 0.992094 0.923389 0.787765
Si Si6 0.060385 0.422591 0.813697
Si Si7 0.510317 0.872611 0.845680
Si Si8 0.067409 0.875211 0.453535
O O1 0.732203 0.387476 0.595202
O O2 0.967216 0.411956 0.712548
O O3 0.199891 0.685874 0.806987
O O4 0.687535 0.471657 0.891442
O O5 0.922562 0.819018 0.824608
O O6 0.395716 0.558181 0.823022
O O7 0.704518 0.646864 0.957526
O O8 0.738845 0.872349 0.099332
O O9 0.416478 0.119202 0.309849
O O10 0.202584 0.194671 0.573822
O O11 0.326373 0.073507 0.519615
O O12 0.736693 0.898646 0.848684
O O13 0.011088 0.859192 0.597784
O O14 0.905208 0.237201 0.720140
O O15 0.000000 0.500000 0.000000
O O16 0.500000 0.000000 0.000000
#
# Coordination Sequence:
#
# PCOD9044116 Si02
#       8
#     2   2   2   1   2   2   2   2
#     4  12  25  45  68 104 141 185 243 290 359 426
#     4  11  23  44  71 102 139 187 234 293 357 431
#     4  10  24  46  72 103 141 190 236 291 357 427
#     4  12  24  42  72  98 136 188 236 288 358 422
#     4  10  23  46  70 102 142 189 238 289 361 424
#     4  12  26  44  69 105 142 183 240 299 354 421
#     4  11  24  43  71 107 145 186 240 297 349 427
#     4  10  24  46  72 100 141 187 240 291 354 430
#
# _framework density 23.123142000000001
#
# number of rings (size 3 to 8) (size 9 to 14) (size 15 to 20)
#    0.000    1.067    2.667    2.800    1.867    4.267 
#    9.600    0.000    0.000    0.000    0.000    0.000 
#    0.000    0.000    0.000    0.000    0.000    0.000 
#
# Total GULP energy -83632.451694 kJ/mol
# GULP energy per Si atom -5575.496780 kJ/mol
# Density = 2.307051 g / cm^3
# Si number density = 23.123142 Si / 1000 Ang^3
#
#
#
# Elastic Constant Matrix: (Units=GPa)
#
#
# Indices 1 2 3 4 5 6 
#
# 1 54.5979 30.3779 34.2344 4.7591 -2.2429 -19.2638
# 2 30.3779 80.7589 20.0587 -0.1654 2.2926 -21.9158
# 3 34.2344 20.0587 77.4939 4.4168 -13.9112 -12.3595
# 4 4.7591 -0.1654 4.4168 29.8738 0.7330 6.7585
# 5 -2.2429 2.2926 -13.9112 0.7330 36.1148 3.8689
# 6 -19.2638 -21.9158 -12.3595 6.7585 3.8689 40.5406
#
#
#
# Elastic Compliance Matrix: (Units=1/GPa)
#
#
# Indices 1 2 3 4 5 6 
#
# 1 0.033211 -0.006913 -0.011509 -0.005767 -0.002861 0.009769
# 2 -0.006913 0.016825 -0.000820 0.000067 -0.002434 0.005781
# 3 -0.011509 -0.000820 0.019427 -0.001108 0.006893 -0.000462
# 4 -0.005767 0.000067 -0.001108 0.036628 -0.000558 -0.009095
# 5 -0.002861 -0.002434 0.006893 -0.000558 0.030698 -0.003410
# 6 0.009769 0.005781 -0.000462 -0.009095 -0.003410 0.034135
#
#
# Mechanical properties :
#
#
# Convention : Reuss Voigt Hill
#
# Bulk Modulus (GPa) = 32.27932 42.46586 37.37259
# Shear Modulus (GPa) = 22.75482 29.85117 26.30299
#
# Velocity S-wave (km/s) = 3.14039 3.59690 3.37637
# Velocity P-wave (km/s) = 5.20956 5.97120 5.60333
#
# Compressibility (1/GPa) = 0.03097958
#
# Stress axis : x y z
#
# Youngs Moduli (GPa) = 30.11084 59.43641 51.47378
#
# Poissons Ratio (x) = 0.41090 0.59240
# Poissons Ratio (y) = 0.20816 0.04219
# Poissons Ratio (z) = 0.34654 0.04871
#
# Static dielectric constant tensor:
#      x y z
#    x 1.883130 0.018750 0.032540 
#    y 0.018750 1.859640 -0.016840 
#    z 0.032540 -0.016840 1.864480 
# 
# From -- ./inp_files/403342.got.cif
#   From: 2010.05.17/outbox.cif.g08.bks.cpg/sg2_202_cif.got.tgz:403342.got - 2010.06.03 11:33:40.
