data_PCOD9044854
_publ_section_title
;
Structure prediction by ZEFSAII (Michael W. Deem and Ramdas Pophale) SiO2 
 PCOD9044854
Probable space group: P -1
;
_chemical_formula_sum "Si O2"
_cell_formula_units_Z 16
_cell_length_a 9.016601
_cell_length_b 14.068745
_cell_length_c 9.059706
_cell_angle_alpha 77.890681
_cell_angle_beta 49.412943
_cell_angle_gamma 105.818774
_cell_volume 712.153620
_symmetry_space_group_name_H-M "P -1"
_symmetry_group_IT_number 2
_symmetry_cell_setting 'triclinic'
loop_
_space_group_symop_operation_xyz
x,y,z
-x,-y,-z
loop_
_atom_site_type_symbol
_atom_site_label
_atom_site_fract_x
_atom_site_fract_y
_atom_site_fract_z
Si Si1 0.650326 0.922398 0.356683
Si Si2 0.990510 0.733559 0.469460
Si Si3 0.302175 0.850667 0.838460
Si Si4 0.951018 0.018519 0.692011
Si Si5 0.332508 0.352752 0.008779
Si Si6 0.424812 0.431674 0.410826
Si Si7 0.226103 0.235334 0.798717
Si Si8 0.460048 0.787130 0.049696
O O1 0.405673 0.834246 0.626404
O O2 0.755902 0.873555 0.193942
O O3 0.617646 0.015505 0.266727
O O4 0.850061 0.977416 0.337384
O O5 0.826751 0.631031 0.490415
O O6 0.241409 0.751562 0.306547
O O7 0.862434 0.695445 0.723431
O O8 0.023968 0.856674 0.359398
O O9 0.403881 0.821420 0.918813
O O10 0.025435 0.785036 0.055545
O O11 0.691135 0.905562 0.919631
O O12 0.000000 0.000000 0.500000
O O13 0.412716 0.479638 0.852294
O O14 0.278459 0.284047 0.912572
O O15 0.515160 0.321815 0.959962
O O16 0.500000 0.500000 0.500000
O O17 0.402526 0.317452 0.527057
#
# Coordination Sequence:
#
# PCOD9044854 Si02
#       8
#     2   2   2   2   2   2   2   2
#     4  11  23  41  66  97 141 188 226 276 350 408
#     4  12  24  45  72 102 142 184 229 286 348 409
#     4  11  23  39  66  99 140 183 231 278 340 418
#     4  12  22  42  70 103 144 186 223 281 349 419
#     4  11  26  45  72 101 140 181 237 285 348 408
#     4  10  23  47  76 101 132 184 238 290 347 403
#     4  11  23  45  66  99 136 181 231 288 338 409
#     4  12  25  42  68 107 144 180 230 282 343 425
#
# _framework density 22.467061000000001
#
# number of rings (size 3 to 8) (size 9 to 14) (size 15 to 20)
#    0.000    0.750    5.000    1.875    0.000    3.500 
#    0.000    0.000    0.000    6.750    0.000    0.000 
#    0.000    0.000    0.000    0.000    0.000    0.000 
#
# Total GULP energy -89181.851518 kJ/mol
# GULP energy per Si atom -5573.865720 kJ/mol
# Density = 2.241593 g / cm^3
# Si number density = 22.467061 Si / 1000 Ang^3
#
#
#
# Elastic Constant Matrix: (Units=GPa)
#
#
# Indices 1 2 3 4 5 6 
#
# 1 83.4963 15.3942 52.4794 12.0323 22.7311 -10.1543
# 2 15.3942 50.8644 33.4794 3.7859 -7.9718 4.3435
# 3 52.4794 33.4794 118.9059 -1.0286 8.6097 -22.1918
# 4 12.0323 3.7859 -1.0286 24.1244 -8.0369 1.1688
# 5 22.7311 -7.9718 8.6097 -8.0369 36.3841 -4.4805
# 6 -10.1543 4.3435 -22.1918 1.1688 -4.4805 25.1899
#
#
#
# Elastic Compliance Matrix: (Units=1/GPa)
#
#
# Indices 1 2 3 4 5 6 
#
# 1 0.026868 -0.003489 -0.009542 -0.019816 -0.019613 0.000457
# 2 -0.003489 0.030102 -0.010223 0.000446 0.009579 -0.013921
# 3 -0.009542 -0.010223 0.017952 0.007394 0.002817 0.013890
# 4 -0.019816 0.000446 0.007394 0.059536 0.023870 -0.000067
# 5 -0.019613 0.009579 0.002817 0.023870 0.046452 0.000079
# 6 0.000457 -0.013921 0.013890 -0.000067 0.000079 0.054537
#
#
# Mechanical properties :
#
#
# Convention : Reuss Voigt Hill
#
# Bulk Modulus (GPa) = 35.19471 50.66363 42.92917
# Shear Modulus (GPa) = 17.15698 27.26727 22.21213
#
# Velocity S-wave (km/s) = 2.76642 3.48754 3.14770
# Velocity P-wave (km/s) = 5.08951 6.23028 5.68856
#
# Compressibility (1/GPa) = 0.02841336
#
# Stress axis : x y z
#
# Youngs Moduli (GPa) = 37.21945 33.22033 55.70368
#
# Poissons Ratio (x) = 0.11591 0.53151
# Poissons Ratio (y) = 0.12986 0.56948
# Poissons Ratio (z) = 0.35514 0.33963
#
# Static dielectric constant tensor:
#      x y z
#    x 1.649500 -0.044610 -0.171510 
#    y -0.044610 1.889300 -0.071710 
#    z -0.171510 -0.071710 1.777110 
# 
# From -- ./inp_files/206738.got.cif
#   From: 2010.05.17/outbox.cif.g08.bks.cpg/sg2_104_cif.got.tgz:206738.got - 2010.06.03 11:33:40.
