data_PCOD9044114
_publ_section_title
;
Structure prediction by ZEFSAII (Michael W. Deem and Ramdas Pophale) SiO2 
 PCOD9044114
Probable space group: P -1
;
_chemical_formula_sum "Si O2"
_cell_formula_units_Z 14
_cell_length_a 13.406682
_cell_length_b 15.792245
_cell_length_c 9.351234
_cell_angle_alpha 126.117493
_cell_angle_beta 45.462690
_cell_angle_gamma 153.939672
_cell_volume 614.739053
_symmetry_space_group_name_H-M "P -1"
_symmetry_group_IT_number 2
_symmetry_cell_setting 'triclinic'
loop_
_space_group_symop_operation_xyz
x,y,z
-x,-y,-z
loop_
_atom_site_type_symbol
_atom_site_label
_atom_site_fract_x
_atom_site_fract_y
_atom_site_fract_z
Si Si1 0.453414 0.647606 0.562505
Si Si2 0.430304 0.959476 0.695898
Si Si3 0.802458 0.812972 0.612534
Si Si4 0.217151 0.701851 0.889519
Si Si5 0.345250 0.307162 0.888125
Si Si6 0.754887 0.929815 0.048592
Si Si7 0.913231 0.226534 0.672286
O O1 0.532681 0.642891 0.626795
O O2 0.465153 0.779463 0.716300
O O3 0.607103 0.686673 0.320952
O O4 0.158690 0.453962 0.612101
O O5 0.215275 0.746376 0.772693
O O6 0.500000 0.000000 0.500000
O O7 0.694921 0.095969 0.644319
O O8 0.357337 0.034791 0.867551
O O9 0.777100 0.858356 0.830265
O O10 0.937274 0.787721 0.475685
O O11 0.000000 0.000000 0.500000
O O12 0.211782 0.805658 0.089783
O O13 0.000000 0.500000 0.000000
O O14 0.500000 0.500000 0.000000
O O15 0.403955 0.233243 0.833219
O O16 0.036749 0.133080 0.035091
#
# Coordination Sequence:
#
# PCOD9044114 Si02
#       7
#     2   2   2   2   2   2   2
#     4  11  23  44  70 103 137 187 242 305 360 429
#     4  12  26  45  71 104 146 195 245 294 370 441
#     4  12  22  41  71  99 135 181 243 295 358 426
#     4  10  23  46  70 101 148 188 242 301 365 433
#     4  11  25  46  73 104 149 187 246 304 363 440
#     4  11  26  46  73 104 143 196 240 301 374 433
#     4  11  25  43  69 103 144 187 240 304 365 437
#
# _framework density 22.773890999999999
#
# number of rings (size 3 to 8) (size 9 to 14) (size 15 to 20)
#    0.000    0.857    1.429    5.143    6.000    0.000 
#    7.714    3.571    0.000    0.000    0.000    0.000 
#    0.000    0.000    0.000    0.000    0.000    0.000 
#
# Total GULP energy -78061.189168 kJ/mol
# GULP energy per Si atom -5575.799226 kJ/mol
# Density = 2.272206 g / cm^3
# Si number density = 22.773891 Si / 1000 Ang^3
#
#
#
# Elastic Constant Matrix: (Units=GPa)
#
#
# Indices 1 2 3 4 5 6 
#
# 1 153.5040 47.8680 45.8115 17.5310 -9.6677 -12.3603
# 2 47.8680 93.7856 27.2450 0.7665 4.1598 -0.8180
# 3 45.8115 27.2450 114.6630 29.4762 -2.4048 -8.8612
# 4 17.5310 0.7665 29.4762 35.0033 -9.1755 -0.5840
# 5 -9.6677 4.1598 -2.4048 -9.1755 54.4236 4.4189
# 6 -12.3603 -0.8180 -8.8612 -0.5840 4.4189 34.7788
#
#
#
# Elastic Compliance Matrix: (Units=1/GPa)
#
#
# Indices 1 2 3 4 5 6 
#
# 1 0.008840 -0.004026 -0.001707 -0.002553 0.001176 0.002420
# 2 -0.004026 0.013505 -0.002689 0.003665 -0.001119 -0.001595
# 3 -0.001707 -0.002689 0.012848 -0.010247 -0.001470 0.002618
# 4 -0.002553 0.003665 -0.010247 0.039863 0.005819 -0.003502
# 5 0.001176 -0.001119 -0.001470 0.005819 0.019780 -0.002398
# 6 0.002420 -0.001595 0.002618 -0.003502 -0.002398 0.030489
#
#
# Mechanical properties :
#
#
# Convention : Reuss Voigt Hill
#
# Bulk Modulus (GPa) = 54.50391 67.08905 60.79648
# Shear Modulus (GPa) = 33.71900 40.90968 37.31434
#
# Velocity S-wave (km/s) = 3.85203 4.24292 4.05219
# Velocity P-wave (km/s) = 6.61580 7.31614 6.97476
#
# Compressibility (1/GPa) = 0.01834731
#
# Stress axis : x y z
#
# Youngs Moduli (GPa) = 113.12301 74.04926 77.83337
#
# Poissons Ratio (x) = 0.29813 0.13288
# Poissons Ratio (y) = 0.45545 0.20931
# Poissons Ratio (z) = 0.19313 0.19913
#
# Static dielectric constant tensor:
#      x y z
#    x 1.855700 -0.036590 0.003560 
#    y -0.036590 2.209170 0.043750 
#    z 0.003560 0.043750 1.884760 
# 
# From -- ./inp_files/274007.got.cif
#   From: 2010.05.17/outbox.cif.g08.bks.cpg/sg2_138_cif.got.tgz:274007.got - 2010.06.03 11:33:40.
