data_PCOD9044358
_publ_section_title
;
Structure prediction by ZEFSAII (Michael W. Deem and Ramdas Pophale) SiO2 
 PCOD9044358
Probable space group: P -1
;
_chemical_formula_sum "Si O2"
_cell_formula_units_Z 14
_cell_length_a 12.554324
_cell_length_b 9.401047
_cell_length_c 10.553212
_cell_angle_alpha 57.830385
_cell_angle_beta 51.820552
_cell_angle_gamma 35.053174
_cell_volume 561.360484
_symmetry_space_group_name_H-M "P -1"
_symmetry_group_IT_number 2
_symmetry_cell_setting 'triclinic'
loop_
_space_group_symop_operation_xyz
x,y,z
-x,-y,-z
loop_
_atom_site_type_symbol
_atom_site_label
_atom_site_fract_x
_atom_site_fract_y
_atom_site_fract_z
Si Si1 0.444723 0.437507 0.949781
Si Si2 0.567333 0.073691 0.643021
Si Si3 0.261092 0.759797 0.673182
Si Si4 0.982555 0.188234 0.841946
Si Si5 0.822505 0.673021 0.446059
Si Si6 0.298952 0.073392 0.114215
Si Si7 0.851983 0.475518 0.270672
O O1 0.370628 0.593964 0.799807
O O2 0.630329 0.151554 0.912233
O O3 0.500000 0.500000 0.000000
O O4 0.238490 0.538449 0.101920
O O5 0.588395 0.243512 0.494891
O O6 0.710747 0.949161 0.716558
O O7 0.340262 0.245720 0.769941
O O8 0.634127 0.887010 0.571638
O O9 0.187342 0.672880 0.685393
O O10 0.059633 0.048711 0.717421
O O11 0.131526 0.209588 0.736737
O O12 0.000000 0.000000 0.000000
O O13 0.821168 0.519565 0.424220
O O14 0.000000 0.500000 0.500000
O O15 0.071273 0.332460 0.133927
O O16 0.500000 0.000000 0.000000
#
# Coordination Sequence:
#
# PCOD9044358 Si02
#       7
#     2   2   2   2   2   2   2
#     4  11  23  44  68 101 144 181 232 295 351 427
#     4  11  25  49  69 105 148 181 242 295 355 436
#     4  10  23  46  73 106 140 185 241 290 365 427
#     4   9  21  44  67  96 141 186 233 287 355 428
#     4  11  23  44  71 104 139 187 240 296 355 426
#     4  12  27  47  68 105 144 186 241 296 354 425
#     4  12  24  45  75 102 142 190 234 300 362 418
#
# _framework density 24.939412999999998
#
# number of rings (size 3 to 8) (size 9 to 14) (size 15 to 20)
#    0.000    1.143    2.857    2.571    0.000    2.286 
#   12.857    0.000    0.000    0.000    0.000    0.000 
#    0.000    0.000    0.000    0.000    0.000    0.000 
#
# Total GULP energy -78146.332718 kJ/mol
# GULP energy per Si atom -5581.880908 kJ/mol
# Density = 2.488265 g / cm^3
# Si number density = 24.939413 Si / 1000 Ang^3
#
#
#
# Elastic Constant Matrix: (Units=GPa)
#
#
# Indices 1 2 3 4 5 6 
#
# 1 172.0972 57.2300 43.4095 5.3304 20.7378 21.3156
# 2 57.2300 141.0837 46.5895 43.2133 2.5006 -9.6925
# 3 43.4095 46.5895 95.3559 19.5716 -13.9322 -5.0488
# 4 5.3304 43.2133 19.5716 50.1716 -9.3614 -4.3377
# 5 20.7378 2.5006 -13.9322 -9.3614 26.7976 13.7468
# 6 21.3156 -9.6925 -5.0488 -4.3377 13.7468 43.4807
#
#
#
# Elastic Compliance Matrix: (Units=1/GPa)
#
#
# Indices 1 2 3 4 5 6 
#
# 1 0.008957 -0.002874 -0.004141 0.001631 -0.006568 -0.003274
# 2 -0.002874 0.013205 -0.003779 -0.010509 -0.007297 0.005172
# 3 -0.004141 -0.003779 0.016029 -0.000355 0.012200 -0.000843
# 4 0.001631 -0.010509 -0.000355 0.030913 0.012394 -0.004018
# 5 -0.006568 -0.007297 0.012200 0.012394 0.061559 -0.015216
# 6 -0.003274 0.005172 -0.000843 -0.004018 -0.015216 0.030068
#
#
# Mechanical properties :
#
#
# Convention : Reuss Voigt Hill
#
# Bulk Modulus (GPa) = 60.22807 78.11053 69.16930
# Shear Modulus (GPa) = 26.61637 41.51049 34.06343
#
# Velocity S-wave (km/s) = 3.27041 4.08420 3.69975
# Velocity P-wave (km/s) = 6.20185 7.32318 6.78572
#
# Compressibility (1/GPa) = 0.01660355
#
# Stress axis : x y z
#
# Youngs Moduli (GPa) = 111.64108 75.72814 62.38627
#
# Poissons Ratio (x) = 0.21764 0.25835
# Poissons Ratio (y) = 0.32085 0.23576
# Poissons Ratio (z) = 0.46232 0.28617
#
# Static dielectric constant tensor:
#      x y z
#    x 2.005480 0.012400 -0.015130 
#    y 0.012400 2.041690 -0.013860 
#    z -0.015130 -0.013860 2.076290 
# 
# From -- ./inp_files/419071.got.cif
#   From: 2010.05.17/outbox.cif.g08.bks.cpg/sg2_210_cif.got.tgz:419071.got - 2010.06.03 11:33:40.
