data_PCOD9044564
_publ_section_title
;
Structure prediction by ZEFSAII (Michael W. Deem and Ramdas Pophale) SiO2 
 PCOD9044564
Probable space group: P -1
;
_chemical_formula_sum "Si O2"
_cell_formula_units_Z 14
_cell_length_a 5.338093
_cell_length_b 22.932992
_cell_length_c 11.925580
_cell_angle_alpha 32.386208
_cell_angle_beta 83.456718
_cell_angle_gamma 105.123941
_cell_volume 575.916564
_symmetry_space_group_name_H-M "P -1"
_symmetry_group_IT_number 2
_symmetry_cell_setting 'triclinic'
loop_
_space_group_symop_operation_xyz
x,y,z
-x,-y,-z
loop_
_atom_site_type_symbol
_atom_site_label
_atom_site_fract_x
_atom_site_fract_y
_atom_site_fract_z
Si Si1 0.232224 0.378615 0.980678
Si Si2 0.246557 0.514301 0.551821
Si Si3 0.955479 0.704529 0.450592
Si Si4 0.848537 0.335821 0.284797
Si Si5 0.149543 0.170546 0.942586
Si Si6 0.906862 0.904862 0.271196
Si Si7 0.904116 0.095530 0.325097
O O1 0.074188 0.407822 0.841208
O O2 0.619035 0.536333 0.712727
O O3 0.085717 0.344343 0.168453
O O4 0.133598 0.232735 0.175673
O O5 0.500000 0.500000 0.500000
O O6 0.468765 0.676543 0.326471
O O7 0.000000 0.500000 0.500000
O O8 0.040139 0.804437 0.177711
O O9 0.924875 0.787057 0.417516
O O10 0.184931 0.691402 0.534314
O O11 0.468627 0.197264 0.492686
O O12 0.000000 0.500000 0.000000
O O13 0.014767 0.154898 0.097214
O O14 0.131456 0.037334 0.132477
O O15 0.000000 0.000000 0.000000
O O16 0.500000 0.000000 0.500000
O O17 0.000000 0.000000 0.500000
#
# Coordination Sequence:
#
# PCOD9044564 Si02
#       7
#     2   2   2   2   2   2   2
#     4  11  25  47  75 108 148 192 254 317 382 454
#     4  11  25  49  76 108 146 200 254 310 375 462
#     4  10  24  46  73 106 143 195 250 308 379 451
#     4  12  25  44  75 110 148 197 253 315 379 448
#     4  10  24  48  73 106 148 195 251 313 382 458
#     4  10  23  47  67 107 147 190 248 304 379 448
#     4  12  29  49  72 111 150 202 250 315 389 448
#
# _framework density 24.309076999999998
#
# number of rings (size 3 to 8) (size 9 to 14) (size 15 to 20)
#    0.000    1.143    2.857    1.286    4.000    5.714 
#    7.714    0.000    0.000    0.000    0.000    0.000 
#    0.000    0.000    0.000    0.000    0.000    0.000 
#
# Total GULP energy -78112.348848 kJ/mol
# GULP energy per Si atom -5579.453489 kJ/mol
# Density = 2.425375 g / cm^3
# Si number density = 24.309077 Si / 1000 Ang^3
#
#
#
# Elastic Constant Matrix: (Units=GPa)
#
#
# Indices 1 2 3 4 5 6 
#
# 1 63.9325 29.9932 34.3234 -3.9941 13.4759 10.1047
# 2 29.9932 164.3603 59.3059 -15.1763 20.2718 -18.0733
# 3 34.3234 59.3059 138.8664 -13.9914 11.9391 -4.4698
# 4 -3.9941 -15.1763 -13.9914 79.7579 2.1541 7.2216
# 5 13.4759 20.2718 11.9391 2.1541 24.4767 8.4080
# 6 10.1047 -18.0733 -4.4698 7.2216 8.4080 32.7049
#
#
#
# Elastic Compliance Matrix: (Units=1/GPa)
#
#
# Indices 1 2 3 4 5 6 
#
# 1 0.021224 -0.002577 -0.003862 0.000699 -0.005212 -0.007324
# 2 -0.002577 0.009225 -0.002328 0.000757 -0.007689 0.007386
# 3 -0.003862 -0.002328 0.009371 0.000922 -0.001027 0.001248
# 4 0.000699 0.000757 0.000922 0.013118 -0.001902 -0.002079
# 5 -0.005212 -0.007689 -0.001027 -0.001902 0.056568 -0.016902
# 6 -0.007324 0.007386 0.001248 -0.002079 -0.016902 0.041896
#
#
# Mechanical properties :
#
#
# Convention : Reuss Voigt Hill
#
# Bulk Modulus (GPa) = 44.87212 68.26713 56.56962
# Shear Modulus (GPa) = 28.35027 43.62369 35.98698
#
# Velocity S-wave (km/s) = 3.41873 4.24080 3.85176
# Velocity P-wave (km/s) = 5.83804 7.21964 6.56528
#
# Compressibility (1/GPa) = 0.02228555
#
# Stress axis : x y z
#
# Youngs Moduli (GPa) = 47.11618 108.40362 106.70955
#
# Poissons Ratio (x) = 0.27940 0.41216
# Poissons Ratio (y) = 0.12144 0.24837
# Poissons Ratio (z) = 0.18198 0.25231
#
# Static dielectric constant tensor:
#      x y z
#    x 2.096370 0.027760 -0.054500 
#    y 0.027760 1.968720 -0.044720 
#    z -0.054500 -0.044720 1.857690 
# 
# From -- ./inp_files/370990.got.cif
#   From: 2010.05.17/outbox.cif.g08.bks.cpg/sg2_186_cif.got.tgz:370990.got - 2010.06.03 11:33:40.
