data_PCOD9044614
_publ_section_title
;
Structure prediction by ZEFSAII (Michael W. Deem and Ramdas Pophale) SiO2 
 PCOD9044614
Probable space group: P -1
;
_chemical_formula_sum "Si O2"
_cell_formula_units_Z 16
_cell_length_a 15.897238
_cell_length_b 5.581660
_cell_length_c 7.302879
_cell_angle_alpha 103.441479
_cell_angle_beta 86.408508
_cell_angle_gamma 83.490149
_cell_volume 623.530993
_symmetry_space_group_name_H-M "P -1"
_symmetry_group_IT_number 2
_symmetry_cell_setting 'triclinic'
loop_
_space_group_symop_operation_xyz
x,y,z
-x,-y,-z
loop_
_atom_site_type_symbol
_atom_site_label
_atom_site_fract_x
_atom_site_fract_y
_atom_site_fract_z
Si Si1 0.041985 0.907498 0.170144
Si Si2 0.517126 0.204069 0.683178
Si Si3 0.654681 0.430821 0.246049
Si Si4 0.788109 0.066598 0.684641
Si Si5 0.831201 0.481238 0.089860
Si Si6 0.371852 0.021223 0.059141
Si Si7 0.860792 0.012285 0.281736
Si Si8 0.671042 0.493770 0.667575
O O1 0.122164 0.030792 0.252815
O O2 0.959438 0.946050 0.314812
O O3 0.093700 0.637218 0.077619
O O4 0.000000 0.000000 0.000000
O O5 0.436086 0.409498 0.744182
O O6 0.546576 0.104145 0.860860
O O7 0.601084 0.307468 0.620088
O O8 0.500000 0.000000 0.500000
O O9 0.729838 0.477354 0.106067
O O10 0.683663 0.537447 0.457410
O O11 0.641870 0.140452 0.149122
O O12 0.712907 0.988798 0.803244
O O13 0.759111 0.363157 0.715825
O O14 0.798862 0.001721 0.460007
O O15 0.842014 0.769674 0.133389
O O16 0.849815 0.275693 0.222026
O O17 0.374049 0.310868 0.145817
#
# Coordination Sequence:
#
# PCOD9044614 Si02
#       8
#     2   2   2   2   2   2   2   2
#     4  10  23  47  69 103 142 183 242 304 363 444
#     4  11  25  45  70  98 147 185 239 304 360 436
#     4  12  23  45  72 102 140 193 241 301 367 433
#     4  11  23  45  67 103 143 183 241 297 362 442
#     4  11  24  45  70 106 141 187 246 300 369 438
#     4  11  25  46  69 104 143 186 246 298 360 442
#     4  11  24  44  72 102 143 192 238 302 374 433
#     4  11  25  46  68 104 142 186 240 301 367 435
#
# _framework density 25.660314
#
# number of rings (size 3 to 8) (size 9 to 14) (size 15 to 20)
#    0.000    1.000    3.750    2.250    1.750    1.500 
#    9.000    3.125    0.000    0.000    0.000    0.000 
#    0.000    0.000    0.000    0.000    0.000    0.000 
#
# Total GULP energy -89137.311508 kJ/mol
# GULP energy per Si atom -5571.081969 kJ/mol
# Density = 2.560191 g / cm^3
# Si number density = 25.660314 Si / 1000 Ang^3
#
#
#
# Elastic Constant Matrix: (Units=GPa)
#
#
# Indices 1 2 3 4 5 6 
#
# 1 123.2945 33.4259 9.1786 -2.1733 -0.5771 -24.5528
# 2 33.4259 55.5792 33.4431 10.0440 3.5311 -9.4318
# 3 9.1786 33.4431 102.9833 4.7540 -16.3109 -5.8101
# 4 -2.1733 10.0440 4.7540 39.4578 -5.4785 -2.4299
# 5 -0.5771 3.5311 -16.3109 -5.4785 39.4903 7.5027
# 6 -24.5528 -9.4318 -5.8101 -2.4299 7.5027 40.3971
#
#
#
# Elastic Compliance Matrix: (Units=1/GPa)
#
#
# Indices 1 2 3 4 5 6 
#
# 1 0.011075 -0.007349 0.001714 0.002724 0.000906 0.005257
# 2 -0.007349 0.031043 -0.010296 -0.008128 -0.008725 0.002432
# 3 0.001714 -0.010296 0.013897 0.001988 0.007067 -0.000556
# 4 0.002724 -0.008128 0.001988 0.028111 0.005347 0.000742
# 5 0.000906 -0.008725 0.007067 0.005347 0.030895 -0.005886
# 6 0.005257 0.002432 -0.000556 0.000742 -0.005886 0.029575
#
#
# Mechanical properties :
#
#
# Convention : Reuss Voigt Hill
#
# Bulk Modulus (GPa) = 41.40256 48.21691 44.80974
# Shear Modulus (GPa) = 27.09884 37.58965 32.34424
#
# Velocity S-wave (km/s) = 3.25323 3.83155 3.55417
# Velocity P-wave (km/s) = 5.50284 6.19722 5.86033
#
# Compressibility (1/GPa) = 0.02415310
#
# Stress axis : x y z
#
# Youngs Moduli (GPa) = 90.29596 32.21302 71.95715
#
# Poissons Ratio (x) = 0.23675 -0.12333
# Poissons Ratio (y) = 0.66362 0.74084
# Poissons Ratio (z) = -0.15476 0.33165
#
# Static dielectric constant tensor:
#      x y z
#    x 2.032260 0.059040 0.040660 
#    y 0.059040 2.208380 -0.017280 
#    z 0.040660 -0.017280 2.187300 
# 
# From -- ./inp_files/289176.got.cif
#   From: 2010.05.17/outbox.cif.g08.bks.cpg/sg2_145_cif.got.tgz:289176.got - 2010.06.03 11:33:40.
