data_PCOD9044287
_publ_section_title
;
Structure prediction by ZEFSAII (Michael W. Deem and Ramdas Pophale) SiO2 
 PCOD9044287
Probable space group: P -1
;
_chemical_formula_sum "Si O2"
_cell_formula_units_Z 16
_cell_length_a 10.766423
_cell_length_b 6.175908
_cell_length_c 11.965095
_cell_angle_alpha 98.312138
_cell_angle_beta 81.799472
_cell_angle_gamma 116.821755
_cell_volume 699.831784
_symmetry_space_group_name_H-M "P -1"
_symmetry_group_IT_number 2
_symmetry_cell_setting 'triclinic'
loop_
_space_group_symop_operation_xyz
x,y,z
-x,-y,-z
loop_
_atom_site_type_symbol
_atom_site_label
_atom_site_fract_x
_atom_site_fract_y
_atom_site_fract_z
Si Si1 0.011670 0.463277 0.865955
Si Si2 0.107205 0.356171 0.295250
Si Si3 0.289098 0.788596 0.462153
Si Si4 0.727311 0.423692 0.305500
Si Si5 0.226418 0.029840 0.171872
Si Si6 0.471992 0.978815 0.258177
Si Si7 0.873767 0.955660 0.427386
Si Si8 0.441394 0.199688 0.971305
O O1 0.919333 0.563384 0.816101
O O2 0.165018 0.582407 0.801933
O O3 0.931670 0.175326 0.830521
O O4 0.000000 0.500000 0.000000
O O5 0.168446 0.567908 0.394159
O O6 0.217356 0.247262 0.256447
O O7 0.956552 0.165394 0.343588
O O8 0.285429 0.710008 0.584204
O O9 0.429864 0.868207 0.379052
O O10 0.242876 0.004076 0.486421
O O11 0.572705 0.267855 0.265436
O O12 0.795067 0.702809 0.355195
O O13 0.326086 0.938481 0.217872
O O14 0.293690 0.102434 0.046078
O O15 0.545010 0.848130 0.164601
O O16 0.000000 0.000000 0.500000
O O17 0.500000 0.500000 0.000000
O O18 0.500000 0.000000 0.000000
#
# Coordination Sequence:
#
# PCOD9044287 Si02
#       8
#     2   2   2   2   2   2   2   2
#     4  12  26  47  73 104 144 187 247 314 373 450
#     4  12  23  44  75 107 140 191 252 305 376 456
#     4  12  24  43  73 101 144 195 244 301 372 454
#     4  12  26  47  68 108 153 186 245 311 373 449
#     4  11  24  46  76 104 141 197 245 303 380 452
#     4  11  25  47  70 110 147 196 249 303 378 455
#     4  12  23  42  71 104 145 192 242 301 377 448
#     4  10  23  46  72 106 147 198 252 309 372 455
#
# _framework density 22.862638
#
# number of rings (size 3 to 8) (size 9 to 14) (size 15 to 20)
#    0.000    0.500    5.000    3.750    1.750    1.000 
#    6.750    0.000    0.000    0.000    0.000    0.000 
#    0.000    0.000    0.000    0.000    0.000    0.000 
#
# Total GULP energy -89276.355778 kJ/mol
# GULP energy per Si atom -5579.772236 kJ/mol
# Density = 2.281060 g / cm^3
# Si number density = 22.862638 Si / 1000 Ang^3
#
#
#
# Elastic Constant Matrix: (Units=GPa)
#
#
# Indices 1 2 3 4 5 6 
#
# 1 37.1172 28.3476 29.5183 -3.1991 -16.4666 20.8841
# 2 28.3476 110.5642 34.9224 2.7973 -8.2656 26.9291
# 3 29.5183 34.9224 151.5624 -11.9815 -22.9121 4.7213
# 4 -3.1991 2.7973 -11.9815 45.9528 6.0747 -7.1342
# 5 -16.4666 -8.2656 -22.9121 6.0747 37.2815 -0.7579
# 6 20.8841 26.9291 4.7213 -7.1342 -0.7579 39.5851
#
#
#
# Elastic Compliance Matrix: (Units=1/GPa)
#
#
# Indices 1 2 3 4 5 6 
#
# 1 0.061982 -0.004821 -0.007081 -0.004664 0.022126 -0.028993
# 2 -0.004821 0.012445 -0.001982 -0.002524 -0.000302 -0.006147
# 3 -0.007081 -0.001982 0.008708 0.002402 0.001485 0.004507
# 4 -0.004664 -0.002524 0.002402 0.024130 -0.004910 0.008146
# 5 0.022126 -0.000302 0.001485 -0.004910 0.038001 -0.011802
# 6 -0.028993 -0.006147 0.004507 0.008146 -0.011802 0.045444
#
#
# Mechanical properties :
#
#
# Convention : Reuss Voigt Hill
#
# Bulk Modulus (GPa) = 18.06195 53.86893 35.96544
# Shear Modulus (GPa) = 21.10271 38.32759 29.71515
#
# Velocity S-wave (km/s) = 3.04142 4.09886 3.60908
# Velocity P-wave (km/s) = 4.50011 6.78337 5.75609
#
# Compressibility (1/GPa) = 0.05536500
#
# Stress axis : x y z
#
# Youngs Moduli (GPa) = 16.13362 80.35186 114.83986
#
# Poissons Ratio (x) = 0.38741 0.81323
# Poissons Ratio (y) = 0.07779 0.22765
# Poissons Ratio (z) = 0.11425 0.15929
#
# Static dielectric constant tensor:
#      x y z
#    x 1.831960 -0.040810 0.025200 
#    y -0.040810 1.986770 0.011650 
#    z 0.025200 0.011650 1.925040 
# 
# From -- ./inp_files/371164.got.cif
#   From: 2010.05.17/outbox.cif.g08.bks.cpg/sg2_186_cif.got.tgz:371164.got - 2010.06.03 11:33:40.
