data_PCOD9044217
_publ_section_title
;
Structure prediction by ZEFSAII (Michael W. Deem and Ramdas Pophale) SiO2 
 PCOD9044217
Probable space group: P -1
;
_chemical_formula_sum "Si O2"
_cell_formula_units_Z 10
_cell_length_a 4.865081
_cell_length_b 7.570830
_cell_length_c 11.536039
_cell_angle_alpha 59.170581
_cell_angle_beta 88.826442
_cell_angle_gamma 92.088418
_cell_volume 364.241142
_symmetry_space_group_name_H-M "P -1"
_symmetry_group_IT_number 2
_symmetry_cell_setting 'triclinic'
loop_
_space_group_symop_operation_xyz
x,y,z
-x,-y,-z
loop_
_atom_site_type_symbol
_atom_site_label
_atom_site_fract_x
_atom_site_fract_y
_atom_site_fract_z
Si Si1 0.344620 0.552135 0.603287
Si Si2 0.034018 0.113890 0.581996
Si Si3 0.514268 0.869394 0.708368
Si Si4 0.175047 0.687852 0.987969
Si Si5 0.650414 0.784493 0.094259
O O1 0.500000 0.500000 0.500000
O O2 0.077870 0.666244 0.520487
O O3 0.471132 0.713307 0.650166
O O4 0.285223 0.333207 0.746036
O O5 0.818214 0.963761 0.706865
O O6 0.000000 0.000000 0.500000
O O7 0.345762 0.073845 0.620429
O O8 0.355957 0.781636 0.850729
O O9 0.407865 0.631115 0.095586
O O10 0.936052 0.802385 0.016746
O O11 0.000000 0.500000 0.000000
O O12 0.500000 0.000000 0.000000
#
# Coordination Sequence:
#
# PCOD9044217 Si02
#       5
#     2   2   2   2   2
#     4  11  26  46  73 109 155 192 251 313 385 447
#     4  10  23  46  71 106 144 192 247 312 368 452
#     4  11  24  46  78 108 143 196 260 308 376 445
#     4  12  26  50  83 106 151 205 266 316 369 460
#     4  12  29  51  76 114 156 203 252 320 390 450
#
# _framework density 27.454339999999998
#
# number of rings (size 3 to 8) (size 9 to 14) (size 15 to 20)
#    0.000    0.800    2.000    4.800    8.400    1.600 
#    0.000   12.000    0.000    0.000    0.000    0.000 
#    0.000    0.000    0.000    0.000    0.000    0.000 
#
# Total GULP energy -55826.661649 kJ/mol
# GULP energy per Si atom -5582.666165 kJ/mol
# Density = 2.739185 g / cm^3
# Si number density = 27.454340 Si / 1000 Ang^3
#
#
#
# Elastic Constant Matrix: (Units=GPa)
#
#
# Indices 1 2 3 4 5 6 
#
# 1 99.8358 36.3421 17.7438 10.3732 -23.2415 -21.3870
# 2 36.3421 202.1278 82.1581 2.3252 7.9777 -24.0276
# 3 17.7438 82.1581 209.3027 -7.7751 -38.1238 -38.0697
# 4 10.3732 2.3252 -7.7751 45.0828 -7.9257 -1.3146
# 5 -23.2415 7.9777 -38.1238 -7.9257 39.7808 -1.0888
# 6 -21.3870 -24.0276 -38.0697 -1.3146 -1.0888 64.0305
#
#
#
# Elastic Compliance Matrix: (Units=1/GPa)
#
#
# Indices 1 2 3 4 5 6 
#
# 1 0.015367 -0.004189 0.003971 -0.000032 0.013786 0.006156
# 2 -0.004189 0.007791 -0.004646 -0.001840 -0.008868 -0.001427
# 3 0.003971 -0.004646 0.009942 0.003611 0.013657 0.005800
# 4 -0.000032 -0.001840 0.003611 0.024506 0.008750 0.002098
# 5 0.013786 -0.008868 0.013657 0.008750 0.050087 0.010428
# 6 0.006156 -0.001427 0.005800 0.002098 0.010428 0.020807
#
#
# Mechanical properties :
#
#
# Convention : Reuss Voigt Hill
#
# Bulk Modulus (GPa) = 42.78803 87.08381 64.93592
# Shear Modulus (GPa) = 34.24246 54.78030 44.51138
#
# Velocity S-wave (km/s) = 3.53548 4.47175 4.03089
# Velocity P-wave (km/s) = 5.68200 7.64529 6.73556
#
# Compressibility (1/GPa) = 0.02337102
#
# Stress axis : x y z
#
# Youngs Moduli (GPa) = 65.07536 128.36075 100.58798
#
# Poissons Ratio (x) = 0.53771 -0.39944
# Poissons Ratio (y) = 0.27260 0.46733
# Poissons Ratio (z) = -0.25842 0.59636
#
# Static dielectric constant tensor:
#      x y z
#    x 3.166950 0.099650 -0.322240 
#    y 0.099650 2.327480 -0.089430 
#    z -0.322240 -0.089430 2.308220 
# 
# From -- ./inp_files/359718.got.cif
#   From: 2010.05.17/outbox.cif.g08.bks.cpg/sg2_180_cif.got.tgz:359718.got - 2010.06.03 11:33:40.
