data_PCOD9044061
_publ_section_title
;
Structure prediction by ZEFSAII (Michael W. Deem and Ramdas Pophale) SiO2 
 PCOD9044061
Probable space group: P -1
;
_chemical_formula_sum "Si O2"
_cell_formula_units_Z 12
_cell_length_a 10.726738
_cell_length_b 12.021881
_cell_length_c 14.460501
_cell_angle_alpha 141.851918
_cell_angle_beta 151.933306
_cell_angle_gamma 33.343528
_cell_volume 473.420128
_symmetry_space_group_name_H-M "P -1"
_symmetry_group_IT_number 2
_symmetry_cell_setting 'triclinic'
loop_
_space_group_symop_operation_xyz
x,y,z
-x,-y,-z
loop_
_atom_site_type_symbol
_atom_site_label
_atom_site_fract_x
_atom_site_fract_y
_atom_site_fract_z
Si Si1 0.940862 0.652252 0.972281
Si Si2 0.129198 0.923826 0.763096
Si Si3 0.692379 0.263511 0.437755
Si Si4 0.665475 0.040126 0.784051
Si Si5 0.774933 0.737777 0.516435
Si Si6 0.718750 0.764250 0.156079
O O1 0.596140 0.773452 0.785886
O O2 0.020555 0.828918 0.168617
O O3 0.000000 0.500000 0.000000
O O4 0.864733 0.515288 0.088438
O O5 0.160926 0.799272 0.608945
O O6 0.961373 0.849720 0.676071
O O7 0.473770 0.839251 0.964442
O O8 0.500000 0.500000 0.500000
O O9 0.007668 0.183953 0.648941
O O10 0.497203 0.196845 0.691640
O O11 0.458418 0.133475 0.799247
O O12 0.677054 0.830368 0.615832
O O13 0.000000 0.000000 0.000000
O O14 0.000000 0.500000 0.500000
#
# Coordination Sequence:
#
# PCOD9044061 Si02
#       6
#     2   2   2   2   2   2
#     4  11  25  46  73 103 146 189 235 293 353 423
#     4  12  24  48  73 103 145 188 237 298 357 423
#     4  10  23  46  69 106 140 188 237 288 353 424
#     4  11  24  49  72 110 142 189 246 305 361 434
#     4  11  27  49  75 106 146 192 242 304 364 431
#     4  11  24  45  73 106 139 191 237 293 361 429
#
# _framework density 25.347466000000001
#
# number of rings (size 3 to 8) (size 9 to 14) (size 15 to 20)
#    0.000    1.000    5.000    0.500    0.000    5.333 
#    6.000    0.000    0.000    0.000    0.000    0.000 
#    0.000    0.000    0.000    0.000    0.000    0.000 
#
# Total GULP energy -67036.793592 kJ/mol
# GULP energy per Si atom -5586.399466 kJ/mol
# Density = 2.528977 g / cm^3
# Si number density = 25.347466 Si / 1000 Ang^3
#
#
#
# Elastic Constant Matrix: (Units=GPa)
#
#
# Indices 1 2 3 4 5 6 
#
# 1 82.3474 70.7622 40.1559 21.4987 -7.6156 -24.3910
# 2 70.7622 180.1158 61.9791 6.2485 1.7890 -25.0540
# 3 40.1559 61.9791 188.5450 -20.6532 -4.0926 -3.5148
# 4 21.4987 6.2485 -20.6532 59.7614 -7.4920 -5.9402
# 5 -7.6156 1.7890 -4.0926 -7.4920 45.7301 13.7496
# 6 -24.3910 -25.0540 -3.5148 -5.9402 13.7496 45.2937
#
#
#
# Elastic Compliance Matrix: (Units=1/GPa)
#
#
# Indices 1 2 3 4 5 6 
#
# 1 0.024542 -0.006972 -0.003722 -0.008572 0.000256 0.007869
# 2 -0.006972 0.009009 -0.001374 0.001023 -0.002032 0.001873
# 3 -0.003722 -0.001374 0.006958 0.003842 0.001324 -0.002122
# 4 -0.008572 0.001023 0.003842 0.021218 0.002910 -0.001853
# 5 0.000256 -0.002032 0.001324 0.002910 0.025019 -0.008097
# 6 0.007869 0.001873 -0.002122 -0.001853 -0.008097 0.029402
#
#
# Mechanical properties :
#
#
# Convention : Reuss Voigt Hill
#
# Bulk Modulus (GPa) = 61.07157 88.53365 74.80261
# Shear Modulus (GPa) = 34.30752 48.69777 41.50264
#
# Velocity S-wave (km/s) = 3.68297 4.38791 4.05081
# Velocity P-wave (km/s) = 6.49860 7.78945 7.17312
#
# Compressibility (1/GPa) = 0.01637423
#
# Stress axis : x y z
#
# Youngs Moduli (GPa) = 40.74712 111.00056 143.71759
#
# Poissons Ratio (x) = 0.77386 0.53488
# Poissons Ratio (y) = 0.28407 0.19744
# Poissons Ratio (z) = 0.15165 0.15249
#
# Static dielectric constant tensor:
#      x y z
#    x 2.073850 -0.009870 0.017360 
#    y -0.009870 2.066680 0.027900 
#    z 0.017360 0.027900 2.023580 
# 
# From -- ./inp_files/521045.got.cif
#   From: 2010.05.17/outbox.cif.g08.bks.cpg/sg2_261_cif.got.tgz:521045.got - 2010.06.03 11:33:40.
