data_PCOD9044990
_publ_section_title
;
Structure prediction by ZEFSAII (Michael W. Deem and Ramdas Pophale) SiO2 
 PCOD9044990
Probable space group: P -1
;
_chemical_formula_sum "Si O2"
_cell_formula_units_Z 16
_cell_length_a 13.666461
_cell_length_b 14.692527
_cell_length_c 8.139859
_cell_angle_alpha 118.377468
_cell_angle_beta 118.281759
_cell_angle_gamma 30.110860
_cell_volume 714.120644
_symmetry_space_group_name_H-M "P -1"
_symmetry_group_IT_number 2
_symmetry_cell_setting 'triclinic'
loop_
_space_group_symop_operation_xyz
x,y,z
-x,-y,-z
loop_
_atom_site_type_symbol
_atom_site_label
_atom_site_fract_x
_atom_site_fract_y
_atom_site_fract_z
Si Si1 0.134692 0.822553 0.838170
Si Si2 0.171594 0.076931 0.534944
Si Si3 0.049827 0.388998 0.795329
Si Si4 0.627468 0.697027 0.135416
Si Si5 0.135547 0.969308 0.692650
Si Si6 0.783505 0.642677 0.527802
Si Si7 0.138756 0.675055 0.997596
Si Si8 0.734297 0.912936 0.730125
O O1 0.237102 0.821933 0.789814
O O2 0.001184 0.852775 0.638984
O O3 0.233610 0.673234 0.926614
O O4 0.000000 0.000000 0.000000
O O5 0.106821 0.226711 0.716302
O O6 0.261377 0.933550 0.623786
O O7 0.280615 0.040160 0.431024
O O8 0.236184 0.308577 0.800771
O O9 0.849857 0.541390 0.661382
O O10 0.000000 0.500000 0.000000
O O11 0.665107 0.659031 0.328979
O O12 0.405246 0.905815 0.117794
O O13 0.713980 0.524652 0.985558
O O14 0.000000 0.000000 0.500000
O O15 0.976239 0.166148 0.826098
O O16 0.000000 0.500000 0.500000
O O17 0.684980 0.830122 0.634080
O O18 0.957797 0.753705 0.832641
#
# Coordination Sequence:
#
# PCOD9044990 Si02
#       8
#     2   2   2   2   2   2   2   2
#     4   8  16  31  55  80 100 136 184 230 278 329
#     4  10  18  30  52  81 111 141 182 228 278 327
#     4  11  21  34  53  82 117 151 181 226 274 327
#     4  11  21  35  57  82 116 150 186 224 270 332
#     4   9  18  33  58  84 107 143 186 235 288 331
#     4  10  17  34  52  74 113 153 181 224 264 312
#     4  10  18  35  59  83 113 144 187 230 277 332
#     4  11  20  34  56  83 112 150 191 223 266 330
#
# _framework density 22.405179
#
# number of rings (size 3 to 8) (size 9 to 14) (size 15 to 20)
#    0.000    2.000    5.000    1.875    0.000    0.000 
#    0.000    1.875    0.000   28.500    0.000    0.000 
#    0.000    0.000    0.000    0.000    0.000    0.000 
#
# Total GULP energy -89071.599627 kJ/mol
# GULP energy per Si atom -5566.974977 kJ/mol
# Density = 2.235418 g / cm^3
# Si number density = 22.405179 Si / 1000 Ang^3
#
#
#
# Elastic Constant Matrix: (Units=GPa)
#
#
# Indices 1 2 3 4 5 6 
#
# 1 61.9146 26.1943 -3.2441 1.5385 6.3570 26.0638
# 2 26.1943 63.7605 -7.7512 23.5815 2.1384 0.3093
# 3 -3.2441 -7.7512 73.6751 14.7311 19.1801 -3.0646
# 4 1.5385 23.5815 14.7311 28.2394 13.2452 1.6961
# 5 6.3570 2.1384 19.1801 13.2452 27.2556 1.5609
# 6 26.0638 0.3093 -3.0646 1.6961 1.5609 26.2833
#
#
#
# Elastic Compliance Matrix: (Units=1/GPa)
#
#
# Indices 1 2 3 4 5 6 
#
# 1 0.069868 -0.052394 -0.009900 0.064696 -0.032531 -0.072065
# 2 -0.052394 0.066763 0.014509 -0.078764 0.031838 0.056054
# 3 -0.009900 0.014509 0.020442 -0.021363 -0.003613 0.013624
# 4 0.064696 -0.078764 -0.021363 0.140271 -0.057957 -0.071329
# 5 -0.032531 0.031838 -0.003613 -0.057957 0.070711 0.031004
# 6 -0.072065 0.056054 0.013624 -0.071329 0.031004 0.113201
#
#
# Mechanical properties :
#
#
# Convention : Reuss Voigt Hill
#
# Bulk Modulus (GPa) = 16.25943 25.52757 20.89350
# Shear Modulus (GPa) = 8.37061 28.63241 18.50151
#
# Velocity S-wave (km/s) = 1.93497 3.57870 2.87674
# Velocity P-wave (km/s) = 3.50213 5.33802 4.51439
#
# Compressibility (1/GPa) = 0.06150276
#
# Stress axis : x y z
#
# Youngs Moduli (GPa) = 14.31271 14.97843 48.91779
#
# Poissons Ratio (x) = 0.78477 0.48430
# Poissons Ratio (y) = 0.74989 -0.70973
# Poissons Ratio (z) = 0.14170 -0.21732
#
# Static dielectric constant tensor:
#      x y z
#    x 1.953360 0.056860 -0.046340 
#    y 0.056860 1.854100 -0.031700 
#    z -0.046340 -0.031700 1.809670 
# 
# From -- ./inp_files/215993.got.cif
#   From: 2010.05.17/outbox.cif.g08.bks.cpg/sg2_108_cif.got.tgz:215993.got - 2010.06.03 11:33:40.
