data_PCOD9044000
_publ_section_title
;
Structure prediction by ZEFSAII (Michael W. Deem and Ramdas Pophale) SiO2 
 PCOD9044000
Probable space group: P -1
;
_chemical_formula_sum "Si O2"
_cell_formula_units_Z 15
_cell_length_a 12.696256
_cell_length_b 9.141913
_cell_length_c 12.023241
_cell_angle_alpha 127.315077
_cell_angle_beta 34.352925
_cell_angle_gamma 120.962103
_cell_volume 625.983336
_symmetry_space_group_name_H-M "P -1"
_symmetry_group_IT_number 2
_symmetry_cell_setting 'triclinic'
loop_
_space_group_symop_operation_xyz
x,y,z
-x,-y,-z
loop_
_atom_site_type_symbol
_atom_site_label
_atom_site_fract_x
_atom_site_fract_y
_atom_site_fract_z
Si Si1 0.714215 0.904018 0.671368
Si Si2 0.311495 0.816203 0.375416
Si Si3 0.896908 0.315519 0.043735
Si Si4 0.315050 0.763990 0.023074
Si Si5 0.000000 0.500000 0.500000
Si Si6 0.154243 0.062816 0.804579
Si Si7 0.793256 0.503779 0.442123
Si Si8 0.409260 0.387738 0.835665
O O1 0.531726 0.827523 0.862633
O O2 0.812479 0.712773 0.474803
O O3 0.660006 0.020972 0.663768
O O4 0.798108 0.065215 0.752116
O O5 0.493701 0.690496 0.173876
O O6 0.132254 0.687041 0.444697
O O7 0.276368 0.909457 0.569636
O O8 0.734983 0.275762 0.079108
O O9 0.843363 0.360783 0.237237
O O10 0.000000 0.500000 0.000000
O O11 0.034585 0.148035 0.848764
O O12 0.296305 0.576113 0.023973
O O13 0.910536 0.498428 0.450476
O O14 0.281670 0.224794 0.821358
O O15 0.000000 0.000000 0.000000
O O16 0.580738 0.447442 0.634057
#
# Coordination Sequence:
#
# PCOD9044000 Si02
#       8
#     2   2   2   2   1   2   2   2
#     4  10  24  43  71 102 132 180 237 278 338 410
#     4  11  25  43  71  98 132 191 227 282 337 425
#     4  12  25  43  69 103 141 179 225 288 351 396
#     4  10  24  44  66 103 139 176 223 292 340 405
#     4  10  24  44  64  96 136 176 226 274 342 394
#     4  12  26  42  66 104 139 172 231 293 344 400
#     4  10  24  46  73  98 138 189 228 281 339 426
#     4  10  23  46  68  95 140 182 231 275 352 407
#
# _framework density 23.962299000000002
#
# number of rings (size 3 to 8) (size 9 to 14) (size 15 to 20)
#    0.000    1.333    1.333    2.800    7.467    3.200 
#    0.000    1.333    0.000    0.000    0.000    0.000 
#    0.000    0.000    0.000    0.000    0.000    0.000 
#
# Total GULP energy -83589.571339 kJ/mol
# GULP energy per Si atom -5572.638089 kJ/mol
# Density = 2.390776 g / cm^3
# Si number density = 23.962299 Si / 1000 Ang^3
#
#
#
# Elastic Constant Matrix: (Units=GPa)
#
#
# Indices 1 2 3 4 5 6 
#
# 1 97.4847 50.0309 29.6337 19.4977 9.4345 -2.6251
# 2 50.0309 158.6086 36.2949 12.5448 4.3744 4.0109
# 3 29.6337 36.2949 70.6927 18.5512 13.5896 0.5711
# 4 19.4977 12.5448 18.5512 47.1700 -3.6029 -2.8516
# 5 9.4345 4.3744 13.5896 -3.6029 25.1537 5.1965
# 6 -2.6251 4.0109 0.5711 -2.8516 5.1965 60.4340
#
#
#
# Elastic Compliance Matrix: (Units=1/GPa)
#
#
# Indices 1 2 3 4 5 6 
#
# 1 0.014004 -0.003498 -0.002126 -0.004290 -0.004323 0.001030
# 2 -0.003498 0.008056 -0.003201 0.000660 0.001898 -0.000788
# 3 -0.002126 -0.003201 0.020673 -0.007205 -0.010956 0.000527
# 4 -0.004290 0.000660 -0.007205 0.026344 0.009099 0.000299
# 5 -0.004323 0.001898 -0.010956 0.009099 0.049096 -0.004002
# 6 0.001030 -0.000788 0.000527 0.000299 -0.004002 0.016997
#
#
# Mechanical properties :
#
#
# Convention : Reuss Voigt Hill
#
# Bulk Modulus (GPa) = 39.86881 62.07833 50.97357
# Shear Modulus (GPa) = 31.02069 40.60664 35.81367
#
# Velocity S-wave (km/s) = 3.60191 4.12102 3.87018
# Velocity P-wave (km/s) = 5.82860 6.97185 6.42570
#
# Compressibility (1/GPa) = 0.02508226
#
# Stress axis : x y z
#
# Youngs Moduli (GPa) = 71.40952 124.12581 48.37200
#
# Poissons Ratio (x) = 0.43424 0.10282
# Poissons Ratio (y) = 0.24982 0.15486
# Poissons Ratio (z) = 0.15179 0.39738
#
# Static dielectric constant tensor:
#      x y z
#    x 1.883770 -0.026650 -0.026450 
#    y -0.026650 1.901400 0.022580 
#    z -0.026450 0.022580 1.956710 
# 
# From -- ./inp_files/174066.got.cif
#   From: 2010.05.17/outbox.cif.g08.bks.cpg/sg2_88_cif.got.tgz:174066.got - 2010.06.03 11:33:40.
