data_PCOD9044278
_publ_section_title
;
Structure prediction by ZEFSAII (Michael W. Deem and Ramdas Pophale) SiO2 
 PCOD9044278
Probable space group: P -1
;
_chemical_formula_sum "Si O2"
_cell_formula_units_Z 16
_cell_length_a 13.882808
_cell_length_b 6.211926
_cell_length_c 8.221208
_cell_angle_alpha 80.662093
_cell_angle_beta 73.350804
_cell_angle_gamma 98.503585
_cell_volume 655.946486
_symmetry_space_group_name_H-M "P -1"
_symmetry_group_IT_number 2
_symmetry_cell_setting 'triclinic'
loop_
_space_group_symop_operation_xyz
x,y,z
-x,-y,-z
loop_
_atom_site_type_symbol
_atom_site_label
_atom_site_fract_x
_atom_site_fract_y
_atom_site_fract_z
Si Si1 0.894768 0.974223 0.949944
Si Si2 0.746314 0.645564 0.877406
Si Si3 0.575207 0.904017 0.851998
Si Si4 0.368483 0.790017 0.520950
Si Si5 0.775231 0.591346 0.496619
Si Si6 0.425789 0.536225 0.789479
Si Si7 0.000202 0.765871 0.417193
Si Si8 0.315313 0.120389 0.740286
O O1 0.855267 0.740928 0.899348
O O2 0.794350 0.970174 0.110075
O O3 0.915824 0.156233 0.772784
O O4 0.000000 0.000000 0.000000
O O5 0.685288 0.850759 0.858165
O O6 0.758012 0.562573 0.700351
O O7 0.676765 0.464731 0.050516
O O8 0.517913 0.664192 0.836640
O O9 0.593657 0.073110 0.671838
O O10 0.500000 0.000000 0.000000
O O11 0.256968 0.644271 0.547525
O O12 0.435706 0.634949 0.591318
O O13 0.361730 0.930234 0.666430
O O14 0.888783 0.723110 0.396315
O O15 0.705522 0.739296 0.424862
O O16 0.398198 0.273964 0.796024
O O17 0.000000 0.500000 0.500000
O O18 0.000000 0.000000 0.500000
#
# Coordination Sequence:
#
# PCOD9044278 Si02
#       8
#     2   2   2   2   2   2   2   2
#     4  11  24  46  75 110 149 197 250 314 388 461
#     4  11  24  47  72 102 151 188 249 310 375 451
#     4  12  26  45  74 104 144 195 257 303 379 451
#     4  11  25  45  73 105 144 194 240 312 371 462
#     4  11  23  45  74 104 148 197 249 308 382 447
#     4  10  25  44  68 104 141 192 237 306 374 440
#     4  12  28  48  78 115 155 201 260 319 388 462
#     4  10  23  46  72 103 154 188 251 298 389 444
#
# _framework density 24.392233999999998
#
# number of rings (size 3 to 8) (size 9 to 14) (size 15 to 20)
#    0.000    1.000    3.750    1.500    7.000    1.500 
#    2.250    1.250    0.000    0.000    0.000    0.000 
#    0.000    0.000    0.000    0.000    0.000    0.000 
#
# Total GULP energy -89164.512119 kJ/mol
# GULP energy per Si atom -5572.782007 kJ/mol
# Density = 2.433672 g / cm^3
# Si number density = 24.392234 Si / 1000 Ang^3
#
#
#
# Elastic Constant Matrix: (Units=GPa)
#
#
# Indices 1 2 3 4 5 6 
#
# 1 108.4120 53.8713 2.4106 1.9601 5.1358 32.8621
# 2 53.8713 98.8819 45.3722 4.1914 -8.8096 21.8081
# 3 2.4106 45.3722 140.4787 -19.9587 1.8908 0.5860
# 4 1.9601 4.1914 -19.9587 48.1238 -1.3389 3.1627
# 5 5.1358 -8.8096 1.8908 -1.3389 32.8924 -5.0025
# 6 32.8621 21.8081 0.5860 3.1627 -5.0025 52.4040
#
#
#
# Elastic Compliance Matrix: (Units=1/GPa)
#
#
# Indices 1 2 3 4 5 6 
#
# 1 0.016157 -0.009299 0.003083 0.001718 -0.006184 -0.006991
# 2 -0.009299 0.019281 -0.006693 -0.003809 0.006655 -0.001253
# 3 0.003083 -0.006693 0.009898 0.004475 -0.002627 0.000221
# 4 0.001718 -0.003809 0.004475 0.022942 -0.000764 -0.000999
# 5 -0.006184 0.006655 -0.002627 -0.000764 0.033943 0.004424
# 6 -0.006991 -0.001253 0.000221 -0.000999 0.004424 0.024468
#
#
# Mechanical properties :
#
#
# Convention : Reuss Voigt Hill
#
# Bulk Modulus (GPa) = 51.23887 61.23120 56.23504
# Shear Modulus (GPa) = 31.44388 43.09194 37.26791
#
# Velocity S-wave (km/s) = 3.59429 4.20768 3.91303
# Velocity P-wave (km/s) = 6.18685 6.98308 6.59699
#
# Compressibility (1/GPa) = 0.01951643
#
# Stress axis : x y z
#
# Youngs Moduli (GPa) = 61.89189 51.86425 101.03382
#
# Poissons Ratio (x) = 0.48228 -0.31144
# Poissons Ratio (y) = 0.57553 0.67626
# Poissons Ratio (z) = -0.19079 0.34715
#
# Static dielectric constant tensor:
#      x y z
#    x 1.941070 -0.049630 0.007340 
#    y -0.049630 2.142210 -0.040330 
#    z 0.007340 -0.040330 2.016660 
# 
# From -- ./inp_files/288612.got.cif
#   From: 2010.05.17/outbox.cif.g08.bks.cpg/sg2_145_cif.got.tgz:288612.got - 2010.06.03 11:33:40.
