data_PCOD9044685
_publ_section_title
;
Structure prediction by ZEFSAII (Michael W. Deem and Ramdas Pophale) SiO2 
 PCOD9044685
Probable space group: P -1
;
_chemical_formula_sum "Si O2"
_cell_formula_units_Z 16
_cell_length_a 6.684508
_cell_length_b 12.461152
_cell_length_c 19.414523
_cell_angle_alpha 154.500077
_cell_angle_beta 85.013417
_cell_angle_gamma 89.171388
_cell_volume 677.097895
_symmetry_space_group_name_H-M "P -1"
_symmetry_group_IT_number 2
_symmetry_cell_setting 'triclinic'
loop_
_space_group_symop_operation_xyz
x,y,z
-x,-y,-z
loop_
_atom_site_type_symbol
_atom_site_label
_atom_site_fract_x
_atom_site_fract_y
_atom_site_fract_z
Si Si1 0.668959 0.590783 0.449547
Si Si2 0.951277 0.712061 0.061433
Si Si3 0.222678 0.340179 0.735586
Si Si4 0.512331 0.144449 0.180459
Si Si5 0.436982 0.380298 0.170866
Si Si6 0.002402 0.725736 0.425013
Si Si7 0.858791 0.787750 0.678851
Si Si8 0.285311 0.985495 0.649363
O O1 0.639429 0.318082 0.318684
O O2 0.699318 0.780048 0.618171
O O3 0.864133 0.568999 0.381551
O O4 0.456519 0.728813 0.500608
O O5 0.739915 0.871137 0.193759
O O6 0.056084 0.956977 0.186126
O O7 0.000000 0.500000 0.000000
O O8 0.030024 0.533319 0.889714
O O9 0.389132 0.486046 0.785781
O O10 0.337487 0.158758 0.686987
O O11 0.136869 0.189852 0.589489
O O12 0.526917 0.238094 0.156140
O O13 0.273959 0.200703 0.241367
O O14 0.595930 0.844773 0.009351
O O15 0.218571 0.562350 0.297579
O O16 0.070553 0.922960 0.590951
O O17 0.000000 0.500000 0.500000
#
# Coordination Sequence:
#
# PCOD9044685 Si02
#       8
#     2   2   2   2   2   2   2   2
#     4  12  25  44  70 101 139 184 228 294 347 405
#     4  10  23  47  71 104 145 181 231 293 351 418
#     4  11  24  45  70 101 138 184 226 285 352 418
#     4  11  23  44  64  97 142 175 231 287 344 414
#     4  11  24  43  65  98 141 179 227 287 345 416
#     4  12  23  42  70 101 136 183 232 278 351 406
#     4  12  24  43  77 103 136 188 239 286 350 416
#     4  11  24  46  71 100 141 177 235 285 344 422
#
# _framework density 23.63026
#
# number of rings (size 3 to 8) (size 9 to 14) (size 15 to 20)
#    0.000    0.750    5.000    2.250    0.000    5.500 
#    0.000    1.250    0.000    0.000    0.000    0.000 
#    0.000    0.000    0.000    0.000    0.000    0.000 
#
# Total GULP energy -89263.082008 kJ/mol
# GULP energy per Si atom -5578.942625 kJ/mol
# Density = 2.357648 g / cm^3
# Si number density = 23.630260 Si / 1000 Ang^3
#
#
#
# Elastic Constant Matrix: (Units=GPa)
#
#
# Indices 1 2 3 4 5 6 
#
# 1 62.7951 40.7863 17.1984 6.9597 -8.4569 15.4082
# 2 40.7863 100.3560 13.5699 10.6645 10.1666 30.3497
# 3 17.1984 13.5699 94.3610 14.1100 -7.6106 4.4170
# 4 6.9597 10.6645 14.1100 36.1111 13.5209 7.8131
# 5 -8.4569 10.1666 -7.6106 13.5209 32.8762 -6.9047
# 6 15.4082 30.3497 4.4170 7.8131 -6.9047 38.1192
#
#
#
# Elastic Compliance Matrix: (Units=1/GPa)
#
#
# Indices 1 2 3 4 5 6 
#
# 1 0.025745 -0.011872 -0.001033 -0.006733 0.013450 0.002982
# 2 -0.011872 0.020784 -0.002341 0.006437 -0.015966 -0.015689
# 3 -0.001033 -0.002341 0.012672 -0.007587 0.007287 0.003688
# 4 -0.006733 0.006437 -0.007587 0.043241 -0.026451 -0.015178
# 5 0.013450 -0.015966 0.007287 -0.026451 0.055999 0.021995
# 6 0.002982 -0.015689 0.003688 -0.015178 0.021995 0.044187
#
#
# Mechanical properties :
#
#
# Convention : Reuss Voigt Hill
#
# Bulk Modulus (GPa) = 34.83255 44.51349 39.67302
# Shear Modulus (GPa) = 20.60237 33.81846 27.21042
#
# Velocity S-wave (km/s) = 2.95594 3.78716 3.39707
# Velocity P-wave (km/s) = 5.14031 6.16456 5.67559
#
# Compressibility (1/GPa) = 0.02870878
#
# Stress axis : x y z
#
# Youngs Moduli (GPa) = 38.84261 48.11333 78.91358
#
# Poissons Ratio (x) = 0.57122 0.08151
# Poissons Ratio (y) = 0.46116 0.18473
# Poissons Ratio (z) = 0.04012 0.11263
#
# Static dielectric constant tensor:
#      x y z
#    x 1.914600 -0.041080 0.065310 
#    y -0.041080 1.968920 -0.056870 
#    z 0.065310 -0.056870 1.968760 
# 
# From -- ./inp_files/604782.got.cif
#   From: 2010.05.17/outbox.cif.g08.bks.cpg/sg2_303_cif.got.tgz:604782.got - 2010.06.03 11:33:40.
