data_PCOD9044111
_publ_section_title
;
Structure prediction by ZEFSAII (Michael W. Deem and Ramdas Pophale) SiO2 
 PCOD9044111
Probable space group: P -1
;
_chemical_formula_sum "Si O2"
_cell_formula_units_Z 14
_cell_length_a 7.644475
_cell_length_b 10.952729
_cell_length_c 8.400959
_cell_angle_alpha 57.629715
_cell_angle_beta 82.063398
_cell_angle_gamma 66.317880
_cell_volume 541.360933
_symmetry_space_group_name_H-M "P -1"
_symmetry_group_IT_number 2
_symmetry_cell_setting 'triclinic'
loop_
_space_group_symop_operation_xyz
x,y,z
-x,-y,-z
loop_
_atom_site_type_symbol
_atom_site_label
_atom_site_fract_x
_atom_site_fract_y
_atom_site_fract_z
Si Si1 0.689312 0.777004 0.741964
Si Si2 0.361605 0.404019 0.592168
Si Si3 0.975583 0.917763 0.221714
Si Si4 0.934556 0.217990 0.197186
Si Si5 0.797492 0.374826 0.782367
Si Si6 0.358068 0.480431 0.867948
Si Si7 0.564826 0.906591 0.324378
O O1 0.904724 0.767147 0.719754
O O2 0.577709 0.841043 0.548250
O O3 0.585610 0.915551 0.786211
O O4 0.684063 0.615843 0.916826
O O5 0.500000 0.500000 0.500000
O O6 0.224817 0.463652 0.413678
O O7 0.262488 0.446965 0.744381
O O8 0.473545 0.218099 0.694170
O O9 0.135294 0.745086 0.292400
O O10 0.771391 0.905262 0.259137
O O11 0.972063 0.037745 0.279722
O O12 0.000000 0.000000 0.000000
O O13 0.731856 0.333536 0.217310
O O14 0.934894 0.298391 0.967761
O O15 0.585560 0.404130 0.857314
#
# Coordination Sequence:
#
# PCOD9044111 Si02
#       7
#     2   2   2   2   2   2   2
#     4  11  26  44  72 105 140 186 238 287 354 410
#     4  10  25  43  73 102 137 183 236 282 355 412
#     4  10  24  44  71 105 136 188 228 286 349 410
#     4  11  24  43  72 103 142 181 239 281 348 423
#     4  10  23  46  70 101 141 182 232 287 350 411
#     4  11  24  44  72 103 139 186 231 291 351 412
#     4  11  26  48  70 101 147 184 232 295 346 419
#
# _framework density 25.860749999999999
#
# number of rings (size 3 to 8) (size 9 to 14) (size 15 to 20)
#    0.000    1.429    0.000    3.429   10.000    7.429 
#    0.000    0.000    0.000    0.000    0.000    0.000 
#    0.000    0.000    0.000    0.000    0.000    0.000 
#
# Total GULP energy -78302.051822 kJ/mol
# GULP energy per Si atom -5593.003702 kJ/mol
# Density = 2.580189 g / cm^3
# Si number density = 25.860750 Si / 1000 Ang^3
#
#
#
# Elastic Constant Matrix: (Units=GPa)
#
#
# Indices 1 2 3 4 5 6 
#
# 1 75.3911 13.6969 -12.4850 -3.0171 -19.5609 -7.4486
# 2 13.6969 202.2802 -18.7945 -6.7237 -15.9642 -6.9332
# 3 -12.4850 -18.7945 64.2393 4.1913 -0.8310 5.5473
# 4 -3.0171 -6.7237 4.1913 29.4252 3.3238 2.9951
# 5 -19.5609 -15.9642 -0.8310 3.3238 42.0753 2.5617
# 6 -7.4486 -6.9332 5.5473 2.9951 2.5617 42.1679
#
#
#
# Elastic Compliance Matrix: (Units=1/GPa)
#
#
# Indices 1 2 3 4 5 6 
#
# 1 0.015858 -0.000156 0.002953 0.000155 0.007241 0.001936
# 2 -0.000156 0.005277 0.001449 0.000723 0.001872 0.000484
# 3 0.002953 0.001449 0.016848 -0.001898 0.002495 -0.001473
# 4 0.000155 0.000723 -0.001898 0.034897 -0.002330 -0.001941
# 5 0.007241 0.001872 0.002495 -0.002330 0.028094 -0.000283
# 6 0.001936 0.000484 -0.001473 -0.001941 -0.000283 0.024485
#
#
# Mechanical properties :
#
#
# Convention : Reuss Voigt Hill
#
# Bulk Modulus (GPa) = 21.51803 34.08282 27.80043
# Shear Modulus (GPa) = 37.74735 46.69990 42.22363
#
# Velocity S-wave (km/s) = 3.82467 4.25411 4.04509
# Velocity P-wave (km/s) = 5.27664 6.11047 5.70880
#
# Compressibility (1/GPa) = 0.04647265
#
# Stress axis : x y z
#
# Youngs Moduli (GPa) = 63.06038 189.49544 59.35482
#
# Poissons Ratio (x) = 0.02965 -0.17525
# Poissons Ratio (y) = 0.00987 -0.08599
# Poissons Ratio (z) = -0.18619 -0.27453
#
# Static dielectric constant tensor:
#      x y z
#    x 2.043940 0.009610 0.085980 
#    y 0.009610 2.199230 0.045400 
#    z 0.085980 0.045400 2.066030 
# 
# From -- ./inp_files/174808.got.cif
#   From: 2010.05.17/outbox.cif.g08.bks.cpg/sg2_88_cif.got.tgz:174808.got - 2010.06.03 11:33:40.
