data_PCOD9044201
_publ_section_title
;
Structure prediction by ZEFSAII (Michael W. Deem and Ramdas Pophale) SiO2 
 PCOD9044201
Probable space group: P -1
;
_chemical_formula_sum "Si O2"
_cell_formula_units_Z 16
_cell_length_a 6.229046
_cell_length_b 17.230759
_cell_length_c 8.429203
_cell_angle_alpha 56.541974
_cell_angle_beta 109.032896
_cell_angle_gamma 117.058080
_cell_volume 668.717615
_symmetry_space_group_name_H-M "P -1"
_symmetry_group_IT_number 2
_symmetry_cell_setting 'triclinic'
loop_
_space_group_symop_operation_xyz
x,y,z
-x,-y,-z
loop_
_atom_site_type_symbol
_atom_site_label
_atom_site_fract_x
_atom_site_fract_y
_atom_site_fract_z
Si Si1 0.546290 0.662279 0.833942
Si Si2 0.920071 0.206383 0.104206
Si Si3 0.520486 0.764790 0.158777
Si Si4 0.059302 0.065694 0.096338
Si Si5 0.237003 0.924688 0.474623
Si Si6 0.422187 0.499078 0.221718
Si Si7 0.315277 0.776541 0.420259
Si Si8 0.193918 0.387625 0.591907
O O1 0.601045 0.593448 0.790642
O O2 0.425101 0.731700 0.640738
O O3 0.800303 0.726151 0.901019
O O4 0.385636 0.585672 0.010943
O O5 0.861368 0.152645 0.320071
O O6 0.887689 0.122935 0.054371
O O7 0.742422 0.264388 0.951574
O O8 0.500361 0.804380 0.286495
O O9 0.632070 0.678568 0.301636
O O10 0.690094 0.849170 0.989266
O O11 0.082885 0.994422 0.322518
O O12 0.000000 0.000000 0.000000
O O13 0.249510 0.865147 0.384084
O O14 0.500000 0.000000 0.500000
O O15 0.246993 0.459649 0.372196
O O16 0.697160 0.543320 0.308370
O O17 0.076417 0.689668 0.395095
#
# Coordination Sequence:
#
# PCOD9044201 Si02
#       8
#     2   2   2   2   2   2   2   2
#     4  11  24  46  71 106 139 189 230 298 359 413
#     4  12  27  48  73 102 149 188 233 297 356 419
#     4  12  25  47  71 102 146 192 234 289 355 421
#     4  12  27  45  73 104 140 190 244 291 346 423
#     4  12  26  46  70 107 141 189 238 292 352 416
#     4  10  23  46  71 103 142 176 250 286 349 434
#     4  12  27  45  74 103 147 190 234 292 360 420
#     4  11  24  48  70 106 140 190 233 295 353 420
#
# _framework density 23.926393000000001
#
# number of rings (size 3 to 8) (size 9 to 14) (size 15 to 20)
#    0.000    0.500    2.500    5.625    5.250    2.000 
#    9.000    0.000    0.000    0.000    0.000    0.000 
#    0.000    0.000    0.000    0.000    0.000    0.000 
#
# Total GULP energy -89634.519341 kJ/mol
# GULP energy per Si atom -5602.157459 kJ/mol
# Density = 2.387194 g / cm^3
# Si number density = 23.926393 Si / 1000 Ang^3
#
#
#
# Elastic Constant Matrix: (Units=GPa)
#
#
# Indices 1 2 3 4 5 6 
#
# 1 54.4283 11.0995 20.9830 -4.5653 3.4930 -6.7856
# 2 11.0995 94.5241 -8.5691 14.2470 -9.3325 -4.5688
# 3 20.9830 -8.5691 131.4270 -17.3745 -8.4607 -4.5924
# 4 -4.5653 14.2470 -17.3745 40.4374 -2.8944 -5.5950
# 5 3.4930 -9.3325 -8.4607 -2.8944 47.6639 6.0722
# 6 -6.7856 -4.5688 -4.5924 -5.5950 6.0722 32.9599
#
#
#
# Elastic Compliance Matrix: (Units=1/GPa)
#
#
# Indices 1 2 3 4 5 6 
#
# 1 0.021304 -0.003284 -0.003332 0.002521 -0.003214 0.004487
# 2 -0.003284 0.011895 0.000932 -0.003987 0.002498 -0.000034
# 3 -0.003332 0.000932 0.008808 0.003347 0.002085 0.000855
# 4 0.002521 -0.003987 0.003347 0.028622 0.000709 0.005161
# 5 -0.003214 0.002498 0.002085 0.000709 0.022637 -0.004075
# 6 0.004487 -0.000034 0.000855 0.005161 -0.004075 0.033005
#
#
# Mechanical properties :
#
#
# Convention : Reuss Voigt Hill
#
# Bulk Modulus (GPa) = 32.63758 36.37848 34.50803
# Shear Modulus (GPa) = 33.81734 41.33664 37.57699
#
# Velocity S-wave (km/s) = 3.76359 4.16102 3.96728
# Velocity P-wave (km/s) = 5.70584 6.19054 5.95312
#
# Compressibility (1/GPa) = 0.03063952
#
# Stress axis : x y z
#
# Youngs Moduli (GPa) = 46.93888 84.06618 113.53089
#
# Poissons Ratio (x) = 0.27610 0.37832
# Poissons Ratio (y) = 0.15416 -0.10586
# Poissons Ratio (z) = 0.15642 -0.07839
#
# Static dielectric constant tensor:
#      x y z
#    x 1.878300 0.005970 -0.014530 
#    y 0.005970 1.905500 0.012830 
#    z -0.014530 0.012830 1.915170 
# 
# From -- ./inp_files/138755.got.cif
#   From: 2010.05.17/outbox.cif.g08.bks.cpg/sg2_70_cif.got.tgz:138755.got - 2010.06.03 11:33:40.
