data_PCOD9044957
_publ_section_title
;
Structure prediction by ZEFSAII (Michael W. Deem and Ramdas Pophale) SiO2 
 PCOD9044957
Probable space group: P -1
;
_chemical_formula_sum "Si O2"
_cell_formula_units_Z 14
_cell_length_a 12.568462
_cell_length_b 19.463778
_cell_length_c 8.580904
_cell_angle_alpha 52.279270
_cell_angle_beta 114.306238
_cell_angle_gamma 156.081449
_cell_volume 597.599026
_symmetry_space_group_name_H-M "P -1"
_symmetry_group_IT_number 2
_symmetry_cell_setting 'triclinic'
loop_
_space_group_symop_operation_xyz
x,y,z
-x,-y,-z
loop_
_atom_site_type_symbol
_atom_site_label
_atom_site_fract_x
_atom_site_fract_y
_atom_site_fract_z
Si Si1 0.196516 0.892878 0.671354
Si Si2 0.114367 0.661751 0.439748
Si Si3 0.372994 0.180273 0.233746
Si Si4 0.929533 0.714536 0.099372
Si Si5 0.045664 0.974386 0.910373
Si Si6 0.109783 0.482483 0.150461
Si Si7 0.344713 0.235710 0.435380
O O1 0.066704 0.718387 0.754182
O O2 0.541621 0.112661 0.615346
O O3 0.167298 0.955626 0.449372
O O4 0.029343 0.797532 0.865709
O O5 0.000000 0.500000 0.500000
O O6 0.064866 0.716060 0.236840
O O7 0.932223 0.546629 0.650362
O O8 0.248239 0.192119 0.123512
O O9 0.503489 0.277270 0.353177
O O10 0.568366 0.301218 0.032819
O O11 0.573806 0.470618 0.240491
O O12 0.048369 0.873689 0.057132
O O13 0.310613 0.184801 0.664946
O O14 0.000000 0.000000 0.000000
O O15 0.000000 0.500000 0.000000
O O16 0.000000 0.000000 0.500000
#
# Coordination Sequence:
#
# PCOD9044957 Si02
#       7
#     2   2   2   2   2   2   2
#     4  12  25  48  77 107 144 199 250 297 367 439
#     4  12  28  48  74 111 154 193 241 308 376 434
#     4  11  24  46  73 104 144 190 246 300 357 440
#     4  12  26  46  77 107 147 196 240 302 377 431
#     4  11  28  44  70 107 151 190 239 303 369 435
#     4  12  26  46  76 107 145 191 255 304 358 439
#     4  10  23  48  70 101 140 188 247 295 355 437
#
# _framework density 23.42708
#
# number of rings (size 3 to 8) (size 9 to 14) (size 15 to 20)
#    0.000    0.571    4.286    2.571    4.000    5.143 
#    0.000    0.000    0.000    0.000    0.000    0.000 
#    0.000    0.000    0.000    0.000    0.000    0.000 
#
# Total GULP energy -78112.262124 kJ/mol
# GULP energy per Si atom -5579.447295 kJ/mol
# Density = 2.337376 g / cm^3
# Si number density = 23.427080 Si / 1000 Ang^3
#
#
#
# Elastic Constant Matrix: (Units=GPa)
#
#
# Indices 1 2 3 4 5 6 
#
# 1 113.2533 37.9376 51.1127 -4.7058 7.8771 -33.8667
# 2 37.9376 75.7729 40.2594 -9.0464 -5.6102 -19.6695
# 3 51.1127 40.2594 149.7986 -12.0895 -16.5209 -23.9336
# 4 -4.7058 -9.0464 -12.0895 26.9431 -5.4719 -1.6059
# 5 7.8771 -5.6102 -16.5209 -5.4719 68.7070 5.8222
# 6 -33.8667 -19.6695 -23.9336 -1.6059 5.8222 62.2202
#
#
#
# Elastic Compliance Matrix: (Units=1/GPa)
#
#
# Indices 1 2 3 4 5 6 
#
# 1 0.013230 -0.004023 -0.003024 -0.000717 -0.003056 0.005034
# 2 -0.004023 0.017837 -0.002491 0.004616 0.001477 0.002472
# 3 -0.003024 -0.002491 0.009061 0.003264 0.002505 0.000902
# 4 -0.000717 0.004616 0.003264 0.041047 0.004260 0.002985
# 5 -0.003056 0.001477 0.002505 0.004260 0.016105 -0.001630
# 6 0.005034 0.002472 0.000902 0.002985 -0.001630 0.020170
#
#
# Mechanical properties :
#
#
# Convention : Reuss Voigt Hill
#
# Bulk Modulus (GPa) = 47.49907 66.38271 56.94089
# Shear Modulus (GPa) = 34.83303 45.54172 40.18737
#
# Velocity S-wave (km/s) = 3.86018 4.41384 4.14626
# Velocity P-wave (km/s) = 6.33934 7.37383 6.87607
#
# Compressibility (1/GPa) = 0.02105304
#
# Stress axis : x y z
#
# Youngs Moduli (GPa) = 75.58621 56.06358 110.36796
#
# Poissons Ratio (x) = 0.22552 0.33373
# Poissons Ratio (y) = 0.30405 0.27492
# Poissons Ratio (z) = 0.22856 0.13965
#
# Static dielectric constant tensor:
#      x y z
#    x 1.919140 0.054870 -0.016250 
#    y 0.054870 2.089370 0.046640 
#    z -0.016250 0.046640 1.978650 
# 
# From -- ./inp_files/229566.got.cif
#   From: 2010.05.17/outbox.cif.g08.bks.cpg/sg2_115_cif.got.tgz:229566.got - 2010.06.03 11:33:40.
