data_PCOD9044104
_publ_section_title
;
Structure prediction by ZEFSAII (Michael W. Deem and Ramdas Pophale) SiO2 
 PCOD9044104
Probable space group: P -1
;
_chemical_formula_sum "Si O2"
_cell_formula_units_Z 16
_cell_length_a 9.120078
_cell_length_b 7.606132
_cell_length_c 22.729042
_cell_angle_alpha 135.089456
_cell_angle_beta 143.436485
_cell_angle_gamma 61.083672
_cell_volume 649.330157
_symmetry_space_group_name_H-M "P -1"
_symmetry_group_IT_number 2
_symmetry_cell_setting 'triclinic'
loop_
_space_group_symop_operation_xyz
x,y,z
-x,-y,-z
loop_
_atom_site_type_symbol
_atom_site_label
_atom_site_fract_x
_atom_site_fract_y
_atom_site_fract_z
Si Si1 0.344478 0.175638 0.927912
Si Si2 0.856312 0.699395 0.788454
Si Si3 0.586804 0.637880 0.497156
Si Si4 0.758735 0.361113 0.192810
Si Si5 0.006132 0.664651 0.447130
Si Si6 0.774625 0.306225 0.005377
Si Si7 0.597251 0.919377 0.395759
Si Si8 0.213084 0.754880 0.134794
O O1 0.567330 0.171809 0.952769
O O2 0.196160 0.894654 0.822305
O O3 0.479978 0.278812 0.057549
O O4 0.202906 0.389998 0.912095
O O5 0.595711 0.513834 0.647351
O O6 0.056138 0.575296 0.787246
O O7 0.872374 0.974763 0.829457
O O8 0.956858 0.738436 0.896527
O O9 0.500000 0.500000 0.500000
O O10 0.857314 0.571635 0.553310
O O11 0.528202 0.916681 0.558503
O O12 0.827833 0.581680 0.313526
O O13 0.811012 0.768567 0.451378
O O14 0.236079 0.883751 0.550785
O O15 0.668296 0.225993 0.887813
O O16 0.377587 0.755573 0.246186
O O17 0.000000 0.500000 0.000000
#
# Coordination Sequence:
#
# PCOD9044104 Si02
#       8
#     2   2   2   2   2   2   2   2
#     4   9  20  36  55  89 122 159 203 257 315 374
#     4  11  20  36  59  88 118 163 206 252 321 370
#     4  10  17  36  57  89 118 157 211 259 297 371
#     4  10  17  33  63  87 119 157 207 261 306 368
#     4  10  18  32  58  93 118 156 209 261 303 363
#     4  10  22  37  54  87 124 163 201 254 321 381
#     4  10  20  34  59  95 117 158 214 254 312 369
#     4  12  23  38  61  90 124 161 209 265 313 376
#
# _framework density 24.640781
#
# number of rings (size 3 to 8) (size 9 to 14) (size 15 to 20)
#    0.000    1.750    5.000    1.875    0.000    2.000 
#    0.000    0.000    0.000    3.750    0.000    0.000 
#    0.000    0.000    0.000    0.000    0.000    0.000 
#
# Total GULP energy -89264.017367 kJ/mol
# GULP energy per Si atom -5579.001085 kJ/mol
# Density = 2.458470 g / cm^3
# Si number density = 24.640781 Si / 1000 Ang^3
#
#
#
# Elastic Constant Matrix: (Units=GPa)
#
#
# Indices 1 2 3 4 5 6 
#
# 1 55.1371 46.2874 18.5457 3.2103 -6.5924 -10.4306
# 2 46.2874 99.2034 43.0404 -7.9503 -1.9606 -35.9215
# 3 18.5457 43.0404 142.6015 13.1630 1.8411 -9.8748
# 4 3.2103 -7.9503 13.1630 29.1726 -2.3408 1.9175
# 5 -6.5924 -1.9606 1.8411 -2.3408 21.8196 -0.1935
# 6 -10.4306 -35.9215 -9.8748 1.9175 -0.1935 46.2673
#
#
#
# Elastic Compliance Matrix: (Units=1/GPa)
#
#
# Indices 1 2 3 4 5 6 
#
# 1 0.034295 -0.019838 0.001780 -0.008936 0.007409 -0.006890
# 2 -0.019838 0.028616 -0.005993 0.011512 -0.001540 0.015982
# 3 0.001780 -0.005993 0.009005 -0.005868 -0.001409 -0.002092
# 4 -0.008936 0.011512 -0.005868 0.041047 0.003268 0.003983
# 5 0.007409 -0.001540 -0.001409 0.003268 0.048402 0.000241
# 6 -0.006890 0.015982 -0.002092 0.003983 0.000241 0.031858
#
#
# Mechanical properties :
#
#
# Convention : Reuss Voigt Hill
#
# Bulk Modulus (GPa) = 41.99449 56.96545 49.47997
# Shear Modulus (GPa) = 20.05904 32.05647 26.05775
#
# Velocity S-wave (km/s) = 2.85627 3.61078 3.25546
# Velocity P-wave (km/s) = 5.28747 6.36806 5.85276
#
# Compressibility (1/GPa) = 0.02381265
#
# Stress axis : x y z
#
# Youngs Moduli (GPa) = 29.15876 34.94544 111.05164
#
# Poissons Ratio (x) = 0.69326 -0.19763
# Poissons Ratio (y) = 0.57846 0.66553
# Poissons Ratio (z) = -0.05189 0.20943
#
# Static dielectric constant tensor:
#      x y z
#    x 2.012560 -0.077610 -0.010480 
#    y -0.077610 2.073740 0.007940 
#    z -0.010480 0.007940 2.004110 
# 
# From -- ./inp_files/618130.got.cif
#   From: 2010.05.17/outbox.cif.g08.bks.cpg/sg2_310_cif.got.tgz:618130.got - 2010.06.03 11:33:40.
