data_PCOD9044294
_publ_section_title
;
Structure prediction by ZEFSAII (Michael W. Deem and Ramdas Pophale) SiO2 
 PCOD9044294
Probable space group: P -1
;
_chemical_formula_sum "Si O2"
_cell_formula_units_Z 13
_cell_length_a 11.772204
_cell_length_b 7.992980
_cell_length_c 8.668645
_cell_angle_alpha 108.625862
_cell_angle_beta 124.973440
_cell_angle_gamma 102.733014
_cell_volume 541.154633
_symmetry_space_group_name_H-M "P -1"
_symmetry_group_IT_number 2
_symmetry_cell_setting 'triclinic'
loop_
_space_group_symop_operation_xyz
x,y,z
-x,-y,-z
loop_
_atom_site_type_symbol
_atom_site_label
_atom_site_fract_x
_atom_site_fract_y
_atom_site_fract_z
Si Si1 0.058825 0.750746 0.769693
Si Si2 0.892508 0.884074 0.234470
Si Si3 0.753628 0.301180 0.369718
Si Si4 0.143671 0.535103 0.013446
Si Si5 0.435429 0.817547 0.514633
Si Si6 0.513316 0.621630 0.892020
Si Si7 0.500000 0.500000 0.500000
O O1 0.140825 0.756015 0.670998
O O2 0.165232 0.712129 0.964923
O O3 0.882919 0.541564 0.583179
O O4 0.049078 0.955127 0.815733
O O5 0.903149 0.680561 0.160863
O O6 0.701971 0.794301 0.079559
O O7 0.000000 0.000000 0.500000
O O8 0.664423 0.171188 0.415322
O O9 0.606741 0.292108 0.159423
O O10 0.300911 0.605869 0.261455
O O11 0.000000 0.500000 0.000000
O O12 0.561503 0.749393 0.636279
O O13 0.500000 0.000000 0.500000
O O14 0.457721 0.484214 0.651516
O O15 0.500000 0.500000 0.000000
#
# Coordination Sequence:
#
# PCOD9044294 Si02
#       7
#     2   2   2   2   2   2   1
#     4  11  24  46  73 103 153 190 250 304 374 457
#     4  12  27  47  75 110 148 205 253 306 385 455
#     4  10  23  46  72 108 145 197 249 312 370 455
#     4  12  26  49  71 110 150 195 251 313 377 454
#     4  11  25  46  75 106 146 196 244 314 388 444
#     4  11  23  44  73 107 150 197 248 319 379 443
#     4  10  24  46  70 106 152 180 258 314 364 458
#
# _framework density 24.022708999999999
#
# number of rings (size 3 to 8) (size 9 to 14) (size 15 to 20)
#    0.000    0.923    3.077    3.692    4.308    2.462 
#    5.538    0.000    0.000    0.000    0.000    0.000 
#    0.000    0.000    0.000    0.000    0.000    0.000 
#
# Total GULP energy -72416.153063 kJ/mol
# GULP energy per Si atom -5570.473313 kJ/mol
# Density = 2.396803 g / cm^3
# Si number density = 24.022709 Si / 1000 Ang^3
#
#
#
# Elastic Constant Matrix: (Units=GPa)
#
#
# Indices 1 2 3 4 5 6 
#
# 1 81.4085 30.4261 17.2074 -0.0268 7.8160 18.6065
# 2 30.4261 143.3717 -9.3985 -11.5800 -21.2513 26.7671
# 3 17.2074 -9.3985 88.2897 -3.1179 -7.9275 5.2143
# 4 -0.0268 -11.5800 -3.1179 31.0066 7.4631 -1.7529
# 5 7.8160 -21.2513 -7.9275 7.4631 33.5287 -9.1752
# 6 18.6065 26.7671 5.2143 -1.7529 -9.1752 42.2947
#
#
#
# Elastic Compliance Matrix: (Units=1/GPa)
#
#
# Indices 1 2 3 4 5 6 
#
# 1 0.017063 -0.004083 -0.004219 -0.000057 -0.009308 -0.006424
# 2 -0.004083 0.009742 0.002674 0.002183 0.006391 -0.003222
# 3 -0.004219 0.002674 0.012971 0.000970 0.005472 -0.000208
# 4 -0.000057 0.002183 0.000970 0.034642 -0.006480 -0.001446
# 5 -0.009308 0.006391 0.005472 -0.006480 0.040970 0.007995
# 6 -0.006424 -0.003222 -0.000208 -0.001446 0.007995 0.030209
#
#
# Mechanical properties :
#
#
# Convention : Reuss Voigt Hill
#
# Bulk Modulus (GPa) = 35.06113 43.28223 39.17168
# Shear Modulus (GPa) = 30.05559 39.68832 34.87196
#
# Velocity S-wave (km/s) = 3.54097 4.06903 3.81415
# Velocity P-wave (km/s) = 5.59863 6.33501 5.97817
#
# Compressibility (1/GPa) = 0.02852161
#
# Stress axis : x y z
#
# Youngs Moduli (GPa) = 58.60560 102.65154 77.09470
#
# Poissons Ratio (x) = 0.41908 0.32523
# Poissons Ratio (y) = 0.23926 -0.20614
# Poissons Ratio (z) = 0.24723 -0.27448
#
# Static dielectric constant tensor:
#      x y z
#    x 1.800370 0.107940 -0.063700 
#    y 0.107940 1.804820 0.022500 
#    z -0.063700 0.022500 1.991240 
# 
# From -- ./inp_files/245241.got.cif
#   From: 2010.05.17/outbox.cif.g08.bks.cpg/sg2_123_cif.got.tgz:245241.got - 2010.06.03 11:33:40.
