data_PCOD9044204
_publ_section_title
;
Structure prediction by ZEFSAII (Michael W. Deem and Ramdas Pophale) SiO2 
 PCOD9044204
Probable space group: P -1
;
_chemical_formula_sum "Si O2"
_cell_formula_units_Z 14
_cell_length_a 8.850449
_cell_length_b 7.758490
_cell_length_c 13.816287
_cell_angle_alpha 99.374568
_cell_angle_beta 131.866129
_cell_angle_gamma 106.315723
_cell_volume 590.989096
_symmetry_space_group_name_H-M "P -1"
_symmetry_group_IT_number 2
_symmetry_cell_setting 'triclinic'
loop_
_space_group_symop_operation_xyz
x,y,z
-x,-y,-z
loop_
_atom_site_type_symbol
_atom_site_label
_atom_site_fract_x
_atom_site_fract_y
_atom_site_fract_z
Si Si1 0.206801 0.729533 0.581952
Si Si2 0.419044 0.732130 0.863265
Si Si3 0.407794 0.071634 0.376218
Si Si4 0.895621 0.884397 0.186474
Si Si5 0.781613 0.739402 0.329833
Si Si6 0.658487 0.314063 0.784767
Si Si7 0.889471 0.463630 0.107021
O O1 0.359035 0.819932 0.752662
O O2 0.371512 0.735147 0.565090
O O3 0.000000 0.500000 0.500000
O O4 0.049361 0.818624 0.485494
O O5 0.349028 0.501751 0.780685
O O6 0.248573 0.691420 0.878732
O O7 0.692955 0.860735 0.025666
O O8 0.500000 0.000000 0.500000
O O9 0.340552 0.891461 0.252957
O O10 0.167874 0.065667 0.299498
O O11 0.806203 0.867201 0.256010
O O12 0.903599 0.675670 0.159524
O O13 0.607582 0.734267 0.336668
O O14 0.843890 0.477094 0.801132
O O15 0.749763 0.389538 0.939147
#
# Coordination Sequence:
#
# PCOD9044204 Si02
#       7
#     2   2   2   2   2   2   2
#     4  10  23  38  59  80 122 155 188 232 295 346
#     4  10  18  34  60  85 118 152 190 226 291 347
#     4  11  23  39  57  87 115 153 197 239 282 337
#     4  10  17  33  64  83 115 146 199 231 276 346
#     4  10  17  35  58  90 110 156 193 233 274 346
#     4  10  19  31  61  86 118 141 202 239 276 327
#     4   9  17  32  56  94 113 147 186 242 282 335
#
# _framework density 23.6891
#
# number of rings (size 3 to 8) (size 9 to 14) (size 15 to 20)
#    0.000    2.000    4.286    0.857    2.000    1.143 
#    0.000    1.429    0.000    0.000    0.000    0.000 
#    0.000    0.000    0.000    0.000    0.000    0.000 
#
# Total GULP energy -78239.892215 kJ/mol
# GULP energy per Si atom -5588.563730 kJ/mol
# Density = 2.363518 g / cm^3
# Si number density = 23.689100 Si / 1000 Ang^3
#
#
#
# Elastic Constant Matrix: (Units=GPa)
#
#
# Indices 1 2 3 4 5 6 
#
# 1 142.8945 35.8357 49.4090 -3.4967 36.0459 37.1973
# 2 35.8357 49.8651 31.8978 -2.8694 10.1906 23.8404
# 3 49.4090 31.8978 125.7079 -28.3350 35.4342 23.3299
# 4 -3.4967 -2.8694 -28.3350 37.0133 -0.1794 -4.9645
# 5 36.0459 10.1906 35.4342 -0.1794 49.7240 10.8873
# 6 37.1973 23.8404 23.3299 -4.9645 10.8873 40.5389
#
#
#
# Elastic Compliance Matrix: (Units=1/GPa)
#
#
# Indices 1 2 3 4 5 6 
#
# 1 0.011158 -0.003227 -0.001112 -0.000932 -0.005235 -0.006409
# 2 -0.003227 0.031964 -0.006189 -0.004382 0.003175 -0.013664
# 3 -0.001112 -0.006189 0.014768 0.010641 -0.008347 -0.000294
# 4 -0.000932 -0.004382 0.010641 0.035159 -0.006625 0.003394
# 5 -0.005235 0.003175 -0.008347 -0.006625 0.029391 -0.000965
# 6 -0.006409 -0.013664 -0.000294 0.003394 -0.000965 0.039428
#
#
# Mechanical properties :
#
#
# Convention : Reuss Voigt Hill
#
# Bulk Modulus (GPa) = 27.14890 61.41696 44.28293
# Shear Modulus (GPa) = 25.61448 38.87692 32.24570
#
# Velocity S-wave (km/s) = 3.29185 4.05548 3.69345
# Velocity P-wave (km/s) = 5.09252 6.92183 6.07641
#
# Compressibility (1/GPa) = 0.03683390
#
# Stress axis : x y z
#
# Youngs Moduli (GPa) = 89.62199 31.28504 67.71239
#
# Poissons Ratio (x) = 0.10097 0.07528
# Poissons Ratio (y) = 0.28924 0.41908
# Poissons Ratio (z) = 0.09964 0.19363
#
# Static dielectric constant tensor:
#      x y z
#    x 1.921500 -0.008100 0.025820 
#    y -0.008100 1.961180 0.064040 
#    z 0.025820 0.064040 1.958990 
# 
# From -- ./inp_files/182195.got.cif
#   From: 2010.05.17/outbox.cif.g08.bks.cpg/sg2_92_cif.got.tgz:182195.got - 2010.06.03 11:33:40.
