data_PCOD9044428
_publ_section_title
;
Structure prediction by ZEFSAII (Michael W. Deem and Ramdas Pophale) SiO2 
 PCOD9044428
Probable space group: P -1
;
_chemical_formula_sum "Si O2"
_cell_formula_units_Z 14
_cell_length_a 7.762393
_cell_length_b 9.975410
_cell_length_c 12.195458
_cell_angle_alpha 58.622143
_cell_angle_beta 58.776580
_cell_angle_gamma 104.146052
_cell_volume 489.343755
_symmetry_space_group_name_H-M "P -1"
_symmetry_group_IT_number 2
_symmetry_cell_setting 'triclinic'
loop_
_space_group_symop_operation_xyz
x,y,z
-x,-y,-z
loop_
_atom_site_type_symbol
_atom_site_label
_atom_site_fract_x
_atom_site_fract_y
_atom_site_fract_z
Si Si1 0.827789 0.083169 0.395744
Si Si2 0.229796 0.266380 0.436453
Si Si3 0.867088 0.782982 0.073783
Si Si4 0.349582 0.565047 0.964092
Si Si5 0.537240 0.920416 0.342556
Si Si6 0.163569 0.428213 0.608449
Si Si7 0.639957 0.342886 0.851292
O O1 0.978069 0.996607 0.394997
O O2 0.657586 0.041353 0.576546
O O3 0.608090 0.905184 0.449922
O O4 0.020400 0.329427 0.180049
O O5 0.517912 0.367741 0.230406
O O6 0.214844 0.329805 0.537387
O O7 0.169586 0.394667 0.335810
O O8 0.785306 0.620920 0.268504
O O9 0.639118 0.745376 0.083761
O O10 0.000000 0.000000 0.000000
O O11 0.392828 0.713007 0.985515
O O12 0.851335 0.133636 0.108559
O O13 0.500000 0.500000 0.000000
O O14 0.375686 0.695797 0.423845
O O15 0.839700 0.314299 0.751128
#
# Coordination Sequence:
#
# PCOD9044428 Si02
#       7
#     2   2   2   2   2   2   2
#     4  11  24  45  75 116 160 214 271 336 404 487
#     4  11  25  45  80 115 160 212 268 334 408 477
#     4  12  28  51  82 120 165 212 273 340 410 488
#     4  10  23  46  74 111 164 206 267 339 400 479
#     4  11  25  46  77 117 163 211 276 334 408 490
#     4  12  27  52  83 120 163 216 268 341 411 488
#     4  11  25  51  81 117 165 210 275 337 407 486
#
# _framework density 28.609742000000001
#
# number of rings (size 3 to 8) (size 9 to 14) (size 15 to 20)
#    0.000    0.857    1.429    4.714    2.000    5.714 
#    0.000    7.857    0.000    0.857    0.000    0.000 
#    0.000    0.000    0.000    0.000    0.000    0.000 
#
# Total GULP energy -78087.408759 kJ/mol
# GULP energy per Si atom -5577.672054 kJ/mol
# Density = 2.854463 g / cm^3
# Si number density = 28.609742 Si / 1000 Ang^3
#
#
#
# Elastic Constant Matrix: (Units=GPa)
#
#
# Indices 1 2 3 4 5 6 
#
# 1 153.0987 71.2511 73.4870 17.9824 -20.8247 8.6141
# 2 71.2511 189.6726 86.8181 44.9669 -13.1200 13.8802
# 3 73.4870 86.8181 167.7558 50.8487 -6.2331 7.5217
# 4 17.9824 44.9669 50.8487 49.3202 5.2196 0.4718
# 5 -20.8247 -13.1200 -6.2331 5.2196 53.7182 4.6040
# 6 8.6141 13.8802 7.5217 0.4718 4.6040 50.4183
#
#
#
# Elastic Compliance Matrix: (Units=1/GPa)
#
#
# Indices 1 2 3 4 5 6 
#
# 1 0.009345 -0.002144 -0.003392 0.001778 0.002597 -0.000754
# 2 -0.002144 0.008322 -0.001619 -0.005297 0.001681 -0.001787
# 3 -0.003392 -0.001619 0.010934 -0.008601 0.000442 -0.000566
# 4 0.001778 -0.005297 -0.008601 0.033841 -0.005112 0.002588
# 5 0.002597 0.001681 0.000442 -0.005112 0.020823 -0.002826
# 6 -0.000754 -0.001787 -0.000566 0.002588 -0.002826 0.020773
#
#
# Mechanical properties :
#
#
# Convention : Reuss Voigt Hill
#
# Bulk Modulus (GPa) = 69.98576 108.18216 89.08396
# Shear Modulus (GPa) = 40.61316 49.28938 44.95127
#
# Velocity S-wave (km/s) = 3.77179 4.15519 3.96812
# Velocity P-wave (km/s) = 6.59423 7.80486 7.22495
#
# Compressibility (1/GPa) = 0.01428862
#
# Stress axis : x y z
#
# Youngs Moduli (GPa) = 107.00984 120.16734 91.45737
#
# Poissons Ratio (x) = 0.25767 0.31027
# Poissons Ratio (y) = 0.22946 0.14810
# Poissons Ratio (z) = 0.36303 0.19459
#
# Static dielectric constant tensor:
#      x y z
#    x 2.470780 0.005460 0.045440 
#    y 0.005460 2.350820 0.007700 
#    z 0.045440 0.007700 2.480230 
# 
# From -- ./inp_files/500140.got.cif
#   From: 2010.05.17/outbox.cif.g08.bks.cpg/sg2_251_cif.got.tgz:500140.got - 2010.06.03 11:33:40.
