data_PCOD9044465
_publ_section_title
;
Structure prediction by ZEFSAII (Michael W. Deem and Ramdas Pophale) SiO2 
 PCOD9044465
Probable space group: P -1
;
_chemical_formula_sum "Si O2"
_cell_formula_units_Z 16
_cell_length_a 10.324335
_cell_length_b 5.033355
_cell_length_c 17.495338
_cell_angle_alpha 74.367744
_cell_angle_beta 59.896489
_cell_angle_gamma 102.797065
_cell_volume 684.528453
_symmetry_space_group_name_H-M "P -1"
_symmetry_group_IT_number 2
_symmetry_cell_setting 'triclinic'
loop_
_space_group_symop_operation_xyz
x,y,z
-x,-y,-z
loop_
_atom_site_type_symbol
_atom_site_label
_atom_site_fract_x
_atom_site_fract_y
_atom_site_fract_z
Si Si1 0.867604 0.736335 0.272375
Si Si2 0.425494 0.734818 0.981136
Si Si3 0.151403 0.781277 0.474002
Si Si4 0.665981 0.602318 0.493540
Si Si5 0.137148 0.301453 0.333675
Si Si6 0.920020 0.604130 0.821369
Si Si7 0.547404 0.115340 0.762881
Si Si8 0.467807 0.640295 0.688681
O O1 0.809302 0.739341 0.376904
O O2 0.705288 0.503231 0.293895
O O3 0.002346 0.607571 0.223996
O O4 0.944878 0.094097 0.201624
O O5 0.517925 0.111881 0.129431
O O6 0.500000 0.500000 0.000000
O O7 0.228296 0.576266 0.063555
O O8 0.500000 0.000000 0.000000
O O9 0.284007 0.649289 0.464268
O O10 0.184762 0.065246 0.385331
O O11 0.000000 0.500000 0.500000
O O12 0.054145 0.803339 0.577480
O O13 0.500000 0.500000 0.500000
O O14 0.611581 0.744935 0.571650
O O15 0.152615 0.287321 0.239245
O O16 0.260315 0.645639 0.296602
O O17 0.471184 0.358903 0.756730
O O18 0.491047 0.902755 0.721196
#
# Coordination Sequence:
#
# PCOD9044465 Si02
#       8
#     2   2   2   2   2   2   2   2
#     4  11  25  49  74 106 148 203 252 305 370 453
#     4  12  26  48  76 112 147 190 250 313 389 457
#     4  11  23  44  68 111 153 193 250 307 384 454
#     4  10  23  46  76 106 152 204 257 304 372 459
#     4  11  26  41  74 108 151 195 242 314 386 449
#     4  12  25  46  77 107 147 192 255 312 381 448
#     4  12  27  48  73 109 150 195 250 316 382 457
#     4  11  27  47  75 105 153 202 254 303 377 449
#
# _framework density 23.373754999999999
#
# number of rings (size 3 to 8) (size 9 to 14) (size 15 to 20)
#    0.000    0.750    2.500    3.750    3.500    2.000 
#    0.000    7.500    0.000    0.000    0.000    0.000 
#    0.000    0.000    0.000    0.000    0.000    0.000 
#
# Total GULP energy -89482.182995 kJ/mol
# GULP energy per Si atom -5592.636437 kJ/mol
# Density = 2.332056 g / cm^3
# Si number density = 23.373755 Si / 1000 Ang^3
#
#
#
# Elastic Constant Matrix: (Units=GPa)
#
#
# Indices 1 2 3 4 5 6 
#
# 1 87.0905 28.5534 39.3864 0.1669 -5.5485 2.7979
# 2 28.5534 153.7450 46.6687 -13.6137 -6.2003 8.9508
# 3 39.3864 46.6687 166.8118 -30.9993 -0.1224 5.7330
# 4 0.1669 -13.6137 -30.9993 28.0592 -3.3503 6.2052
# 5 -5.5485 -6.2003 -0.1224 -3.3503 35.8215 8.9092
# 6 2.7979 8.9508 5.7330 6.2052 8.9092 38.8996
#
#
#
# Elastic Compliance Matrix: (Units=1/GPa)
#
#
# Indices 1 2 3 4 5 6 
#
# 1 0.013840 -0.001876 -0.003697 -0.005045 0.001208 0.000509
# 2 -0.001876 0.007679 -0.000979 0.003442 0.001976 -0.002490
# 3 -0.003697 -0.000979 0.009167 0.010392 0.000941 -0.002733
# 4 -0.005045 0.003442 0.010392 0.052422 0.007762 -0.012101
# 5 0.001208 0.001976 0.000941 0.007762 0.031443 -0.009120
# 6 0.000509 -0.002490 -0.002733 -0.012101 -0.009120 0.030665
#
#
# Mechanical properties :
#
#
# Convention : Reuss Voigt Hill
#
# Bulk Modulus (GPa) = 56.87417 70.76269 63.81843
# Shear Modulus (GPa) = 30.45424 40.09199 35.27312
#
# Velocity S-wave (km/s) = 3.61352 4.14606 3.88892
# Velocity P-wave (km/s) = 6.46493 7.29794 6.89403
#
# Compressibility (1/GPa) = 0.01758267
#
# Stress axis : x y z
#
# Youngs Moduli (GPa) = 72.25670 130.22228 109.08300
#
# Poissons Ratio (x) = 0.24426 0.40329
# Poissons Ratio (y) = 0.13553 0.10678
# Poissons Ratio (z) = 0.26714 0.12747
#
# Static dielectric constant tensor:
#      x y z
#    x 1.888910 0.034050 -0.067280 
#    y 0.034050 1.963710 -0.032990 
#    z -0.067280 -0.032990 1.992350 
# 
# From -- ./inp_files/585648.got.cif
#   From: 2010.05.17/outbox.cif.g08.bks.cpg/sg2_293_cif.got.tgz:585648.got - 2010.06.03 11:33:40.
