data_PCOD9044063
_publ_section_title
;
Structure prediction by ZEFSAII (Michael W. Deem and Ramdas Pophale) SiO2 
 PCOD9044063
Probable space group: P -1
;
_chemical_formula_sum "Si O2"
_cell_formula_units_Z 12
_cell_length_a 11.249902
_cell_length_b 14.806216
_cell_length_c 7.437125
_cell_angle_alpha 120.258600
_cell_angle_beta 57.895973
_cell_angle_gamma 153.458544
_cell_volume 467.574829
_symmetry_space_group_name_H-M "P -1"
_symmetry_group_IT_number 2
_symmetry_cell_setting 'triclinic'
loop_
_space_group_symop_operation_xyz
x,y,z
-x,-y,-z
loop_
_atom_site_type_symbol
_atom_site_label
_atom_site_fract_x
_atom_site_fract_y
_atom_site_fract_z
Si Si1 0.845182 0.017610 0.348981
Si Si2 0.109365 0.458263 0.936687
Si Si3 0.090690 0.806514 0.853046
Si Si4 0.617085 0.048607 0.757931
Si Si5 0.613082 0.689025 0.592176
Si Si6 0.689136 0.709041 0.152076
O O1 0.083466 0.124186 0.388586
O O2 0.736297 0.848609 0.152353
O O3 0.977435 0.190158 0.284712
O O4 0.615935 0.933025 0.560943
O O5 0.420881 0.639475 0.817247
O O6 0.932991 0.272534 0.758679
O O7 0.000000 0.500000 0.000000
O O8 0.033613 0.373069 0.117592
O O9 0.412598 0.992456 0.758406
O O10 0.965840 0.821393 0.085302
O O11 0.500000 0.000000 0.000000
O O12 0.500000 0.500000 0.500000
O O13 0.587335 0.691453 0.403538
O O14 0.500000 0.500000 0.000000
#
# Coordination Sequence:
#
# PCOD9044063 Si02
#       6
#     2   2   2   2   2   2
#     4  12  26  47  80 111 150 205 252 317 385 451
#     4  11  26  44  75 111 154 202 249 310 380 458
#     4  11  25  46  72 108 154 196 250 314 376 455
#     4  10  23  46  69 106 153 199 250 302 377 458
#     4  12  23  47  77 109 153 196 260 308 380 460
#     4  12  28  47  75 112 152 196 258 322 379 453
#
# _framework density 25.664339999999999
#
# number of rings (size 3 to 8) (size 9 to 14) (size 15 to 20)
#    0.000    0.667    3.333    3.500    7.000    1.333 
#    0.000    1.667    0.000    0.000    0.000    0.000 
#    0.000    0.000    0.000    0.000    0.000    0.000 
#
# Total GULP energy -66907.552742 kJ/mol
# GULP energy per Si atom -5575.629395 kJ/mol
# Density = 2.560593 g / cm^3
# Si number density = 25.664340 Si / 1000 Ang^3
#
#
#
# Elastic Constant Matrix: (Units=GPa)
#
#
# Indices 1 2 3 4 5 6 
#
# 1 138.5242 52.2790 65.6489 1.0384 -18.1539 -6.2312
# 2 52.2790 85.0985 56.0562 10.9440 2.8114 -14.8000
# 3 65.6489 56.0562 136.3477 -1.5417 -15.9417 -13.9380
# 4 1.0384 10.9440 -1.5417 43.7192 -7.1593 -2.2281
# 5 -18.1539 2.8114 -15.9417 -7.1593 52.7417 -7.1395
# 6 -6.2312 -14.8000 -13.9380 -2.2281 -7.1395 54.4610
#
#
#
# Elastic Compliance Matrix: (Units=1/GPa)
#
#
# Indices 1 2 3 4 5 6 
#
# 1 0.010912 -0.005292 -0.002706 0.001503 0.003373 -0.000378
# 2 -0.005292 0.020545 -0.006342 -0.005989 -0.005320 0.002412
# 3 -0.002706 -0.006342 0.011855 0.002736 0.003576 0.001582
# 4 0.001503 -0.005989 0.002736 0.025340 0.005234 0.000968
# 5 0.003373 -0.005320 0.003576 0.005234 0.022607 0.003033
# 6 -0.000378 0.002412 0.001582 0.000968 0.003033 0.019816
#
#
# Mechanical properties :
#
#
# Convention : Reuss Voigt Hill
#
# Bulk Modulus (GPa) = 68.33730 78.65982 73.49856
# Shear Modulus (GPa) = 34.57067 42.58347 38.57707
#
# Velocity S-wave (km/s) = 3.67417 4.07780 3.88124
# Velocity P-wave (km/s) = 6.68465 7.27237 6.98469
#
# Compressibility (1/GPa) = 0.01463330
#
# Stress axis : x y z
#
# Youngs Moduli (GPa) = 91.64080 48.67327 84.35386
#
# Poissons Ratio (x) = 0.25758 0.22823
# Poissons Ratio (y) = 0.48497 0.53495
# Poissons Ratio (z) = 0.24794 0.30868
#
# Static dielectric constant tensor:
#      x y z
#    x 2.399200 -0.454140 0.234110 
#    y -0.454140 3.377970 -0.550740 
#    z 0.234110 -0.550740 2.257630 
# 
# From -- ./inp_files/262987.got.cif
#   From: 2010.05.17/outbox.cif.g08.bks.cpg/sg2_132_cif.got.tgz:262987.got - 2010.06.03 11:33:40.
