data_PCOD9044300
_publ_section_title
;
Structure prediction by ZEFSAII (Michael W. Deem and Ramdas Pophale) SiO2 
 PCOD9044300
Probable space group: P -1
;
_chemical_formula_sum "Si O2"
_cell_formula_units_Z 15
_cell_length_a 7.391781
_cell_length_b 13.932543
_cell_length_c 7.641819
_cell_angle_alpha 57.634043
_cell_angle_beta 82.108120
_cell_angle_gamma 53.587819
_cell_volume 515.763732
_symmetry_space_group_name_H-M "P -1"
_symmetry_group_IT_number 2
_symmetry_cell_setting 'triclinic'
loop_
_space_group_symop_operation_xyz
x,y,z
-x,-y,-z
loop_
_atom_site_type_symbol
_atom_site_label
_atom_site_fract_x
_atom_site_fract_y
_atom_site_fract_z
Si Si1 0.016243 0.612488 0.017082
Si Si2 0.297653 0.034026 0.743759
Si Si3 0.114097 0.346923 0.467954
Si Si4 0.000000 0.000000 0.500000
Si Si5 0.491369 0.733713 0.920174
Si Si6 0.178475 0.100744 0.078286
Si Si7 0.287712 0.673377 0.692746
Si Si8 0.395077 0.395364 0.602574
O O1 0.752700 0.680475 0.935578
O O2 0.113629 0.462992 0.242045
O O3 0.990646 0.725907 0.043716
O O4 0.161630 0.607630 0.840447
O O5 0.202990 0.192212 0.535724
O O6 0.563717 0.957966 0.842302
O O7 0.172425 0.059835 0.920539
O O8 0.321450 0.910047 0.742855
O O9 0.303630 0.308267 0.628047
O O10 0.849600 0.447333 0.475987
O O11 0.895139 0.154868 0.471458
O O12 0.101488 0.043188 0.289954
O O13 0.464509 0.688562 0.158353
O O14 0.452757 0.605144 0.568052
O O15 0.432126 0.666951 0.844756
#
# Coordination Sequence:
#
# PCOD9044300 Si02
#       8
#     2   2   2   1   2   2   2   2
#     4   9  21  41  67 100 141 184 234 294 353 421
#     4  10  17  33  65  99 131 180 234 279 351 427
#     4  10  19  38  68 100 139 189 235 290 357 424
#     4  10  20  36  60  98 142 168 218 304 352 398
#     4  10  22  43  73 104 137 185 235 294 359 423
#     4   9  17  33  60  90 128 176 225 281 343 410
#     4  11  23  44  70 105 143 180 238 298 354 424
#     4  10  21  41  70  99 139 189 236 290 354 424
#
# _framework density 29.083083999999999
#
# number of rings (size 3 to 8) (size 9 to 14) (size 15 to 20)
#    0.000    2.133    0.000    5.600    0.000    0.533 
#    0.000   27.333    0.000   19.200    0.000    0.000 
#    0.000    0.000    0.000    0.000    0.000    0.000 
#
# Total GULP energy -84061.565360 kJ/mol
# GULP energy per Si atom -5604.104357 kJ/mol
# Density = 2.901689 g / cm^3
# Si number density = 29.083084 Si / 1000 Ang^3
#
#
#
# Elastic Constant Matrix: (Units=GPa)
#
#
# Indices 1 2 3 4 5 6 
#
# 1 114.6953 36.0693 57.5032 4.6992 -22.5472 1.5695
# 2 36.0693 140.5448 115.3340 12.9831 -12.6145 3.2783
# 3 57.5032 115.3340 275.2175 16.3787 -6.2544 -6.0677
# 4 4.6992 12.9831 16.3787 79.2343 -13.1359 -5.6091
# 5 -22.5472 -12.6145 -6.2544 -13.1359 59.1653 -5.9471
# 6 1.5695 3.2783 -6.0677 -5.6091 -5.9471 52.0654
#
#
#
# Elastic Compliance Matrix: (Units=1/GPa)
#
#
# Indices 1 2 3 4 5 6 
#
# 1 0.010629 -0.001008 -0.001743 0.000522 0.003770 0.000027
# 2 -0.001008 0.011232 -0.004449 -0.000731 0.001265 -0.001130
# 3 -0.001743 -0.004449 0.005887 -0.000493 -0.001015 0.000850
# 4 0.000522 -0.000731 -0.000493 0.013462 0.003159 0.001784
# 5 0.003770 0.001265 -0.001015 0.003159 0.019428 0.002248
# 6 0.000027 -0.001130 0.000850 0.001784 0.002248 0.019825
#
#
# Mechanical properties :
#
#
# Convention : Reuss Voigt Hill
#
# Bulk Modulus (GPa) = 74.91647 105.36340 90.13994
# Shear Modulus (GPa) = 50.34594 59.52972 54.93783
#
# Velocity S-wave (km/s) = 4.16517 4.52916 4.35097
# Velocity P-wave (km/s) = 6.99621 7.97860 7.50350
#
# Compressibility (1/GPa) = 0.01334820
#
# Stress axis : x y z
#
# Youngs Moduli (GPa) = 94.08176 89.02937 169.85985
#
# Poissons Ratio (x) = 0.08971 0.29612
# Poissons Ratio (y) = 0.09481 0.75573
# Poissons Ratio (z) = 0.16401 0.39610
#
# Static dielectric constant tensor:
#      x y z
#    x 1.776260 -0.012370 -0.292480 
#    y -0.012370 2.302970 -0.002510 
#    z -0.292480 -0.002510 1.920790 
# 
# From -- ./inp_files/401621.got.cif
#   From: 2010.05.17/outbox.cif.g08.bks.cpg/sg2_201_cif.got.tgz:401621.got - 2010.06.03 11:33:40.
