data_PCOD9044970
_publ_section_title
;
Structure prediction by ZEFSAII (Michael W. Deem and Ramdas Pophale) SiO2 
 PCOD9044970
Probable space group: P -1
;
_chemical_formula_sum "Si O2"
_cell_formula_units_Z 14
_cell_length_a 8.969020
_cell_length_b 9.427439
_cell_length_c 20.169136
_cell_angle_alpha 127.384710
_cell_angle_beta 150.000227
_cell_angle_gamma 47.141368
_cell_volume 624.291044
_symmetry_space_group_name_H-M "P -1"
_symmetry_group_IT_number 2
_symmetry_cell_setting 'triclinic'
loop_
_space_group_symop_operation_xyz
x,y,z
-x,-y,-z
loop_
_atom_site_type_symbol
_atom_site_label
_atom_site_fract_x
_atom_site_fract_y
_atom_site_fract_z
Si Si1 0.194626 0.373310 0.599478
Si Si2 0.622678 0.137591 0.042633
Si Si3 0.670423 0.479392 0.884548
Si Si4 0.782615 0.091036 0.879557
Si Si5 0.205030 0.431698 0.370375
Si Si6 0.363882 0.948088 0.501580
Si Si7 0.175544 0.232860 0.766513
O O1 0.529347 0.403299 0.745990
O O2 0.000000 0.500000 0.500000
O O3 0.009009 0.462227 0.619828
O O4 0.228472 0.154791 0.543857
O O5 0.576764 0.320950 0.123083
O O6 0.386228 0.205219 0.906577
O O7 0.989460 0.025366 0.126270
O O8 0.500000 0.000000 0.000000
O O9 0.743851 0.311076 0.918391
O O10 0.000000 0.500000 0.000000
O O11 0.423356 0.112946 0.768924
O O12 0.000000 0.000000 0.000000
O O13 0.500000 0.500000 0.500000
O O14 0.373513 0.208158 0.393857
O O15 0.990786 0.539353 0.254455
O O16 0.095259 0.858790 0.356956
O O17 0.500000 0.000000 0.500000
#
# Coordination Sequence:
#
# PCOD9044970 Si02
#       7
#     2   2   2   2   2   2   2
#     4  12  27  47  73 110 148 192 248 301 366 441
#     4  11  25  45  78 107 144 195 248 303 369 439
#     4  12  27  47  73 110 148 192 248 301 366 441
#     4  10  23  48  70 108 147 189 242 298 374 437
#     4  10  23  48  70 108 147 189 242 298 374 437
#     4  11  25  45  78 107 144 195 248 303 369 439
#     4  10  24  48  74 110 146 190 246 308 376 428
#
# _framework density 22.425436999999999
#
# number of rings (size 3 to 8) (size 9 to 14) (size 15 to 20)
#    0.000    1.143    4.286    0.000    4.000    5.714 
#    5.143    0.000    0.000    0.000    0.000    0.000 
#    0.000    0.000    0.000    0.000    0.000    0.000 
#
# Total GULP energy -78208.745435 kJ/mol
# GULP energy per Si atom -5586.338960 kJ/mol
# Density = 2.237440 g / cm^3
# Si number density = 22.425437 Si / 1000 Ang^3
#
#
#
# Elastic Constant Matrix: (Units=GPa)
#
#
# Indices 1 2 3 4 5 6 
#
# 1 88.8077 27.8176 23.8019 -1.0452 19.9460 24.6376
# 2 27.8176 179.2572 31.8088 -5.5656 -11.2684 27.4375
# 3 23.8019 31.8088 98.7452 -5.4717 9.6044 26.1005
# 4 -1.0452 -5.5656 -5.4717 41.0155 2.6575 -9.2475
# 5 19.9460 -11.2684 9.6044 2.6575 41.2006 -6.7643
# 6 24.6376 27.4375 26.1005 -9.2475 -6.7643 46.0682
#
#
#
# Elastic Compliance Matrix: (Units=1/GPa)
#
#
# Indices 1 2 3 4 5 6 
#
# 1 0.016750 -0.001800 -0.000003 -0.001336 -0.010096 -0.009635
# 2 -0.001800 0.006554 -0.001496 0.000089 0.002732 -0.001674
# 3 -0.000003 -0.001496 0.012937 0.000227 -0.004598 -0.007067
# 4 -0.001336 0.000089 0.000227 0.025675 -0.000107 0.005670
# 5 -0.010096 0.002732 -0.004598 -0.000107 0.032820 0.011175
# 6 -0.009635 -0.001674 -0.007067 0.005670 0.011175 0.034640
#
#
# Mechanical properties :
#
#
# Convention : Reuss Voigt Hill
#
# Bulk Modulus (GPa) = 33.73369 59.29629 46.51499
# Shear Modulus (GPa) = 34.28070 44.54899 39.41485
#
# Velocity S-wave (km/s) = 3.91404 4.46190 4.19692
# Velocity P-wave (km/s) = 5.95832 7.28310 6.65376
#
# Compressibility (1/GPa) = 0.02964395
#
# Stress axis : x y z
#
# Youngs Moduli (GPa) = 59.70253 152.57598 77.29536
#
# Poissons Ratio (x) = 0.27467 0.00022
# Poissons Ratio (y) = 0.10748 0.11560
# Poissons Ratio (z) = 0.00017 0.22819
#
# Static dielectric constant tensor:
#      x y z
#    x 1.857510 0.197000 0.275770 
#    y 0.197000 3.447780 1.995530 
#    z 0.275770 1.995530 4.397140 
# 
# From -- ./inp_files/588164.got.cif
#   From: 2010.05.17/outbox.cif.g08.bks.cpg/sg2_295_cif.got.tgz:588164.got - 2010.06.03 11:33:40.
