data_PCOD9044899
_publ_section_title
;
Structure prediction by ZEFSAII (Michael W. Deem and Ramdas Pophale) SiO2 
 PCOD9044899
Probable space group: P -1
;
_chemical_formula_sum "Si O2"
_cell_formula_units_Z 12
_cell_length_a 9.202074
_cell_length_b 4.930412
_cell_length_c 14.853206
_cell_angle_alpha 93.624761
_cell_angle_beta 140.300780
_cell_angle_gamma 87.318072
_cell_volume 429.589378
_symmetry_space_group_name_H-M "P -1"
_symmetry_group_IT_number 2
_symmetry_cell_setting 'triclinic'
loop_
_space_group_symop_operation_xyz
x,y,z
-x,-y,-z
loop_
_atom_site_type_symbol
_atom_site_label
_atom_site_fract_x
_atom_site_fract_y
_atom_site_fract_z
Si Si1 0.500000 0.500000 0.000000
Si Si2 0.145842 0.070889 0.271334
Si Si3 0.854092 0.685834 0.250595
Si Si4 0.515800 0.939950 0.862395
Si Si5 0.410507 0.290087 0.553593
Si Si6 0.000000 0.000000 0.000000
Si Si7 0.768580 0.210751 0.434583
O O1 0.219382 0.575966 0.845591
O O2 0.580580 0.724391 0.962861
O O3 0.352080 0.853447 0.350700
O O4 0.982209 0.899262 0.254877
O O5 0.268225 0.305274 0.393522
O O6 0.052812 0.123720 0.129041
O O7 0.993942 0.675924 0.409613
O O8 0.582409 0.776764 0.135838
O O9 0.724432 0.987038 0.895685
O O10 0.296548 0.828942 0.700355
O O11 0.413044 0.577568 0.608534
O O12 0.271472 0.082701 0.546793
#
# Coordination Sequence:
#
# PCOD9044899 Si02
#       7
#     1   2   2   2   2   1   2
#     4  12  28  46  76 114 160 208 252 326 406 472
#     4  10  23  47  79 111 158 208 259 329 394 474
#     4  11  27  49  78 113 162 205 261 329 407 469
#     4  12  28  52  76 118 157 211 267 327 399 479
#     4  10  24  48  78 119 156 203 269 329 401 465
#     4  12  24  50  78 116 158 210 262 328 388 484
#     4  11  26  50  84 116 154 210 273 332 386 480
#
# _framework density 27.933655000000002
#
# number of rings (size 3 to 8) (size 9 to 14) (size 15 to 20)
#    0.000    1.000    3.333    1.000    7.000    6.667 
#    3.000    1.667    0.000    0.000    0.000    0.000 
#    0.000    0.000    0.000    0.000    0.000    0.000 
#
# Total GULP energy -66860.687475 kJ/mol
# GULP energy per Si atom -5571.723956 kJ/mol
# Density = 2.787008 g / cm^3
# Si number density = 27.933655 Si / 1000 Ang^3
#
#
#
# Elastic Constant Matrix: (Units=GPa)
#
#
# Indices 1 2 3 4 5 6 
#
# 1 108.8579 24.3727 23.1268 9.0837 -4.7091 -5.2325
# 2 24.3727 79.7616 33.0953 7.9692 -13.1845 -12.4455
# 3 23.1268 33.0953 217.2938 21.7731 -21.7687 8.6372
# 4 9.0837 7.9692 21.7731 31.4369 0.9491 -6.1481
# 5 -4.7091 -13.1845 -21.7687 0.9491 71.3866 8.8478
# 6 -5.2325 -12.4455 8.6372 -6.1481 8.8478 29.7477
#
#
#
# Elastic Compliance Matrix: (Units=1/GPa)
#
#
# Indices 1 2 3 4 5 6 
#
# 1 0.010051 -0.002610 -0.000511 -0.001800 -0.000007 0.000454
# 2 -0.002610 0.015442 -0.002139 -0.000518 0.001274 0.006136
# 3 -0.000511 -0.002139 0.005748 -0.004144 0.001884 -0.004070
# 4 -0.001800 -0.000518 -0.004144 0.037244 -0.003126 0.009297
# 5 -0.000007 0.001274 0.001884 -0.003126 0.015513 -0.005275
# 6 0.000454 0.006136 -0.004070 0.009297 -0.005275 0.040935
#
#
# Mechanical properties :
#
#
# Convention : Reuss Voigt Hill
#
# Bulk Modulus (GPa) = 48.25634 63.01144 55.63389
# Shear Modulus (GPa) = 35.12262 48.20213 41.66238
#
# Velocity S-wave (km/s) = 3.54977 4.15853 3.86615
# Velocity P-wave (km/s) = 5.84072 6.75754 6.31579
#
# Compressibility (1/GPa) = 0.02072267
#
# Stress axis : x y z
#
# Youngs Moduli (GPa) = 99.49434 64.75851 173.97742
#
# Poissons Ratio (x) = 0.16901 0.08884
# Poissons Ratio (y) = 0.25966 0.37206
# Poissons Ratio (z) = 0.05081 0.13849
#
# Static dielectric constant tensor:
#      x y z
#    x 2.236870 -0.148040 0.036950 
#    y -0.148040 2.355900 0.239480 
#    z 0.036950 0.239480 2.404830 
# 
# From -- ./inp_files/323792.got.cif
#   From: 2010.05.17/outbox.cif.g08.bks.cpg/sg2_162_cif.got.tgz:323792.got - 2010.06.03 11:33:40.
