data_PCOD9044320
_publ_section_title
;
Structure prediction by ZEFSAII (Michael W. Deem and Ramdas Pophale) SiO2 
 PCOD9044320
Probable space group: P -1
;
_chemical_formula_sum "Si O2"
_cell_formula_units_Z 16
_cell_length_a 4.798491
_cell_length_b 14.309622
_cell_length_c 10.069593
_cell_angle_alpha 75.949720
_cell_angle_beta 69.268008
_cell_angle_gamma 107.210482
_cell_volume 569.048490
_symmetry_space_group_name_H-M "P -1"
_symmetry_group_IT_number 2
_symmetry_cell_setting 'triclinic'
loop_
_space_group_symop_operation_xyz
x,y,z
-x,-y,-z
loop_
_atom_site_type_symbol
_atom_site_label
_atom_site_fract_x
_atom_site_fract_y
_atom_site_fract_z
Si Si1 0.376410 0.282119 0.292182
Si Si2 0.321373 0.501536 0.199671
Si Si3 0.001380 0.623254 0.339571
Si Si4 0.090179 0.633137 0.038884
Si Si5 0.370330 0.967579 0.838139
Si Si6 0.522531 0.713489 0.420312
Si Si7 0.762375 0.873341 0.095667
Si Si8 0.006658 0.058957 0.340705
O O1 0.313906 0.387302 0.252081
O O2 0.453167 0.266083 0.436410
O O3 0.076013 0.178217 0.326995
O O4 0.691961 0.302642 0.139864
O O5 0.075274 0.521267 0.337436
O O6 0.183130 0.531590 0.079260
O O7 0.697788 0.588022 0.120002
O O8 0.194804 0.687371 0.150545
O O9 0.176235 0.683262 0.420078
O O10 0.645709 0.620629 0.404709
O O11 0.674040 0.935826 0.795765
O O12 0.296860 0.993248 0.690285
O O13 0.523864 0.084201 0.851180
O O14 0.027266 0.856753 0.960934
O O15 0.742129 0.807911 0.252979
O O16 0.000000 0.000000 0.000000
O O17 0.000000 0.000000 0.500000
#
# Coordination Sequence:
#
# PCOD9044320 Si02
#       8
#     2   2   2   2   2   2   2   2
#     4  12  29  42  76 106 149 183 243 287 372 403
#     4  10  23  48  72 103 141 192 238 296 340 434
#     4  10  24  44  73  93 146 179 243 281 359 409
#     4  10  23  46  72  99 139 191 238 285 349 427
#     4   9  24  43  70  94 132 186 230 282 351 405
#     4  12  25  45  66 113 135 189 232 303 345 427
#     4   8  23  45  74  96 139 180 238 293 344 416
#     4  12  26  45  68 101 144 180 229 292 352 422
#
# _framework density 28.117114000000001
#
# number of rings (size 3 to 8) (size 9 to 14) (size 15 to 20)
#    1.500    0.000    1.250    1.875    3.500   10.000 
#    0.000    0.000    0.000    0.000    0.000    0.000 
#    0.000    0.000    0.000    0.000    0.000    0.000 
#
# Total GULP energy -89209.050156 kJ/mol
# GULP energy per Si atom -5575.565635 kJ/mol
# Density = 2.805312 g / cm^3
# Si number density = 28.117114 Si / 1000 Ang^3
#
#
#
# Elastic Constant Matrix: (Units=GPa)
#
#
# Indices 1 2 3 4 5 6 
#
# 1 126.1109 2.6979 20.6451 4.3702 5.8063 -22.3145
# 2 2.6979 101.4737 17.0352 0.2598 -0.0371 -20.2350
# 3 20.6451 17.0352 162.7214 7.2963 11.0077 0.2588
# 4 4.3702 0.2598 7.2963 47.9088 0.2879 2.8819
# 5 5.8063 -0.0371 11.0077 0.2879 37.9220 12.9453
# 6 -22.3145 -20.2350 0.2588 2.8819 12.9453 33.2028
#
#
#
# Elastic Compliance Matrix: (Units=1/GPa)
#
#
# Indices 1 2 3 4 5 6 
#
# 1 0.010063 0.001878 -0.001122 -0.001320 -0.004550 0.009805
# 2 0.001878 0.011995 -0.001259 -0.000621 -0.003292 0.009919
# 3 -0.001122 -0.001259 0.006553 -0.000823 -0.001399 -0.000956
# 4 -0.001320 -0.000621 -0.000823 0.021336 0.001546 -0.003714
# 5 -0.004550 -0.003292 -0.001399 0.001546 0.033716 -0.018333
# 6 0.009805 0.009919 -0.000956 -0.003714 -0.018333 0.050230
#
#
# Mechanical properties :
#
#
# Convention : Reuss Voigt Hill
#
# Bulk Modulus (GPa) = 36.22708 52.34025 44.28367
# Shear Modulus (GPa) = 34.69799 47.13526 40.91662
#
# Velocity S-wave (km/s) = 3.51672 4.09882 3.81887
# Velocity P-wave (km/s) = 5.42237 6.40749 5.93540
#
# Compressibility (1/GPa) = 0.02760366
#
# Stress axis : x y z
#
# Youngs Moduli (GPa) = 99.37232 83.37091 152.60880
#
# Poissons Ratio (x) = -0.15655 0.17122
# Poissons Ratio (y) = -0.18659 0.19216
# Poissons Ratio (z) = 0.11149 0.10498
#
# Static dielectric constant tensor:
#      x y z
#    x 2.441360 0.558160 0.414090 
#    y 0.558160 2.650330 0.111940 
#    z 0.414090 0.111940 2.278410 
# 
# From -- ./inp_files/367665.got.cif
#   From: 2010.05.17/outbox.cif.g08.bks.cpg/sg2_184_cif.got.tgz:367665.got - 2010.06.03 11:33:40.
