data_PCOD9044110
_publ_section_title
;
Structure prediction by ZEFSAII (Michael W. Deem and Ramdas Pophale) SiO2 
 PCOD9044110
Probable space group: P -1
;
_chemical_formula_sum "Si O2"
_cell_formula_units_Z 14
_cell_length_a 5.553621
_cell_length_b 8.350225
_cell_length_c 12.099894
_cell_angle_alpha 73.048641
_cell_angle_beta 93.553328
_cell_angle_gamma 91.442781
_cell_volume 535.694384
_symmetry_space_group_name_H-M "P -1"
_symmetry_group_IT_number 2
_symmetry_cell_setting 'triclinic'
loop_
_space_group_symop_operation_xyz
x,y,z
-x,-y,-z
loop_
_atom_site_type_symbol
_atom_site_label
_atom_site_fract_x
_atom_site_fract_y
_atom_site_fract_z
Si Si1 0.594344 0.650895 0.544723
Si Si2 0.778085 0.367804 0.009650
Si Si3 0.057756 0.698318 0.197331
Si Si4 0.698167 0.991882 0.105314
Si Si5 0.321506 0.601805 0.763809
Si Si6 0.040097 0.152372 0.388495
Si Si7 0.370757 0.908512 0.324834
O O1 0.500000 0.500000 0.500000
O O2 0.520919 0.603594 0.676062
O O3 0.871971 0.697995 0.558264
O O4 0.484379 0.818088 0.452864
O O5 0.608126 0.407836 0.102898
O O6 0.826656 0.172375 0.077406
O O7 0.000000 0.500000 0.000000
O O8 0.745059 0.352823 0.879493
O O9 0.892245 0.849278 0.117923
O O10 0.870454 0.546424 0.235570
O O11 0.183789 0.774275 0.293303
O O12 0.560364 0.946154 0.224763
O O13 0.500000 0.000000 0.000000
O O14 0.181115 0.773823 0.698671
O O15 0.236008 0.076967 0.324242
O O16 0.000000 0.000000 0.500000
#
# Coordination Sequence:
#
# PCOD9044110 Si02
#       7
#     2   2   2   2   2   2   2
#     4  12  27  46  71 105 141 185 239 287 351 420
#     4  10  23  46  70 101 141 181 231 285 349 414
#     4  11  25  46  72 106 140 189 234 286 353 414
#     4  12  25  43  73 104 140 183 234 288 346 418
#     4  11  25  46  71 100 147 188 229 294 347 412
#     4  12  27  44  71 105 141 186 234 290 353 411
#     4  12  26  43  75 104 142 182 240 286 350 419
#
# _framework density 26.134304
#
# number of rings (size 3 to 8) (size 9 to 14) (size 15 to 20)
#    0.000    0.571    2.857    4.286    8.000    1.143 
#    0.000    1.429    0.000    0.000    0.000    0.000 
#    0.000    0.000    0.000    0.000    0.000    0.000 
#
# Total GULP energy -78363.174375 kJ/mol
# GULP energy per Si atom -5597.369598 kJ/mol
# Density = 2.607482 g / cm^3
# Si number density = 26.134304 Si / 1000 Ang^3
#
#
#
# Elastic Constant Matrix: (Units=GPa)
#
#
# Indices 1 2 3 4 5 6 
#
# 1 37.8267 15.7358 39.2342 1.2849 -0.8674 -10.2793
# 2 15.7358 142.4544 45.0199 -5.5179 -5.1439 9.8617
# 3 39.2342 45.0199 178.4462 -7.6880 2.6584 5.3210
# 4 1.2849 -5.5179 -7.6880 53.2574 0.1990 -0.1066
# 5 -0.8674 -5.1439 2.6584 0.1990 62.2034 -3.0996
# 6 -10.2793 9.8617 5.3210 -0.1066 -3.0996 41.5023
#
#
#
# Elastic Compliance Matrix: (Units=1/GPa)
#
#
# Indices 1 2 3 4 5 6 
#
# 1 0.039610 -0.002526 -0.008541 -0.002432 0.001294 0.011596
# 2 -0.002526 0.007933 -0.001357 0.000680 0.000562 -0.002293
# 3 -0.008541 -0.001357 0.007973 0.001213 -0.000719 -0.002866
# 4 -0.002432 0.000680 0.001213 0.019080 -0.000134 -0.000881
# 5 0.001294 0.000562 -0.000719 -0.000134 0.016246 0.001492
# 6 0.011596 -0.002293 -0.002866 -0.000881 0.001492 0.027989
#
#
# Mechanical properties :
#
#
# Convention : Reuss Voigt Hill
#
# Bulk Modulus (GPa) = 32.60841 62.07857 47.34349
# Shear Modulus (GPa) = 32.48832 48.64180 40.56506
#
# Velocity S-wave (km/s) = 3.52963 4.31887 3.94404
# Velocity P-wave (km/s) = 5.39587 6.97678 6.23662
#
# Compressibility (1/GPa) = 0.03066693
#
# Stress axis : x y z
#
# Youngs Moduli (GPa) = 25.24612 126.05576 125.42985
#
# Poissons Ratio (x) = 0.31846 1.07134
# Poissons Ratio (y) = 0.06378 0.17016
# Poissons Ratio (z) = 0.21564 0.17101
#
# Static dielectric constant tensor:
#      x y z
#    x 2.113320 -0.036650 -0.031750 
#    y -0.036650 2.052600 0.025110 
#    z -0.031750 0.025110 2.034960 
# 
# From -- ./inp_files/46369.got.cif
#   From: 2010.05.17/outbox.cif.g08.bks.cpg/sg2_24_cif.got.tgz:46369.got - 2010.06.03 11:33:40.
