data_PCOD9044473
_publ_section_title
;
Structure prediction by ZEFSAII (Michael W. Deem and Ramdas Pophale) SiO2 
 PCOD9044473
Probable space group: P -1
;
_chemical_formula_sum "Si O2"
_cell_formula_units_Z 14
_cell_length_a 8.401311
_cell_length_b 15.410818
_cell_length_c 12.800623
_cell_angle_alpha 154.823676
_cell_angle_beta 48.543069
_cell_angle_gamma 127.512214
_cell_volume 528.138314
_symmetry_space_group_name_H-M "P -1"
_symmetry_group_IT_number 2
_symmetry_cell_setting 'triclinic'
loop_
_space_group_symop_operation_xyz
x,y,z
-x,-y,-z
loop_
_atom_site_type_symbol
_atom_site_label
_atom_site_fract_x
_atom_site_fract_y
_atom_site_fract_z
Si Si1 0.454530 0.403287 0.124229
Si Si2 0.164866 0.315436 0.748696
Si Si3 0.346502 0.758403 0.775532
Si Si4 0.349621 0.812362 0.386280
Si Si5 0.181383 0.734616 0.596267
Si Si6 0.307429 0.265186 0.238169
Si Si7 0.016594 0.940152 0.274605
O O1 0.619877 0.583964 0.281324
O O2 0.217624 0.488918 0.315516
O O3 0.439674 0.235927 0.039993
O O4 0.556170 0.350875 0.911544
O O5 0.143003 0.090479 0.462169
O O6 0.123039 0.241087 0.805405
O O7 0.000000 0.500000 0.000000
O O8 0.274551 0.824366 0.761870
O O9 0.323687 0.511853 0.512812
O O10 0.571972 0.810144 0.792546
O O11 0.168338 0.833380 0.012971
O O12 0.329684 0.782309 0.484327
O O13 0.123344 0.888597 0.531568
O O14 0.500000 0.000000 0.500000
O O15 0.940757 0.786211 0.730378
#
# Coordination Sequence:
#
# PCOD9044473 Si02
#       7
#     2   2   2   2   2   2   2
#     4  11  23  47  78 110 155 209 259 328 396 467
#     4  11  23  46  75 115 161 203 261 322 402 458
#     4  10  23  46  76 113 156 200 261 326 388 467
#     4  12  28  45  73 115 154 204 263 331 393 468
#     4  11  26  49  77 109 153 214 259 321 398 471
#     4  10  24  46  80 111 157 206 266 321 391 476
#     4  11  26  44  77 119 157 205 263 332 384 479
#
# _framework density 26.508208
#
# number of rings (size 3 to 8) (size 9 to 14) (size 15 to 20)
#    0.000    1.143    1.429    3.857    8.000    4.000 
#    0.000    5.000    0.000    0.000    0.000    0.000 
#    0.000    0.000    0.000    0.000    0.000    0.000 
#
# Total GULP energy -78249.505951 kJ/mol
# GULP energy per Si atom -5589.250425 kJ/mol
# Density = 2.644787 g / cm^3
# Si number density = 26.508208 Si / 1000 Ang^3
#
#
#
# Elastic Constant Matrix: (Units=GPa)
#
#
# Indices 1 2 3 4 5 6 
#
# 1 187.5234 68.6795 51.1142 -29.4438 -3.5759 -15.8797
# 2 68.6795 137.3621 25.0931 -16.2863 9.2107 -19.1922
# 3 51.1142 25.0931 98.3751 -24.7892 -10.8149 -8.5165
# 4 -29.4438 -16.2863 -24.7892 46.4550 -0.4280 -0.8402
# 5 -3.5759 9.2107 -10.8149 -0.4280 47.5513 -2.6036
# 6 -15.8797 -19.1922 -8.5165 -0.8402 -2.6036 55.5567
#
#
#
# Elastic Compliance Matrix: (Units=1/GPa)
#
#
# Indices 1 2 3 4 5 6 
#
# 1 0.007546 -0.002969 -0.002391 0.002487 0.000667 0.000833
# 2 -0.002969 0.009464 -0.000620 0.001127 -0.002064 0.002246
# 3 -0.002391 -0.000620 0.013408 0.005476 0.003115 0.001387
# 4 0.002487 0.001127 0.005476 0.026478 0.001585 0.002414
# 5 0.000667 -0.002064 0.003115 0.001585 0.022259 0.001022
# 6 0.000833 0.002246 0.001387 0.002414 0.001022 0.019311
#
#
# Mechanical properties :
#
#
# Convention : Reuss Voigt Hill
#
# Bulk Modulus (GPa) = 54.18042 79.22603 66.70323
# Shear Modulus (GPa) = 42.89018 48.47084 45.68051
#
# Velocity S-wave (km/s) = 4.02680 4.28076 4.15572
# Velocity P-wave (km/s) = 6.48873 7.37465 6.94583
#
# Compressibility (1/GPa) = 0.01845685
#
# Stress axis : x y z
#
# Youngs Moduli (GPa) = 132.52577 105.66711 74.58279
#
# Poissons Ratio (x) = 0.31377 0.17834
# Poissons Ratio (y) = 0.39352 0.04622
# Poissons Ratio (z) = 0.31689 0.06548
#
# Static dielectric constant tensor:
#      x y z
#    x 3.433310 0.107170 0.851600 
#    y 0.107170 2.068490 0.110340 
#    z 0.851600 0.110340 2.480800 
# 
# From -- ./inp_files/562962.got.cif
#   From: 2010.05.17/outbox.cif.g08.bks.cpg/sg2_282_cif.got.tgz:562962.got - 2010.06.03 11:33:40.
