data_PCOD9044678
_publ_section_title
;
Structure prediction by ZEFSAII (Michael W. Deem and Ramdas Pophale) SiO2 
 PCOD9044678
Probable space group: P -1
;
_chemical_formula_sum "Si O2"
_cell_formula_units_Z 14
_cell_length_a 24.879684
_cell_length_b 5.144560
_cell_length_c 6.937194
_cell_angle_alpha 89.964256
_cell_angle_beta 129.652683
_cell_angle_gamma 63.095751
_cell_volume 552.850639
_symmetry_space_group_name_H-M "P -1"
_symmetry_group_IT_number 2
_symmetry_cell_setting 'triclinic'
loop_
_space_group_symop_operation_xyz
x,y,z
-x,-y,-z
loop_
_atom_site_type_symbol
_atom_site_label
_atom_site_fract_x
_atom_site_fract_y
_atom_site_fract_z
Si Si1 0.233344 0.806943 0.583470
Si Si2 0.904656 0.264334 0.713183
Si Si3 0.643470 0.093856 0.927757
Si Si4 0.942321 0.383282 0.418665
Si Si5 0.795509 0.764298 0.791310
Si Si6 0.586254 0.740801 0.581869
Si Si7 0.373707 0.120840 0.731413
O O1 0.155809 0.829612 0.510998
O O2 0.269838 0.972010 0.784839
O O3 0.317385 0.451800 0.723892
O O4 0.199118 0.965045 0.293215
O O5 0.921189 0.441209 0.593166
O O6 0.848744 0.478066 0.762207
O O7 0.000000 0.000000 0.000000
O O8 0.590394 0.137290 0.007430
O O9 0.608230 0.399790 0.704596
O O10 0.651679 0.810962 0.824851
O O11 0.000000 0.500000 0.500000
O O12 0.849556 0.606147 0.104495
O O13 0.000000 0.000000 0.500000
O O14 0.696167 0.902312 0.542844
O O15 0.579109 0.827868 0.336341
O O16 0.500000 0.000000 0.500000
#
# Coordination Sequence:
#
# PCOD9044678 Si02
#       7
#     2   2   2   2   2   2   2
#     4  10  23  47  71 102 140 192 238 299 357 423
#     4  11  23  43  68  96 141 182 236 295 352 416
#     4  11  25  49  73 110 148 189 244 290 371 428
#     4  12  27  43  64  98 134 180 232 293 356 416
#     4  10  24  42  67  97 134 182 237 290 360 415
#     4  12  28  48  78 113 148 191 240 295 364 440
#     4  10  25  48  73 105 147 189 239 302 355 436
#
# _framework density 25.323295000000002
#
# number of rings (size 3 to 8) (size 9 to 14) (size 15 to 20)
#    0.000    1.143    2.857    1.286   10.000    2.286 
#    0.000    0.000    0.000    0.000    0.000    0.000 
#    0.000    0.000    0.000    0.000    0.000    0.000 
#
# Total GULP energy -78171.578841 kJ/mol
# GULP energy per Si atom -5583.684203 kJ/mol
# Density = 2.526566 g / cm^3
# Si number density = 25.323295 Si / 1000 Ang^3
#
#
#
# Elastic Constant Matrix: (Units=GPa)
#
#
# Indices 1 2 3 4 5 6 
#
# 1 159.7676 20.5447 25.9912 2.6687 -25.6789 22.0284
# 2 20.5447 95.7653 7.3953 -10.0218 -8.2501 23.9388
# 3 25.9912 7.3953 104.2631 -4.6651 -40.8980 12.3270
# 4 2.6687 -10.0218 -4.6651 35.5758 12.2435 -4.9390
# 5 -25.6789 -8.2501 -40.8980 12.2435 47.8270 -6.2630
# 6 22.0284 23.9388 12.3270 -4.9390 -6.2630 34.9957
#
#
#
# Elastic Compliance Matrix: (Units=1/GPa)
#
#
# Indices 1 2 3 4 5 6 
#
# 1 0.007603 -0.000536 0.000204 -0.002755 0.004332 -0.004105
# 2 -0.000536 0.012875 0.000598 0.002340 0.000770 -0.008212
# 3 0.000204 0.000598 0.015059 -0.003005 0.013352 -0.003877
# 4 -0.002755 0.002340 -0.003005 0.033107 -0.011625 0.003784
# 5 0.004332 0.000770 0.013352 -0.011625 0.037380 -0.002908
# 6 -0.004105 -0.008212 -0.003877 0.003784 -0.002908 0.038156
#
#
# Mechanical properties :
#
#
# Convention : Reuss Voigt Hill
#
# Bulk Modulus (GPa) = 27.72427 51.96205 39.84316
# Shear Modulus (GPa) = 32.11903 44.07068 38.09485
#
# Velocity S-wave (km/s) = 3.56527 4.17624 3.88279
# Velocity P-wave (km/s) = 5.28394 6.61957 5.98910
#
# Compressibility (1/GPa) = 0.03606948
#
# Stress axis : x y z
#
# Youngs Moduli (GPa) = 131.52611 77.66903 66.40524
#
# Poissons Ratio (x) = 0.04163 -0.01354
# Poissons Ratio (y) = 0.07049 -0.03972
# Poissons Ratio (z) = -0.02682 -0.04646
#
# Static dielectric constant tensor:
#      x y z
#    x 2.044570 0.071120 0.014880 
#    y 0.071120 2.216230 0.053960 
#    z 0.014880 0.053960 2.097350 
# 
# From -- ./inp_files/114002.got.cif
#   From: 2010.05.17/outbox.cif.g08.bks.cpg/sg2_58_cif.got.tgz:114002.got - 2010.06.03 11:33:40.
