data_PCOD9044365
_publ_section_title
;
Structure prediction by ZEFSAII (Michael W. Deem and Ramdas Pophale) SiO2 
 PCOD9044365
Probable space group: P -1
;
_chemical_formula_sum "Si O2"
_cell_formula_units_Z 14
_cell_length_a 8.766235
_cell_length_b 14.634261
_cell_length_c 7.933202
_cell_angle_alpha 134.820122
_cell_angle_beta 101.008482
_cell_angle_gamma 57.282927
_cell_volume 575.756257
_symmetry_space_group_name_H-M "P -1"
_symmetry_group_IT_number 2
_symmetry_cell_setting 'triclinic'
loop_
_space_group_symop_operation_xyz
x,y,z
-x,-y,-z
loop_
_atom_site_type_symbol
_atom_site_label
_atom_site_fract_x
_atom_site_fract_y
_atom_site_fract_z
Si Si1 0.668869 0.918552 0.578299
Si Si2 0.710851 0.814722 0.943288
Si Si3 0.199874 0.385608 0.985885
Si Si4 0.230951 0.894628 0.395717
Si Si5 0.845730 0.968348 0.951169
Si Si6 0.483283 0.735867 0.586127
Si Si7 0.478467 0.561499 0.884934
O O1 0.685620 0.768781 0.312134
O O2 0.481824 0.040940 0.812452
O O3 0.702569 0.004644 0.546690
O O4 0.846733 0.868568 0.668639
O O5 0.821142 0.675329 0.919525
O O6 0.827352 0.882892 0.995739
O O7 0.652731 0.755148 0.690685
O O8 0.330438 0.448079 0.122523
O O9 0.000000 0.500000 0.000000
O O10 0.351833 0.814579 0.491435
O O11 0.302493 0.745455 0.093340
O O12 0.000000 0.000000 0.500000
O O13 0.659272 0.149881 0.149797
O O14 0.000000 0.000000 0.000000
O O15 0.544423 0.558189 0.380858
O O16 0.500000 0.500000 0.000000
#
# Coordination Sequence:
#
# PCOD9044365 Si02
#       7
#     2   2   2   2   2   2   2
#     4  11  24  45  74 102 143 196 250 297 366 441
#     4  11  25  49  77 103 145 205 239 307 372 438
#     4  12  28  47  73 111 148 194 252 301 366 440
#     4  11  23  43  76 114 143 194 252 305 357 441
#     4  11  25  44  74 110 144 189 251 308 363 439
#     4  10  23  46  73 106 154 192 244 298 380 434
#     4  10  25  44  73 106 151 197 238 305 371 434
#
# _framework density 24.315846000000001
#
# number of rings (size 3 to 8) (size 9 to 14) (size 15 to 20)
#    0.000    1.143    1.429    3.857   14.000    0.571 
#    0.000    3.571    0.000    0.000    0.000    0.000 
#    0.000    0.000    0.000    0.000    0.000    0.000 
#
# Total GULP energy -78204.634637 kJ/mol
# GULP energy per Si atom -5586.045331 kJ/mol
# Density = 2.426050 g / cm^3
# Si number density = 24.315846 Si / 1000 Ang^3
#
#
#
# Elastic Constant Matrix: (Units=GPa)
#
#
# Indices 1 2 3 4 5 6 
#
# 1 161.9742 57.2999 54.9975 9.4000 31.2283 0.1622
# 2 57.2999 126.6130 38.1107 -1.9889 4.9816 -2.0951
# 3 54.9975 38.1107 133.7870 6.6512 37.3639 4.2780
# 4 9.4000 -1.9889 6.6512 37.5033 -4.4987 -3.2960
# 5 31.2283 4.9816 37.3639 -4.4987 36.9518 4.5319
# 6 0.1622 -2.0951 4.2780 -3.2960 4.5319 28.7159
#
#
#
# Elastic Compliance Matrix: (Units=1/GPa)
#
#
# Indices 1 2 3 4 5 6 
#
# 1 0.009289 -0.003788 -0.000581 -0.003245 -0.007211 0.000523
# 2 -0.003788 0.010358 -0.002956 0.002691 0.005031 0.000732
# 3 -0.000581 -0.002956 0.011992 -0.003580 -0.011601 -0.000579
# 4 -0.003245 0.002691 -0.003580 0.029604 0.009275 0.002682
# 5 -0.007211 0.005031 -0.011601 0.009275 0.045833 -0.004033
# 6 0.000523 0.000732 -0.000579 0.002682 -0.004033 0.035905
#
#
# Mechanical properties :
#
#
# Convention : Reuss Voigt Hill
#
# Bulk Modulus (GPa) = 58.85758 80.35448 69.60603
# Shear Modulus (GPa) = 30.61975 38.76529 34.69252
#
# Velocity S-wave (km/s) = 3.55244 3.99712 3.78133
# Velocity P-wave (km/s) = 6.40972 7.37703 6.91032
#
# Compressibility (1/GPa) = 0.01699016
#
# Stress axis : x y z
#
# Youngs Moduli (GPa) = 107.65216 96.54011 83.38955
#
# Poissons Ratio (x) = 0.36565 0.04846
# Poissons Ratio (y) = 0.40774 0.24650
# Poissons Ratio (z) = 0.06255 0.28537
#
# Static dielectric constant tensor:
#      x y z
#    x 1.985110 -0.038640 0.024840 
#    y -0.038640 2.100440 -0.094480 
#    z 0.024840 -0.094480 2.041090 
# 
# From -- ./inp_files/401569.got.cif
#   From: 2010.05.17/outbox.cif.g08.bks.cpg/sg2_201_cif.got.tgz:401569.got - 2010.06.03 11:33:40.
