data_PCOD9044714
_publ_section_title
;
Structure prediction by ZEFSAII (Michael W. Deem and Ramdas Pophale) SiO2 
 PCOD9044714
Probable space group: P -1
;
_chemical_formula_sum "Si O2"
_cell_formula_units_Z 16
_cell_length_a 12.760386
_cell_length_b 22.423291
_cell_length_c 20.159071
_cell_angle_alpha 166.284043
_cell_angle_beta 147.499796
_cell_angle_gamma 27.144384
_cell_volume 612.000041
_symmetry_space_group_name_H-M "P -1"
_symmetry_group_IT_number 2
_symmetry_cell_setting 'triclinic'
loop_
_space_group_symop_operation_xyz
x,y,z
-x,-y,-z
loop_
_atom_site_type_symbol
_atom_site_label
_atom_site_fract_x
_atom_site_fract_y
_atom_site_fract_z
Si Si1 0.836815 0.549687 0.855001
Si Si2 0.827736 0.781507 0.625921
Si Si3 0.391314 0.881380 0.570979
Si Si4 0.315709 0.628236 0.730826
Si Si5 0.316262 0.991836 0.346182
Si Si6 0.246327 0.593259 0.085463
Si Si7 0.577191 0.211955 0.184303
Si Si8 0.951687 0.975608 0.224649
O O1 0.656917 0.775095 0.944316
O O2 0.843767 0.251077 0.517939
O O3 0.096973 0.473361 0.907016
O O4 0.720292 0.769558 0.093213
O O5 0.647686 0.736686 0.520199
O O6 0.106679 0.571778 0.555874
O O7 0.766975 0.796491 0.532842
O O8 0.759972 0.104999 0.968497
O O9 0.450985 0.668818 0.437219
O O10 0.224808 0.852121 0.399992
O O11 0.335017 0.746130 0.795549
O O12 0.500000 0.000000 0.500000
O O13 0.097390 0.045814 0.327629
O O14 0.480004 0.654619 0.040630
O O15 0.138533 0.695131 0.065055
O O16 0.500000 0.500000 0.500000
O O17 0.773817 0.954179 0.058544
#
# Coordination Sequence:
#
# PCOD9044714 Si02
#       8
#     2   2   2   2   2   2   2   2
#     4  11  26  47  68 104 143 190 230 292 352 414
#     4  11  24  45  73 102 142 186 235 297 353 406
#     4  12  26  44  72 108 142 185 242 284 354 431
#     4  11  23  47  72 102 143 182 238 294 350 416
#     4  12  23  48  71 102 145 183 237 294 354 414
#     4  12  27  45  71 108 141 192 233 289 355 429
#     4  10  23  47  72 101 138 185 232 295 351 411
#     4  11  25  48  73 102 144 184 240 292 357 418
#
# _framework density 26.143791
#
# number of rings (size 3 to 8) (size 9 to 14) (size 15 to 20)
#    0.000    0.750    5.000    1.875    3.500    1.000 
#    6.750    0.000    0.000    0.000    0.000    0.000 
#    0.000    0.000    0.000    0.000    0.000    0.000 
#
# Total GULP energy -89509.583183 kJ/mol
# GULP energy per Si atom -5594.348949 kJ/mol
# Density = 2.608429 g / cm^3
# Si number density = 26.143791 Si / 1000 Ang^3
#
#
#
# Elastic Constant Matrix: (Units=GPa)
#
#
# Indices 1 2 3 4 5 6 
#
# 1 104.6643 18.0922 -3.9515 9.9962 -22.6375 7.4515
# 2 18.0922 115.3682 21.1458 -9.8313 -13.8216 24.5238
# 3 -3.9515 21.1458 83.1448 -19.2226 -16.3794 -7.4726
# 4 9.9962 -9.8313 -19.2226 38.8712 2.5990 1.5260
# 5 -22.6375 -13.8216 -16.3794 2.5990 29.6918 -0.9393
# 6 7.4515 24.5238 -7.4726 1.5260 -0.9393 40.2536
#
#
#
# Elastic Compliance Matrix: (Units=1/GPa)
#
#
# Indices 1 2 3 4 5 6 
#
# 1 0.012435 -0.001193 0.002144 -0.003099 0.010353 -0.000818
# 2 -0.001193 0.011336 -0.002631 0.001987 0.002515 -0.007191
# 3 0.002144 -0.002631 0.016371 0.006109 0.009040 0.004225
# 4 -0.003099 0.001987 0.006109 0.030121 -0.000726 -0.000662
# 5 0.010353 0.002515 0.009040 -0.000726 0.047774 -0.000628
# 6 -0.000818 -0.007191 0.004225 -0.000662 -0.000628 0.030169
#
#
# Mechanical properties :
#
#
# Convention : Reuss Voigt Hill
#
# Bulk Modulus (GPa) = 27.18733 41.52782 34.35758
# Shear Modulus (GPa) = 30.51978 39.62272 35.07125
#
# Velocity S-wave (km/s) = 3.42040 3.89725 3.66659
# Velocity P-wave (km/s) = 5.10104 6.01418 5.57633
#
# Compressibility (1/GPa) = 0.03678184
#
# Stress axis : x y z
#
# Youngs Moduli (GPa) = 80.41769 88.21149 61.08321
#
# Poissons Ratio (x) = 0.10522 -0.13095
# Poissons Ratio (y) = 0.09593 0.16073
# Poissons Ratio (z) = -0.17240 0.23212
#
# Static dielectric constant tensor:
#      x y z
#    x 2.053750 -0.015670 -0.008110 
#    y -0.015670 2.054620 0.053600 
#    z -0.008110 0.053600 2.073300 
# 
# From -- ./inp_files/69878.got.cif
#   From: 2010.05.17/outbox.cif.g08.bks.cpg/sg2_35_cif.got.tgz:69878.got - 2010.06.03 11:33:40.
