data_PCOD9044855
_publ_section_title
;
Structure prediction by ZEFSAII (Michael W. Deem and Ramdas Pophale) SiO2 
 PCOD9044855
Probable space group: P -1
;
_chemical_formula_sum "Si O2"
_cell_formula_units_Z 16
_cell_length_a 17.823403
_cell_length_b 5.677472
_cell_length_c 8.729149
_cell_angle_alpha 102.080312
_cell_angle_beta 60.663111
_cell_angle_gamma 115.759052
_cell_volume 693.510484
_symmetry_space_group_name_H-M "P -1"
_symmetry_group_IT_number 2
_symmetry_cell_setting 'triclinic'
loop_
_space_group_symop_operation_xyz
x,y,z
-x,-y,-z
loop_
_atom_site_type_symbol
_atom_site_label
_atom_site_fract_x
_atom_site_fract_y
_atom_site_fract_z
Si Si1 0.425552 0.583397 0.674142
Si Si2 0.188720 0.746342 0.070684
Si Si3 0.285057 0.086211 0.278939
Si Si4 0.590227 0.452954 0.957214
Si Si5 0.091650 0.173740 0.238032
Si Si6 0.117118 0.171616 0.567500
Si Si7 0.263100 0.616022 0.674405
Si Si8 0.585260 0.033521 0.670391
O O1 0.500000 0.500000 0.500000
O O2 0.327197 0.485752 0.675540
O O3 0.485418 0.896295 0.672051
O O4 0.406457 0.510844 0.860392
O O5 0.132536 0.440417 0.133056
O O6 0.266178 0.857828 0.142896
O O7 0.135543 0.949160 0.149388
O O8 0.233424 0.757660 0.861121
O O9 0.314018 0.343442 0.182122
O O10 0.189383 0.029420 0.455329
O O11 0.369482 0.151965 0.322050
O O12 0.576056 0.188193 0.849147
O O13 0.500000 0.500000 0.000000
O O14 0.100660 0.248722 0.420721
O O15 0.981668 0.019426 0.294799
O O16 0.172594 0.418136 0.651562
O O17 0.335926 0.796805 0.502518
#
# Coordination Sequence:
#
# PCOD9044855 Si02
#       8
#     2   2   2   2   2   2   2   2
#     4  12  27  43  68 102 150 189 234 299 365 421
#     4  11  27  44  74 109 146 186 240 303 379 430
#     4  11  24  44  73 102 133 192 244 299 345 436
#     4  12  25  45  71  98 137 191 248 291 350 420
#     4  10  25  50  75 107 142 192 240 307 366 440
#     4  10  23  47  76 102 142 184 247 295 361 441
#     4  12  26  42  70 106 143 191 235 303 362 441
#     4  12  25  46  67  99 141 191 246 287 355 423
#
# _framework density 23.071027000000001
#
# number of rings (size 3 to 8) (size 9 to 14) (size 15 to 20)
#    0.000    0.750    2.500    3.750    8.750    7.500 
#    0.000    0.000    0.000    0.000    0.000    0.000 
#    0.000    0.000    0.000    0.000    0.000    0.000 
#
# Total GULP energy -89372.511849 kJ/mol
# GULP energy per Si atom -5585.781991 kJ/mol
# Density = 2.301852 g / cm^3
# Si number density = 23.071027 Si / 1000 Ang^3
#
#
#
# Elastic Constant Matrix: (Units=GPa)
#
#
# Indices 1 2 3 4 5 6 
#
# 1 81.7353 27.5434 23.0179 2.0930 -2.3881 16.2453
# 2 27.5434 83.2807 32.3593 -5.4579 -2.3358 6.2453
# 3 23.0179 32.3593 124.6095 11.9732 5.0165 -10.1498
# 4 2.0930 -5.4579 11.9732 38.7573 -3.3335 2.2100
# 5 -2.3881 -2.3358 5.0165 -3.3335 28.9442 -5.3195
# 6 16.2453 6.2453 -10.1498 2.2100 -5.3195 33.3762
#
#
#
# Elastic Compliance Matrix: (Units=1/GPa)
#
#
# Indices 1 2 3 4 5 6 
#
# 1 0.015728 -0.003623 -0.002585 -0.000118 0.000015 -0.007753
# 2 -0.003623 0.015180 -0.003887 0.003802 0.001624 -0.002252
# 3 -0.002585 -0.003887 0.010395 -0.004071 -0.001856 0.005120
# 4 -0.000118 0.003802 -0.004071 0.028096 0.003656 -0.003170
# 5 0.000015 0.001624 -0.001856 0.003656 0.036282 0.004665
# 6 -0.007753 -0.002252 0.005120 -0.003170 0.004665 0.036667
#
#
# Mechanical properties :
#
#
# Convention : Reuss Voigt Hill
#
# Bulk Modulus (GPa) = 47.36563 50.60739 48.98651
# Shear Modulus (GPa) = 29.48543 33.99587 31.74065
#
# Velocity S-wave (km/s) = 3.57883 3.84282 3.71317
# Velocity P-wave (km/s) = 6.13615 6.45545 6.29782
#
# Compressibility (1/GPa) = 0.02111235
#
# Stress axis : x y z
#
# Youngs Moduli (GPa) = 63.58066 65.87756 96.20094
#
# Poissons Ratio (x) = 0.23868 0.24871
# Poissons Ratio (y) = 0.23036 0.37392
# Poissons Ratio (z) = 0.16437 0.25605
#
# Static dielectric constant tensor:
#      x y z
#    x 1.940030 -0.046070 0.025680 
#    y -0.046070 1.947640 0.024590 
#    z 0.025680 0.024590 1.964470 
# 
# From -- ./inp_files/107183.got.cif
#   From: 2010.05.17/outbox.cif.g08.bks.cpg/sg2_54_cif.got.tgz:107183.got - 2010.06.03 11:33:40.
