data_PCOD9044662
_publ_section_title
;
Structure prediction by ZEFSAII (Michael W. Deem and Ramdas Pophale) SiO2 
 PCOD9044662
Probable space group: P -1
;
_chemical_formula_sum "Si O2"
_cell_formula_units_Z 13
_cell_length_a 5.341590
_cell_length_b 5.566835
_cell_length_c 16.050808
_cell_angle_alpha 87.918560
_cell_angle_beta 92.138776
_cell_angle_gamma 84.258261
_cell_volume 474.172237
_symmetry_space_group_name_H-M "P -1"
_symmetry_group_IT_number 2
_symmetry_cell_setting 'triclinic'
loop_
_space_group_symop_operation_xyz
x,y,z
-x,-y,-z
loop_
_atom_site_type_symbol
_atom_site_label
_atom_site_fract_x
_atom_site_fract_y
_atom_site_fract_z
Si Si1 0.800379 0.029990 0.141741
Si Si2 0.499040 0.693257 0.069637
Si Si3 0.918347 0.245072 0.701596
Si Si4 0.676353 0.170453 0.547656
Si Si5 0.738959 0.438800 0.395035
Si Si6 0.477937 0.376299 0.228435
Si Si7 0.000000 0.000000 0.000000
O O1 0.732012 0.863370 0.062148
O O2 0.949742 0.905716 0.220769
O O3 0.951798 0.194736 0.083277
O O4 0.534346 0.143192 0.173995
O O5 0.557094 0.580545 0.162977
O O6 0.226297 0.837143 0.060270
O O7 0.500000 0.500000 0.000000
O O8 0.775267 0.072476 0.640093
O O9 0.771642 0.484903 0.738162
O O10 0.093327 0.356689 0.634549
O O11 0.843479 0.260907 0.472189
O O12 0.515209 0.412561 0.576555
O O13 0.500000 0.000000 0.500000
O O14 0.661955 0.318446 0.310016
#
# Coordination Sequence:
#
# PCOD9044662 Si02
#       7
#     2   2   2   2   2   2   1
#     4  12  27  47  72 110 141 193 252 290 371 439
#     4  12  26  47  69 104 148 183 243 306 362 436
#     4  11  24  48  77 105 151 198 243 303 369 429
#     4  10  24  46  74 110 150 191 245 301 361 442
#     4  10  23  47  70 108 147 193 245 302 364 432
#     4  11  25  45  70 107 146 187 243 313 349 439
#     4  12  26  46  74 104 136 200 232 300 374 426
#
# _framework density 27.416201000000001
#
# number of rings (size 3 to 8) (size 9 to 14) (size 15 to 20)
#    0.000    0.923    4.615    0.923    2.154    3.692 
#    8.308    0.000    0.000    0.000    0.000    0.000 
#    0.000    0.000    0.000    0.000    0.000    0.000 
#
# Total GULP energy -72451.010620 kJ/mol
# GULP energy per Si atom -5573.154663 kJ/mol
# Density = 2.735380 g / cm^3
# Si number density = 27.416201 Si / 1000 Ang^3
#
#
#
# Elastic Constant Matrix: (Units=GPa)
#
#
# Indices 1 2 3 4 5 6 
#
# 1 71.9493 17.5121 58.9370 0.7475 7.5138 -21.0140
# 2 17.5121 66.4669 66.6726 1.9782 8.7841 -15.5506
# 3 58.9370 66.6726 246.6878 -17.6079 6.8127 -9.9079
# 4 0.7475 1.9782 -17.6079 54.4630 2.1518 -6.6727
# 5 7.5138 8.7841 6.8127 2.1518 42.0392 0.2761
# 6 -21.0140 -15.5506 -9.9079 -6.6727 0.2761 45.7550
#
#
#
# Elastic Compliance Matrix: (Units=1/GPa)
#
#
# Indices 1 2 3 4 5 6 
#
# 1 0.020527 0.002311 -0.005131 -0.000789 -0.003339 0.009007
# 2 0.002311 0.023380 -0.006601 -0.001953 -0.004177 0.007318
# 3 -0.005131 -0.006601 0.007083 0.002222 0.001053 -0.002749
# 4 -0.000789 -0.001953 0.002222 0.019475 -0.000823 0.002300
# 5 -0.003339 -0.004177 0.001053 -0.000823 0.025148 -0.002997
# 6 0.009007 0.007318 -0.002749 0.002300 -0.002997 0.028238
#
#
# Mechanical properties :
#
#
# Convention : Reuss Voigt Hill
#
# Bulk Modulus (GPa) = 31.10756 74.59417 52.85086
# Shear Modulus (GPa) = 32.59257 44.58360 38.58809
#
# Velocity S-wave (km/s) = 3.45165 4.03696 3.75573
# Velocity P-wave (km/s) = 5.22075 6.99975 6.17466
#
# Compressibility (1/GPa) = 0.03214653
#
# Stress axis : x y z
#
# Youngs Moduli (GPa) = 48.71704 42.77124 141.18768
#
# Poissons Ratio (x) = -0.09883 0.72443
# Poissons Ratio (y) = -0.11256 0.93201
# Poissons Ratio (z) = 0.24996 0.28234
#
# Static dielectric constant tensor:
#      x y z
#    x 2.615610 0.182030 -0.124020 
#    y 0.182030 2.283480 0.002840 
#    z -0.124020 0.002840 2.242680 
# 
# From -- ./inp_files/4370.got.cif
#   From: 2010.05.17/outbox.cif.g08.bks.cpg/sg2_3_cif.got.tgz:4370.got - 2010.06.03 11:33:40.
