data_PCOD9044677
_publ_section_title
;
Structure prediction by ZEFSAII (Michael W. Deem and Ramdas Pophale) SiO2 
 PCOD9044677
Probable space group: P -1
;
_chemical_formula_sum "Si O2"
_cell_formula_units_Z 15
_cell_length_a 9.733998
_cell_length_b 7.880993
_cell_length_c 8.146631
_cell_angle_alpha 85.653631
_cell_angle_beta 88.772308
_cell_angle_gamma 97.686466
_cell_volume 617.245559
_symmetry_space_group_name_H-M "P -1"
_symmetry_group_IT_number 2
_symmetry_cell_setting 'triclinic'
loop_
_space_group_symop_operation_xyz
x,y,z
-x,-y,-z
loop_
_atom_site_type_symbol
_atom_site_label
_atom_site_fract_x
_atom_site_fract_y
_atom_site_fract_z
Si Si1 0.500000 0.500000 0.000000
Si Si2 0.158670 0.852557 0.681661
Si Si3 0.752127 0.419533 0.798338
Si Si4 0.532415 0.211040 0.301167
Si Si5 0.084534 0.348497 0.465914
Si Si6 0.231756 0.233832 0.767629
Si Si7 0.503369 0.192359 0.675862
Si Si8 0.016977 0.701886 0.022131
O O1 0.657944 0.456647 0.951707
O O2 0.509482 0.651400 0.836472
O O3 0.299941 0.766575 0.675466
O O4 0.038276 0.807396 0.553344
O O5 0.212744 0.051392 0.689853
O O6 0.081069 0.798473 0.856332
O O7 0.827362 0.593154 0.702084
O O8 0.646316 0.311163 0.687191
O O9 0.864960 0.291972 0.843583
O O10 0.464950 0.215238 0.484587
O O11 0.493208 0.007917 0.267030
O O12 0.185192 0.349387 0.617222
O O13 0.000000 0.500000 0.500000
O O14 0.395372 0.270318 0.797678
O O15 0.123966 0.238678 0.915504
O O16 0.000000 0.500000 0.000000
#
# Coordination Sequence:
#
# PCOD9044677 Si02
#       8
#     1   2   2   2   2   2   2   2
#     4  12  26  42  68 104 138 180 234 280 348 406
#     4  11  23  44  70  98 139 179 231 285 347 414
#     4  12  26  43  69 101 133 183 229 284 343 414
#     4  10  23  47  71 102 140 185 227 289 346 409
#     4  12  23  42  69 102 135 177 229 285 345 411
#     4  11  25  44  69 103 132 183 229 285 350 413
#     4  10  25  47  72  98 143 183 234 278 346 421
#     4  12  24  46  67 100 138 179 229 289 349 410
#
# _framework density 24.30151
#
# number of rings (size 3 to 8) (size 9 to 14) (size 15 to 20)
#    0.000    0.800    4.000    2.400    1.867    3.733 
#    4.800    0.000    0.000    0.000    0.000    0.000 
#    0.000    0.000    0.000    0.000    0.000    0.000 
#
# Total GULP energy -83652.304040 kJ/mol
# GULP energy per Si atom -5576.820269 kJ/mol
# Density = 2.424620 g / cm^3
# Si number density = 24.301510 Si / 1000 Ang^3
#
#
#
# Elastic Constant Matrix: (Units=GPa)
#
#
# Indices 1 2 3 4 5 6 
#
# 1 119.0433 21.2298 16.7736 1.7643 -23.6940 2.0026
# 2 21.2298 76.7819 5.4974 -17.3842 4.7468 -3.3630
# 3 16.7736 5.4974 95.3845 -18.8756 -33.6051 -13.2874
# 4 1.7643 -17.3842 -18.8756 31.9885 -5.2676 -2.9808
# 5 -23.6940 4.7468 -33.6051 -5.2676 41.1066 2.6167
# 6 2.0026 -3.3630 -13.2874 -2.9808 2.6167 37.4075
#
#
#
# Elastic Compliance Matrix: (Units=1/GPa)
#
#
# Indices 1 2 3 4 5 6 
#
# 1 0.010359 -0.003687 0.000137 -0.001572 0.006397 -0.001410
# 2 -0.003687 0.016455 0.001541 0.010072 -0.001675 0.003144
# 3 0.000137 0.001541 0.021856 0.017682 0.019530 0.007938
# 4 -0.001572 0.010072 0.017682 0.051209 0.018307 0.010071
# 5 0.006397 -0.001675 0.019530 0.018307 0.046222 0.004669
# 6 -0.001410 0.003144 0.007938 0.010071 0.004669 0.030386
#
#
# Mechanical properties :
#
#
# Convention : Reuss Voigt Hill
#
# Bulk Modulus (GPa) = 22.39554 42.02348 32.20951
# Shear Modulus (GPa) = 25.59000 38.61446 32.10223
#
# Velocity S-wave (km/s) = 3.24855 3.99052 3.63850
# Velocity P-wave (km/s) = 4.82768 6.20986 5.56187
#
# Compressibility (1/GPa) = 0.04465175
#
# Stress axis : x y z
#
# Youngs Moduli (GPa) = 96.53619 60.77266 45.75330
#
# Poissons Ratio (x) = 0.22408 -0.00627
# Poissons Ratio (y) = 0.35595 -0.07051
# Poissons Ratio (z) = -0.01323 -0.09365
#
# Static dielectric constant tensor:
#      x y z
#    x 1.855190 -0.295560 -0.134350 
#    y -0.295560 0.847190 -0.419980 
#    z -0.134350 -0.419980 1.740930 
# 
# From -- ./inp_files/153895.got.cif
#   From: 2010.05.17/outbox.cif.g08.bks.cpg/sg2_77_cif.got.tgz:153895.got - 2010.06.03 11:33:40.
