data_PCOD9044331
_publ_section_title
;
Structure prediction by ZEFSAII (Michael W. Deem and Ramdas Pophale) SiO2 
 PCOD9044331
Probable space group: P -1
;
_chemical_formula_sum "Si O2"
_cell_formula_units_Z 14
_cell_length_a 11.870005
_cell_length_b 14.242998
_cell_length_c 12.408732
_cell_angle_alpha 145.269289
_cell_angle_beta 44.171310
_cell_angle_gamma 148.584556
_cell_volume 622.093722
_symmetry_space_group_name_H-M "P -1"
_symmetry_group_IT_number 2
_symmetry_cell_setting 'triclinic'
loop_
_space_group_symop_operation_xyz
x,y,z
-x,-y,-z
loop_
_atom_site_type_symbol
_atom_site_label
_atom_site_fract_x
_atom_site_fract_y
_atom_site_fract_z
Si Si1 0.942432 0.158424 0.707438
Si Si2 0.943878 0.081480 0.281810
Si Si3 0.857524 0.252878 0.319919
Si Si4 0.348529 0.530240 0.499860
Si Si5 0.407535 0.086635 0.468202
Si Si6 0.608244 0.367321 0.202150
Si Si7 0.194108 0.920419 0.024695
O O1 0.855927 0.126618 0.858323
O O2 0.154190 0.417547 0.795268
O O3 0.769322 0.082071 0.660725
O O4 0.000000 0.000000 0.500000
O O5 0.930016 0.135678 0.220472
O O6 0.100048 0.320538 0.457152
O O7 0.718635 0.938480 0.364054
O O8 0.059078 0.987833 0.139530
O O9 0.601626 0.095604 0.372048
O O10 0.000000 0.500000 0.500000
O O11 0.875409 0.261523 0.186370
O O12 0.459092 0.676778 0.457201
O O13 0.469113 0.440385 0.355335
O O14 0.380961 0.664726 0.708716
O O15 0.451464 0.128129 0.030359
#
# Coordination Sequence:
#
# PCOD9044331 Si02
#       7
#     2   2   2   2   2   2   2
#     4  12  19  38  71 107 133 162 216 277 334 391
#     4  11  22  44  70  93 128 179 227 260 315 399
#     4  12  28  48  63  90 140 183 219 272 329 383
#     4  10  17  33  66  97 129 167 206 263 332 379
#     4  12  22  40  69  97 131 174 212 270 334 387
#     4  10  18  34  62 104 132 157 211 274 321 390
#     4  11  24  43  70 100 129 172 224 273 323 393
#
# _framework density 22.504646000000001
#
# number of rings (size 3 to 8) (size 9 to 14) (size 15 to 20)
#    0.000    0.857    7.143    1.714    0.000    0.571 
#    5.143    1.429    0.000    0.000    0.000    0.000 
#    0.000    0.000    0.000    0.000    0.000    0.000 
#
# Total GULP energy -78201.385621 kJ/mol
# GULP energy per Si atom -5585.813259 kJ/mol
# Density = 2.245342 g / cm^3
# Si number density = 22.504646 Si / 1000 Ang^3
#
#
#
# Elastic Constant Matrix: (Units=GPa)
#
#
# Indices 1 2 3 4 5 6 
#
# 1 92.5699 13.0527 9.9227 2.4199 6.7492 5.6574
# 2 13.0527 130.3403 38.2796 2.3837 8.9298 3.2785
# 3 9.9227 38.2796 106.0350 6.0278 24.2259 4.7322
# 4 2.4199 2.3837 6.0278 23.0809 3.0267 7.3904
# 5 6.7492 8.9298 24.2259 3.0267 26.0317 -3.7064
# 6 5.6574 3.2785 4.7322 7.3904 -3.7064 43.3046
#
#
#
# Elastic Compliance Matrix: (Units=1/GPa)
#
#
# Indices 1 2 3 4 5 6 
#
# 1 0.011237 -0.000887 -0.000007 -0.000202 -0.002808 -0.001606
# 2 -0.000887 0.008657 -0.003050 0.000055 0.000063 -0.000210
# 3 -0.000007 -0.003050 0.013311 -0.000998 -0.011513 -0.002038
# 4 -0.000202 0.000055 -0.000998 0.047034 -0.005700 -0.008383
# 5 -0.002808 0.000063 -0.011513 -0.005700 0.051495 0.007000
# 6 -0.001606 -0.000210 -0.002038 -0.008383 0.007000 0.025570
#
#
# Mechanical properties :
#
#
# Convention : Reuss Voigt Hill
#
# Bulk Modulus (GPa) = 39.49951 50.16172 44.83061
# Shear Modulus (GPa) = 28.79681 36.32947 32.56314
#
# Velocity S-wave (km/s) = 3.58102 4.02221 3.80801
# Velocity P-wave (km/s) = 5.88966 6.62637 6.26885
#
# Compressibility (1/GPa) = 0.02531677
#
# Stress axis : x y z
#
# Youngs Moduli (GPa) = 88.99510 115.51538 75.12684
#
# Poissons Ratio (x) = 0.10244 0.00050
# Poissons Ratio (y) = 0.07892 0.22916
# Poissons Ratio (z) = 0.00059 0.35235
#
# Static dielectric constant tensor:
#      x y z
#    x 1.899480 0.015190 -0.041880 
#    y 0.015190 1.807210 -0.004770 
#    z -0.041880 -0.004770 1.852640 
# 
# From -- ./inp_files/181028.got.cif
#   From: 2010.05.17/outbox.cif.g08.bks.cpg/sg2_91_cif.got.tgz:181028.got - 2010.06.03 11:33:40.
