data_PCOD9044272
_publ_section_title
;
Structure prediction by ZEFSAII (Michael W. Deem and Ramdas Pophale) SiO2 
 PCOD9044272
Probable space group: P -1
;
_chemical_formula_sum "Si O2"
_cell_formula_units_Z 12
_cell_length_a 16.742365
_cell_length_b 6.988356
_cell_length_c 5.260353
_cell_angle_alpha 109.863325
_cell_angle_beta 105.185461
_cell_angle_gamma 51.062382
_cell_volume 449.262913
_symmetry_space_group_name_H-M "P -1"
_symmetry_group_IT_number 2
_symmetry_cell_setting 'triclinic'
loop_
_space_group_symop_operation_xyz
x,y,z
-x,-y,-z
loop_
_atom_site_type_symbol
_atom_site_label
_atom_site_fract_x
_atom_site_fract_y
_atom_site_fract_z
Si Si1 0.951864 0.909811 0.225432
Si Si2 0.275647 0.787387 0.238226
Si Si3 0.562079 0.151288 0.350839
Si Si4 0.847793 0.385055 0.987832
Si Si5 0.572629 0.660015 0.175844
Si Si6 0.122299 0.286330 0.543930
O O1 0.898949 0.126638 0.070633
O O2 0.817668 0.911986 0.722074
O O3 0.000000 0.000000 0.500000
O O4 0.057272 0.651946 0.099947
O O5 0.353211 0.806580 0.482590
O O6 0.123653 0.121156 0.696813
O O7 0.236385 0.622709 0.238629
O O8 0.334243 0.622852 0.960281
O O9 0.476102 0.294691 0.566779
O O10 0.598167 0.863070 0.263252
O O11 0.513117 0.252797 0.077309
O O12 0.821243 0.594294 0.263529
O O13 0.000000 0.500000 0.500000
#
# Coordination Sequence:
#
# PCOD9044272 Si02
#       6
#     2   2   2   2   2   2
#     4  11  21  45  66  89 133 189 238 295 346 406
#     4  12  24  41  68 105 136 181 240 290 357 425
#     4  10  23  46  73 101 139 183 227 296 366 430
#     4  11  24  41  65  98 133 181 243 294 353 416
#     4  10  23  46  72 103 140 181 233 290 363 435
#     4  12  24  43  68  96 142 192 235 291 353 413
#
# _framework density 26.710418000000001
#
# number of rings (size 3 to 8) (size 9 to 14) (size 15 to 20)
#    0.000    1.000    3.333    3.500    0.000    2.667 
#    0.000    6.667    0.000    0.000    0.000    0.000 
#    0.000    0.000    0.000    0.000    0.000    0.000 
#
# Total GULP energy -67121.903936 kJ/mol
# GULP energy per Si atom -5593.491995 kJ/mol
# Density = 2.664962 g / cm^3
# Si number density = 26.710418 Si / 1000 Ang^3
#
#
#
# Elastic Constant Matrix: (Units=GPa)
#
#
# Indices 1 2 3 4 5 6 
#
# 1 121.7580 41.7900 46.0900 13.3853 38.2578 -12.6334
# 2 41.7900 97.5470 50.7703 33.9029 -2.8016 -12.5641
# 3 46.0900 50.7703 169.8483 42.2507 30.8585 -8.4194
# 4 13.3853 33.9029 42.2507 62.0144 10.6381 -5.9085
# 5 38.2578 -2.8016 30.8585 10.6381 68.4871 11.5606
# 6 -12.6334 -12.5641 -8.4194 -5.9085 11.5606 29.3591
#
#
#
# Elastic Compliance Matrix: (Units=1/GPa)
#
#
# Indices 1 2 3 4 5 6 
#
# 1 0.013961 -0.006000 -0.000653 0.003069 -0.009513 0.007616
# 2 -0.006000 0.016958 -0.002839 -0.007161 0.006458 -0.000123
# 3 -0.000653 -0.002839 0.008415 -0.003330 -0.003286 0.001541
# 4 0.003069 -0.007161 -0.003330 0.022805 -0.004679 0.003733
# 5 -0.009513 0.006458 -0.003286 -0.004679 0.024562 -0.012886
# 6 0.007616 -0.000123 0.001541 0.003733 -0.012886 0.043553
#
#
# Mechanical properties :
#
#
# Convention : Reuss Voigt Hill
#
# Bulk Modulus (GPa) = 49.13756 74.05043 61.59399
# Shear Modulus (GPa) = 32.04689 48.67232 40.35961
#
# Velocity S-wave (km/s) = 3.46756 4.27338 3.89138
# Velocity P-wave (km/s) = 5.87097 7.22029 6.58031
#
# Compressibility (1/GPa) = 0.02035103
#
# Stress axis : x y z
#
# Youngs Moduli (GPa) = 71.62618 58.96871 118.83564
#
# Poissons Ratio (x) = 0.35384 0.07754
# Poissons Ratio (y) = 0.42979 0.33735
# Poissons Ratio (z) = 0.04674 0.16740
#
# Static dielectric constant tensor:
#      x y z
#    x 2.086640 -0.165080 -0.302250 
#    y -0.165080 2.186100 -0.050340 
#    z -0.302250 -0.050340 1.537160 
# 
# From -- ./inp_files/29879.got.cif
#   From: 2010.05.17/outbox.cif.g08.bks.cpg/sg2_15_cif.got.tgz:29879.got - 2010.06.03 11:33:40.
