data_PCOD9044256
_publ_section_title
;
Structure prediction by ZEFSAII (Michael W. Deem and Ramdas Pophale) SiO2 
 PCOD9044256
Probable space group: P -1
;
_chemical_formula_sum "Si O2"
_cell_formula_units_Z 16
_cell_length_a 8.911411
_cell_length_b 11.824275
_cell_length_c 15.534427
_cell_angle_alpha 150.814332
_cell_angle_beta 91.118888
_cell_angle_gamma 101.282885
_cell_volume 718.105480
_symmetry_space_group_name_H-M "P -1"
_symmetry_group_IT_number 2
_symmetry_cell_setting 'triclinic'
loop_
_space_group_symop_operation_xyz
x,y,z
-x,-y,-z
loop_
_atom_site_type_symbol
_atom_site_label
_atom_site_fract_x
_atom_site_fract_y
_atom_site_fract_z
Si Si1 0.198476 0.657608 0.423871
Si Si2 0.358810 0.161908 0.653263
Si Si3 0.397548 0.666029 0.598792
Si Si4 0.689715 0.574709 0.872711
Si Si5 0.539334 0.167618 0.024274
Si Si6 0.217985 0.443248 0.950634
Si Si7 0.836308 0.086542 0.685231
Si Si8 0.826181 0.571953 0.399698
O O1 0.302415 0.616627 0.475160
O O2 0.185935 0.463565 0.217448
O O3 0.016300 0.621342 0.424684
O O4 0.306980 0.945720 0.581641
O O5 0.542853 0.290113 0.701761
O O6 0.338815 0.399943 0.856231
O O7 0.235405 0.029303 0.485248
O O8 0.500000 0.500000 0.500000
O O9 0.258461 0.579482 0.615182
O O10 0.521741 0.965470 0.815252
O O11 0.598745 0.730481 0.930958
O O12 0.768134 0.667951 0.029042
O O13 0.715028 0.406349 0.207583
O O14 0.500000 0.000000 0.000000
O O15 0.031283 0.276053 0.804313
O O16 0.244829 0.734443 0.159224
O O17 0.814788 0.843020 0.580084
#
# Coordination Sequence:
#
# PCOD9044256 Si02
#       8
#     2   2   2   2   2   2   2   2
#     4  12  25  45  72 105 146 189 233 302 354 421
#     4  12  24  44  71 103 148 190 236 297 351 431
#     4  11  26  49  75 103 138 186 243 296 357 426
#     4  12  25  45  68 106 143 186 243 290 359 423
#     4  10  23  46  71  99 135 185 237 293 350 422
#     4  11  25  42  69 104 145 192 233 291 356 428
#     4  11  24  44  68 107 146 182 241 286 366 416
#     4  11  24  47  73 102 144 189 236 297 355 424
#
# _framework density 22.280847999999999
#
# number of rings (size 3 to 8) (size 9 to 14) (size 15 to 20)
#    0.000    0.750    3.750    3.750    0.000    1.000 
#    2.250    3.125    0.000    0.000    0.000    0.000 
#    0.000    0.000    0.000    0.000    0.000    0.000 
#
# Total GULP energy -89550.008623 kJ/mol
# GULP energy per Si atom -5596.875539 kJ/mol
# Density = 2.223014 g / cm^3
# Si number density = 22.280848 Si / 1000 Ang^3
#
#
#
# Elastic Constant Matrix: (Units=GPa)
#
#
# Indices 1 2 3 4 5 6 
#
# 1 99.6800 40.3881 35.5102 -4.4460 -6.3637 -8.9504
# 2 40.3881 89.5282 18.2757 -5.5626 1.0666 -5.0755
# 3 35.5102 18.2757 111.4918 -6.4665 -7.2210 -3.4970
# 4 -4.4460 -5.5626 -6.4665 45.1626 -5.2429 -2.6430
# 5 -6.3637 1.0666 -7.2210 -5.2429 28.6435 -4.5283
# 6 -8.9504 -5.0755 -3.4970 -2.6430 -4.5283 33.1506
#
#
#
# Elastic Compliance Matrix: (Units=1/GPa)
#
#
# Indices 1 2 3 4 5 6 
#
# 1 0.013873 -0.005423 -0.003187 0.000782 0.003109 0.003066
# 2 -0.005423 0.013836 -0.000579 0.000925 -0.001626 0.000445
# 3 -0.003187 -0.000579 0.010323 0.001388 0.002259 0.000559
# 4 0.000782 0.000925 0.001388 0.023321 0.005244 0.003075
# 5 0.003109 -0.001626 0.002259 0.005244 0.038215 0.006467
# 6 0.003066 0.000445 0.000559 0.003075 0.006467 0.032249
#
#
# Mechanical properties :
#
#
# Convention : Reuss Voigt Hill
#
# Bulk Modulus (GPa) = 50.87381 54.33867 52.60624
# Shear Modulus (GPa) = 31.89898 35.15976 33.52937
#
# Velocity S-wave (km/s) = 3.78786 3.97675 3.88345
# Velocity P-wave (km/s) = 6.48174 6.74737 6.61589
#
# Compressibility (1/GPa) = 0.01965648
#
# Stress axis : x y z
#
# Youngs Moduli (GPa) = 72.08179 72.27487 96.86671
#
# Poissons Ratio (x) = 0.39191 0.30870
# Poissons Ratio (y) = 0.39087 0.05605
# Poissons Ratio (z) = 0.22972 0.04182
#
# Static dielectric constant tensor:
#      x y z
#    x 1.800530 -0.004070 -0.016940 
#    y -0.004070 1.825350 0.015860 
#    z -0.016940 0.015860 1.848440 
# 
# From -- ./inp_files/501239.got.cif
#   From: 2010.05.17/outbox.cif.g08.bks.cpg/sg2_251_cif.got.tgz:501239.got - 2010.06.03 11:33:40.
