data_PCOD9044203
_publ_section_title
;
Structure prediction by ZEFSAII (Michael W. Deem and Ramdas Pophale) SiO2 
 PCOD9044203
Probable space group: P -1
;
_chemical_formula_sum "Si O2"
_cell_formula_units_Z 16
_cell_length_a 22.051843
_cell_length_b 7.488949
_cell_length_c 5.010118
_cell_angle_alpha 82.401032
_cell_angle_beta 128.721614
_cell_angle_gamma 111.476636
_cell_volume 595.347631
_symmetry_space_group_name_H-M "P -1"
_symmetry_group_IT_number 2
_symmetry_cell_setting 'triclinic'
loop_
_space_group_symop_operation_xyz
x,y,z
-x,-y,-z
loop_
_atom_site_type_symbol
_atom_site_label
_atom_site_fract_x
_atom_site_fract_y
_atom_site_fract_z
Si Si1 0.409316 0.626580 0.153695
Si Si2 0.261709 0.675025 0.406619
Si Si3 0.704384 0.918917 0.373229
Si Si4 0.852005 0.122719 0.400066
Si Si5 0.273656 0.380330 0.118195
Si Si6 0.957957 0.122584 0.186247
Si Si7 0.127878 0.448219 0.444855
Si Si8 0.490475 0.187270 0.083643
O O1 0.332921 0.679516 0.814427
O O2 0.460733 0.755290 0.513619
O O3 0.355363 0.412798 0.157990
O O4 0.469581 0.646840 0.063676
O O5 0.289726 0.594293 0.239791
O O6 0.170837 0.515768 0.261572
O O7 0.264001 0.889050 0.391405
O O8 0.728629 0.755721 0.616842
O O9 0.605390 0.855396 0.108940
O O10 0.757178 0.985367 0.233979
O O11 0.893872 0.141270 0.225473
O O12 0.857738 0.340862 0.436739
O O13 0.906098 0.054843 0.782733
O O14 0.185033 0.336110 0.743925
O O15 0.032869 0.315718 0.256794
O O16 0.000000 0.000000 0.500000
O O17 0.500000 0.000000 0.000000
#
# Coordination Sequence:
#
# PCOD9044203 Si02
#       8
#     2   2   2   2   2   2   2   2
#     4  11  23  46  68 104 143 192 239 303 367 431
#     4  10  23  46  71 103 148 188 242 301 368 437
#     4  11  26  46  72 110 140 198 245 306 367 441
#     4  11  27  47  72 107 146 193 241 294 372 431
#     4  11  24  47  73 105 151 192 244 304 371 430
#     4  12  26  46  75 111 148 185 244 300 356 439
#     4  10  25  43  73 103 145 194 239 298 358 442
#     4  12  24  44  76 105 146 192 250 303 369 438
#
# _framework density 26.875053999999999
#
# number of rings (size 3 to 8) (size 9 to 14) (size 15 to 20)
#    0.000    1.000    2.500    2.250    7.000    2.000 
#    4.500    0.000    0.000    0.000    0.000    0.000 
#    0.000    0.000    0.000    0.000    0.000    0.000 
#
# Total GULP energy -89650.171331 kJ/mol
# GULP energy per Si atom -5603.135708 kJ/mol
# Density = 2.681389 g / cm^3
# Si number density = 26.875054 Si / 1000 Ang^3
#
#
#
# Elastic Constant Matrix: (Units=GPa)
#
#
# Indices 1 2 3 4 5 6 
#
# 1 186.1997 56.5577 67.7102 22.3033 5.8911 46.8530
# 2 56.5577 97.0535 46.0768 26.1105 16.5641 35.3754
# 3 67.7102 46.0768 155.9009 0.7708 2.1566 22.5435
# 4 22.3033 26.1105 0.7708 29.2168 3.4587 13.0749
# 5 5.8911 16.5641 2.1566 3.4587 48.3373 2.7641
# 6 46.8530 35.3754 22.5435 13.0749 2.7641 68.0706
#
#
#
# Elastic Compliance Matrix: (Units=1/GPa)
#
#
# Indices 1 2 3 4 5 6 
#
# 1 0.007928 -0.001308 -0.002565 -0.003348 0.000024 -0.003285
# 2 -0.001308 0.019387 -0.004307 -0.013391 -0.005049 -0.004971
# 3 -0.002565 -0.004307 0.008758 0.005450 0.001007 0.000016
# 4 -0.003348 -0.013391 0.005450 0.049379 0.001339 -0.002080
# 5 0.000024 -0.005049 0.001007 0.001339 0.022211 0.001115
# 6 -0.003285 -0.004971 0.000016 -0.002080 0.001115 0.019885
#
#
# Mechanical properties :
#
#
# Convention : Reuss Voigt Hill
#
# Bulk Modulus (GPa) = 50.72850 86.64927 68.68889
# Shear Modulus (GPa) = 33.22744 47.04556 40.13650
#
# Velocity S-wave (km/s) = 3.52002 4.18847 3.86871
# Velocity P-wave (km/s) = 5.95293 7.46342 6.75055
#
# Compressibility (1/GPa) = 0.01971278
#
# Stress axis : x y z
#
# Youngs Moduli (GPa) = 126.14166 51.58093 114.17805
#
# Poissons Ratio (x) = 0.06746 0.29290
# Poissons Ratio (y) = 0.16497 0.49176
# Poissons Ratio (z) = 0.32359 0.22216
#
# Static dielectric constant tensor:
#      x y z
#    x 2.080390 -0.023960 0.000320 
#    y -0.023960 2.150410 -0.003430 
#    z 0.000320 -0.003430 2.128320 
# 
# From -- ./inp_files/116874.got.cif
#   From: 2010.05.17/outbox.cif.g08.bks.cpg/sg2_59_cif.got.tgz:116874.got - 2010.06.03 11:33:40.
