data_PCOD9044817
_publ_section_title
;
Structure prediction by ZEFSAII (Michael W. Deem and Ramdas Pophale) SiO2 
 PCOD9044817
Probable space group: P -1
;
_chemical_formula_sum "Si O2"
_cell_formula_units_Z 14
_cell_length_a 11.387374
_cell_length_b 14.788373
_cell_length_c 11.947400
_cell_angle_alpha 162.053471
_cell_angle_beta 120.651039
_cell_angle_gamma 58.840002
_cell_volume 529.322523
_symmetry_space_group_name_H-M "P -1"
_symmetry_group_IT_number 2
_symmetry_cell_setting 'triclinic'
loop_
_space_group_symop_operation_xyz
x,y,z
-x,-y,-z
loop_
_atom_site_type_symbol
_atom_site_label
_atom_site_fract_x
_atom_site_fract_y
_atom_site_fract_z
Si Si1 0.158750 0.696599 0.994908
Si Si2 0.146826 0.041122 0.173503
Si Si3 0.859550 0.741895 0.009729
Si Si4 0.622992 0.585796 0.076764
Si Si5 0.575328 0.788765 0.877884
Si Si6 0.446116 0.873563 0.146744
Si Si7 0.849536 0.407994 0.817444
O O1 0.169141 0.380558 0.565441
O O2 0.295938 0.675297 0.113274
O O3 0.015879 0.694806 0.990476
O O4 0.136665 0.956323 0.200014
O O5 0.294628 0.853567 0.997468
O O6 0.000000 0.000000 0.000000
O O7 0.845992 0.067073 0.441830
O O8 0.734751 0.763634 0.888859
O O9 0.815127 0.481149 0.758541
O O10 0.505085 0.611041 0.952267
O O11 0.575338 0.839018 0.442955
O O12 0.751240 0.618862 0.096845
O O13 0.500000 0.500000 0.500000
O O14 0.549133 0.902935 0.128231
O O15 0.500000 0.000000 0.000000
O O16 0.000000 0.500000 0.000000
#
# Coordination Sequence:
#
# PCOD9044817 Si02
#       7
#     2   2   2   2   2   2   2
#     4  11  25  44  73 107 143 197 241 312 379 445
#     4  11  26  46  72 104 144 195 257 305 371 444
#     4  12  26  45  73 107 150 190 255 300 380 440
#     4  10  23  47  74 109 152 193 247 310 381 463
#     4  12  29  50  76 106 150 203 259 315 374 449
#     4  10  25  49  75 109 150 200 249 314 383 451
#     4  12  24  44  73 112 151 192 239 307 379 456
#
# _framework density 26.448903000000001
#
# number of rings (size 3 to 8) (size 9 to 14) (size 15 to 20)
#    0.000    0.857    2.857    2.571    6.000    2.857 
#    0.000    0.000    0.000    0.000    0.000    0.000 
#    0.000    0.000    0.000    0.000    0.000    0.000 
#
# Total GULP energy -78197.655176 kJ/mol
# GULP energy per Si atom -5585.546798 kJ/mol
# Density = 2.638870 g / cm^3
# Si number density = 26.448903 Si / 1000 Ang^3
#
#
#
# Elastic Constant Matrix: (Units=GPa)
#
#
# Indices 1 2 3 4 5 6 
#
# 1 171.0464 36.3328 18.4162 -1.2524 -2.6895 -21.4303
# 2 36.3328 171.3902 10.2154 8.4081 4.2517 -36.9744
# 3 18.4162 10.2154 82.3128 5.9238 0.3722 -17.3751
# 4 -1.2524 8.4081 5.9238 29.9548 -0.6928 10.9528
# 5 -2.6895 4.2517 0.3722 -0.6928 34.8969 -8.7402
# 6 -21.4303 -36.9744 -17.3751 10.9528 -8.7402 68.1600
#
#
#
# Elastic Compliance Matrix: (Units=1/GPa)
#
#
# Indices 1 2 3 4 5 6 
#
# 1 0.006356 -0.001063 -0.001063 0.000352 0.000942 0.001215
# 2 -0.001063 0.007130 0.000520 -0.003708 0.000039 0.004267
# 3 -0.001063 0.000520 0.013517 -0.004378 0.000671 0.004183
# 4 0.000352 -0.003708 -0.004378 0.038707 -0.001053 -0.009372
# 5 0.000942 0.000039 0.000671 -0.001053 0.029818 0.004481
# 6 0.001215 0.004267 0.004183 -0.009372 0.004481 0.020515
#
#
# Mechanical properties :
#
#
# Convention : Reuss Voigt Hill
#
# Bulk Modulus (GPa) = 42.02947 61.63091 51.83019
# Shear Modulus (GPa) = 39.31235 50.58801 44.95018
#
# Velocity S-wave (km/s) = 3.85950 4.37815 4.12698
# Velocity P-wave (km/s) = 5.98217 6.99357 6.50755
#
# Compressibility (1/GPa) = 0.02379283
#
# Stress axis : x y z
#
# Youngs Moduli (GPa) = 157.32685 140.24360 73.98023
#
# Poissons Ratio (x) = 0.14901 0.07866
# Poissons Ratio (y) = 0.16716 -0.03849
# Poissons Ratio (z) = 0.16728 -0.07297
#
# Static dielectric constant tensor:
#      x y z
#    x 2.105150 -0.027750 0.012660 
#    y -0.027750 2.249630 -0.003720 
#    z 0.012660 -0.003720 2.125410 
# 
# From -- ./inp_files/434395.got.cif
#   From: 2010.05.17/outbox.cif.g08.bks.cpg/sg2_218_cif.got.tgz:434395.got - 2010.06.03 11:33:40.
