data_PCOD9044141
_publ_section_title
;
Structure prediction by ZEFSAII (Michael W. Deem and Ramdas Pophale) SiO2 
 PCOD9044141
Probable space group: P -1
;
_chemical_formula_sum "Si O2"
_cell_formula_units_Z 10
_cell_length_a 11.100710
_cell_length_b 5.284794
_cell_length_c 11.252106
_cell_angle_alpha 79.675001
_cell_angle_beta 142.093966
_cell_angle_gamma 82.791432
_cell_volume 357.974057
_symmetry_space_group_name_H-M "P -1"
_symmetry_group_IT_number 2
_symmetry_cell_setting 'triclinic'
loop_
_space_group_symop_operation_xyz
x,y,z
-x,-y,-z
loop_
_atom_site_type_symbol
_atom_site_label
_atom_site_fract_x
_atom_site_fract_y
_atom_site_fract_z
Si Si1 0.867111 0.843511 0.852676
Si Si2 0.232075 0.248776 0.730138
Si Si3 0.496855 0.331782 0.627826
Si Si4 0.875545 0.782686 0.594052
Si Si5 0.667675 0.281505 0.015039
O O1 0.837847 0.922472 0.683416
O O2 0.634258 0.996104 0.726000
O O3 0.000000 0.500000 0.000000
O O4 0.000000 0.000000 0.000000
O O5 0.247822 0.057003 0.636766
O O6 0.430285 0.337025 0.878704
O O7 0.000000 0.500000 0.500000
O O8 0.225226 0.061509 0.850661
O O9 0.500000 0.500000 0.500000
O O10 0.250355 0.412674 0.467441
O O11 0.616486 0.375669 0.831683
O O12 0.137346 0.647045 0.796475
#
# Coordination Sequence:
#
# PCOD9044141 Si02
#       5
#     2   2   2   2   2
#     4  12  26  47  75 113 159 206 258 327 401 469
#     4  10  24  45  71 105 149 203 260 325 395 468
#     4  11  25  47  76 114 158 207 264 321 397 483
#     4  11  24  43  74 109 148 205 259 318 396 467
#     4  10  23  46  70 106 152 196 264 326 389 471
#
# _framework density 27.934982999999999
#
# number of rings (size 3 to 8) (size 9 to 14) (size 15 to 20)
#    0.000    1.200    2.000    2.400    2.800    4.000 
#    3.600    0.000    0.000    0.000    0.000    0.000 
#    0.000    0.000    0.000    0.000    0.000    0.000 
#
# Total GULP energy -55904.248423 kJ/mol
# GULP energy per Si atom -5590.424842 kJ/mol
# Density = 2.787140 g / cm^3
# Si number density = 27.934983 Si / 1000 Ang^3
#
#
#
# Elastic Constant Matrix: (Units=GPa)
#
#
# Indices 1 2 3 4 5 6 
#
# 1 130.4495 27.4094 66.0221 -6.1939 34.5388 28.1509
# 2 27.4094 120.8273 73.6277 2.5270 17.3060 25.0101
# 3 66.0221 73.6277 205.5138 41.2789 19.1955 36.5094
# 4 -6.1939 2.5270 41.2789 72.7624 -0.1724 3.0308
# 5 34.5388 17.3060 19.1955 -0.1724 74.2800 -1.8524
# 6 28.1509 25.0101 36.5094 3.0308 -1.8524 43.5622
#
#
#
# Elastic Compliance Matrix: (Units=1/GPa)
#
#
# Indices 1 2 3 4 5 6 
#
# 1 0.011897 0.001256 -0.003347 0.003107 -0.005103 -0.006038
# 2 0.001256 0.011632 -0.004003 0.002151 -0.002364 -0.004385
# 3 -0.003347 -0.004003 0.008838 -0.005052 0.000129 -0.002589
# 4 0.003107 0.002151 -0.005052 0.016806 -0.000607 -0.000204
# 5 -0.005103 -0.002364 0.000129 -0.000607 0.016484 0.005290
# 6 -0.006038 -0.004385 -0.002589 -0.000204 0.005290 0.031784
#
#
# Mechanical properties :
#
#
# Convention : Reuss Voigt Hill
#
# Bulk Modulus (GPa) = 49.55514 87.87876 68.71695
# Shear Modulus (GPa) = 42.97204 57.43635 50.20419
#
# Velocity S-wave (km/s) = 3.92636 4.53931 4.24392
# Velocity P-wave (km/s) = 6.19136 7.68117 6.97615
#
# Compressibility (1/GPa) = 0.02017954
#
# Stress axis : x y z
#
# Youngs Moduli (GPa) = 84.05149 85.97021 113.15077
#
# Poissons Ratio (x) = -0.10801 0.37873
# Poissons Ratio (y) = -0.10560 0.45295
# Poissons Ratio (z) = 0.28133 0.34415
#
# Static dielectric constant tensor:
#      x y z
#    x 2.321470 -0.167640 0.057280 
#    y -0.167640 2.245840 0.018030 
#    z 0.057280 0.018030 2.169080 
# 
# From -- ./inp_files/407697.got.cif
#   From: 2010.05.17/outbox.cif.g08.bks.cpg/sg2_204_cif.got.tgz:407697.got - 2010.06.03 11:33:40.
