data_PCOD9044384
_publ_section_title
;
Structure prediction by ZEFSAII (Michael W. Deem and Ramdas Pophale) SiO2 
 PCOD9044384
Probable space group: P -1
;
_chemical_formula_sum "Si O2"
_cell_formula_units_Z 14
_cell_length_a 16.859388
_cell_length_b 8.539338
_cell_length_c 10.785902
_cell_angle_alpha 133.335426
_cell_angle_beta 28.625336
_cell_angle_gamma 138.141961
_cell_volume 493.840732
_symmetry_space_group_name_H-M "P -1"
_symmetry_group_IT_number 2
_symmetry_cell_setting 'triclinic'
loop_
_space_group_symop_operation_xyz
x,y,z
-x,-y,-z
loop_
_atom_site_type_symbol
_atom_site_label
_atom_site_fract_x
_atom_site_fract_y
_atom_site_fract_z
Si Si1 0.500000 0.500000 0.000000
Si Si2 0.067488 0.967493 0.652957
Si Si3 0.645390 0.866906 0.453282
Si Si4 0.885210 0.295778 0.201143
Si Si5 0.767833 0.896321 0.752257
Si Si6 0.770462 0.304472 0.099602
Si Si7 0.272165 0.447550 0.032447
Si Si8 0.500000 0.000000 0.000000
O O1 0.399895 0.426369 0.957613
O O2 0.702177 0.625218 0.727409
O O3 0.274487 0.072178 0.483449
O O4 0.086905 0.004441 0.499933
O O5 0.982436 0.127236 0.926561
O O6 0.937299 0.702447 0.722161
O O7 0.431103 0.732616 0.673955
O O8 0.706854 0.698242 0.194980
O O9 0.729562 0.125509 0.413186
O O10 0.806569 0.375089 0.232004
O O11 0.062756 0.524334 0.119305
O O12 0.589018 0.911857 0.944859
O O13 0.777323 0.051744 0.942542
O O14 0.335493 0.722346 0.065657
#
# Coordination Sequence:
#
# PCOD9044384 Si02
#       8
#     1   2   2   2   2   2   2   1
#     4  10  24  44  68  98 142 192 238 296 364 440
#     4  11  25  45  76 105 148 193 245 306 371 442
#     4  11  24  46  77 106 149 198 241 305 372 447
#     4  10  24  45  69 113 141 193 248 303 368 438
#     4  11  24  45  67 106 141 191 242 302 370 434
#     4  11  25  44  72 103 151 192 248 304 365 443
#     4  10  23  46  73 110 148 194 251 301 375 439
#     4  10  24  40  66 106 144 182 244 296 362 436
#
# _framework density 28.349222000000001
#
# number of rings (size 3 to 8) (size 9 to 14) (size 15 to 20)
#    0.000    1.429    0.000    4.714    8.000    3.429 
#   10.286    0.000    0.000    0.000    0.000    0.000 
#    0.000    0.000    0.000    0.000    0.000    0.000 
#
# Total GULP energy -77956.069333 kJ/mol
# GULP energy per Si atom -5568.290667 kJ/mol
# Density = 2.828470 g / cm^3
# Si number density = 28.349222 Si / 1000 Ang^3
#
#
#
# Elastic Constant Matrix: (Units=GPa)
#
#
# Indices 1 2 3 4 5 6 
#
# 1 118.0116 18.9887 19.6772 -8.3693 6.5843 35.5181
# 2 18.9887 186.5302 42.7657 -49.6132 16.6919 4.9041
# 3 19.6772 42.7657 95.3908 -39.2886 6.0145 9.8998
# 4 -8.3693 -49.6132 -39.2886 65.5727 3.7351 4.6717
# 5 6.5843 16.6919 6.0145 3.7351 58.9126 -10.9761
# 6 35.5181 4.9041 9.8998 4.6717 -10.9761 35.5910
#
#
#
# Elastic Compliance Matrix: (Units=1/GPa)
#
#
# Indices 1 2 3 4 5 6 
#
# 1 0.013602 0.000324 0.000500 0.003676 -0.004827 -0.015729
# 2 0.000324 0.007274 -0.000556 0.005577 -0.002916 -0.002802
# 3 0.000500 -0.000556 0.015559 0.009664 -0.003417 -0.007072
# 4 0.003676 0.005577 0.009664 0.027050 -0.007089 -0.012862
# 5 -0.004827 -0.002916 -0.003417 -0.007089 0.021708 0.013794
# 6 -0.015729 -0.002802 -0.007072 -0.012862 0.013794 0.052090
#
#
# Mechanical properties :
#
#
# Convention : Reuss Voigt Hill
#
# Bulk Modulus (GPa) = 27.04860 62.53289 44.79074
# Shear Modulus (GPa) = 33.54112 53.24866 43.39489
#
# Velocity S-wave (km/s) = 3.44341 4.33865 3.91669
# Velocity P-wave (km/s) = 5.03700 6.87055 6.02395
#
# Compressibility (1/GPa) = 0.03697049
#
# Stress axis : x y z
#
# Youngs Moduli (GPa) = 73.51684 137.48333 64.27108
#
# Poissons Ratio (x) = -0.04454 -0.03212
# Poissons Ratio (y) = -0.02382 0.03573
# Poissons Ratio (z) = -0.03674 0.07643
#
# Static dielectric constant tensor:
#      x y z
#    x 2.235380 -0.020270 -0.075670 
#    y -0.020270 2.234020 -0.079520 
#    z -0.075670 -0.079520 1.893940 
# 
# From -- ./inp_files/462424.got.cif
#   From: 2010.05.17/outbox.cif.g08.bks.cpg/sg2_232_cif.got.tgz:462424.got - 2010.06.03 11:33:40.
