data_PCOD9044896
_publ_section_title
;
Structure prediction by ZEFSAII (Michael W. Deem and Ramdas Pophale) SiO2 
 PCOD9044896
Probable space group: P -1
;
_chemical_formula_sum "Si O2"
_cell_formula_units_Z 16
_cell_length_a 10.806884
_cell_length_b 8.401892
_cell_length_c 9.918915
_cell_angle_alpha 88.442555
_cell_angle_beta 55.581905
_cell_angle_gamma 94.591305
_cell_volume 737.691090
_symmetry_space_group_name_H-M "P -1"
_symmetry_group_IT_number 2
_symmetry_cell_setting 'triclinic'
loop_
_space_group_symop_operation_xyz
x,y,z
-x,-y,-z
loop_
_atom_site_type_symbol
_atom_site_label
_atom_site_fract_x
_atom_site_fract_y
_atom_site_fract_z
Si Si1 0.742781 0.304656 0.369841
Si Si2 0.377960 0.618770 0.043908
Si Si3 0.864460 0.020946 0.183623
Si Si4 0.085746 0.117624 0.550371
Si Si5 0.461187 0.153328 0.689103
Si Si6 0.429380 0.172324 0.259218
Si Si7 0.126802 0.646281 0.410111
Si Si8 0.380080 0.507387 0.773588
O O1 0.836615 0.205896 0.212868
O O2 0.582756 0.195732 0.494856
O O3 0.820068 0.314113 0.469525
O O4 0.707549 0.466812 0.312481
O O5 0.273572 0.624002 0.235207
O O6 0.500000 0.500000 0.000000
O O7 0.478219 0.783907 0.937012
O O8 0.291119 0.544555 0.964701
O O9 0.894718 0.960055 0.315980
O O10 0.708257 0.920540 0.237607
O O11 0.000000 0.000000 0.000000
O O12 0.249946 0.171906 0.383370
O O13 0.964164 0.241229 0.628921
O O14 0.000000 0.000000 0.500000
O O15 0.441170 0.334552 0.750116
O O16 0.531022 0.005248 0.722878
O O17 0.493876 0.335094 0.298974
O O18 0.000000 0.500000 0.500000
#
# Coordination Sequence:
#
# PCOD9044896 Si02
#       8
#     2   2   2   2   2   2   2   2
#     4  12  24  50  71 108 144 199 254 297 368 456
#     4  10  23  48  72 108 152 186 251 308 365 442
#     4  12  27  45  72 107 152 186 246 313 375 438
#     4  12  25  48  69 104 149 197 243 300 383 448
#     4  12  23  46  79 107 141 198 251 304 369 443
#     4  10  23  47  79 103 151 190 251 312 361 443
#     4  12  28  45  73 106 156 197 238 310 383 440
#     4  10  25  43  80 110 139 186 265 302 363 433
#
# _framework density 21.689295000000001
#
# number of rings (size 3 to 8) (size 9 to 14) (size 15 to 20)
#    0.750    0.000    3.750    3.000    7.000    1.000 
#    4.500    4.375    0.000    0.000    0.000    0.000 
#    0.000    0.000    0.000    0.000    0.000    0.000 
#
# Total GULP energy -89132.341357 kJ/mol
# GULP energy per Si atom -5570.771335 kJ/mol
# Density = 2.163993 g / cm^3
# Si number density = 21.689295 Si / 1000 Ang^3
#
#
#
# Elastic Constant Matrix: (Units=GPa)
#
#
# Indices 1 2 3 4 5 6 
#
# 1 97.6925 31.3571 45.0842 -1.3877 -17.7003 -0.8555
# 2 31.3571 117.9491 37.6920 12.1047 -4.2296 -15.5686
# 3 45.0842 37.6920 142.7218 14.2128 -9.6558 11.1213
# 4 -1.3877 12.1047 14.2128 28.3079 -7.9409 -2.4847
# 5 -17.7003 -4.2296 -9.6558 -7.9409 27.6720 -2.4452
# 6 -0.8555 -15.5686 11.1213 -2.4847 -2.4452 33.8197
#
#
#
# Elastic Compliance Matrix: (Units=1/GPa)
#
#
# Indices 1 2 3 4 5 6 
#
# 1 0.014926 -0.002783 -0.004134 0.006894 0.009806 0.001671
# 2 -0.002783 0.010929 -0.002152 -0.003670 -0.001446 0.005294
# 3 -0.004134 -0.002152 0.009644 -0.004946 -0.001445 -0.004735
# 4 0.006894 -0.003670 -0.004946 0.044389 0.015257 0.004476
# 5 0.009806 -0.001446 -0.001445 0.015257 0.046464 0.004538
# 6 0.001671 0.005294 -0.004735 0.004476 0.004538 0.034262
#
#
# Mechanical properties :
#
#
# Convention : Reuss Voigt Hill
#
# Bulk Modulus (GPa) = 57.59282 65.18111 61.38696
# Shear Modulus (GPa) = 27.09449 34.24192 30.66820
#
# Velocity S-wave (km/s) = 3.53825 3.97766 3.76437
# Velocity P-wave (km/s) = 6.58054 7.15633 6.87447
#
# Compressibility (1/GPa) = 0.01736328
#
# Stress axis : x y z
#
# Youngs Moduli (GPa) = 66.99640 91.49618 103.68647
#
# Poissons Ratio (x) = 0.25459 0.42859
# Poissons Ratio (y) = 0.18642 0.22317
# Poissons Ratio (z) = 0.27693 0.19693
#
# Static dielectric constant tensor:
#      x y z
#    x 1.853090 0.018370 0.081700 
#    y 0.018370 1.796310 0.006120 
#    z 0.081700 0.006120 1.785280 
# 
# From -- ./inp_files/417283.got.cif
#   From: 2010.05.17/outbox.cif.g08.bks.cpg/sg2_209_cif.got.tgz:417283.got - 2010.06.03 11:33:40.
