data_PCOD9044060
_publ_section_title
;
Structure prediction by ZEFSAII (Michael W. Deem and Ramdas Pophale) SiO2 
 PCOD9044060
Probable space group: P -1
;
_chemical_formula_sum "Si O2"
_cell_formula_units_Z 16
_cell_length_a 15.587615
_cell_length_b 11.772567
_cell_length_c 11.710140
_cell_angle_alpha 71.574376
_cell_angle_beta 37.083159
_cell_angle_gamma 100.091152
_cell_volume 817.178923
_symmetry_space_group_name_H-M "P -1"
_symmetry_group_IT_number 2
_symmetry_cell_setting 'triclinic'
loop_
_space_group_symop_operation_xyz
x,y,z
-x,-y,-z
loop_
_atom_site_type_symbol
_atom_site_label
_atom_site_fract_x
_atom_site_fract_y
_atom_site_fract_z
Si Si1 0.771491 0.910335 0.581406
Si Si2 0.717999 0.365646 0.827737
Si Si3 0.479082 0.454240 0.362357
Si Si4 0.295242 0.379011 0.174450
Si Si5 0.974019 0.690702 0.092666
Si Si6 0.909806 0.675600 0.906733
Si Si7 0.061413 0.531353 0.224275
Si Si8 0.217940 0.075581 0.706198
O O1 0.834980 0.824251 0.599220
O O2 0.766081 0.891963 0.456099
O O3 0.524411 0.783481 0.911714
O O4 0.928940 0.119130 0.370127
O O5 0.800062 0.553359 0.707910
O O6 0.742835 0.322321 0.941022
O O7 0.864317 0.400467 0.564308
O O8 0.262042 0.396625 0.610050
O O9 0.404001 0.268212 0.505977
O O10 0.605389 0.555606 0.077449
O O11 0.675596 0.589412 0.198578
O O12 0.500000 0.500000 0.000000
O O13 0.010205 0.604356 0.166646
O O14 0.979143 0.668634 0.958592
O O15 0.168508 0.906882 0.837318
O O16 0.906161 0.567674 0.852554
O O17 0.000000 0.000000 0.000000
#
# Coordination Sequence:
#
# PCOD9044060 Si02
#       8
#     2   2   2   2   2   2   2   2
#     4  10  20  36  58  88 118 149 194 239 301 335
#     4  10  21  38  63  84 115 151 198 253 276 343
#     4  11  19  38  60  88 117 150 197 244 293 330
#     4  10  17  33  63  85 109 147 189 251 283 331
#     4  10  22  37  61  85 118 158 194 232 294 354
#     4  11  23  39  57  86 127 156 186 239 288 361
#     4  11  22  40  60  86 116 159 196 231 300 340
#     4   9  18  32  56  86 112 145 193 246 276 330
#
# _framework density 19.579556
#
# number of rings (size 3 to 8) (size 9 to 14) (size 15 to 20)
#    0.000    1.750    3.750    2.250    1.750    1.000 
#    0.000    6.875    2.750    0.000    0.000    0.000 
#    0.000    0.000    0.000    0.000    0.000    0.000 
#
# Total GULP energy -89141.280541 kJ/mol
# GULP energy per Si atom -5571.330034 kJ/mol
# Density = 1.953499 g / cm^3
# Si number density = 19.579556 Si / 1000 Ang^3
#
#
#
# Elastic Constant Matrix: (Units=GPa)
#
#
# Indices 1 2 3 4 5 6 
#
# 1 89.8888 34.7145 20.9154 -18.1308 6.0215 -19.7920
# 2 34.7145 74.7614 46.3116 -3.7302 3.8182 -10.8971
# 3 20.9154 46.3116 86.9742 -9.2336 -0.7285 -12.8418
# 4 -18.1308 -3.7302 -9.2336 34.3379 2.9207 -0.0429
# 5 6.0215 3.8182 -0.7285 2.9207 24.7510 -1.1672
# 6 -19.7920 -10.8971 -12.8418 -0.0429 -1.1672 20.3777
#
#
#
# Elastic Compliance Matrix: (Units=1/GPa)
#
#
# Indices 1 2 3 4 5 6 
#
# 1 0.019428 -0.007736 0.002957 0.010567 -0.003920 0.016394
# 2 -0.007736 0.023665 -0.011563 -0.004483 -0.001686 -0.002251
# 3 0.002957 -0.011563 0.018785 0.005248 0.001405 0.008618
# 4 0.010567 -0.004483 0.005248 0.036105 -0.005470 0.010936
# 5 -0.003920 -0.001686 0.001405 -0.005470 0.042236 -0.001416
# 6 0.016394 -0.002251 0.008618 0.010936 -0.001416 0.069165
#
#
# Mechanical properties :
#
#
# Convention : Reuss Voigt Hill
#
# Bulk Modulus (GPa) = 34.25414 50.61193 42.43304
# Shear Modulus (GPa) = 19.85706 25.87218 22.86462
#
# Velocity S-wave (km/s) = 3.18806 3.63903 3.42099
# Velocity P-wave (km/s) = 5.57535 6.60017 6.10929
#
# Compressibility (1/GPa) = 0.02919355
#
# Stress axis : x y z
#
# Youngs Moduli (GPa) = 51.47231 42.25633 53.23365
#
# Poissons Ratio (x) = 0.32688 -0.15739
# Poissons Ratio (y) = 0.39817 0.61555
# Poissons Ratio (z) = -0.15218 0.48862
#
# Static dielectric constant tensor:
#      x y z
#    x 1.772560 -0.026220 -0.071230 
#    y -0.026220 1.767920 0.112670 
#    z -0.071230 0.112670 2.077270 
# 
# From -- ./inp_files/354400.got.cif
#   From: 2010.05.17/outbox.cif.g08.bks.cpg/sg2_178_cif.got.tgz:354400.got - 2010.06.03 11:33:40.
