data_PCOD9044167
_publ_section_title
;
Structure prediction by ZEFSAII (Michael W. Deem and Ramdas Pophale) SiO2 
 PCOD9044167
Probable space group: P -1
;
_chemical_formula_sum "Si O2"
_cell_formula_units_Z 16
_cell_length_a 12.025780
_cell_length_b 11.534123
_cell_length_c 6.563946
_cell_angle_alpha 81.026487
_cell_angle_beta 51.381911
_cell_angle_gamma 91.885045
_cell_volume 692.581810
_symmetry_space_group_name_H-M "P -1"
_symmetry_group_IT_number 2
_symmetry_cell_setting 'triclinic'
loop_
_space_group_symop_operation_xyz
x,y,z
-x,-y,-z
loop_
_atom_site_type_symbol
_atom_site_label
_atom_site_fract_x
_atom_site_fract_y
_atom_site_fract_z
Si Si1 0.221356 0.270658 0.990080
Si Si2 0.123170 0.754098 0.080449
Si Si3 0.515867 0.837260 0.214543
Si Si4 0.881067 0.582548 0.592399
Si Si5 0.279793 0.925705 0.194353
Si Si6 0.955894 0.084143 0.207368
Si Si7 0.615868 0.353613 0.290192
Si Si8 0.355695 0.448189 0.447635
O O1 0.155677 0.367973 0.163332
O O2 0.102178 0.153308 0.124567
O O3 0.361658 0.241822 0.957720
O O4 0.276170 0.334765 0.700130
O O5 0.185829 0.848567 0.153478
O O6 0.964058 0.695847 0.342561
O O7 0.114611 0.815735 0.857016
O O8 0.229796 0.658410 0.969763
O O9 0.383080 0.846594 0.214684
O O10 0.453430 0.778910 0.514671
O O11 0.610789 0.968797 0.068121
O O12 0.741039 0.531676 0.637207
O O13 0.000000 0.500000 0.500000
O O14 0.166961 0.968325 0.473466
O O15 0.000000 0.000000 0.000000
O O16 0.511094 0.410307 0.244697
O O17 0.627721 0.438261 0.452379
#
# Coordination Sequence:
#
# PCOD9044167 Si02
#       8
#     2   2   2   2   2   2   2   2
#     4  11  24  46  67 103 136 179 227 279 343 410
#     4  12  25  43  70 100 137 184 221 286 343 405
#     4  10  24  45  69  95 141 178 227 287 328 402
#     4  12  27  41  71 104 136 181 224 282 346 408
#     4  11  25  46  67 104 136 176 232 284 337 408
#     4  12  26  45  72 100 139 181 224 282 348 410
#     4  10  23  46  70  98 137 186 229 280 337 404
#     4  10  24  46  69 100 140 177 228 283 337 406
#
# _framework density 23.101960999999999
#
# number of rings (size 3 to 8) (size 9 to 14) (size 15 to 20)
#    0.000    1.000    3.750    1.500    7.000    2.500 
#    6.750    2.500    0.000    0.000    0.000    0.000 
#    0.000    0.000    0.000    0.000    0.000    0.000 
#
# Total GULP energy -89473.730907 kJ/mol
# GULP energy per Si atom -5592.108182 kJ/mol
# Density = 2.304938 g / cm^3
# Si number density = 23.101961 Si / 1000 Ang^3
#
#
#
# Elastic Constant Matrix: (Units=GPa)
#
#
# Indices 1 2 3 4 5 6 
#
# 1 134.1180 17.2281 29.9457 -4.2684 -3.1956 -0.5713
# 2 17.2281 38.6780 9.1658 -10.2888 0.9619 2.4014
# 3 29.9457 9.1658 80.1988 -16.1901 -20.1699 5.7773
# 4 -4.2684 -10.2888 -16.1901 30.6583 -3.6194 -2.9900
# 5 -3.1956 0.9619 -20.1699 -3.6194 28.6461 -2.0049
# 6 -0.5713 2.4014 5.7773 -2.9900 -2.0049 36.3129
#
#
#
# Elastic Compliance Matrix: (Units=1/GPa)
#
#
# Indices 1 2 3 4 5 6 
#
# 1 0.008637 -0.003517 -0.003741 -0.002094 -0.001768 0.000694
# 2 -0.003517 0.030043 -0.000295 0.009252 -0.000528 -0.001263
# 3 -0.003741 -0.000295 0.020180 0.011687 0.015177 -0.001450
# 4 -0.002094 0.009252 0.011687 0.043347 0.013288 0.001799
# 5 -0.001768 -0.000528 0.015177 0.013288 0.047185 0.001292
# 6 0.000694 -0.001263 -0.001450 0.001799 0.001292 0.028083
#
#
# Mechanical properties :
#
#
# Convention : Reuss Voigt Hill
#
# Bulk Modulus (GPa) = 22.85365 40.63046 31.74205
# Shear Modulus (GPa) = 24.13535 32.23380 28.18457
#
# Velocity S-wave (km/s) = 3.23574 3.73940 3.49665
# Velocity P-wave (km/s) = 4.88610 6.02244 5.48378
#
# Compressibility (1/GPa) = 0.04375669
#
# Stress axis : x y z
#
# Youngs Moduli (GPa) = 115.77739 33.28517 49.55361
#
# Poissons Ratio (x) = 0.11706 0.18536
# Poissons Ratio (y) = 0.40719 0.01459
# Poissons Ratio (z) = 0.43307 0.00980
#
# Static dielectric constant tensor:
#      x y z
#    x 1.841920 -0.034810 -0.018390 
#    y -0.034810 1.873280 -0.050480 
#    z -0.018390 -0.050480 1.866280 
# 
# From -- ./inp_files/69626.got.cif
#   From: 2010.05.17/outbox.cif.g08.bks.cpg/sg2_35_cif.got.tgz:69626.got - 2010.06.03 11:33:40.
