data_PCOD9044708
_publ_section_title
;
Structure prediction by ZEFSAII (Michael W. Deem and Ramdas Pophale) SiO2 
 PCOD9044708
Probable space group: P -1
;
_chemical_formula_sum "Si O2"
_cell_formula_units_Z 16
_cell_length_a 14.685261
_cell_length_b 13.846828
_cell_length_c 7.789451
_cell_angle_alpha 99.539949
_cell_angle_beta 124.568800
_cell_angle_gamma 36.957775
_cell_volume 638.219725
_symmetry_space_group_name_H-M "P -1"
_symmetry_group_IT_number 2
_symmetry_cell_setting 'triclinic'
loop_
_space_group_symop_operation_xyz
x,y,z
-x,-y,-z
loop_
_atom_site_type_symbol
_atom_site_label
_atom_site_fract_x
_atom_site_fract_y
_atom_site_fract_z
Si Si1 0.743021 0.720909 0.827129
Si Si2 0.733428 0.097731 0.572847
Si Si3 0.911804 0.765675 0.558646
Si Si4 0.997738 0.167522 0.632568
Si Si5 0.392115 0.313373 0.010126
Si Si6 0.819923 0.162075 0.146367
Si Si7 0.444266 0.126398 0.701411
Si Si8 0.452154 0.455058 0.578974
O O1 0.664822 0.716507 0.903130
O O2 0.624106 0.791092 0.539224
O O3 0.666793 0.889611 0.847391
O O4 0.000000 0.500000 0.000000
O O5 0.600644 0.211602 0.282781
O O6 0.563737 0.270042 0.577691
O O7 0.811668 0.926097 0.622064
O O8 0.961067 0.983050 0.775995
O O9 0.908875 0.818622 0.384147
O O10 0.753626 0.794106 0.418458
O O11 0.168520 0.546655 0.808847
O O12 0.868126 0.191683 0.372754
O O13 0.808467 0.353489 0.609942
O O14 0.166058 0.964961 0.846785
O O15 0.444557 0.212228 0.865510
O O16 0.594581 0.367974 0.875331
O O17 0.500000 0.500000 0.500000
#
# Coordination Sequence:
#
# PCOD9044708 Si02
#       8
#     2   2   2   2   2   2   2   2
#     4  11  24  45  77 107 141 197 249 302 375 434
#     4  11  26  42  70 106 143 192 237 304 368 431
#     4  11  25  45  71 106 144 195 244 296 362 443
#     4  10  24  43  72 104 140 189 246 296 373 442
#     4  12  26  47  75 105 155 194 248 306 371 444
#     4  10  23  47  71  99 143 191 241 297 373 444
#     4  11  25  49  75 107 150 199 245 307 370 443
#     4  12  25  44  75 103 143 191 243 308 374 433
#
# _framework density 25.069734
#
# number of rings (size 3 to 8) (size 9 to 14) (size 15 to 20)
#    0.000    1.000    3.750    1.500    3.500    4.000 
#    0.000    1.250    0.000    0.000    0.000    0.000 
#    0.000    0.000    0.000    0.000    0.000    0.000 
#
# Total GULP energy -89650.741453 kJ/mol
# GULP energy per Si atom -5603.171341 kJ/mol
# Density = 2.501267 g / cm^3
# Si number density = 25.069734 Si / 1000 Ang^3
#
#
#
# Elastic Constant Matrix: (Units=GPa)
#
#
# Indices 1 2 3 4 5 6 
#
# 1 99.5597 25.3503 23.5489 -1.4869 -2.6373 -9.4969
# 2 25.3503 145.5141 39.3547 -8.6450 5.5281 -12.2974
# 3 23.5489 39.3547 136.7761 -17.7955 -12.3169 8.8395
# 4 -1.4869 -8.6450 -17.7955 50.8774 -3.4846 2.4829
# 5 -2.6373 5.5281 -12.3169 -3.4846 32.2724 -0.4110
# 6 -9.4969 -12.2974 8.8395 2.4829 -0.4110 31.4903
#
#
#
# Elastic Compliance Matrix: (Units=1/GPa)
#
#
# Indices 1 2 3 4 5 6 
#
# 1 0.011116 -0.001199 -0.001845 -0.000667 0.000382 0.003459
# 2 -0.001199 0.008173 -0.002575 0.000116 -0.002424 0.003512
# 3 -0.001845 -0.002575 0.009467 0.003324 0.004206 -0.004427
# 4 -0.000667 0.000116 0.003324 0.021186 0.003447 -0.002715
# 5 0.000382 -0.002424 0.004206 0.003447 0.033387 -0.001848
# 6 0.003459 0.003512 -0.004427 -0.002715 -0.001848 0.035603
#
#
# Mechanical properties :
#
#
# Convention : Reuss Voigt Hill
#
# Bulk Modulus (GPa) = 57.08561 62.03971 59.56266
# Shear Modulus (GPa) = 36.76158 42.50108 39.63133
#
# Velocity S-wave (km/s) = 3.83348 4.12189 3.98030
# Velocity P-wave (km/s) = 6.51262 6.88867 6.70329
#
# Compressibility (1/GPa) = 0.01751755
#
# Stress axis : x y z
#
# Youngs Moduli (GPa) = 89.95957 122.34721 105.62778
#
# Poissons Ratio (x) = 0.14675 0.19485
# Poissons Ratio (y) = 0.10790 0.27204
# Poissons Ratio (z) = 0.16595 0.31510
#
# Static dielectric constant tensor:
#      x y z
#    x 2.025780 -0.005980 0.029250 
#    y -0.005980 1.984960 0.024220 
#    z 0.029250 0.024220 1.999430 
# 
# From -- ./inp_files/336270.got.cif
#   From: 2010.05.17/outbox.cif.g08.bks.cpg/sg2_169_cif.got.tgz:336270.got - 2010.06.03 11:33:40.
