data_PCOD9044761
_publ_section_title
;
Structure prediction by ZEFSAII (Michael W. Deem and Ramdas Pophale) SiO2 
 PCOD9044761
Probable space group: P -1
;
_chemical_formula_sum "Si O2"
_cell_formula_units_Z 14
_cell_length_a 13.345677
_cell_length_b 5.201987
_cell_length_c 15.700996
_cell_angle_alpha 60.588326
_cell_angle_beta 143.661644
_cell_angle_gamma 109.676688
_cell_volume 558.979505
_symmetry_space_group_name_H-M "P -1"
_symmetry_group_IT_number 2
_symmetry_cell_setting 'triclinic'
loop_
_space_group_symop_operation_xyz
x,y,z
-x,-y,-z
loop_
_atom_site_type_symbol
_atom_site_label
_atom_site_fract_x
_atom_site_fract_y
_atom_site_fract_z
Si Si1 0.602870 0.201488 0.157843
Si Si2 0.089287 0.790295 0.519883
Si Si3 0.792862 0.548563 0.616343
Si Si4 0.426234 0.882180 0.558578
Si Si5 0.631816 0.305109 0.867733
Si Si6 0.116129 0.788696 0.790252
Si Si7 0.114753 0.709571 0.096939
O O1 0.715992 0.267803 0.306959
O O2 0.739542 0.126942 0.188684
O O3 0.495067 0.929980 0.149469
O O4 0.500000 0.500000 0.000000
O O5 0.000000 0.500000 0.500000
O O6 0.000000 0.000000 0.500000
O O7 0.034577 0.945497 0.367926
O O8 0.710464 0.322964 0.537254
O O9 0.811379 0.455297 0.742091
O O10 0.991201 0.542580 0.722847
O O11 0.656675 0.845840 0.483812
O O12 0.551989 0.641206 0.737132
O O13 0.500000 0.000000 0.500000
O O14 0.729560 0.199370 0.866299
O O15 0.782879 0.294629 0.042050
O O16 0.000000 0.500000 0.000000
O O17 0.000000 0.000000 0.000000
#
# Coordination Sequence:
#
# PCOD9044761 Si02
#       7
#     2   2   2   2   2   2   2
#     4  11  26  47  77 119 160 203 260 326 395 470
#     4  10  23  47  73 101 148 199 248 304 370 460
#     4  12  27  49  78 109 155 208 260 321 393 471
#     4  12  28  51  76 115 157 202 266 331 393 459
#     4  12  27  48  79 117 156 210 259 336 396 459
#     4  11  26  46  75 114 153 205 259 313 390 477
#     4  12  27  48  78 115 154 204 267 324 392 469
#
# _framework density 25.045641
#
# number of rings (size 3 to 8) (size 9 to 14) (size 15 to 20)
#    0.000    0.571    2.857    3.429    2.000    8.000 
#    0.000    0.000    0.000    0.000    0.000    0.000 
#    0.000    0.000    0.000    0.000    0.000    0.000 
#
# Total GULP energy -78257.821503 kJ/mol
# GULP energy per Si atom -5589.844393 kJ/mol
# Density = 2.498864 g / cm^3
# Si number density = 25.045641 Si / 1000 Ang^3
#
#
#
# Elastic Constant Matrix: (Units=GPa)
#
#
# Indices 1 2 3 4 5 6 
#
# 1 135.6699 43.2380 25.5027 -16.5268 22.1050 16.4625
# 2 43.2380 145.7391 72.9520 9.6381 11.6714 -4.8950
# 3 25.5027 72.9520 236.5396 -13.3175 -21.6169 7.2042
# 4 -16.5268 9.6381 -13.3175 49.6428 4.7459 0.9283
# 5 22.1050 11.6714 -21.6169 4.7459 44.6848 -0.9206
# 6 16.4625 -4.8950 7.2042 0.9283 -0.9206 48.4754
#
#
#
# Elastic Compliance Matrix: (Units=1/GPa)
#
#
# Indices 1 2 3 4 5 6 
#
# 1 0.010165 -0.002896 -0.000289 0.004416 -0.004961 -0.003880
# 2 -0.002896 0.009820 -0.003198 -0.003560 -0.002250 0.002476
# 3 -0.000289 -0.003198 0.005697 0.001735 0.003529 -0.001037
# 4 0.004416 -0.003560 0.001735 0.023099 -0.002922 -0.002615
# 5 -0.004961 -0.002250 0.003529 -0.002922 0.027470 0.001511
# 6 -0.003880 0.002476 -0.001037 -0.002615 0.001511 0.022430
#
#
# Mechanical properties :
#
#
# Convention : Reuss Voigt Hill
#
# Bulk Modulus (GPa) = 77.42505 89.03710 83.23108
# Shear Modulus (GPa) = 43.19555 53.64432 48.41994
#
# Velocity S-wave (km/s) = 4.15742 4.63305 4.40166
# Velocity P-wave (km/s) = 7.35026 8.01544 7.69004
#
# Compressibility (1/GPa) = 0.01291572
#
# Stress axis : x y z
#
# Youngs Moduli (GPa) = 98.37413 101.82923 175.53450
#
# Poissons Ratio (x) = 0.29490 0.05080
# Poissons Ratio (y) = 0.28489 0.56136
# Poissons Ratio (z) = 0.02847 0.32565
#
# Static dielectric constant tensor:
#      x y z
#    x 2.106340 0.239540 -0.010810 
#    y 0.239540 2.456380 0.044570 
#    z -0.010810 0.044570 1.920800 
# 
# From -- ./inp_files/571600.got.cif
#   From: 2010.05.17/outbox.cif.g08.bks.cpg/sg2_286_cif.got.tgz:571600.got - 2010.06.03 11:33:40.
