data_PCOD9044792
_publ_section_title
;
Structure prediction by ZEFSAII (Michael W. Deem and Ramdas Pophale) SiO2 
 PCOD9044792
Probable space group: P -1
;
_chemical_formula_sum "Si O2"
_cell_formula_units_Z 12
_cell_length_a 8.388747
_cell_length_b 7.915478
_cell_length_c 9.779038
_cell_angle_alpha 104.699055
_cell_angle_beta 129.993417
_cell_angle_gamma 71.123842
_cell_volume 469.774388
_symmetry_space_group_name_H-M "P -1"
_symmetry_group_IT_number 2
_symmetry_cell_setting 'triclinic'
loop_
_space_group_symop_operation_xyz
x,y,z
-x,-y,-z
loop_
_atom_site_type_symbol
_atom_site_label
_atom_site_fract_x
_atom_site_fract_y
_atom_site_fract_z
Si Si1 0.254847 0.853747 0.751557
Si Si2 0.124800 0.321068 0.964988
Si Si3 0.596661 0.785414 0.153367
Si Si4 0.830419 0.054809 0.674580
Si Si5 0.240349 0.470104 0.570519
Si Si6 0.623092 0.773303 0.653271
O O1 0.292311 0.662917 0.660174
O O2 0.334787 0.023944 0.768880
O O3 0.371570 0.817469 0.957094
O O4 0.001252 0.923997 0.646971
O O5 0.230310 0.333455 0.878383
O O6 0.968175 0.185130 0.841015
O O7 0.315393 0.254581 0.161695
O O8 0.000000 0.500000 0.000000
O O9 0.613918 0.682565 0.284675
O O10 0.624143 0.167894 0.508840
O O11 0.736906 0.931650 0.702045
O O12 0.275533 0.397326 0.420885
O O13 0.000000 0.500000 0.500000
#
# Coordination Sequence:
#
# PCOD9044792 Si02
#       6
#     2   2   2   2   2   2
#     4  10  23  47  74 100 141 190 233 294 354 421
#     4  11  25  46  69 103 144 185 233 289 355 424
#     4  10  25  47  72 103 140 187 241 289 354 424
#     4  10  24  46  72  99 143 187 231 292 353 425
#     4  12  24  45  73 105 141 183 239 294 352 422
#     4  11  25  46  71 107 138 184 237 290 359 418
#
# _framework density 25.544177999999999
#
# number of rings (size 3 to 8) (size 9 to 14) (size 15 to 20)
#    0.000    1.333    1.667    2.000    2.333   10.667 
#    9.000    0.000    0.000    0.000    0.000    0.000 
#    0.000    0.000    0.000    0.000    0.000    0.000 
#
# Total GULP energy -67346.053864 kJ/mol
# GULP energy per Si atom -5612.171155 kJ/mol
# Density = 2.548604 g / cm^3
# Si number density = 25.544178 Si / 1000 Ang^3
#
#
#
# Elastic Constant Matrix: (Units=GPa)
#
#
# Indices 1 2 3 4 5 6 
#
# 1 86.0783 17.2486 34.6514 -3.3859 23.7171 -1.3713
# 2 17.2486 79.0182 -4.2875 10.5805 -1.6963 -3.6105
# 3 34.6514 -4.2875 88.1842 16.0515 6.9473 2.4759
# 4 -3.3859 10.5805 16.0515 32.6385 -2.7805 5.6733
# 5 23.7171 -1.6963 6.9473 -2.7805 51.4916 -6.3934
# 6 -1.3713 -3.6105 2.4759 5.6733 -6.3934 43.8218
#
#
#
# Elastic Compliance Matrix: (Units=1/GPa)
#
#
# Indices 1 2 3 4 5 6 
#
# 1 0.018341 -0.005665 -0.008214 0.007409 -0.007306 -0.001454
# 2 -0.005665 0.015308 0.004131 -0.007760 0.002411 0.002207
# 3 -0.008214 0.004131 0.016536 -0.010335 0.001213 0.000664
# 4 0.007409 -0.007760 -0.010335 0.039826 -0.000755 -0.005090
# 5 -0.007306 0.002411 0.001213 -0.000755 0.023079 0.003366
# 6 -0.001454 0.002207 0.000664 -0.005090 0.003366 0.024069
#
#
# Mechanical properties :
#
#
# Convention : Reuss Voigt Hill
#
# Bulk Modulus (GPa) = 32.58706 38.72284 35.65495
# Shear Modulus (GPa) = 29.96113 39.30160 34.63136
#
# Velocity S-wave (km/s) = 3.42850 3.92672 3.68604
# Velocity P-wave (km/s) = 5.33457 5.97921 5.66606
#
# Compressibility (1/GPa) = 0.03068703
#
# Stress axis : x y z
#
# Youngs Moduli (GPa) = 54.52396 65.32734 60.47557
#
# Poissons Ratio (x) = 0.37005 0.49677
# Poissons Ratio (y) = 0.30885 -0.24980
# Poissons Ratio (z) = 0.44788 -0.26984
#
# Static dielectric constant tensor:
#      x y z
#    x 2.025110 -0.048670 -0.014860 
#    y -0.048670 1.994050 -0.015050 
#    z -0.014860 -0.015050 1.985700 
# 
# From -- ./inp_files/160015.got.cif
#   From: 2010.05.17/outbox.cif.g08.bks.cpg/sg2_81_cif.got.tgz:160015.got - 2010.06.03 11:33:40.
