data_PCOD9044569
_publ_section_title
;
Structure prediction by ZEFSAII (Michael W. Deem and Ramdas Pophale) SiO2 
 PCOD9044569
Probable space group: P -1
;
_chemical_formula_sum "Si O2"
_cell_formula_units_Z 14
_cell_length_a 7.708645
_cell_length_b 11.015021
_cell_length_c 15.185512
_cell_angle_alpha 63.178436
_cell_angle_beta 114.943707
_cell_angle_gamma 142.786113
_cell_volume 691.266169
_symmetry_space_group_name_H-M "P -1"
_symmetry_group_IT_number 2
_symmetry_cell_setting 'triclinic'
loop_
_space_group_symop_operation_xyz
x,y,z
-x,-y,-z
loop_
_atom_site_type_symbol
_atom_site_label
_atom_site_fract_x
_atom_site_fract_y
_atom_site_fract_z
Si Si1 0.305231 0.569193 0.472171
Si Si2 0.880499 0.844185 0.605292
Si Si3 0.131460 0.965108 0.965915
Si Si4 0.036582 0.080942 0.739301
Si Si5 0.682176 0.457670 0.719326
Si Si6 0.770033 0.169413 0.565593
Si Si7 0.810705 0.322569 0.943923
O O1 0.545402 0.663710 0.564722
O O2 0.388938 0.613030 0.374235
O O3 0.228606 0.682744 0.439456
O O4 0.051125 0.325212 0.512175
O O5 0.916684 0.703888 0.680692
O O6 0.000000 0.000000 0.500000
O O7 0.978263 0.971395 0.671956
O O8 0.000427 0.957134 0.850865
O O9 0.481572 0.153381 0.967321
O O10 0.080718 0.774284 0.020897
O O11 0.000000 0.000000 0.000000
O O12 0.362735 0.313730 0.738982
O O13 0.811657 0.083823 0.679986
O O14 0.805485 0.403313 0.824491
O O15 0.500000 0.000000 0.500000
O O16 0.000000 0.500000 0.000000
#
# Coordination Sequence:
#
# PCOD9044569 Si02
#       7
#     2   2   2   2   2   2   2
#     4  11  23  37  55  90 124 160 209 246 309 383
#     4  12  21  36  64  92 124 163 211 256 312 388
#     4  10  24  45  70  98 132 173 226 289 336 396
#     4  11  22  40  64  90 125 168 213 258 330 386
#     4  11  23  39  65  88 122 168 211 261 324 387
#     4  11  23  39  55  87 132 165 199 256 306 386
#     4  10  23  47  67  97 134 168 229 286 337 399
#
# _framework density 20.252692
#
# number of rings (size 3 to 8) (size 9 to 14) (size 15 to 20)
#    0.000    1.143    4.286    2.143    2.000    0.571 
#    2.571    0.000    0.000    0.000    0.000    0.000 
#    0.000    0.000    0.000    0.000    0.000    0.000 
#
# Total GULP energy -77963.403044 kJ/mol
# GULP energy per Si atom -5568.814503 kJ/mol
# Density = 2.020660 g / cm^3
# Si number density = 20.252692 Si / 1000 Ang^3
#
#
#
# Elastic Constant Matrix: (Units=GPa)
#
#
# Indices 1 2 3 4 5 6 
#
# 1 92.2881 26.5392 49.7874 -11.0239 15.4465 -25.0159
# 2 26.5392 105.5763 40.5071 -2.8308 14.5225 -12.5780
# 3 49.7874 40.5071 149.6816 -8.2919 26.7135 -16.8227
# 4 -11.0239 -2.8308 -8.2919 34.8609 -6.9749 8.1870
# 5 15.4465 14.5225 26.7135 -6.9749 40.5562 -1.5095
# 6 -25.0159 -12.5780 -16.8227 8.1870 -1.5095 34.1981
#
#
#
# Elastic Compliance Matrix: (Units=1/GPa)
#
#
# Indices 1 2 3 4 5 6 
#
# 1 0.016194 -0.001222 -0.003423 0.001462 -0.002880 0.009235
# 2 -0.001222 0.011107 -0.001981 -0.000964 -0.002285 0.002347
# 3 -0.003423 -0.001981 0.009195 -0.000130 -0.004023 0.001144
# 4 0.001462 -0.000964 -0.000130 0.031624 0.005063 -0.006696
# 5 -0.002880 -0.002285 -0.004023 0.005063 0.029914 -0.004818
# 6 0.009235 0.002347 0.001144 -0.006696 -0.004818 0.038813
#
#
# Mechanical properties :
#
#
# Convention : Reuss Voigt Hill
#
# Bulk Modulus (GPa) = 43.02127 64.57927 53.80027
# Shear Modulus (GPa) = 31.67627 37.30386 34.49006
#
# Velocity S-wave (km/s) = 3.95910 4.29642 4.13120
# Velocity P-wave (km/s) = 6.49520 7.52119 7.02694
#
# Compressibility (1/GPa) = 0.02324432
#
# Stress axis : x y z
#
# Youngs Moduli (GPa) = 61.75292 90.03163 108.75599
#
# Poissons Ratio (x) = 0.11000 0.37224
# Poissons Ratio (y) = 0.07545 0.21547
# Poissons Ratio (z) = 0.21136 0.17837
#
# Static dielectric constant tensor:
#      x y z
#    x 1.887480 0.013170 0.027810 
#    y 0.013170 1.773730 -0.062020 
#    z 0.027810 -0.062020 1.749300 
# 
# From -- ./inp_files/45483.got.cif
#   From: 2010.05.17/outbox.cif.g08.bks.cpg/sg2_23_cif.got.tgz:45483.got - 2010.06.03 11:33:40.
