data_PCOD9044786
_publ_section_title
;
Structure prediction by ZEFSAII (Michael W. Deem and Ramdas Pophale) SiO2 
 PCOD9044786
Probable space group: P -1
;
_chemical_formula_sum "Si O2"
_cell_formula_units_Z 16
_cell_length_a 11.116939
_cell_length_b 9.394790
_cell_length_c 9.237797
_cell_angle_alpha 87.276551
_cell_angle_beta 100.386779
_cell_angle_gamma 131.686036
_cell_volume 705.261910
_symmetry_space_group_name_H-M "P -1"
_symmetry_group_IT_number 2
_symmetry_cell_setting 'triclinic'
loop_
_space_group_symop_operation_xyz
x,y,z
-x,-y,-z
loop_
_atom_site_type_symbol
_atom_site_label
_atom_site_fract_x
_atom_site_fract_y
_atom_site_fract_z
Si Si1 0.186185 0.947395 0.293806
Si Si2 0.139213 0.190232 0.120277
Si Si3 0.481375 0.563333 0.247875
Si Si4 0.936288 0.290587 0.994800
Si Si5 0.676397 0.979750 0.169270
Si Si6 0.686430 0.494149 0.477812
Si Si7 0.954288 0.123372 0.439191
Si Si8 0.460138 0.892871 0.647689
O O1 0.148619 0.884786 0.453131
O O2 0.150050 0.086484 0.257789
O O3 0.371892 0.060255 0.284729
O O4 0.074978 0.770959 0.169725
O O5 0.335522 0.372036 0.134855
O O6 0.068021 0.292734 0.102759
O O7 0.000000 0.000000 0.000000
O O8 0.555259 0.748982 0.157605
O O9 0.613970 0.554832 0.344929
O O10 0.410046 0.571911 0.385499
O O11 0.759941 0.117028 0.039855
O O12 0.000000 0.500000 0.000000
O O13 0.834314 0.037739 0.282958
O O14 0.593673 0.038962 0.244659
O O15 0.670395 0.330165 0.405383
O O16 0.873991 0.665757 0.548447
O O17 0.000000 0.000000 0.500000
O O18 0.500000 0.000000 0.500000
#
# Coordination Sequence:
#
# PCOD9044786 Si02
#       8
#     2   2   2   2   2   2   2   2
#     4  11  24  47  71 100 146 192 234 302 356 431
#     4  10  23  47  73  96 139 193 240 290 356 431
#     4  11  21  42  70 105 139 183 243 296 359 423
#     4  11  28  49  70 101 144 196 242 296 367 431
#     4  12  26  44  72 105 145 189 242 301 359 437
#     4  11  23  37  70 106 142 186 229 297 368 423
#     4  12  23  41  74 109 140 182 246 299 364 430
#     4  12  24  44  66 108 149 182 233 297 366 424
#
# _framework density 22.686606999999999
#
# number of rings (size 3 to 8) (size 9 to 14) (size 15 to 20)
#    0.000    0.750    5.000    2.250    3.500    2.000 
#    0.000    2.500    0.000    0.000    0.000    0.000 
#    0.000    0.000    0.000    0.000    0.000    0.000 
#
# Total GULP energy -89306.286919 kJ/mol
# GULP energy per Si atom -5581.642932 kJ/mol
# Density = 2.263497 g / cm^3
# Si number density = 22.686607 Si / 1000 Ang^3
#
#
#
# Elastic Constant Matrix: (Units=GPa)
#
#
# Indices 1 2 3 4 5 6 
#
# 1 79.9436 26.1038 8.3090 1.1952 9.3424 -4.7859
# 2 26.1038 172.6625 32.7218 8.2903 1.3209 -4.1834
# 3 8.3090 32.7218 55.6638 0.3497 1.3049 3.3915
# 4 1.1952 8.2903 0.3497 32.3529 9.5164 6.2307
# 5 9.3424 1.3209 1.3049 9.5164 24.9452 4.3688
# 6 -4.7859 -4.1834 3.3915 6.2307 4.3688 41.7408
#
#
#
# Elastic Compliance Matrix: (Units=1/GPa)
#
#
# Indices 1 2 3 4 5 6 
#
# 1 0.014023 -0.001913 -0.000954 0.001366 -0.005957 0.001913
# 2 -0.001913 0.006935 -0.003866 -0.002215 0.001223 0.000993
# 3 -0.000954 -0.003866 0.020527 0.001443 -0.000657 -0.002311
# 4 0.001366 -0.002215 0.001443 0.036199 -0.013549 -0.004168
# 5 -0.005957 0.001223 -0.000657 -0.013549 0.048073 -0.003516
# 6 0.001913 0.000993 -0.002311 -0.004168 -0.003516 0.025454
#
#
# Mechanical properties :
#
#
# Convention : Reuss Voigt Hill
#
# Bulk Modulus (GPa) = 35.69109 49.17103 42.43106
# Shear Modulus (GPa) = 28.73283 35.88347 32.30815
#
# Velocity S-wave (km/s) = 3.56267 3.98138 3.77783
# Velocity P-wave (km/s) = 5.71750 6.54647 6.14598
#
# Compressibility (1/GPa) = 0.02801819
#
# Stress axis : x y z
#
# Youngs Moduli (GPa) = 71.31222 144.20470 48.71558
#
# Poissons Ratio (x) = 0.27584 0.04649
# Poissons Ratio (y) = 0.13641 0.18834
# Poissons Ratio (z) = 0.06805 0.55752
#
# Static dielectric constant tensor:
#      x y z
#    x 1.875930 0.035240 -0.020680 
#    y 0.035240 1.872060 0.023260 
#    z -0.020680 0.023260 1.942770 
# 
# From -- ./inp_files/244132.got.cif
#   From: 2010.05.17/outbox.cif.g08.bks.cpg/sg2_123_cif.got.tgz:244132.got - 2010.06.03 11:33:40.
