data_PCOD9044918
_publ_section_title
;
Structure prediction by ZEFSAII (Michael W. Deem and Ramdas Pophale) SiO2 
 PCOD9044918
Probable space group: P -1
;
_chemical_formula_sum "Si O2"
_cell_formula_units_Z 15
_cell_length_a 7.367682
_cell_length_b 11.198081
_cell_length_c 9.479194
_cell_angle_alpha 121.618149
_cell_angle_beta 67.254428
_cell_angle_gamma 75.125912
_cell_volume 498.142426
_symmetry_space_group_name_H-M "P -1"
_symmetry_group_IT_number 2
_symmetry_cell_setting 'triclinic'
loop_
_space_group_symop_operation_xyz
x,y,z
-x,-y,-z
loop_
_atom_site_type_symbol
_atom_site_label
_atom_site_fract_x
_atom_site_fract_y
_atom_site_fract_z
Si Si1 0.599789 0.806948 0.798052
Si Si2 0.901517 0.138633 0.961594
Si Si3 0.000000 0.500000 0.500000
Si Si4 0.897968 0.236912 0.323985
Si Si5 0.369527 0.341228 0.889287
Si Si6 0.626796 0.643768 0.432287
Si Si7 0.131313 0.716592 0.234036
Si Si8 0.588987 0.971651 0.616630
O O1 0.344606 0.826387 0.891116
O O2 0.738369 0.629534 0.739799
O O3 0.500000 0.000000 0.000000
O O4 0.068743 0.281300 0.376385
O O5 0.990755 0.178003 0.099300
O O6 0.874741 0.254267 0.913441
O O7 0.057003 0.940921 0.740137
O O8 0.819821 0.527043 0.419574
O O9 0.605476 0.360176 0.499586
O O10 0.309580 0.351225 0.744881
O O11 0.636551 0.301187 0.786465
O O12 0.426009 0.167890 0.835319
O O13 0.180697 0.532229 0.120686
O O14 0.567372 0.834222 0.629664
O O15 0.874941 0.877566 0.468064
O O16 0.500000 0.000000 0.500000
#
# Coordination Sequence:
#
# PCOD9044918 Si02
#       8
#     2   2   1   2   2   2   2   2
#     4   9  25  43  68 102 136 184 228 293 355 417
#     4  10  23  48  69 104 144 183 232 292 362 420
#     4  12  26  40  72 110 134 184 242 288 358 430
#     4  10  24  45  73 103 138 188 232 296 358 423
#     4  11  24  42  71 103 142 185 241 291 349 421
#     4   9  22  43  72  96 139 189 230 284 359 414
#     4  11  26  41  73 106 140 190 235 294 352 422
#     4  10  23  48  66 102 142 193 231 289 352 424
#
# _framework density 30.11187
#
# number of rings (size 3 to 8) (size 9 to 14) (size 15 to 20)
#    0.800    1.067    0.000    1.600    7.467    3.200 
#    2.400    0.000    0.000    0.000    0.000    0.000 
#    0.000    0.000    0.000    0.000    0.000    0.000 
#
# Total GULP energy -83772.289443 kJ/mol
# GULP energy per Si atom -5584.819296 kJ/mol
# Density = 3.004333 g / cm^3
# Si number density = 30.111870 Si / 1000 Ang^3
#
#
#
# Elastic Constant Matrix: (Units=GPa)
#
#
# Indices 1 2 3 4 5 6 
#
# 1 187.4418 47.0150 68.2429 15.9697 -26.5415 -0.7001
# 2 47.0150 175.4284 60.4438 21.3852 -14.6588 -21.6031
# 3 68.2429 60.4438 146.8653 40.0371 -1.9262 -13.3735
# 4 15.9697 21.3852 40.0371 46.5118 3.2341 -2.0285
# 5 -26.5415 -14.6588 -1.9262 3.2341 62.7731 4.6340
# 6 -0.7001 -21.6031 -13.3735 -2.0285 4.6340 64.4603
#
#
#
# Elastic Compliance Matrix: (Units=1/GPa)
#
#
# Indices 1 2 3 4 5 6 
#
# 1 0.007007 -0.000748 -0.003106 0.000377 0.002747 -0.001005
# 2 -0.000748 0.007082 -0.002048 -0.001241 0.001205 0.001815
# 3 -0.003106 -0.002048 0.011271 -0.007549 -0.001165 0.001465
# 4 0.000377 -0.001241 -0.007549 0.028520 -0.001761 -0.000954
# 5 0.002747 0.001205 -0.001165 -0.001761 0.017511 -0.001122
# 6 -0.001005 0.001815 0.001465 -0.000954 -0.001122 0.016465
#
#
# Mechanical properties :
#
#
# Convention : Reuss Voigt Hill
#
# Bulk Modulus (GPa) = 73.76636 95.68211 84.72423
# Shear Modulus (GPa) = 47.99475 57.01797 52.50636
#
# Velocity S-wave (km/s) = 3.99668 4.35620 4.18031
# Velocity P-wave (km/s) = 6.77115 7.55953 7.17618
#
# Compressibility (1/GPa) = 0.01355632
#
# Stress axis : x y z
#
# Youngs Moduli (GPa) = 142.72356 141.20926 88.72196
#
# Poissons Ratio (x) = 0.10557 0.27559
# Poissons Ratio (y) = 0.10670 0.18168
# Poissons Ratio (z) = 0.44333 0.28916
#
# Static dielectric constant tensor:
#      x y z
#    x 2.393470 -0.009250 0.024710 
#    y -0.009250 2.311880 0.104670 
#    z 0.024710 0.104670 3.011610 
# 
# From -- ./inp_files/301660.got.cif
#   From: 2010.05.17/outbox.cif.g08.bks.cpg/sg2_151_cif.got.tgz:301660.got - 2010.06.03 11:33:40.
