data_PCOD9044085
_publ_section_title
;
Structure prediction by ZEFSAII (Michael W. Deem and Ramdas Pophale) SiO2 
 PCOD9044085
Probable space group: P -1
;
_chemical_formula_sum "Si O2"
_cell_formula_units_Z 14
_cell_length_a 11.892662
_cell_length_b 17.815893
_cell_length_c 9.009134
_cell_angle_alpha 132.492904
_cell_angle_beta 142.481161
_cell_angle_gamma 30.228025
_cell_volume 584.965890
_symmetry_space_group_name_H-M "P -1"
_symmetry_group_IT_number 2
_symmetry_cell_setting 'triclinic'
loop_
_space_group_symop_operation_xyz
x,y,z
-x,-y,-z
loop_
_atom_site_type_symbol
_atom_site_label
_atom_site_fract_x
_atom_site_fract_y
_atom_site_fract_z
Si Si1 0.321478 0.388399 0.036186
Si Si2 0.509165 0.414531 0.761979
Si Si3 0.247618 0.029387 0.238162
Si Si4 0.179689 0.268772 0.932859
Si Si5 0.850777 0.296167 0.391260
Si Si6 0.125524 0.196826 0.075364
Si Si7 0.618665 0.727247 0.368543
O O1 0.603515 0.333038 0.246841
O O2 0.085834 0.559894 0.066370
O O3 0.346912 0.285567 0.040991
O O4 0.254902 0.374348 0.781855
O O5 0.277965 0.544750 0.581846
O O6 0.451048 0.328523 0.656142
O O7 0.500000 0.500000 0.000000
O O8 0.806668 0.308837 0.863282
O O9 0.215568 0.056929 0.065400
O O10 0.982358 0.183384 0.241336
O O11 0.500000 0.000000 0.500000
O O12 0.343431 0.888107 0.228514
O O13 0.084996 0.222983 0.655023
O O14 0.275360 0.173063 0.052559
O O15 0.189712 0.263362 0.347096
#
# Coordination Sequence:
#
# PCOD9044085 Si02
#       7
#     2   2   2   2   2   2   2
#     4  11  24  40  64  97 133 174 211 264 337 380
#     4  12  23  38  68 106 124 170 219 281 326 378
#     4  10  23  46  69  96 130 178 220 275 325 385
#     4  11  25  40  64 100 137 175 207 272 332 397
#     4  12  24  44  67  98 140 166 221 271 331 391
#     4  11  23  42  67  97 133 169 224 268 330 387
#     4  11  25  44  70  96 133 170 225 275 324 385
#
# _framework density 23.933019000000002
#
# number of rings (size 3 to 8) (size 9 to 14) (size 15 to 20)
#    0.000    0.857    4.286    2.143    4.000    3.429 
#    0.000    6.429    0.000    5.143    0.000    0.000 
#    0.000    0.000    0.000    0.000    0.000    0.000 
#
# Total GULP energy -78384.509395 kJ/mol
# GULP energy per Si atom -5598.893528 kJ/mol
# Density = 2.387855 g / cm^3
# Si number density = 23.933019 Si / 1000 Ang^3
#
#
#
# Elastic Constant Matrix: (Units=GPa)
#
#
# Indices 1 2 3 4 5 6 
#
# 1 199.5165 49.7866 24.0954 -0.9566 16.1573 35.8779
# 2 49.7866 90.6293 12.3148 -6.0769 12.2962 16.2158
# 3 24.0954 12.3148 35.2402 2.7497 0.1376 14.1925
# 4 -0.9566 -6.0769 2.7497 25.7198 2.5695 -2.9002
# 5 16.1573 12.2962 0.1376 2.5695 45.6519 -7.5985
# 6 35.8779 16.2158 14.1925 -2.9002 -7.5985 26.7964
#
#
#
# Elastic Compliance Matrix: (Units=1/GPa)
#
#
# Indices 1 2 3 4 5 6 
#
# 1 0.007646 -0.001883 -0.000445 -0.000863 -0.003820 -0.010039
# 2 -0.001883 0.014172 -0.001394 0.003163 -0.004358 -0.006210
# 3 -0.000445 -0.001394 0.037706 -0.006372 -0.002542 -0.019943
# 4 -0.000863 0.003163 -0.006372 0.041194 -0.001751 0.006579
# 5 -0.003820 -0.004358 -0.002542 -0.001751 0.027309 0.016652
# 6 -0.010039 -0.006210 -0.019943 0.006579 0.016652 0.070515
#
#
# Mechanical properties :
#
#
# Convention : Reuss Voigt Hill
#
# Bulk Modulus (GPa) = 19.20042 55.30884 37.25463
# Shear Modulus (GPa) = 22.38683 35.57957 28.98320
#
# Velocity S-wave (km/s) = 3.06174 3.85987 3.48374
# Velocity P-wave (km/s) = 4.53200 6.55933 5.63754
#
# Compressibility (1/GPa) = 0.05208220
#
# Stress axis : x y z
#
# Youngs Moduli (GPa) = 130.78277 70.55932 26.52072
#
# Poissons Ratio (x) = 0.13289 0.01179
# Poissons Ratio (y) = 0.24632 0.03696
# Poissons Ratio (z) = 0.05814 0.09833
#
# Static dielectric constant tensor:
#      x y z
#    x 1.927160 0.036790 -0.020720 
#    y 0.036790 1.963790 -0.002080 
#    z -0.020720 -0.002080 1.889530 
# 
# From -- ./inp_files/280006.got.cif
#   From: 2010.05.17/outbox.cif.g08.bks.cpg/sg2_141_cif.got.tgz:280006.got - 2010.06.03 11:33:40.
