data_PCOD9044347
_publ_section_title
;
Structure prediction by ZEFSAII (Michael W. Deem and Ramdas Pophale) SiO2 
 PCOD9044347
Probable space group: P -1
;
_chemical_formula_sum "Si O2"
_cell_formula_units_Z 13
_cell_length_a 8.072912
_cell_length_b 6.584281
_cell_length_c 10.656914
_cell_angle_alpha 99.357845
_cell_angle_beta 82.834503
_cell_angle_gamma 121.069940
_cell_volume 478.179670
_symmetry_space_group_name_H-M "P -1"
_symmetry_group_IT_number 2
_symmetry_cell_setting 'triclinic'
loop_
_space_group_symop_operation_xyz
x,y,z
-x,-y,-z
loop_
_atom_site_type_symbol
_atom_site_label
_atom_site_fract_x
_atom_site_fract_y
_atom_site_fract_z
Si Si1 0.698920 0.654638 0.617335
Si Si2 0.314170 0.190352 0.624347
Si Si3 0.000000 0.000000 0.000000
Si Si4 0.391459 0.015048 0.204044
Si Si5 0.062230 0.658651 0.639171
Si Si6 0.066259 0.335159 0.823372
Si Si7 0.555680 0.768619 0.037085
O O1 0.540354 0.376613 0.603341
O O2 0.780280 0.762615 0.485036
O O3 0.582433 0.787866 0.679449
O O4 0.880248 0.698752 0.688634
O O5 0.217661 0.259832 0.751023
O O6 0.245781 0.914393 0.615097
O O7 0.933676 0.715736 0.033323
O O8 0.783856 0.942014 0.033807
O O9 0.460604 0.823658 0.169903
O O10 0.500861 0.171034 0.086610
O O11 0.157899 0.862361 0.206422
O O12 0.000000 0.500000 0.500000
O O13 0.099752 0.549722 0.749575
O O14 0.500000 0.500000 0.000000
#
# Coordination Sequence:
#
# PCOD9044347 Si02
#       7
#     2   2   1   2   2   2   2
#     4  11  24  47  74 108 159 197 245 315 374 459
#     4  11  25  47  70 114 154 194 255 301 380 450
#     4  10  26  50  72 106 150 190 252 318 368 448
#     4  10  23  46  73 104 145 195 245 307 379 443
#     4  12  24  45  75 108 153 200 245 311 375 445
#     4  11  24  47  73 109 149 199 246 312 376 446
#     4  10  24  48  72 105 139 193 253 308 375 445
#
# _framework density 27.186430000000001
#
# number of rings (size 3 to 8) (size 9 to 14) (size 15 to 20)
#    0.000    1.231    3.077    1.385    4.308    0.615 
#    8.308    4.615    0.000    0.000    0.000    0.000 
#    0.000    0.000    0.000    0.000    0.000    0.000 
#
# Total GULP energy -72424.410151 kJ/mol
# GULP energy per Si atom -5571.108473 kJ/mol
# Density = 2.712455 g / cm^3
# Si number density = 27.186430 Si / 1000 Ang^3
#
#
#
# Elastic Constant Matrix: (Units=GPa)
#
#
# Indices 1 2 3 4 5 6 
#
# 1 100.8227 24.1605 17.5346 3.3105 -14.1441 -11.8414
# 2 24.1605 190.7295 55.3048 -31.8828 3.7842 -7.2081
# 3 17.5346 55.3048 109.8374 -9.7214 -2.9589 -15.2248
# 4 3.3105 -31.8828 -9.7214 56.7517 -23.5178 5.5993
# 5 -14.1441 3.7842 -2.9589 -23.5178 44.9878 -8.7063
# 6 -11.8414 -7.2081 -15.2248 5.5993 -8.7063 48.5119
#
#
#
# Elastic Compliance Matrix: (Units=1/GPa)
#
#
# Indices 1 2 3 4 5 6 
#
# 1 0.011278 -0.001209 -0.000647 -0.000015 0.004202 0.003126
# 2 -0.001209 0.006854 -0.002978 0.003757 0.000711 -0.000517
# 3 -0.000647 -0.002978 0.011258 0.000716 0.001775 0.003169
# 4 -0.000015 0.003757 0.000716 0.025196 0.012935 0.000193
# 5 0.004202 0.000711 0.001775 0.012935 0.031500 0.005849
# 6 0.003126 -0.000517 0.003169 0.000193 0.005849 0.023322
#
#
# Mechanical properties :
#
#
# Convention : Reuss Voigt Hill
#
# Bulk Modulus (GPa) = 50.70430 66.15439 58.42935
# Shear Modulus (GPa) = 39.79375 50.34294 45.06834
#
# Velocity S-wave (km/s) = 3.83003 4.30788 4.07597
# Velocity P-wave (km/s) = 6.18465 7.00930 6.60985
#
# Compressibility (1/GPa) = 0.01972219
#
# Stress axis : x y z
#
# Youngs Moduli (GPa) = 88.67092 145.89930 88.82939
#
# Poissons Ratio (x) = 0.17637 0.05743
# Poissons Ratio (y) = 0.10719 0.26455
# Poissons Ratio (z) = 0.05733 0.43451
#
# Static dielectric constant tensor:
#      x y z
#    x 2.264070 -0.199420 0.242930 
#    y -0.199420 2.276590 -0.113400 
#    z 0.242930 -0.113400 2.549760 
# 
# From -- ./inp_files/373127.got.cif
#   From: 2010.05.17/outbox.cif.g08.bks.cpg/sg2_187_cif.got.tgz:373127.got - 2010.06.03 11:33:40.
