data_PCOD9044068
_publ_section_title
;
Structure prediction by ZEFSAII (Michael W. Deem and Ramdas Pophale) SiO2 
 PCOD9044068
Probable space group: P -1
;
_chemical_formula_sum "Si O2"
_cell_formula_units_Z 14
_cell_length_a 8.232255
_cell_length_b 9.323415
_cell_length_c 21.902099
_cell_angle_alpha 26.196076
_cell_angle_beta 107.098339
_cell_angle_gamma 99.049702
_cell_volume 686.312614
_symmetry_space_group_name_H-M "P -1"
_symmetry_group_IT_number 2
_symmetry_cell_setting 'triclinic'
loop_
_space_group_symop_operation_xyz
x,y,z
-x,-y,-z
loop_
_atom_site_type_symbol
_atom_site_label
_atom_site_fract_x
_atom_site_fract_y
_atom_site_fract_z
Si Si1 0.086190 0.218126 0.879896
Si Si2 0.743819 0.547770 0.990522
Si Si3 0.310022 0.422082 0.522390
Si Si4 0.257354 0.697025 0.782195
Si Si5 0.619159 0.147790 0.026708
Si Si6 0.473878 0.215783 0.737748
Si Si7 0.153351 0.800945 0.250432
O O1 0.113620 0.558610 0.782202
O O2 0.980292 0.286560 0.778470
O O3 0.274496 0.979835 0.973045
O O4 0.000000 0.000000 0.000000
O O5 0.782369 0.345760 0.134475
O O6 0.732550 0.319332 0.019383
O O7 0.554632 0.830514 0.868852
O O8 0.131600 0.200113 0.096679
O O9 0.500000 0.500000 0.500000
O O10 0.166992 0.681407 0.367578
O O11 0.286345 0.062953 0.634852
O O12 0.319136 0.403549 0.604148
O O13 0.440502 0.428683 0.890679
O O14 0.581692 0.838441 0.179463
O O15 0.649213 0.347375 0.699559
#
# Coordination Sequence:
#
# PCOD9044068 Si02
#       7
#     2   2   2   2   2   2   2
#     4  12  24  37  51  81 124 151 181 226 283 335
#     4   9  16  33  60  85 104 134 196 230 272 311
#     4  10  17  33  63  86 111 140 185 236 278 321
#     4  11  19  36  60  87 108 147 186 230 279 330
#     4  11  18  33  61  86 104 143 196 237 267 320
#     4   8  15  32  58  84 104 133 189 237 265 313
#     4   9  20  34  53  84 119 148 174 224 286 334
#
# _framework density 20.398866000000002
#
# number of rings (size 3 to 8) (size 9 to 14) (size 15 to 20)
#    0.857    1.143    4.286    1.286    0.000    1.143 
#    0.000    0.714    0.000   11.143    0.000    0.000 
#    0.000    0.000    0.000    0.000    0.000    0.000 
#
# Total GULP energy -77985.051247 kJ/mol
# GULP energy per Si atom -5570.360803 kJ/mol
# Density = 2.035244 g / cm^3
# Si number density = 20.398866 Si / 1000 Ang^3
#
#
#
# Elastic Constant Matrix: (Units=GPa)
#
#
# Indices 1 2 3 4 5 6 
#
# 1 52.7944 20.9467 25.7144 -3.6103 -8.7606 11.0404
# 2 20.9467 72.8212 12.7443 -11.1287 -5.1178 26.4831
# 3 25.7144 12.7443 66.6833 6.1401 -20.7383 6.9892
# 4 -3.6103 -11.1287 6.1401 19.9230 11.2017 -4.4305
# 5 -8.7606 -5.1178 -20.7383 11.2017 21.4593 1.7116
# 6 11.0404 26.4831 6.9892 -4.4305 1.7116 47.7615
#
#
#
# Elastic Compliance Matrix: (Units=1/GPa)
#
#
# Indices 1 2 3 4 5 6 
#
# 1 0.026347 -0.003927 -0.013130 0.011431 -0.008788 -0.000616
# 2 -0.003927 0.020853 -0.007755 0.019410 -0.013680 -0.007229
# 3 -0.013130 -0.007755 0.058321 -0.078497 0.091063 -0.011744
# 4 0.011431 0.019410 -0.078497 0.184514 -0.164561 0.021095
# 5 -0.008788 -0.013680 0.091063 -0.164561 0.215784 -0.026707
# 6 -0.000616 -0.007229 -0.011744 0.021095 -0.026707 0.029721
#
#
# Mechanical properties :
#
#
# Convention : Reuss Voigt Hill
#
# Bulk Modulus (GPa) = 17.89040 34.56776 26.22908
# Shear Modulus (GPa) = 8.28092 26.68833 17.48463
#
# Velocity S-wave (km/s) = 2.01701 3.62100 2.93087
# Velocity P-wave (km/s) = 3.77011 5.87068 4.93349
#
# Compressibility (1/GPa) = 0.05589589
#
# Stress axis : x y z
#
# Youngs Moduli (GPa) = 37.95453 47.95435 17.14649
#
# Poissons Ratio (x) = 0.18834 0.22514
# Poissons Ratio (y) = 0.14906 0.13297
# Poissons Ratio (z) = 0.49836 0.37188
#
# Static dielectric constant tensor:
#      x y z
#    x 1.822360 0.015460 0.000630 
#    y 0.015460 1.729860 0.018990 
#    z 0.000630 0.018990 1.730790 
# 
# From -- ./inp_files/204229.got.cif
#   From: 2010.05.17/outbox.cif.g08.bks.cpg/sg2_103_cif.got.tgz:204229.got - 2010.06.03 11:33:40.
