data_PCOD9044269
_publ_section_title
;
Structure prediction by ZEFSAII (Michael W. Deem and Ramdas Pophale) SiO2 
 PCOD9044269
Probable space group: P -1
;
_chemical_formula_sum "Si O2"
_cell_formula_units_Z 16
_cell_length_a 7.300590
_cell_length_b 13.313346
_cell_length_c 18.319039
_cell_angle_alpha 27.930881
_cell_angle_beta 57.655180
_cell_angle_gamma 72.071247
_cell_volume 640.553758
_symmetry_space_group_name_H-M "P -1"
_symmetry_group_IT_number 2
_symmetry_cell_setting 'triclinic'
loop_
_space_group_symop_operation_xyz
x,y,z
-x,-y,-z
loop_
_atom_site_type_symbol
_atom_site_label
_atom_site_fract_x
_atom_site_fract_y
_atom_site_fract_z
Si Si1 0.352836 0.360418 0.851331
Si Si2 0.328639 0.367869 0.688328
Si Si3 0.449125 0.947436 0.911345
Si Si4 0.357919 0.132690 0.280810
Si Si5 0.008033 0.695579 0.814757
Si Si6 0.144635 0.681507 0.014581
Si Si7 0.322695 0.211421 0.407541
Si Si8 0.869770 0.282663 0.501902
O O1 0.425324 0.452837 0.694453
O O2 0.440111 0.576295 0.751495
O O3 0.119734 0.455952 0.666996
O O4 0.710070 0.247000 0.988027
O O5 0.500000 0.500000 0.500000
O O6 0.302804 0.101639 0.862978
O O7 0.063581 0.227733 0.001253
O O8 0.530350 0.817721 0.039006
O O9 0.222163 0.238807 0.184551
O O10 0.638241 0.229923 0.145549
O O11 0.308805 0.191582 0.335304
O O12 0.258135 0.862380 0.450384
O O13 0.996296 0.587333 0.806502
O O14 0.239122 0.938279 0.622906
O O15 0.000000 0.500000 0.000000
O O16 0.692487 0.129193 0.702326
O O17 0.124202 0.277663 0.446689
#
# Coordination Sequence:
#
# PCOD9044269 Si02
#       8
#     2   2   2   2   2   2   2   2
#     4  12  28  45  78 109 144 194 254 298 370 448
#     4  10  24  50  77 108 142 188 247 314 380 435
#     4  10  24  51  76 103 148 191 246 316 367 434
#     4  10  23  46  72 102 158 202 239 296 361 432
#     4  11  25  42  71 107 147 197 244 292 362 432
#     4  11  27  44  72 108 153 196 247 296 365 431
#     4  11  26  45  71 109 155 194 244 302 359 439
#     4   9  21  46  74 105 150 197 244 300 375 428
#
# _framework density 24.978387000000001
#
# number of rings (size 3 to 8) (size 9 to 14) (size 15 to 20)
#    0.000    1.500    0.000    3.000   12.250    4.000 
#    2.250    1.250    0.000    0.000    0.000    0.000 
#    0.000    0.000    0.000    0.000    0.000    0.000 
#
# Total GULP energy -89426.838514 kJ/mol
# GULP energy per Si atom -5589.177407 kJ/mol
# Density = 2.492153 g / cm^3
# Si number density = 24.978387 Si / 1000 Ang^3
#
#
#
# Elastic Constant Matrix: (Units=GPa)
#
#
# Indices 1 2 3 4 5 6 
#
# 1 129.3470 30.2733 56.0915 10.7195 14.6598 -16.2140
# 2 30.2733 89.6281 20.4743 -0.0011 24.0742 -15.3865
# 3 56.0915 20.4743 104.5834 14.9382 21.5089 -7.9373
# 4 10.7195 -0.0011 14.9382 34.8620 -5.3001 4.1614
# 5 14.6598 24.0742 21.5089 -5.3001 50.0425 4.1315
# 6 -16.2140 -15.3865 -7.9373 4.1614 4.1315 43.3240
#
#
#
# Elastic Compliance Matrix: (Units=1/GPa)
#
#
# Indices 1 2 3 4 5 6 
#
# 1 0.010836 -0.001940 -0.004884 -0.001641 -0.000537 0.002680
# 2 -0.001940 0.014577 0.000221 -0.001209 -0.007104 0.005285
# 3 -0.004884 0.000221 0.014238 -0.005675 -0.005556 0.001934
# 4 -0.001641 -0.001209 -0.005675 0.033486 0.007545 -0.006019
# 5 -0.000537 -0.007104 -0.005556 0.007545 0.027329 -0.007073
# 6 0.002680 0.005285 0.001934 -0.006019 -0.007073 0.027569
#
#
# Mechanical properties :
#
#
# Convention : Reuss Voigt Hill
#
# Bulk Modulus (GPa) = 37.81176 59.69297 48.75236
# Shear Modulus (GPa) = 33.32114 40.09366 36.70740
#
# Velocity S-wave (km/s) = 3.65636 4.01076 3.83765
# Velocity P-wave (km/s) = 5.74421 6.73780 6.26075
#
# Compressibility (1/GPa) = 0.02644680
#
# Stress axis : x y z
#
# Youngs Moduli (GPa) = 92.28667 68.59960 70.23632
#
# Poissons Ratio (x) = 0.13308 0.34300
# Poissons Ratio (y) = 0.17903 -0.01556
# Poissons Ratio (z) = 0.45068 -0.01519
#
# Static dielectric constant tensor:
#      x y z
#    x 2.019430 -0.035790 -0.028990 
#    y -0.035790 1.991680 0.003150 
#    z -0.028990 0.003150 2.063860 
# 
# From -- ./inp_files/590229.got.cif
#   From: 2010.05.17/outbox.cif.g08.bks.cpg/sg2_296_cif.got.tgz:590229.got - 2010.06.03 11:33:40.
