data_PCOD9044450
_publ_section_title
;
Structure prediction by ZEFSAII (Michael W. Deem and Ramdas Pophale) SiO2 
 PCOD9044450
Probable space group: P -1
;
_chemical_formula_sum "Si O2"
_cell_formula_units_Z 16
_cell_length_a 15.565873
_cell_length_b 22.445921
_cell_length_c 5.176902
_cell_angle_alpha 84.148254
_cell_angle_beta 91.136732
_cell_angle_gamma 160.227859
_cell_volume 592.909210
_symmetry_space_group_name_H-M "P -1"
_symmetry_group_IT_number 2
_symmetry_cell_setting 'triclinic'
loop_
_space_group_symop_operation_xyz
x,y,z
-x,-y,-z
loop_
_atom_site_type_symbol
_atom_site_label
_atom_site_fract_x
_atom_site_fract_y
_atom_site_fract_z
Si Si1 0.214740 0.939391 0.530983
Si Si2 0.714866 0.768476 0.315350
Si Si3 0.707454 0.167724 0.638045
Si Si4 0.041697 0.945733 0.765456
Si Si5 0.636130 0.224851 0.979847
Si Si6 0.938234 0.665377 0.988543
Si Si7 0.861383 0.495331 0.857290
Si Si8 0.297378 0.415232 0.613420
O O1 0.176814 0.970626 0.708758
O O2 0.099592 0.802698 0.711075
O O3 0.981598 0.794168 0.376024
O O4 0.465991 0.106791 0.283016
O O5 0.415523 0.552191 0.424656
O O6 0.869504 0.848560 0.545566
O O7 0.753896 0.865502 0.265766
O O8 0.851535 0.827138 0.052390
O O9 0.952503 0.358690 0.423381
O O10 0.500000 0.000000 0.500000
O O11 0.155980 0.786772 0.162870
O O12 0.566545 0.131348 0.793345
O O13 0.927966 0.394966 0.984378
O O14 0.664068 0.312516 0.865240
O O15 0.772827 0.497258 0.991791
O O16 0.741323 0.587502 0.099533
O O17 0.500000 0.500000 0.500000
#
# Coordination Sequence:
#
# PCOD9044450 Si02
#       8
#     2   2   2   2   2   2   2   2
#     4  12  27  46  77 117 159 201 270 326 396 479
#     4  10  23  46  75 106 154 212 273 327 413 463
#     4  11  26  50  84 116 159 206 260 334 402 488
#     4  10  23  47  74 109 152 211 269 339 394 481
#     4  10  26  49  79 115 154 204 259 332 408 474
#     4  11  28  47  77 116 154 208 268 318 412 467
#     4  10  24  50  78 111 154 203 260 332 399 481
#     4  12  26  45  73 113 157 207 256 332 387 478
#
# _framework density 26.985579999999999
#
# number of rings (size 3 to 8) (size 9 to 14) (size 15 to 20)
#    0.000    1.250    1.250    1.875    8.750    3.500 
#    0.000    1.250    0.000    0.000    0.000    0.000 
#    0.000    0.000    0.000    0.000    0.000    0.000 
#
# Total GULP energy -89533.074646 kJ/mol
# GULP energy per Si atom -5595.817165 kJ/mol
# Density = 2.692416 g / cm^3
# Si number density = 26.985580 Si / 1000 Ang^3
#
#
#
# Elastic Constant Matrix: (Units=GPa)
#
#
# Indices 1 2 3 4 5 6 
#
# 1 140.1676 33.1294 42.6194 10.0321 -21.9087 -31.9582
# 2 33.1294 131.0783 34.7920 7.4304 -5.8884 -33.2126
# 3 42.6194 34.7920 149.9993 14.4054 -16.1482 -32.2978
# 4 10.0321 7.4304 14.4054 38.6289 -4.4749 3.2882
# 5 -21.9087 -5.8884 -16.1482 -4.4749 62.3770 3.6644
# 6 -31.9582 -33.2126 -32.2978 3.2882 3.6644 42.5299
#
#
#
# Elastic Compliance Matrix: (Units=1/GPa)
#
#
# Indices 1 2 3 4 5 6 
#
# 1 0.009427 -0.000369 -0.000766 -0.002322 0.002548 0.006173
# 2 -0.000369 0.009791 -0.000378 -0.002251 0.000110 0.007247
# 3 -0.000766 -0.000378 0.008703 -0.003316 0.001365 0.005877
# 4 -0.002322 -0.002251 -0.003316 0.028946 0.000679 -0.008317
# 5 0.002548 0.000110 0.001365 0.000679 0.017251 0.001498
# 6 0.006173 0.007247 0.005877 -0.008317 0.001498 0.038788
#
#
# Mechanical properties :
#
#
# Convention : Reuss Voigt Hill
#
# Bulk Modulus (GPa) = 40.16938 71.36963 55.76951
# Shear Modulus (GPa) = 40.24793 49.42079 44.83436
#
# Velocity S-wave (km/s) = 3.86613 4.28410 4.08047
# Velocity P-wave (km/s) = 5.90315 7.13976 6.55070
#
# Compressibility (1/GPa) = 0.02489458
#
# Stress axis : x y z
#
# Youngs Moduli (GPa) = 106.08386 102.13222 114.90435
#
# Poissons Ratio (x) = 0.03767 0.08805
# Poissons Ratio (y) = 0.03913 0.04343
# Poissons Ratio (z) = 0.08129 0.03860
#
# Static dielectric constant tensor:
#      x y z
#    x 2.248840 0.092080 0.034340 
#    y 0.092080 2.223870 0.128230 
#    z 0.034340 0.128230 2.155180 
# 
# From -- ./inp_files/112889.got.cif
#   From: 2010.05.17/outbox.cif.g08.bks.cpg/sg2_57_cif.got.tgz:112889.got - 2010.06.03 11:33:40.
