data_PCOD9044086
_publ_section_title
;
Structure prediction by ZEFSAII (Michael W. Deem and Ramdas Pophale) SiO2 
 PCOD9044086
Probable space group: P -1
;
_chemical_formula_sum "Si O2"
_cell_formula_units_Z 14
_cell_length_a 14.743438
_cell_length_b 5.278993
_cell_length_c 19.048287
_cell_angle_alpha 115.330592
_cell_angle_beta 27.780902
_cell_angle_gamma 101.860222
_cell_volume 569.469327
_symmetry_space_group_name_H-M "P -1"
_symmetry_group_IT_number 2
_symmetry_cell_setting 'triclinic'
loop_
_space_group_symop_operation_xyz
x,y,z
-x,-y,-z
loop_
_atom_site_type_symbol
_atom_site_label
_atom_site_fract_x
_atom_site_fract_y
_atom_site_fract_z
Si Si1 0.098739 0.579097 0.832563
Si Si2 0.074277 0.552650 0.201239
Si Si3 0.517697 0.506828 0.857465
Si Si4 0.645167 0.156536 0.582490
Si Si5 0.232883 0.075829 0.298360
Si Si6 0.962219 0.412840 0.398292
Si Si7 0.741356 0.933548 0.235376
O O1 0.963482 0.626465 0.860166
O O2 0.200651 0.226642 0.747069
O O3 0.269526 0.724536 0.720600
O O4 0.937288 0.753944 0.026549
O O5 0.118311 0.370422 0.222144
O O6 0.847541 0.833039 0.402773
O O7 0.268214 0.639199 0.059420
O O8 0.560899 0.290640 0.733186
O O9 0.608888 0.761275 0.810989
O O10 0.643522 0.274883 0.806261
O O11 0.749056 0.387454 0.512674
O O12 0.457794 0.123955 0.663588
O O13 0.103607 0.267604 0.477227
O O14 0.932869 0.836084 0.641556
#
# Coordination Sequence:
#
# PCOD9044086 Si02
#       7
#     2   2   2   2   2   2   2
#     4  10  24  43  70 100 132 178 227 276 333 412
#     4  12  26  43  70 107 133 180 233 284 329 415
#     4  11  25  45  71  98 138 184 226 281 343 395
#     4  11  25  45  69 102 138 182 221 290 337 409
#     4  10  24  47  70  97 142 186 221 282 344 399
#     4  10  25  43  71 102 139 178 234 278 340 406
#     4  10  23  46  69  96 137 180 220 276 344 401
#
# _framework density 24.584292000000001
#
# number of rings (size 3 to 8) (size 9 to 14) (size 15 to 20)
#    0.000    1.429    2.857    0.000    8.000    4.000 
#    0.000    0.000    0.000    0.000    0.000    0.000 
#    0.000    0.000    0.000    0.000    0.000    0.000 
#
# Total GULP energy -78393.251313 kJ/mol
# GULP energy per Si atom -5599.517951 kJ/mol
# Density = 2.452834 g / cm^3
# Si number density = 24.584292 Si / 1000 Ang^3
#
#
#
# Elastic Constant Matrix: (Units=GPa)
#
#
# Indices 1 2 3 4 5 6 
#
# 1 91.9126 41.3351 18.7826 -34.7874 -0.5606 5.2765
# 2 41.3351 97.0794 41.2624 -27.4712 8.5085 -1.5788
# 3 18.7826 41.2624 95.1748 -24.8996 -6.6542 -2.8026
# 4 -34.7874 -27.4712 -24.8996 39.3490 4.8329 -7.7855
# 5 -0.5606 8.5085 -6.6542 4.8329 39.3694 -12.9044
# 6 5.2765 -1.5788 -2.8026 -7.7855 -12.9044 34.7672
#
#
#
# Elastic Compliance Matrix: (Units=1/GPa)
#
#
# Indices 1 2 3 4 5 6 
#
# 1 0.017725 -0.004489 0.002110 0.013950 -0.000002 0.000399
# 2 -0.004489 0.016207 -0.005261 0.004665 -0.004965 0.000195
# 3 0.002110 -0.005261 0.014816 0.007844 0.003976 0.003867
# 4 0.013950 0.004665 0.007844 0.047967 -0.002583 0.008510
# 5 -0.000002 -0.004965 0.003976 -0.002583 0.031086 0.011055
# 6 0.000399 0.000195 0.003867 0.008510 0.011055 0.035032
#
#
# Mechanical properties :
#
#
# Convention : Reuss Voigt Hill
#
# Bulk Modulus (GPa) = 29.88215 54.10300 41.99257
# Shear Modulus (GPa) = 26.41733 34.88292 30.65012
#
# Velocity S-wave (km/s) = 3.28161 3.77093 3.53475
# Velocity P-wave (km/s) = 5.15169 6.40428 5.81183
#
# Compressibility (1/GPa) = 0.03346480
#
# Stress axis : x y z
#
# Youngs Moduli (GPa) = 56.41877 61.70187 67.49605
#
# Poissons Ratio (x) = 0.27700 -0.14238
# Poissons Ratio (y) = 0.25328 0.35512
# Poissons Ratio (z) = -0.11902 0.32464
#
# Static dielectric constant tensor:
#      x y z
#    x 1.927010 -0.019440 0.015720 
#    y -0.019440 2.003740 0.023910 
#    z 0.015720 0.023910 1.937050 
# 
# From -- ./inp_files/584389.got.cif
#   From: 2010.05.17/outbox.cif.g08.bks.cpg/sg2_293_cif.got.tgz:584389.got - 2010.06.03 11:33:40.
