data_PCOD9044202
_publ_section_title
;
Structure prediction by ZEFSAII (Michael W. Deem and Ramdas Pophale) SiO2 
 PCOD9044202
Probable space group: P -1
;
_chemical_formula_sum "Si O2"
_cell_formula_units_Z 15
_cell_length_a 14.991744
_cell_length_b 14.186827
_cell_length_c 8.297443
_cell_angle_alpha 86.671023
_cell_angle_beta 86.909107
_cell_angle_gamma 18.641764
_cell_volume 563.145301
_symmetry_space_group_name_H-M "P -1"
_symmetry_group_IT_number 2
_symmetry_cell_setting 'triclinic'
loop_
_space_group_symop_operation_xyz
x,y,z
-x,-y,-z
loop_
_atom_site_type_symbol
_atom_site_label
_atom_site_fract_x
_atom_site_fract_y
_atom_site_fract_z
Si Si1 0.490495 0.352780 0.774797
Si Si2 0.170221 0.921458 0.539916
Si Si3 0.500000 0.000000 0.000000
Si Si4 0.606797 0.756672 0.309448
Si Si5 0.009997 0.133759 0.031231
Si Si6 0.321398 0.536127 0.266722
Si Si7 0.901101 0.706789 0.481695
Si Si8 0.818502 0.506719 0.846015
O O1 0.489178 0.241066 0.773071
O O2 0.640622 0.236312 0.611579
O O3 0.178071 0.696301 0.810412
O O4 0.675254 0.200751 0.923016
O O5 0.915970 0.240681 0.595390
O O6 0.408729 0.679015 0.679190
O O7 0.000000 0.000000 0.500000
O O8 0.430069 0.118180 0.817508
O O9 0.684958 0.730014 0.921519
O O10 0.916590 0.430416 0.378078
O O11 0.415764 0.963234 0.465758
O O12 0.860995 0.235654 0.882353
O O13 0.982639 0.273277 0.976512
O O14 0.398336 0.353911 0.217811
O O15 0.982848 0.660773 0.302222
O O16 0.000000 0.500000 0.500000
#
# Coordination Sequence:
#
# PCOD9044202 Si02
#       8
#     2   2   1   2   2   2   2   2
#     4  12  23  45  68 102 140 179 236 284 358 414
#     4  12  25  46  77 108 137 179 236 293 352 432
#     4  12  24  44  68 102 140 180 244 290 330 396
#     4  12  26  42  66  96 134 181 230 291 340 404
#     4  10  24  42  71  96 141 190 224 277 355 417
#     4  10  23  46  71 103 144 183 227 279 368 413
#     4  12  25  42  61  91 130 178 237 284 342 398
#     4  10  24  44  70  97 143 188 236 285 345 408
#
# _framework density 26.636109000000001
#
# number of rings (size 3 to 8) (size 9 to 14) (size 15 to 20)
#    0.800    0.000    2.667    4.800    0.000    2.667 
#    0.000    4.000    0.000    0.000    0.000    0.000 
#    0.000    0.000    0.000    0.000    0.000    0.000 
#
# Total GULP energy -83791.278743 kJ/mol
# GULP energy per Si atom -5586.085250 kJ/mol
# Density = 2.657548 g / cm^3
# Si number density = 26.636109 Si / 1000 Ang^3
#
#
#
# Elastic Constant Matrix: (Units=GPa)
#
#
# Indices 1 2 3 4 5 6 
#
# 1 61.5000 12.9780 22.1326 -1.1822 11.2866 -2.6073
# 2 12.9780 101.1839 26.9229 7.1761 11.9914 -15.8563
# 3 22.1326 26.9229 125.0407 15.1139 -6.0651 -15.5150
# 4 -1.1822 7.1761 15.1139 52.5978 -12.1019 4.9416
# 5 11.2866 11.9914 -6.0651 -12.1019 34.0579 -2.2466
# 6 -2.6073 -15.8563 -15.5150 4.9416 -2.2466 30.9075
#
#
#
# Elastic Compliance Matrix: (Units=1/GPa)
#
#
# Indices 1 2 3 4 5 6 
#
# 1 0.018929 -0.000869 -0.003655 0.000181 -0.006632 -0.001195
# 2 -0.000869 0.012062 -0.001675 -0.002817 -0.004904 0.005368
# 3 -0.003655 -0.001675 0.010001 -0.002456 0.003004 0.004464
# 4 0.000181 -0.002817 -0.002456 0.022507 0.008118 -0.005671
# 5 -0.006632 -0.004904 0.003004 0.008118 0.036693 -0.000198
# 6 -0.001195 0.005368 0.004464 -0.005671 -0.000198 0.038141
#
#
# Mechanical properties :
#
#
# Convention : Reuss Voigt Hill
#
# Bulk Modulus (GPa) = 34.97184 45.75464 40.36324
# Shear Modulus (GPa) = 31.19878 38.55872 34.87875
#
# Velocity S-wave (km/s) = 3.42613 3.80888 3.62256
# Velocity P-wave (km/s) = 5.36742 6.04635 5.71697
#
# Compressibility (1/GPa) = 0.02859444
#
# Stress axis : x y z
#
# Youngs Moduli (GPa) = 52.82892 82.90337 99.98642
#
# Poissons Ratio (x) = 0.07207 0.36546
# Poissons Ratio (y) = 0.04593 0.16744
# Poissons Ratio (z) = 0.19310 0.13883
#
# Static dielectric constant tensor:
#      x y z
#    x 2.152500 -0.006140 0.043560 
#    y -0.006140 1.985640 -0.015720 
#    z 0.043560 -0.015720 2.126410 
# 
# From -- ./inp_files/313356.got.cif
#   From: 2010.05.17/outbox.cif.g08.bks.cpg/sg2_157_cif.got.tgz:313356.got - 2010.06.03 11:33:40.
