data_PCOD9044808
_publ_section_title
;
Structure prediction by ZEFSAII (Michael W. Deem and Ramdas Pophale) SiO2 
 PCOD9044808
Probable space group: P -1
;
_chemical_formula_sum "Si O2"
_cell_formula_units_Z 12
_cell_length_a 11.073349
_cell_length_b 18.448364
_cell_length_c 4.974156
_cell_angle_alpha 77.328551
_cell_angle_beta 91.612321
_cell_angle_gamma 150.780896
_cell_volume 454.609386
_symmetry_space_group_name_H-M "P -1"
_symmetry_group_IT_number 2
_symmetry_cell_setting 'triclinic'
loop_
_space_group_symop_operation_xyz
x,y,z
-x,-y,-z
loop_
_atom_site_type_symbol
_atom_site_label
_atom_site_fract_x
_atom_site_fract_y
_atom_site_fract_z
Si Si1 0.555393 0.318608 0.347648
Si Si2 0.298078 0.979674 0.867816
Si Si3 0.898606 0.886974 0.858048
Si Si4 0.337261 0.721471 0.093170
Si Si5 0.421893 0.540915 0.407085
Si Si6 0.867219 0.258871 0.665219
O O1 0.597048 0.296417 0.641456
O O2 0.602677 0.429732 0.333982
O O3 0.252806 0.154084 0.359003
O O4 0.701051 0.350284 0.105361
O O5 0.412070 0.085640 0.053137
O O6 0.578115 0.113972 0.630733
O O7 0.167352 0.832275 0.075785
O O8 0.100985 0.930853 0.766369
O O9 0.651746 0.707426 0.126103
O O10 0.000000 0.000000 0.000000
O O11 0.109988 0.653015 0.230083
O O12 0.500000 0.500000 0.500000
O O13 0.124971 0.387515 0.398908
#
# Coordination Sequence:
#
# PCOD9044808 Si02
#       6
#     2   2   2   2   2   2
#     4  12  25  48  73 111 147 197 248 309 369 448
#     4   9  19  45  75 103 150 194 248 303 368 444
#     4  12  23  47  75 110 145 195 248 304 369 439
#     4  10  23  47  74 106 147 196 248 305 366 442
#     4  12  26  46  76 109 151 193 248 309 374 439
#     4   9  21  47  72 108 148 197 247 302 374 442
#
# _framework density 26.396284999999999
#
# number of rings (size 3 to 8) (size 9 to 14) (size 15 to 20)
#    1.000    0.333    5.000    0.000    0.000    4.667 
#    3.000    3.333    0.000    0.000    0.000    0.000 
#    0.000    0.000    0.000    0.000    0.000    0.000 
#
# Total GULP energy -67099.725256 kJ/mol
# GULP energy per Si atom -5591.643771 kJ/mol
# Density = 2.633621 g / cm^3
# Si number density = 26.396285 Si / 1000 Ang^3
#
#
#
# Elastic Constant Matrix: (Units=GPa)
#
#
# Indices 1 2 3 4 5 6 
#
# 1 240.5611 60.0427 49.2419 -8.6461 -15.2428 -13.3408
# 2 60.0427 100.3252 43.7414 -14.2779 -3.4419 -9.7832
# 3 49.2419 43.7414 84.0115 12.7502 -2.2735 -6.1969
# 4 -8.6461 -14.2779 12.7502 45.1773 8.1612 -15.1066
# 5 -15.2428 -3.4419 -2.2735 8.1612 35.8049 -17.7223
# 6 -13.3408 -9.7832 -6.1969 -15.1066 -17.7223 55.5178
#
#
#
# Elastic Compliance Matrix: (Units=1/GPa)
#
#
# Indices 1 2 3 4 5 6 
#
# 1 0.005373 -0.001814 -0.002180 0.001231 0.002637 0.001905
# 2 -0.001814 0.016309 -0.008415 0.008431 0.000258 0.003875
# 3 -0.002180 -0.008415 0.018805 -0.009224 0.000431 -0.002280
# 4 0.001231 0.008431 -0.009224 0.030851 -0.002086 0.008481
# 5 0.002637 0.000258 0.000431 -0.002086 0.035224 0.011404
# 6 0.001905 0.003875 -0.002280 0.008481 0.011404 0.024846
#
#
# Mechanical properties :
#
#
# Convention : Reuss Voigt Hill
#
# Bulk Modulus (GPa) = 63.81605 81.21664 72.51634
# Shear Modulus (GPa) = 30.96973 45.42478 38.19726
#
# Velocity S-wave (km/s) = 3.42901 4.15285 3.80816
# Velocity P-wave (km/s) = 6.31713 7.33688 6.84602
#
# Compressibility (1/GPa) = 0.01567004
#
# Stress axis : x y z
#
# Youngs Moduli (GPa) = 186.12313 61.31747 53.17597
#
# Poissons Ratio (x) = 0.11122 0.11591
# Poissons Ratio (y) = 0.33759 0.44747
# Poissons Ratio (z) = 0.40570 0.51598
#
# Static dielectric constant tensor:
#      x y z
#    x 2.036900 0.049400 -0.017420 
#    y 0.049400 2.185480 -0.081700 
#    z -0.017420 -0.081700 2.177670 
# 
# From -- ./inp_files/79197.got.cif
#   From: 2010.05.17/outbox.cif.g08.bks.cpg/sg2_40_cif.got.tgz:79197.got - 2010.06.03 11:33:40.
