data_PCOD9044688
_publ_section_title
;
Structure prediction by ZEFSAII (Michael W. Deem and Ramdas Pophale) SiO2 
 PCOD9044688
Probable space group: P -1
;
_chemical_formula_sum "Si O2"
_cell_formula_units_Z 14
_cell_length_a 7.363173
_cell_length_b 14.466088
_cell_length_c 7.029417
_cell_angle_alpha 51.632794
_cell_angle_beta 102.179086
_cell_angle_gamma 73.712627
_cell_volume 484.156688
_symmetry_space_group_name_H-M "P -1"
_symmetry_group_IT_number 2
_symmetry_cell_setting 'triclinic'
loop_
_space_group_symop_operation_xyz
x,y,z
-x,-y,-z
loop_
_atom_site_type_symbol
_atom_site_label
_atom_site_fract_x
_atom_site_fract_y
_atom_site_fract_z
Si Si1 0.406472 0.215102 0.892435
Si Si2 0.702143 0.289846 0.072692
Si Si3 0.788231 0.732538 0.710681
Si Si4 0.657845 0.159681 0.664766
Si Si5 0.817753 0.464384 0.656771
Si Si6 0.819120 0.906642 0.761021
Si Si7 0.122852 0.690817 0.519026
O O1 0.579177 0.119033 0.890025
O O2 0.275874 0.374247 0.585138
O O3 0.546348 0.233452 0.064610
O O4 0.248372 0.166720 0.997075
O O5 0.716212 0.333619 0.234230
O O6 0.941360 0.173263 0.185761
O O7 0.658006 0.424160 0.773006
O O8 0.582585 0.723264 0.622611
O O9 0.691406 0.887043 0.581910
O O10 0.914577 0.728325 0.553969
O O11 0.963376 0.617738 0.049244
O O12 0.831731 0.199718 0.713952
O O13 0.771597 0.044864 0.673292
O O14 0.843868 0.413906 0.507520
#
# Coordination Sequence:
#
# PCOD9044688 Si02
#       7
#     2   2   2   2   2   2   2
#     4  12  25  44  74 107 147 190 235 300 358 432
#     4  10  24  45  71 109 140 188 239 294 368 422
#     4  10  26  47  72 108 141 190 243 296 361 425
#     4  12  25  43  77 104 144 194 240 291 364 426
#     4  10  23  49  70 107 149 181 243 296 362 430
#     4  10  25  47  67 107 144 186 247 292 351 434
#     4  10  23  47  71 107 141 191 233 301 362 420
#
# _framework density 28.916256000000001
#
# number of rings (size 3 to 8) (size 9 to 14) (size 15 to 20)
#    0.000    1.714    1.429    2.143    4.000    7.429 
#    7.714    3.571    0.000    0.000    0.000    0.000 
#    0.000    0.000    0.000    0.000    0.000    0.000 
#
# Total GULP energy -78268.700632 kJ/mol
# GULP energy per Si atom -5590.621474 kJ/mol
# Density = 2.885044 g / cm^3
# Si number density = 28.916256 Si / 1000 Ang^3
#
#
#
# Elastic Constant Matrix: (Units=GPa)
#
#
# Indices 1 2 3 4 5 6 
#
# 1 187.0257 43.8523 29.6143 -4.4330 -9.6235 8.0991
# 2 43.8523 215.9679 45.7770 24.8026 -3.4721 -7.7589
# 3 29.6143 45.7770 84.5152 26.2706 8.5626 -16.0223
# 4 -4.4330 24.8026 26.2706 56.3487 -1.4458 -14.9144
# 5 -9.6235 -3.4721 8.5626 -1.4458 40.9020 11.0401
# 6 8.0991 -7.7589 -16.0223 -14.9144 11.0401 50.0701
#
#
#
# Elastic Compliance Matrix: (Units=1/GPa)
#
#
# Indices 1 2 3 4 5 6 
#
# 1 0.006296 -0.000889 -0.002952 0.001758 0.002671 -0.002166
# 2 -0.000889 0.005477 -0.002351 -0.001462 0.000796 -0.000371
# 3 -0.002952 -0.002351 0.017710 -0.006209 -0.006254 0.005310
# 4 0.001758 -0.001462 -0.006209 0.022492 0.001329 0.003909
# 5 0.002671 0.000796 -0.006254 0.001329 0.028727 -0.008248
# 6 -0.002166 -0.000371 0.005310 0.003909 -0.008248 0.024947
#
#
# Mechanical properties :
#
#
# Convention : Reuss Voigt Hill
#
# Bulk Modulus (GPa) = 58.48795 80.66623 69.57709
# Shear Modulus (GPa) = 40.40940 54.01518 47.21229
#
# Velocity S-wave (km/s) = 3.74232 4.32671 4.04508
# Velocity P-wave (km/s) = 6.24050 7.27445 6.77722
#
# Compressibility (1/GPa) = 0.01709754
#
# Stress axis : x y z
#
# Youngs Moduli (GPa) = 158.83815 182.59197 56.46378
#
# Poissons Ratio (x) = 0.16241 0.16668
# Poissons Ratio (y) = 0.14128 0.13276
# Poissons Ratio (z) = 0.46889 0.42932
#
# Static dielectric constant tensor:
#      x y z
#    x 2.299860 -0.008070 0.062560 
#    y -0.008070 2.187810 0.011390 
#    z 0.062560 0.011390 2.531040 
# 
# From -- ./inp_files/211708.got.cif
#   From: 2010.05.17/outbox.cif.g08.bks.cpg/sg2_106_cif.got.tgz:211708.got - 2010.06.03 11:33:40.
