data_PCOD9044510
_publ_section_title
;
Structure prediction by ZEFSAII (Michael W. Deem and Ramdas Pophale) SiO2 
 PCOD9044510
Probable space group: P -1
;
_chemical_formula_sum "Si O2"
_cell_formula_units_Z 14
_cell_length_a 5.324817
_cell_length_b 18.696451
_cell_length_c 6.614744
_cell_angle_alpha 75.067983
_cell_angle_beta 100.507369
_cell_angle_gamma 116.261028
_cell_volume 568.843272
_symmetry_space_group_name_H-M "P -1"
_symmetry_group_IT_number 2
_symmetry_cell_setting 'triclinic'
loop_
_space_group_symop_operation_xyz
x,y,z
-x,-y,-z
loop_
_atom_site_type_symbol
_atom_site_label
_atom_site_fract_x
_atom_site_fract_y
_atom_site_fract_z
Si Si1 0.412355 0.076032 0.959743
Si Si2 0.684833 0.721737 0.071920
Si Si3 0.099269 0.707939 0.793217
Si Si4 0.577391 0.423863 0.550635
Si Si5 0.145524 0.990847 0.328313
Si Si6 0.944055 0.456935 0.236456
Si Si7 0.850441 0.170019 0.654431
O O1 0.117856 0.047956 0.829933
O O2 0.625844 0.152842 0.814508
O O3 0.500000 0.000000 0.000000
O O4 0.360051 0.073619 0.193762
O O5 0.604774 0.647280 0.274063
O O6 0.863579 0.796412 0.194169
O O7 0.398290 0.720310 0.932437
O O8 0.890453 0.716738 0.926760
O O9 0.972038 0.618324 0.734730
O O10 0.138409 0.768847 0.566387
O O11 0.500000 0.500000 0.500000
O O12 0.643266 0.412505 0.335996
O O13 0.885842 0.461252 0.669678
O O14 0.246059 0.918521 0.401102
O O15 0.000000 0.000000 0.500000
O O16 0.000000 0.500000 0.000000
#
# Coordination Sequence:
#
# PCOD9044510 Si02
#       7
#     2   2   2   2   2   2   2
#     4   9  22  45  70 105 143 186 239 310 371 454
#     4  12  30  49  74 113 159 202 260 318 391 460
#     4  12  30  48  77 114 154 212 261 311 393 459
#     4  11  25  43  76 105 148 204 255 327 383 442
#     4  10  23  46  79 109 142 192 253 309 380 463
#     4  11  24  45  73 106 147 199 264 317 372 448
#     4  11  28  48  75 107 160 196 250 321 386 461
#
# _framework density 24.611348
#
# number of rings (size 3 to 8) (size 9 to 14) (size 15 to 20)
#    0.000    1.143    1.429    1.714   12.000    8.000 
#    0.000    0.000    0.000    0.000    0.000    0.000 
#    0.000    0.000    0.000    0.000    0.000    0.000 
#
# Total GULP energy -78093.063405 kJ/mol
# GULP energy per Si atom -5578.075958 kJ/mol
# Density = 2.455533 g / cm^3
# Si number density = 24.611348 Si / 1000 Ang^3
#
#
#
# Elastic Constant Matrix: (Units=GPa)
#
#
# Indices 1 2 3 4 5 6 
#
# 1 118.1646 15.5720 72.5207 -10.5654 -24.6548 3.2637
# 2 15.5720 91.5951 70.6454 -18.6011 -23.6150 -3.2030
# 3 72.5207 70.6454 211.7628 -43.4575 -47.7730 3.7969
# 4 -10.5654 -18.6011 -43.4575 49.3430 9.3966 -0.1055
# 5 -24.6548 -23.6150 -47.7730 9.3966 54.3551 7.5730
# 6 3.2637 -3.2030 3.7969 -0.1055 7.5730 38.7031
#
#
#
# Elastic Compliance Matrix: (Units=1/GPa)
#
#
# Indices 1 2 3 4 5 6 
#
# 1 0.011155 0.001583 -0.003954 -0.000989 0.002572 -0.000928
# 2 0.001583 0.015373 -0.004766 0.001402 0.002818 0.001059
# 3 -0.003954 -0.004766 0.009638 0.005085 0.003974 -0.001770
# 4 -0.000989 0.001402 0.005085 0.024994 0.000350 -0.000300
# 5 0.002572 0.002818 0.003974 0.000350 0.024954 -0.005255
# 6 -0.000928 0.001059 -0.001770 -0.000300 -0.005255 0.027205
#
#
# Mechanical properties :
#
#
# Convention : Reuss Voigt Hill
#
# Bulk Modulus (GPa) = 45.67953 82.11098 63.89526
# Shear Modulus (GPa) = 37.06729 45.99920 41.53324
#
# Velocity S-wave (km/s) = 3.88507 4.32791 4.11245
# Velocity P-wave (km/s) = 6.22299 7.64264 6.96906
#
# Compressibility (1/GPa) = 0.02189164
#
# Stress axis : x y z
#
# Youngs Moduli (GPa) = 89.64643 65.04984 103.75202
#
# Poissons Ratio (x) = -0.10300 0.41028
# Poissons Ratio (y) = -0.14195 0.49451
# Poissons Ratio (z) = 0.35450 0.31004
#
# Static dielectric constant tensor:
#      x y z
#    x 2.191900 0.054120 -0.112560 
#    y 0.054120 2.063300 -0.010470 
#    z -0.112560 -0.010470 2.144250 
# 
# From -- ./inp_files/10778.got.cif
#   From: 2010.05.17/outbox.cif.g08.bks.cpg/sg2_6_cif.got.tgz:10778.got - 2010.06.03 11:33:40.
