data_PCOD9044532
_publ_section_title
;
Structure prediction by ZEFSAII (Michael W. Deem and Ramdas Pophale) SiO2 
 PCOD9044532
Probable space group: P -1
;
_chemical_formula_sum "Si O2"
_cell_formula_units_Z 16
_cell_length_a 12.597919
_cell_length_b 10.757154
_cell_length_c 7.298548
_cell_angle_alpha 124.334596
_cell_angle_beta 72.481257
_cell_angle_gamma 117.984422
_cell_volume 720.348303
_symmetry_space_group_name_H-M "P -1"
_symmetry_group_IT_number 2
_symmetry_cell_setting 'triclinic'
loop_
_space_group_symop_operation_xyz
x,y,z
-x,-y,-z
loop_
_atom_site_type_symbol
_atom_site_label
_atom_site_fract_x
_atom_site_fract_y
_atom_site_fract_z
Si Si1 0.148399 0.465719 0.869092
Si Si2 0.918267 0.027630 0.300211
Si Si3 0.228669 0.739910 0.775035
Si Si4 0.154146 0.229419 0.163048
Si Si5 0.084372 0.844206 0.212927
Si Si6 0.318887 0.330989 0.498690
Si Si7 0.444540 0.682343 0.527629
Si Si8 0.248258 0.602674 0.295533
O O1 0.164075 0.560458 0.749112
O O2 0.013963 0.340807 0.869575
O O3 0.233121 0.361893 0.720325
O O4 0.208623 0.599919 0.105866
O O5 0.014942 0.170146 0.248299
O O6 0.868803 0.086476 0.552844
O O7 0.004225 0.939814 0.261367
O O8 0.831723 0.894398 0.097266
O O9 0.372261 0.781851 0.744563
O O10 0.202685 0.709282 0.546669
O O11 0.180382 0.848192 0.013244
O O12 0.232744 0.229112 0.299009
O O13 0.192271 0.411558 0.218825
O O14 0.389727 0.505680 0.508613
O O15 0.414218 0.263121 0.474587
O O16 0.388761 0.659342 0.331418
#
# Coordination Sequence:
#
# PCOD9044532 Si02
#       8
#     2   2   2   2   2   2   2   2
#     4  11  18  30  53  79 104 133 166 204 261 305
#     4  10  21  32  50  71 100 141 177 205 245 288
#     4   9  20  35  49  74 110 134 159 210 259 305
#     4  10  17  34  50  75 105 128 173 215 241 301
#     4  11  20  34  49  72 103 139 172 206 250 303
#     4   9  15  30  55  72 104 131 163 209 256 294
#     4   7  16  32  49  76 100 135 158 204 261 302
#     4   9  18  33  50  80 104 127 169 201 260 306
#
# _framework density 22.211478
#
# number of rings (size 3 to 8) (size 9 to 14) (size 15 to 20)
#    0.750    1.750    3.750    0.375    0.000    1.000 
#    4.500    0.000    0.000    1.500    0.000    0.000 
#    0.000    0.000    0.000    0.000    0.000    0.000 
#
# Total GULP energy -89207.575454 kJ/mol
# GULP energy per Si atom -5575.473466 kJ/mol
# Density = 2.216092 g / cm^3
# Si number density = 22.211478 Si / 1000 Ang^3
#
#
#
# Elastic Constant Matrix: (Units=GPa)
#
#
# Indices 1 2 3 4 5 6 
#
# 1 93.1339 -3.6418 64.9726 -7.7006 -3.9670 6.9332
# 2 -3.6418 17.5545 -8.6013 0.7576 0.7830 -4.6112
# 3 64.9726 -8.6013 195.8117 -21.4451 4.4080 11.3429
# 4 -7.7006 0.7576 -21.4451 22.4829 -8.6447 2.5582
# 5 -3.9670 0.7830 4.4080 -8.6447 30.4620 -5.1997
# 6 6.9332 -4.6112 11.3429 2.5582 -5.1997 17.9497
#
#
#
# Elastic Compliance Matrix: (Units=1/GPa)
#
#
# Indices 1 2 3 4 5 6 
#
# 1 0.014287 -0.000002 -0.004464 0.001914 0.002675 -0.002196
# 2 -0.000002 0.061837 0.001584 -0.002253 0.000144 0.015249
# 3 -0.004464 0.001584 0.007511 0.005725 -0.000705 -0.003636
# 4 0.001914 -0.002253 0.005725 0.057136 0.014161 -0.008977
# 5 0.002675 0.000144 -0.000705 0.014161 0.038772 0.008663
# 6 -0.002196 0.015249 -0.003636 -0.008977 0.008663 0.066563
#
#
# Mechanical properties :
#
#
# Convention : Reuss Voigt Hill
#
# Bulk Modulus (GPa) = 12.84187 45.77323 29.30755
# Shear Modulus (GPa) = 17.99670 31.09696 24.54683
#
# Velocity S-wave (km/s) = 2.84957 3.74577 3.32797
# Velocity P-wave (km/s) = 4.07687 6.27379 5.29062
#
# Compressibility (1/GPa) = 0.07787030
#
# Stress axis : x y z
#
# Youngs Moduli (GPa) = 69.99331 16.17149 133.13455
#
# Poissons Ratio (x) = 0.00003 0.59433
# Poissons Ratio (y) = 0.00015 -0.21083
# Poissons Ratio (z) = 0.31246 -0.02561
#
# Static dielectric constant tensor:
#      x y z
#    x 1.862890 -0.054930 -0.019300 
#    y -0.054930 1.850230 0.007130 
#    z -0.019300 0.007130 1.854860 
# 
# From -- ./inp_files/292544.got.cif
#   From: 2010.05.17/outbox.cif.g08.bks.cpg/sg2_147_cif.got.tgz:292544.got - 2010.06.03 11:33:40.
