data_PCOD9044682
_publ_section_title
;
Structure prediction by ZEFSAII (Michael W. Deem and Ramdas Pophale) SiO2 
 PCOD9044682
Probable space group: P -1
;
_chemical_formula_sum "Si O2"
_cell_formula_units_Z 16
_cell_length_a 10.919709
_cell_length_b 11.337900
_cell_length_c 6.248915
_cell_angle_alpha 118.954506
_cell_angle_beta 80.629925
_cell_angle_gamma 88.024143
_cell_volume 662.144170
_symmetry_space_group_name_H-M "P -1"
_symmetry_group_IT_number 2
_symmetry_cell_setting 'triclinic'
loop_
_space_group_symop_operation_xyz
x,y,z
-x,-y,-z
loop_
_atom_site_type_symbol
_atom_site_label
_atom_site_fract_x
_atom_site_fract_y
_atom_site_fract_z
Si Si1 0.915085 0.440953 0.652535
Si Si2 0.760492 0.426476 0.304818
Si Si3 0.716715 0.019700 0.968107
Si Si4 0.341217 0.267075 0.350704
Si Si5 0.018853 0.947050 0.198186
Si Si6 0.022916 0.323099 0.911934
Si Si7 0.563128 0.254457 0.008084
Si Si8 0.555975 0.125084 0.479107
O O1 0.800076 0.397394 0.516288
O O2 0.997106 0.325938 0.668067
O O3 0.000000 0.500000 0.500000
O O4 0.891154 0.567906 0.933843
O O5 0.731118 0.589224 0.434584
O O6 0.645115 0.353614 0.193903
O O7 0.883542 0.369762 0.086478
O O8 0.597598 0.100368 0.951814
O O9 0.678838 0.061251 0.257000
O O10 0.831137 0.083615 0.889090
O O11 0.734133 0.859182 0.782650
O O12 0.418352 0.295392 0.140052
O O13 0.447502 0.207565 0.437700
O O14 0.938913 0.821970 0.124755
O O15 0.000000 0.000000 0.500000
O O16 0.000000 0.000000 0.000000
O O17 0.590319 0.235344 0.736040
O O18 0.500000 0.000000 0.500000
#
# Coordination Sequence:
#
# PCOD9044682 Si02
#       8
#     2   2   2   2   2   2   2   2
#     4   9  22  43  72  95 137 190 240 305 376 454
#     4  11  24  40  69 102 145 182 238 307 381 447
#     4  11  24  45  72 101 143 197 242 307 383 445
#     4  11  24  40  67 106 139 185 247 300 368 455
#     4  12  31  47  77 116 154 195 262 325 379 466
#     4  10  23  47  71 103 142 194 247 306 393 447
#     4  11  22  43  67 102 140 190 234 300 374 453
#     4  11  21  42  73  98 145 192 249 304 370 456
#
# _framework density 24.163923
#
# number of rings (size 3 to 8) (size 9 to 14) (size 15 to 20)
#    0.000    1.250    3.750    1.125    7.000    5.500 
#    0.000    0.000    0.000    0.000    0.000    0.000 
#    0.000    0.000    0.000    0.000    0.000    0.000 
#
# Total GULP energy -89223.580159 kJ/mol
# GULP energy per Si atom -5576.473760 kJ/mol
# Density = 2.410892 g / cm^3
# Si number density = 24.163923 Si / 1000 Ang^3
#
#
#
# Elastic Constant Matrix: (Units=GPa)
#
#
# Indices 1 2 3 4 5 6 
#
# 1 47.9524 4.4592 39.7234 0.8766 -2.4599 6.3670
# 2 4.4592 100.1668 60.2356 -5.9996 13.2762 -0.2182
# 3 39.7234 60.2356 140.7148 -10.8009 10.4581 2.6885
# 4 0.8766 -5.9996 -10.8009 42.0523 3.3944 6.1631
# 5 -2.4599 13.2762 10.4581 3.3944 48.8930 0.3153
# 6 6.3670 -0.2182 2.6885 6.1631 0.3153 32.6510
#
#
#
# Elastic Compliance Matrix: (Units=1/GPa)
#
#
# Indices 1 2 3 4 5 6 
#
# 1 0.030147 0.004632 -0.010787 -0.002293 0.002755 -0.004553
# 2 0.004632 0.014481 -0.007319 0.000298 -0.002153 -0.000239
# 3 -0.010787 -0.007319 0.013611 0.002747 -0.001660 0.000431
# 4 -0.002293 0.000298 0.002747 0.025447 -0.002521 -0.004556
# 5 0.002755 -0.002153 -0.001660 -0.002521 0.021707 -0.000149
# 6 -0.004553 -0.000239 0.000431 -0.004556 -0.000149 0.032339
#
#
# Mechanical properties :
#
#
# Convention : Reuss Voigt Hill
#
# Bulk Modulus (GPa) = 31.95781 55.29672 43.62727
# Shear Modulus (GPa) = 28.55334 37.01365 32.78349
#
# Velocity S-wave (km/s) = 3.44125 3.91803 3.68735
# Velocity P-wave (km/s) = 5.38922 6.58799 6.01853
#
# Compressibility (1/GPa) = 0.03129125
#
# Stress axis : x y z
#
# Youngs Moduli (GPa) = 33.17074 69.05496 73.47051
#
# Poissons Ratio (x) = -0.31989 0.79254
# Poissons Ratio (y) = -0.15366 0.53775
# Poissons Ratio (z) = 0.35782 0.50543
#
# Static dielectric constant tensor:
#      x y z
#    x 2.097780 0.067170 -0.052080 
#    y 0.067170 2.073290 -0.059540 
#    z -0.052080 -0.059540 2.090790 
# 
# From -- ./inp_files/72288.got.cif
#   From: 2010.05.17/outbox.cif.g08.bks.cpg/sg2_37_cif.got.tgz:72288.got - 2010.06.03 11:33:40.
