data_PCOD9044927
_publ_section_title
;
Structure prediction by ZEFSAII (Michael W. Deem and Ramdas Pophale) SiO2 
 PCOD9044927
Probable space group: P -1
;
_chemical_formula_sum "Si O2"
_cell_formula_units_Z 15
_cell_length_a 6.372813
_cell_length_b 13.976348
_cell_length_c 22.907404
_cell_angle_alpha 21.772683
_cell_angle_beta 114.464251
_cell_angle_gamma 105.784079
_cell_volume 649.446101
_symmetry_space_group_name_H-M "P -1"
_symmetry_group_IT_number 2
_symmetry_cell_setting 'triclinic'
loop_
_space_group_symop_operation_xyz
x,y,z
-x,-y,-z
loop_
_atom_site_type_symbol
_atom_site_label
_atom_site_fract_x
_atom_site_fract_y
_atom_site_fract_z
Si Si1 0.629976 0.208971 0.151700
Si Si2 0.804826 0.906629 0.458365
Si Si3 0.034977 0.877503 0.316546
Si Si4 0.362188 0.785795 0.621116
Si Si5 0.652005 0.691787 0.306721
Si Si6 0.763826 0.394396 0.814508
Si Si7 0.243900 0.053367 0.125217
Si Si8 0.500000 0.000000 0.000000
O O1 0.443336 0.183244 0.095933
O O2 0.683267 0.987662 0.335703
O O3 0.500000 0.500000 0.000000
O O4 0.895621 0.137618 0.192840
O O5 0.760708 0.642350 0.631371
O O6 0.097933 0.847326 0.525549
O O7 0.695047 0.159600 0.347838
O O8 0.241181 0.630313 0.511951
O O9 0.828056 0.754241 0.340639
O O10 0.144105 0.961812 0.223905
O O11 0.548076 0.504212 0.776715
O O12 0.500000 0.000000 0.500000
O O13 0.388102 0.795752 0.247998
O O14 0.666408 0.864632 0.153499
O O15 0.694087 0.150825 0.916019
O O16 0.028007 0.276848 0.940116
#
# Coordination Sequence:
#
# PCOD9044927 Si02
#       8
#     2   2   2   2   2   2   2   1
#     4  11  28  42  72 107 138 181 238 294 352 435
#     4  10  24  45  71 104 142 188 235 287 355 430
#     4  10  23  48  67  94 144 185 221 293 353 419
#     4   9  22  43  74  98 139 184 230 287 359 421
#     4  10  24  44  69  98 135 184 235 287 350 413
#     4  11  26  44  70 104 144 188 231 299 357 414
#     4  11  25  46  69 100 139 189 232 291 355 423
#     4  12  26  44  70 106 138 180 252 294 340 422
#
# _framework density 23.096606000000001
#
# number of rings (size 3 to 8) (size 9 to 14) (size 15 to 20)
#    0.000    1.600    1.333    0.400   13.067    2.133 
#    0.000    0.000    0.000    0.000    0.000    0.000 
#    0.000    0.000    0.000    0.000    0.000    0.000 
#
# Total GULP energy -83576.725897 kJ/mol
# GULP energy per Si atom -5571.781726 kJ/mol
# Density = 2.304404 g / cm^3
# Si number density = 23.096606 Si / 1000 Ang^3
#
#
#
# Elastic Constant Matrix: (Units=GPa)
#
#
# Indices 1 2 3 4 5 6 
#
# 1 104.5977 21.5204 61.3949 -6.5780 14.4478 -20.0503
# 2 21.5204 50.1379 32.6265 19.1242 12.5164 -3.2047
# 3 61.3949 32.6265 128.7857 9.5388 10.6994 -21.1477
# 4 -6.5780 19.1242 9.5388 20.0755 -4.3668 7.2768
# 5 14.4478 12.5164 10.6994 -4.3668 43.0630 -5.1962
# 6 -20.0503 -3.2047 -21.1477 7.2768 -5.1962 43.8004
#
#
#
# Elastic Compliance Matrix: (Units=1/GPa)
#
#
# Indices 1 2 3 4 5 6 
#
# 1 0.016680 -0.009711 -0.006745 0.017804 0.000805 0.000806
# 2 -0.009711 0.051604 -0.001867 -0.057181 -0.016353 0.005989
# 3 -0.006745 -0.001867 0.012817 -0.008213 -0.000699 0.004245
# 4 0.017804 -0.057181 -0.008213 0.125642 0.023242 -0.018115
# 5 0.000805 -0.016353 -0.000699 0.023242 0.030059 -0.001461
# 6 0.000806 0.005989 0.004245 -0.018115 -0.001461 0.028524
#
#
# Mechanical properties :
#
#
# Convention : Reuss Voigt Hill
#
# Bulk Modulus (GPa) = 22.49411 57.17834 39.83623
# Shear Modulus (GPa) = 15.78335 32.58641 24.18488
#
# Velocity S-wave (km/s) = 2.61696 3.76024 3.23943
# Velocity P-wave (km/s) = 4.34644 6.60775 5.59258
#
# Compressibility (1/GPa) = 0.04445609
#
# Stress axis : x y z
#
# Youngs Moduli (GPa) = 59.95025 19.37846 78.02298
#
# Poissons Ratio (x) = 0.18818 0.52626
# Poissons Ratio (y) = 0.58217 0.14564
# Poissons Ratio (z) = 0.40436 0.03617
#
# Static dielectric constant tensor:
#      x y z
#    x 1.858640 0.008270 0.057590 
#    y 0.008270 1.936750 -0.062340 
#    z 0.057590 -0.062340 1.901060 
# 
# From -- ./inp_files/360738.got.cif
#   From: 2010.05.17/outbox.cif.g08.bks.cpg/sg2_181_cif.got.tgz:360738.got - 2010.06.03 11:33:40.
