data_PCOD9044543
_publ_section_title
;
Structure prediction by ZEFSAII (Michael W. Deem and Ramdas Pophale) SiO2 
 PCOD9044543
Probable space group: P -1
;
_chemical_formula_sum "Si O2"
_cell_formula_units_Z 15
_cell_length_a 13.342809
_cell_length_b 8.314868
_cell_length_c 17.228573
_cell_angle_alpha 59.532278
_cell_angle_beta 156.372360
_cell_angle_gamma 121.871857
_cell_volume 649.047120
_symmetry_space_group_name_H-M "P -1"
_symmetry_group_IT_number 2
_symmetry_cell_setting 'triclinic'
loop_
_space_group_symop_operation_xyz
x,y,z
-x,-y,-z
loop_
_atom_site_type_symbol
_atom_site_label
_atom_site_fract_x
_atom_site_fract_y
_atom_site_fract_z
Si Si1 0.775871 0.326559 0.898872
Si Si2 0.718997 0.567463 0.399800
Si Si3 0.979106 0.044357 0.227337
Si Si4 0.138948 0.732234 0.308937
Si Si5 0.401974 0.423115 0.068705
Si Si6 0.461955 0.805249 0.931023
Si Si7 0.507547 0.725076 0.439676
Si Si8 0.000000 0.000000 0.500000
O O1 0.539394 0.398587 0.751466
O O2 0.673944 0.235450 0.767700
O O3 0.000000 0.500000 0.000000
O O4 0.875417 0.183901 0.061156
O O5 0.848993 0.444834 0.582636
O O6 0.620238 0.446731 0.282677
O O7 0.889094 0.772359 0.456807
O O8 0.103537 0.899892 0.299644
O O9 0.209476 0.168009 0.407644
O O10 0.730887 0.927938 0.120253
O O11 0.389324 0.781026 0.422331
O O12 0.885205 0.678038 0.089080
O O13 0.476664 0.303537 0.077921
O O14 0.380713 0.636480 0.975666
O O15 0.261943 0.936569 0.735716
O O16 0.500000 0.500000 0.500000
#
# Coordination Sequence:
#
# PCOD9044543 Si02
#       8
#     2   2   2   2   2   2   2   1
#     4  12  24  43  67 100 133 172 224 275 329 396
#     4  12  25  43  68  98 134 177 222 272 334 392
#     4  11  25  44  68  99 135 172 226 278 329 399
#     4  11  24  46  66 100 135 175 226 271 330 401
#     4  10  24  45  70  95 138 178 213 276 335 392
#     4  10  23  47  66 102 135 170 226 274 331 403
#     4  12  24  41  72  97 137 178 217 280 335 389
#     4  12  24  44  70 102 132 174 228 274 328 406
#
# _framework density 23.110803000000001
#
# number of rings (size 3 to 8) (size 9 to 14) (size 15 to 20)
#    0.000    0.800    5.333    1.200    0.000    4.800 
#    0.000    0.000    0.000    0.000    0.000    0.000 
#    0.000    0.000    0.000    0.000    0.000    0.000 
#
# Total GULP energy -83727.401493 kJ/mol
# GULP energy per Si atom -5581.826766 kJ/mol
# Density = 2.305820 g / cm^3
# Si number density = 23.110803 Si / 1000 Ang^3
#
#
#
# Elastic Constant Matrix: (Units=GPa)
#
#
# Indices 1 2 3 4 5 6 
#
# 1 34.7855 4.7688 14.5353 5.1636 1.7380 -3.8509
# 2 4.7688 97.8665 41.8406 12.9524 7.7564 -2.6673
# 3 14.5353 41.8406 123.4290 14.7380 -0.6038 -4.3612
# 4 5.1636 12.9524 14.7380 73.2223 -1.3188 13.5708
# 5 1.7380 7.7564 -0.6038 -1.3188 35.6351 0.7880
# 6 -3.8509 -2.6673 -4.3612 13.5708 0.7880 20.2524
#
#
#
# Elastic Compliance Matrix: (Units=1/GPa)
#
#
# Indices 1 2 3 4 5 6 
#
# 1 0.031426 0.000652 -0.003297 -0.003095 -0.002011 0.007503
# 2 0.000652 0.012445 -0.003999 -0.001922 -0.002930 0.002304
# 3 -0.003297 -0.003999 0.010090 -0.001430 0.001106 0.001934
# 4 -0.003095 -0.001922 -0.001430 0.016844 0.001445 -0.012493
# 5 -0.002011 -0.002930 0.001106 0.001445 0.028928 -0.002624
# 6 0.007503 0.002304 0.001934 -0.012493 -0.002624 0.059997
#
#
# Mechanical properties :
#
#
# Convention : Reuss Voigt Hill
#
# Bulk Modulus (GPa) = 24.58604 42.04115 33.31360
# Shear Modulus (GPa) = 26.79846 38.81772 32.80809
#
# Velocity S-wave (km/s) = 3.40893 4.10278 3.77185
# Velocity P-wave (km/s) = 5.11428 6.37765 5.78058
#
# Compressibility (1/GPa) = 0.04067348
#
# Stress axis : x y z
#
# Youngs Moduli (GPa) = 31.82032 80.35126 99.10699
#
# Poissons Ratio (x) = -0.05236 0.32675
# Poissons Ratio (y) = -0.02074 0.39632
# Poissons Ratio (z) = 0.10491 0.32132
#
# Static dielectric constant tensor:
#      x y z
#    x 1.968320 0.155980 0.163400 
#    y 0.155980 2.278660 0.540870 
#    z 0.163400 0.540870 2.400070 
# 
# From -- ./inp_files/332668.got.cif
#   From: 2010.05.17/outbox.cif.g08.bks.cpg/sg2_167_cif.got.tgz:332668.got - 2010.06.03 11:33:40.
