data_PCOD9044632
_publ_section_title
;
Structure prediction by ZEFSAII (Michael W. Deem and Ramdas Pophale) SiO2 
 PCOD9044632
Probable space group: P -1
;
_chemical_formula_sum "Si O2"
_cell_formula_units_Z 16
_cell_length_a 12.183980
_cell_length_b 25.634275
_cell_length_c 9.268926
_cell_angle_alpha 40.384743
_cell_angle_beta 136.963315
_cell_angle_gamma 159.528904
_cell_volume 654.074480
_symmetry_space_group_name_H-M "P -1"
_symmetry_group_IT_number 2
_symmetry_cell_setting 'triclinic'
loop_
_space_group_symop_operation_xyz
x,y,z
-x,-y,-z
loop_
_atom_site_type_symbol
_atom_site_label
_atom_site_fract_x
_atom_site_fract_y
_atom_site_fract_z
Si Si1 0.869296 0.851343 0.354255
Si Si2 0.778233 0.105029 0.783465
Si Si3 0.811804 0.243710 0.763572
Si Si4 0.901180 0.221496 0.195303
Si Si5 0.164269 0.392906 0.360264
Si Si6 0.033967 0.556913 0.736728
Si Si7 0.729401 0.813808 0.963955
Si Si8 0.300722 0.661778 0.361014
O O1 0.605929 0.740788 0.458588
O O2 0.063316 0.855388 0.562787
O O3 0.733631 0.792104 0.184854
O O4 0.074808 0.019632 0.208091
O O5 0.684179 0.117853 0.805153
O O6 0.896746 0.219951 0.536750
O O7 0.470029 0.922121 0.829525
O O8 0.071295 0.171625 0.950097
O O9 0.989630 0.378718 0.537612
O O10 0.602860 0.217515 0.710177
O O11 0.987082 0.277404 0.994919
O O12 0.127408 0.368485 0.206501
O O13 0.500000 0.500000 0.500000
O O14 0.102342 0.455737 0.228098
O O15 0.395663 0.689652 0.831885
O O16 0.841598 0.401453 0.805505
O O17 0.000000 0.500000 0.500000
#
# Coordination Sequence:
#
# PCOD9044632 Si02
#       8
#     2   2   2   2   2   2   2   2
#     4  11  24  42  69 106 137 180 235 291 357 408
#     4  11  24  45  68 102 140 181 236 280 353 413
#     4  10  24  44  69 101 135 186 230 282 349 412
#     4  12  24  44  74 102 140 185 230 296 347 418
#     4  11  24  43  68 102 141 181 231 282 347 418
#     4  10  24  45  70  99 142 184 231 289 347 417
#     4  11  25  42  71 105 141 179 237 294 347 415
#     4  10  23  47  69  97 142 186 231 286 354 423
#
# _framework density 24.462046000000001
#
# number of rings (size 3 to 8) (size 9 to 14) (size 15 to 20)
#    0.000    1.250    1.250    3.750    5.250    3.500 
#    0.000   13.750    0.000    0.000    0.000    0.000 
#    0.000    0.000    0.000    0.000    0.000    0.000 
#
# Total GULP energy -89356.091602 kJ/mol
# GULP energy per Si atom -5584.755725 kJ/mol
# Density = 2.440637 g / cm^3
# Si number density = 24.462046 Si / 1000 Ang^3
#
#
#
# Elastic Constant Matrix: (Units=GPa)
#
#
# Indices 1 2 3 4 5 6 
#
# 1 128.9705 32.4166 9.1819 22.4115 -0.1404 -3.2886
# 2 32.4166 90.2159 12.2782 18.5438 -4.3152 5.4434
# 3 9.1819 12.2782 108.8998 -5.6124 -8.8929 3.1337
# 4 22.4115 18.5438 -5.6124 38.2502 0.1852 -8.7313
# 5 -0.1404 -4.3152 -8.8929 0.1852 46.3147 7.9446
# 6 -3.2886 5.4434 3.1337 -8.7313 7.9446 39.2825
#
#
#
# Elastic Compliance Matrix: (Units=1/GPa)
#
#
# Indices 1 2 3 4 5 6 
#
# 1 0.009145 -0.002338 -0.000766 -0.004273 -0.000367 0.000275
# 2 -0.002338 0.013732 -0.001436 -0.006358 0.001663 -0.003733
# 3 -0.000766 -0.001436 0.009695 0.002454 0.001794 -0.000456
# 4 -0.004273 -0.006358 0.002454 0.033974 -0.001680 0.008219
# 5 -0.000367 0.001663 0.001794 -0.001680 0.023029 -0.005435
# 6 0.000275 -0.003733 -0.000456 0.008219 -0.005435 0.028959
#
#
# Mechanical properties :
#
#
# Convention : Reuss Voigt Hill
#
# Bulk Modulus (GPa) = 42.56411 48.42665 45.49538
# Shear Modulus (GPa) = 36.91598 43.05012 39.98305
#
# Velocity S-wave (km/s) = 3.88894 4.19964 4.04727
# Velocity P-wave (km/s) = 6.13213 6.58449 6.36233
#
# Compressibility (1/GPa) = 0.02349397
#
# Stress axis : x y z
#
# Youngs Moduli (GPa) = 109.35096 72.82458 103.14313
#
# Poissons Ratio (x) = 0.17024 0.07896
# Poissons Ratio (y) = 0.25563 0.14807
# Poissons Ratio (z) = 0.08372 0.10455
#
# Static dielectric constant tensor:
#      x y z
#    x 1.984710 -0.036140 -0.021490 
#    y -0.036140 1.919770 -0.029930 
#    z -0.021490 -0.029930 2.016960 
# 
# From -- ./inp_files/285811.got.cif
#   From: 2010.05.17/outbox.cif.g08.bks.cpg/sg2_143_cif.got.tgz:285811.got - 2010.06.03 11:33:40.
