data_PCOD9044046
_publ_section_title
;
Structure prediction by ZEFSAII (Michael W. Deem and Ramdas Pophale) SiO2 
 PCOD9044046
Probable space group: P -1
;
_chemical_formula_sum "Si O2"
_cell_formula_units_Z 14
_cell_length_a 4.900252
_cell_length_b 15.323284
_cell_length_c 21.178228
_cell_angle_alpha 161.150183
_cell_angle_beta 82.868233
_cell_angle_gamma 96.103079
_cell_volume 509.500323
_symmetry_space_group_name_H-M "P -1"
_symmetry_group_IT_number 2
_symmetry_cell_setting 'triclinic'
loop_
_space_group_symop_operation_xyz
x,y,z
-x,-y,-z
loop_
_atom_site_type_symbol
_atom_site_label
_atom_site_fract_x
_atom_site_fract_y
_atom_site_fract_z
Si Si1 0.946806 0.984299 0.831789
Si Si2 0.186859 0.748187 0.179423
Si Si3 0.727817 0.502577 0.441825
Si Si4 0.834313 0.243218 0.137871
Si Si5 0.608761 0.626232 0.979540
Si Si6 0.326996 0.243014 0.637221
Si Si7 0.849262 0.258366 0.568888
O O1 0.066430 0.732700 0.698130
O O2 0.825666 0.812354 0.658812
O O3 0.178982 0.183150 0.932557
O O4 0.760186 0.140351 0.998550
O O5 0.275698 0.650412 0.179613
O O6 0.984425 0.004144 0.356738
O O7 0.444300 0.767040 0.138606
O O8 0.000000 0.500000 0.000000
O O9 0.500000 0.500000 0.500000
O O10 0.644096 0.392108 0.299178
O O11 0.058723 0.465681 0.272474
O O12 0.000000 0.000000 0.000000
O O13 0.378894 0.508140 0.858859
O O14 0.017557 0.235177 0.615474
O O15 0.522670 0.262104 0.583520
O O16 0.500000 0.000000 0.500000
#
# Coordination Sequence:
#
# PCOD9044046 Si02
#       7
#     2   2   2   2   2   2   2
#     4  10  23  46  69 102 143 190 247 307 381 448
#     4  11  27  43  69 109 151 197 249 312 377 458
#     4  10  24  44  71 103 141 187 247 312 378 453
#     4  10  24  49  70 107 146 194 252 315 380 455
#     4  11  25  45  70 104 150 199 245 316 378 454
#     4  12  25  47  73 108 149 196 255 307 376 459
#     4  12  27  47  75 107 145 203 249 314 383 455
#
# _framework density 27.477902
#
# number of rings (size 3 to 8) (size 9 to 14) (size 15 to 20)
#    0.000    1.143    2.857    1.286    8.000    1.714 
#    5.143    0.000    0.000    0.000    0.000    0.000 
#    0.000    0.000    0.000    0.000    0.000    0.000 
#
# Total GULP energy -78217.083754 kJ/mol
# GULP energy per Si atom -5586.934554 kJ/mol
# Density = 2.741536 g / cm^3
# Si number density = 27.477902 Si / 1000 Ang^3
#
#
#
# Elastic Constant Matrix: (Units=GPa)
#
#
# Indices 1 2 3 4 5 6 
#
# 1 90.4611 36.5629 27.8197 -17.6320 6.5162 7.8497
# 2 36.5629 165.4706 70.8663 -14.7396 -4.2869 7.2370
# 3 27.8197 70.8663 180.3290 -26.5377 1.6947 15.0326
# 4 -17.6320 -14.7396 -26.5377 66.5936 7.9362 -10.0191
# 5 6.5162 -4.2869 1.6947 7.9362 34.4487 -5.5361
# 6 7.8497 7.2370 15.0326 -10.0191 -5.5361 53.6125
#
#
#
# Elastic Compliance Matrix: (Units=1/GPa)
#
#
# Indices 1 2 3 4 5 6 
#
# 1 0.013160 -0.002477 -0.000476 0.002992 -0.003669 -0.001279
# 2 -0.002477 0.007779 -0.002736 -0.000189 0.001649 0.000215
# 3 -0.000476 -0.002736 0.007118 0.002062 -0.001285 -0.001304
# 4 0.002992 -0.000189 0.002062 0.017385 -0.004406 0.001803
# 5 -0.003669 0.001649 -0.001285 -0.004406 0.031505 0.003105
# 6 -0.001279 0.000215 -0.001304 0.001803 0.003105 0.019834
#
#
# Mechanical properties :
#
#
# Convention : Reuss Voigt Hill
#
# Bulk Modulus (GPa) = 59.95027 78.52870 69.23949
# Shear Modulus (GPa) = 43.96820 50.99841 47.48331
#
# Velocity S-wave (km/s) = 4.00450 4.31278 4.16150
# Velocity P-wave (km/s) = 6.57620 7.31034 6.95296
#
# Compressibility (1/GPa) = 0.01668049
#
# Stress axis : x y z
#
# Youngs Moduli (GPa) = 75.98682 128.55167 140.48336
#
# Poissons Ratio (x) = 0.31841 0.06680
# Poissons Ratio (y) = 0.18821 0.38437
# Poissons Ratio (z) = 0.03613 0.35172
#
# Static dielectric constant tensor:
#      x y z
#    x 4.329750 -1.614350 -0.722410 
#    y -1.614350 3.387220 0.469950 
#    z -0.722410 0.469950 2.482490 
# 
# From -- ./inp_files/38419.got.cif
#   From: 2010.05.17/outbox.cif.g08.bks.cpg/sg2_20_cif.got.tgz:38419.got - 2010.06.03 11:33:40.
