data_PCOD9044073
_publ_section_title
;
Structure prediction by ZEFSAII (Michael W. Deem and Ramdas Pophale) SiO2 
 PCOD9044073
Probable space group: P -1
;
_chemical_formula_sum "Si O2"
_cell_formula_units_Z 16
_cell_length_a 9.075803
_cell_length_b 7.680978
_cell_length_c 23.675053
_cell_angle_alpha 117.883811
_cell_angle_beta 27.968799
_cell_angle_gamma 121.550654
_cell_volume 659.546252
_symmetry_space_group_name_H-M "P -1"
_symmetry_group_IT_number 2
_symmetry_cell_setting 'triclinic'
loop_
_space_group_symop_operation_xyz
x,y,z
-x,-y,-z
loop_
_atom_site_type_symbol
_atom_site_label
_atom_site_fract_x
_atom_site_fract_y
_atom_site_fract_z
Si Si1 0.194289 0.013695 0.822834
Si Si2 0.751509 0.640823 0.057974
Si Si3 0.163670 0.325991 0.591712
Si Si4 0.561201 0.030770 0.388841
Si Si5 0.190585 0.374261 0.270565
Si Si6 0.816535 0.690414 0.287597
Si Si7 0.480702 0.260148 0.962319
Si Si8 0.394769 0.685561 0.778489
O O1 0.379006 0.032784 0.704383
O O2 0.370943 0.891194 0.787219
O O3 0.176155 0.221329 0.889952
O O4 0.823355 0.874618 0.921193
O O5 0.483774 0.435209 0.135007
O O6 0.619751 0.769386 0.074126
O O7 0.076339 0.612373 0.915255
O O8 0.500000 0.500000 0.500000
O O9 0.248161 0.117999 0.514397
O O10 0.083481 0.333658 0.685859
O O11 0.908721 0.411850 0.655837
O O12 0.880200 0.208895 0.326171
O O13 0.579662 0.837708 0.390553
O O14 0.307785 0.299532 0.277861
O O15 0.641054 0.481778 0.284081
O O16 0.168359 0.777904 0.151515
O O17 0.500000 0.500000 0.000000
#
# Coordination Sequence:
#
# PCOD9044073 Si02
#       8
#     2   2   2   2   2   2   2   2
#     4  11  24  42  63  97 140 170 216 258 325 383
#     4  11  22  40  63  96 139 171 210 263 327 385
#     4  10  23  46  69  91 125 171 222 273 318 377
#     4  11  26  43  67  94 128 175 224 266 312 387
#     4  11  23  41  66  94 128 174 218 265 325 380
#     4  12  23  42  69  95 131 168 221 261 328 384
#     4  11  20  38  68  96 132 178 205 263 325 392
#     4  11  23  39  63  98 134 165 209 268 322 388
#
# _framework density 24.259101999999999
#
# number of rings (size 3 to 8) (size 9 to 14) (size 15 to 20)
#    0.000    1.000    3.750    5.250    3.500    0.500 
#    0.000    8.125    0.000    0.000    0.000    0.000 
#    0.000    0.000    0.000    0.000    0.000    0.000 
#
# Total GULP energy -89573.052186 kJ/mol
# GULP energy per Si atom -5598.315762 kJ/mol
# Density = 2.420389 g / cm^3
# Si number density = 24.259102 Si / 1000 Ang^3
#
#
#
# Elastic Constant Matrix: (Units=GPa)
#
#
# Indices 1 2 3 4 5 6 
#
# 1 70.5506 -5.3820 6.8280 6.5829 -5.4770 -3.2222
# 2 -5.3820 58.9543 4.3971 19.2707 4.2202 8.7304
# 3 6.8280 4.3971 63.3649 12.8102 -3.5762 7.8299
# 4 6.5829 19.2707 12.8102 35.8558 -1.3418 3.3342
# 5 -5.4770 4.2202 -3.5762 -1.3418 31.6287 14.8434
# 6 -3.2222 8.7304 7.8299 3.3342 14.8434 35.1882
#
#
#
# Elastic Compliance Matrix: (Units=1/GPa)
#
#
# Indices 1 2 3 4 5 6 
#
# 1 0.014963 0.002432 -0.001017 -0.003685 0.001702 0.000624
# 2 0.002432 0.021734 0.001106 -0.012210 -0.001088 -0.003800
# 3 -0.001017 0.001106 0.017964 -0.006167 0.004015 -0.005474
# 4 -0.003685 -0.012210 -0.006167 0.037440 0.002045 -0.000346
# 5 0.001702 -0.001088 0.004015 0.002045 0.041031 -0.017969
# 6 0.000624 -0.003800 -0.005474 -0.000346 -0.017969 0.038249
#
#
# Mechanical properties :
#
#
# Convention : Reuss Voigt Hill
#
# Bulk Modulus (GPa) = 16.74964 22.72845 19.73904
# Shear Modulus (GPa) = 26.84725 33.00296 29.92510
#
# Velocity S-wave (km/s) = 3.33030 3.69241 3.51602
# Velocity P-wave (km/s) = 4.65911 5.25051 4.96363
#
# Compressibility (1/GPa) = 0.05970278
#
# Stress axis : x y z
#
# Youngs Moduli (GPa) = 66.83282 46.01188 55.66640
#
# Poissons Ratio (x) = -0.11191 0.05662
# Poissons Ratio (y) = -0.16255 -0.06158
# Poissons Ratio (z) = 0.06798 -0.05090
#
# Static dielectric constant tensor:
#      x y z
#    x 1.956330 -0.003310 0.004860 
#    y -0.003310 1.935530 -0.004140 
#    z 0.004860 -0.004140 2.047130 
# 
# From -- ./inp_files/307308.got.cif
#   From: 2010.05.17/outbox.cif.g08.bks.cpg/sg2_154_cif.got.tgz:307308.got - 2010.06.03 11:33:40.
