data_PCOD9044973
_publ_section_title
;
Structure prediction by ZEFSAII (Michael W. Deem and Ramdas Pophale) SiO2 
 PCOD9044973
Probable space group: P -1
;
_chemical_formula_sum "Si O2"
_cell_formula_units_Z 16
_cell_length_a 9.231425
_cell_length_b 9.083981
_cell_length_c 23.779428
_cell_angle_alpha 28.277194
_cell_angle_beta 131.711744
_cell_angle_gamma 132.562688
_cell_volume 681.766966
_symmetry_space_group_name_H-M "P -1"
_symmetry_group_IT_number 2
_symmetry_cell_setting 'triclinic'
loop_
_space_group_symop_operation_xyz
x,y,z
-x,-y,-z
loop_
_atom_site_type_symbol
_atom_site_label
_atom_site_fract_x
_atom_site_fract_y
_atom_site_fract_z
Si Si1 0.153594 0.832396 0.440082
Si Si2 0.979505 0.837949 0.856977
Si Si3 0.421772 0.683992 0.265181
Si Si4 0.818227 0.115748 0.218900
Si Si5 0.206298 0.414759 0.796123
Si Si6 0.229781 0.203223 0.990890
Si Si7 0.087920 0.167333 0.408890
Si Si8 0.585746 0.729159 0.712425
O O1 0.000000 0.500000 0.500000
O O2 0.031089 0.101438 0.304058
O O3 0.163414 0.886408 0.490431
O O4 0.349768 0.928261 0.420050
O O5 0.765678 0.771742 0.791293
O O6 0.151214 0.943095 0.818807
O O7 0.037854 0.128914 0.818732
O O8 0.000000 0.500000 0.000000
O O9 0.418677 0.505213 0.264087
O O10 0.281312 0.464539 0.348610
O O11 0.648138 0.821553 0.297695
O O12 0.347015 0.998681 0.125582
O O13 0.766272 0.452600 0.098290
O O14 0.296274 0.258121 0.924587
O O15 0.094129 0.667314 0.708846
O O16 0.381975 0.597820 0.738438
O O17 0.000000 0.000000 0.000000
O O18 0.000000 0.000000 0.500000
#
# Coordination Sequence:
#
# PCOD9044973 Si02
#       8
#     2   2   2   2   2   2   2   2
#     4  10  23  48  70  92 134 181 227 283 340 406
#     4  11  24  39  65 100 139 176 221 270 331 404
#     4  11  23  44  69  98 138 184 221 273 346 407
#     4  11  23  42  65 103 133 180 228 266 347 413
#     4  12  24  44  68 102 140 175 228 281 336 403
#     4  12  22  42  67  96 145 181 215 279 337 409
#     4  11  26  45  68  98 133 174 231 291 339 393
#     4  10  24  43  67  99 136 177 227 274 337 405
#
# _framework density 23.468427999999999
#
# number of rings (size 3 to 8) (size 9 to 14) (size 15 to 20)
#    0.000    1.000    3.750    3.375    5.250    3.000 
#    0.000    3.750    0.000    0.000    0.000    0.000 
#    0.000    0.000    0.000    0.000    0.000    0.000 
#
# Total GULP energy -89282.579812 kJ/mol
# GULP energy per Si atom -5580.161238 kJ/mol
# Density = 2.341501 g / cm^3
# Si number density = 23.468428 Si / 1000 Ang^3
#
#
#
# Elastic Constant Matrix: (Units=GPa)
#
#
# Indices 1 2 3 4 5 6 
#
# 1 117.7114 27.7508 41.8813 -14.2023 -37.4293 15.8986
# 2 27.7508 80.0072 13.0376 -20.9048 0.0468 13.0242
# 3 41.8813 13.0376 88.0437 -15.5771 -21.5607 2.9689
# 4 -14.2023 -20.9048 -15.5771 38.5467 0.5436 -6.4090
# 5 -37.4293 0.0468 -21.5607 0.5436 46.5013 -9.0924
# 6 15.8986 13.0242 2.9689 -6.4090 -9.0924 42.6263
#
#
#
# Elastic Compliance Matrix: (Units=1/GPa)
#
#
# Indices 1 2 3 4 5 6 
#
# 1 0.013936 -0.003646 -0.003537 0.001320 0.009239 -0.001668
# 2 -0.003646 0.016129 -0.000273 0.006792 -0.003810 -0.003341
# 3 -0.003537 -0.000273 0.014959 0.004870 0.004431 0.002038
# 4 0.001320 0.006792 0.004870 0.032483 0.003465 0.002716
# 5 0.009239 -0.003810 0.004431 0.003465 0.031884 0.004732
# 6 -0.001668 -0.003341 0.002038 0.002716 0.004732 0.026378
#
#
# Mechanical properties :
#
#
# Convention : Reuss Voigt Hill
#
# Bulk Modulus (GPa) = 33.20948 50.12243 41.66595
# Shear Modulus (GPa) = 31.11048 39.07440 35.09244
#
# Velocity S-wave (km/s) = 3.64487 4.08484 3.87111
# Velocity P-wave (km/s) = 5.64756 6.60694 6.14600
#
# Compressibility (1/GPa) = 0.03011188
#
# Stress axis : x y z
#
# Youngs Moduli (GPa) = 71.75787 62.00159 66.85043
#
# Poissons Ratio (x) = 0.22607 0.23643
# Poissons Ratio (y) = 0.26165 0.01823
# Poissons Ratio (z) = 0.25379 0.01690
#
# Static dielectric constant tensor:
#      x y z
#    x 2.163360 -0.152150 -0.022440 
#    y -0.152150 2.021130 0.079850 
#    z -0.022440 0.079850 1.942340 
# 
# From -- ./inp_files/206531.got.cif
#   From: 2010.05.17/outbox.cif.g08.bks.cpg/sg2_104_cif.got.tgz:206531.got - 2010.06.03 11:33:40.
