data_PCOD9044649
_publ_section_title
;
Structure prediction by ZEFSAII (Michael W. Deem and Ramdas Pophale) SiO2 
 PCOD9044649
Probable space group: P -1
;
_chemical_formula_sum "Si O2"
_cell_formula_units_Z 13
_cell_length_a 6.339432
_cell_length_b 10.236906
_cell_length_c 17.890911
_cell_angle_alpha 144.881594
_cell_angle_beta 88.610771
_cell_angle_gamma 72.917465
_cell_volume 559.726166
_symmetry_space_group_name_H-M "P -1"
_symmetry_group_IT_number 2
_symmetry_cell_setting 'triclinic'
loop_
_space_group_symop_operation_xyz
x,y,z
-x,-y,-z
loop_
_atom_site_type_symbol
_atom_site_label
_atom_site_fract_x
_atom_site_fract_y
_atom_site_fract_z
Si Si1 0.845106 0.773931 0.232803
Si Si2 0.386315 0.328455 0.951594
Si Si3 0.456142 0.348556 0.707688
Si Si4 0.093297 0.554509 0.685423
Si Si5 0.969476 0.873606 0.551522
Si Si6 0.352560 0.923249 0.020998
Si Si7 0.000000 0.500000 0.500000
O O1 0.677255 0.806772 0.177973
O O2 0.742751 0.677460 0.254304
O O3 0.853110 0.025306 0.379940
O O4 0.127373 0.545032 0.097569
O O5 0.500000 0.500000 0.000000
O O6 0.558292 0.106761 0.907833
O O7 0.417370 0.630841 0.861680
O O8 0.364720 0.367149 0.632539
O O9 0.938948 0.836514 0.861720
O O10 0.732520 0.108135 0.617485
O O11 0.097131 0.592947 0.615166
O O12 0.939398 0.404155 0.624240
O O13 0.904399 0.785743 0.588791
O O14 0.500000 0.000000 0.000000
#
# Coordination Sequence:
#
# PCOD9044649 Si02
#       7
#     2   2   2   2   2   2   1
#     4  11  23  39  75 105 136 191 246 295 353 437
#     4  11  23  42  70 106 144 188 244 298 360 431
#     4  12  24  46  75 103 143 197 243 296 365 442
#     4  10  25  44  72 101 151 184 236 307 358 429
#     4  10  23  47  70 102 143 180 248 286 367 430
#     4  12  26  46  71 109 149 189 248 305 364 428
#     4   8  24  44  68 104 144 188 236 300 362 432
#
# _framework density 23.225643000000002
#
# number of rings (size 3 to 8) (size 9 to 14) (size 15 to 20)
#    0.923    0.308    3.077    1.846    4.308    1.846 
#    2.769    1.538    0.000    0.000    0.000    0.000 
#    0.000    0.000    0.000    0.000    0.000    0.000 
#
# Total GULP energy -72390.512336 kJ/mol
# GULP energy per Si atom -5568.500949 kJ/mol
# Density = 2.317278 g / cm^3
# Si number density = 23.225643 Si / 1000 Ang^3
#
#
#
# Elastic Constant Matrix: (Units=GPa)
#
#
# Indices 1 2 3 4 5 6 
#
# 1 63.0449 24.1335 21.5267 -1.8757 1.7203 -12.7939
# 2 24.1335 127.6566 24.6255 -8.0390 -0.4467 -35.1402
# 3 21.5267 24.6255 85.1481 7.4256 18.2937 -12.2043
# 4 -1.8757 -8.0390 7.4256 45.1631 3.6019 18.9156
# 5 1.7203 -0.4467 18.2937 3.6019 41.3207 -11.3332
# 6 -12.7939 -35.1402 -12.2043 18.9156 -11.3332 31.8202
#
#
#
# Elastic Compliance Matrix: (Units=1/GPa)
#
#
# Indices 1 2 3 4 5 6 
#
# 1 0.018924 -0.000856 -0.003957 -0.002140 0.003216 0.007564
# 2 -0.000856 0.013523 -0.001758 -0.006370 0.007061 0.020217
# 3 -0.003957 -0.001758 0.015095 -0.003495 -0.005590 0.002343
# 4 -0.002140 -0.006370 -0.003495 0.037244 -0.011398 -0.035435
# 5 0.003216 0.007061 -0.005590 -0.011398 0.034772 0.026106
# 6 0.007564 0.020217 0.002343 -0.035435 0.026106 0.088055
#
#
# Mechanical properties :
#
#
# Convention : Reuss Voigt Hill
#
# Bulk Modulus (GPa) = 29.06995 46.26899 37.66947
# Shear Modulus (GPa) = 21.53118 37.36506 29.44812
#
# Velocity S-wave (km/s) = 3.04804 4.01532 3.56464
# Velocity P-wave (km/s) = 4.99309 6.43908 5.76163
#
# Compressibility (1/GPa) = 0.03439978
#
# Stress axis : x y z
#
# Youngs Moduli (GPa) = 52.84345 73.94663 66.24844
#
# Poissons Ratio (x) = 0.06328 0.26214
# Poissons Ratio (y) = 0.04522 0.11649
# Poissons Ratio (z) = 0.20910 0.13003
#
# Static dielectric constant tensor:
#      x y z
#    x 1.878430 -0.021580 -0.001490 
#    y -0.021580 1.851820 -0.011110 
#    z -0.001490 -0.011110 1.888950 
# 
# From -- ./inp_files/133387.got.cif
#   From: 2010.05.17/outbox.cif.g08.bks.cpg/sg2_67_cif.got.tgz:133387.got - 2010.06.03 11:33:40.
