data_PCOD9044617
_publ_section_title
;
Structure prediction by ZEFSAII (Michael W. Deem and Ramdas Pophale) SiO2 
 PCOD9044617
Probable space group: P -1
;
_chemical_formula_sum "Si O2"
_cell_formula_units_Z 16
_cell_length_a 11.933912
_cell_length_b 21.143604
_cell_length_c 5.379966
_cell_angle_alpha 98.294293
_cell_angle_beta 80.908822
_cell_angle_gamma 150.548964
_cell_volume 659.010712
_symmetry_space_group_name_H-M "P -1"
_symmetry_group_IT_number 2
_symmetry_cell_setting 'triclinic'
loop_
_space_group_symop_operation_xyz
x,y,z
-x,-y,-z
loop_
_atom_site_type_symbol
_atom_site_label
_atom_site_fract_x
_atom_site_fract_y
_atom_site_fract_z
Si Si1 0.269930 0.970605 0.418590
Si Si2 0.504381 0.731318 0.019496
Si Si3 0.101260 0.619879 0.057700
Si Si4 0.136139 0.292014 0.836405
Si Si5 0.589872 0.458328 0.981581
Si Si6 0.296191 0.890670 0.778662
Si Si7 0.265291 0.119305 0.477683
Si Si8 0.011578 0.361590 0.402013
O O1 0.323538 0.971206 0.676430
O O2 0.003767 0.821519 0.370046
O O3 0.460947 0.025594 0.215574
O O4 0.309478 0.064814 0.431130
O O5 0.360933 0.726884 0.077462
O O6 0.386370 0.603889 0.988358
O O7 0.642311 0.801540 0.264813
O O8 0.635681 0.800214 0.756291
O O9 0.998745 0.600370 0.330507
O O10 0.000000 0.500000 0.000000
O O11 0.079794 0.646935 0.820751
O O12 0.324598 0.344618 0.958456
O O13 0.288872 0.430808 0.813873
O O14 0.914509 0.208991 0.015045
O O15 0.737218 0.537119 0.719165
O O16 0.167883 0.782208 0.559163
O O17 0.000000 0.000000 0.500000
#
# Coordination Sequence:
#
# PCOD9044617 Si02
#       8
#     2   2   2   2   2   2   2   2
#     4  11  24  45  71 105 136 193 243 304 362 425
#     4  12  26  46  74 107 142 197 238 304 359 437
#     4  12  24  42  70 104 149 186 241 293 359 434
#     4  10  23  47  69 105 140 193 233 313 359 438
#     4  10  24  45  71 105 147 185 250 288 378 439
#     4  10  24  42  72 102 140 183 248 303 362 423
#     4  12  29  49  75 106 149 195 245 297 363 437
#     4  11  25  45  69 109 147 191 237 306 366 432
#
# _framework density 24.278815999999999
#
# number of rings (size 3 to 8) (size 9 to 14) (size 15 to 20)
#    0.000    1.000    1.250    4.125    8.750    0.000 
#    4.500    1.875    0.000    0.000    0.000    0.000 
#    0.000    0.000    0.000    0.000    0.000    0.000 
#
# Total GULP energy -89359.115564 kJ/mol
# GULP energy per Si atom -5584.944723 kJ/mol
# Density = 2.422356 g / cm^3
# Si number density = 24.278816 Si / 1000 Ang^3
#
#
#
# Elastic Constant Matrix: (Units=GPa)
#
#
# Indices 1 2 3 4 5 6 
#
# 1 111.6878 32.7672 16.5215 -5.4087 7.1507 -5.1527
# 2 32.7672 123.3956 37.7044 2.8421 8.7906 7.2020
# 3 16.5215 37.7044 114.8705 -1.9561 12.1867 1.6294
# 4 -5.4087 2.8421 -1.9561 33.6958 -3.3860 0.7144
# 5 7.1507 8.7906 12.1867 -3.3860 35.2352 -6.6802
# 6 -5.1527 7.2020 1.6294 0.7144 -6.6802 54.9964
#
#
#
# Elastic Compliance Matrix: (Units=1/GPa)
#
#
# Indices 1 2 3 4 5 6 
#
# 1 0.009960 -0.002539 -0.000498 0.001676 -0.000835 0.001157
# 2 -0.002539 0.009839 -0.002713 -0.001507 -0.001449 -0.001602
# 3 -0.000498 -0.002713 0.009965 0.000464 -0.002684 -0.000319
# 4 0.001676 -0.001507 0.000464 0.030380 0.002850 0.000292
# 5 -0.000835 -0.001449 -0.002684 0.002850 0.030854 0.003902
# 6 0.001157 -0.001602 -0.000319 0.000292 0.003902 0.018981
#
#
# Mechanical properties :
#
#
# Convention : Reuss Voigt Hill
#
# Bulk Modulus (GPa) = 54.75847 58.21556 56.48702
# Shear Modulus (GPa) = 39.19459 42.31619 40.75539
#
# Velocity S-wave (km/s) = 4.02226 4.17937 4.10157
# Velocity P-wave (km/s) = 6.64638 6.87891 6.76365
#
# Compressibility (1/GPa) = 0.01826202
#
# Stress axis : x y z
#
# Youngs Moduli (GPa) = 100.39934 101.63745 100.35158
#
# Poissons Ratio (x) = 0.25808 0.05001
# Poissons Ratio (y) = 0.25494 0.27229
# Poissons Ratio (z) = 0.05004 0.27578
#
# Static dielectric constant tensor:
#      x y z
#    x 2.069910 0.005470 -0.068840 
#    y 0.005470 2.048710 0.148100 
#    z -0.068840 0.148100 2.072440 
# 
# From -- ./inp_files/83289.got.cif
#   From: 2010.05.17/outbox.cif.g08.bks.cpg/sg2_42_cif.got.tgz:83289.got - 2010.06.03 11:33:40.
