data_PCOD9044575
_publ_section_title
;
Structure prediction by ZEFSAII (Michael W. Deem and Ramdas Pophale) SiO2 
 PCOD9044575
Probable space group: P -1
;
_chemical_formula_sum "Si O2"
_cell_formula_units_Z 14
_cell_length_a 14.810894
_cell_length_b 6.715892
_cell_length_c 7.523139
_cell_angle_alpha 94.958683
_cell_angle_beta 109.043483
_cell_angle_gamma 53.939815
_cell_volume 566.340114
_symmetry_space_group_name_H-M "P -1"
_symmetry_group_IT_number 2
_symmetry_cell_setting 'triclinic'
loop_
_space_group_symop_operation_xyz
x,y,z
-x,-y,-z
loop_
_atom_site_type_symbol
_atom_site_label
_atom_site_fract_x
_atom_site_fract_y
_atom_site_fract_z
Si Si1 0.008205 0.539736 0.798711
Si Si2 0.438533 0.658710 0.296156
Si Si3 0.205073 0.895995 0.346069
Si Si4 0.998216 0.110035 0.698654
Si Si5 0.344668 0.745932 0.791921
Si Si6 0.603421 0.939022 0.925375
Si Si7 0.790393 0.394753 0.071874
O O1 0.011380 0.325252 0.688631
O O2 0.121205 0.531259 0.819522
O O3 0.890996 0.811936 0.707690
O O4 0.000000 0.500000 0.000000
O O5 0.500000 0.500000 0.500000
O O6 0.300401 0.777153 0.239664
O O7 0.516986 0.452269 0.183435
O O8 0.444677 0.885977 0.267660
O O9 0.274956 0.846928 0.569338
O O10 0.129627 0.785853 0.292695
O O11 0.101684 0.907142 0.884320
O O12 0.000000 0.000000 0.500000
O O13 0.292269 0.611424 0.836401
O O14 0.331386 0.958040 0.921283
O O15 0.691796 0.646183 0.916573
O O16 0.500000 0.000000 0.000000
#
# Coordination Sequence:
#
# PCOD9044575 Si02
#       7
#     2   2   2   2   2   2   2
#     4  11  26  46  69 108 145 188 246 299 367 431
#     4  10  23  47  67  99 143 184 232 296 364 424
#     4  10  24  44  71  99 144 189 238 296 370 425
#     4  11  24  44  71 104 143 190 242 300 360 429
#     4  11  23  44  70 105 141 189 239 301 361 433
#     4  12  25  43  72 106 141 188 247 295 358 438
#     4  11  24  41  74 100 142 182 243 294 362 425
#
# _framework density 24.720130000000001
#
# number of rings (size 3 to 8) (size 9 to 14) (size 15 to 20)
#    0.000    1.143    2.857    2.143    2.000    4.571 
#    2.571    1.429    0.000    0.000    0.000    0.000 
#    0.000    0.000    0.000    0.000    0.000    0.000 
#
# Total GULP energy -78240.256810 kJ/mol
# GULP energy per Si atom -5588.589772 kJ/mol
# Density = 2.466387 g / cm^3
# Si number density = 24.720130 Si / 1000 Ang^3
#
#
#
# Elastic Constant Matrix: (Units=GPa)
#
#
# Indices 1 2 3 4 5 6 
#
# 1 198.0145 47.6859 25.0738 -10.0449 1.0051 2.1896
# 2 47.6859 155.4757 28.9127 -21.6083 3.0233 10.9545
# 3 25.0738 28.9127 116.3389 -24.5211 -13.9708 -0.5636
# 4 -10.0449 -21.6083 -24.5211 46.7707 0.0076 1.1580
# 5 1.0051 3.0233 -13.9708 0.0076 35.4787 -6.0775
# 6 2.1896 10.9545 -0.5636 1.1580 -6.0775 48.2916
#
#
#
# Elastic Compliance Matrix: (Units=1/GPa)
#
#
# Indices 1 2 3 4 5 6 
#
# 1 0.005529 -0.001529 -0.000846 0.000036 -0.000352 0.000041
# 2 -0.001529 0.007651 -0.001197 0.002627 -0.001410 -0.001921
# 3 -0.000846 -0.001197 0.010631 0.004816 0.004462 0.000880
# 4 0.000036 0.002627 0.004816 0.025151 0.001503 -0.000955
# 5 -0.000352 -0.001410 0.004462 0.001503 0.030797 0.004228
# 6 0.000041 -0.001921 0.000880 -0.000955 0.004228 0.021707
#
#
# Mechanical properties :
#
#
# Convention : Reuss Voigt Hill
#
# Bulk Modulus (GPa) = 60.00135 74.79710 67.39923
# Shear Modulus (GPa) = 43.79642 50.65197 47.22420
#
# Velocity S-wave (km/s) = 4.21371 4.53152 4.37550
# Velocity P-wave (km/s) = 6.92812 7.59624 7.26985
#
# Compressibility (1/GPa) = 0.01666629
#
# Stress axis : x y z
#
# Youngs Moduli (GPa) = 180.87301 130.69623 94.06866
#
# Poissons Ratio (x) = 0.19989 0.07958
# Poissons Ratio (y) = 0.27663 0.11258
# Poissons Ratio (z) = 0.15301 0.15642
#
# Static dielectric constant tensor:
#      x y z
#    x 1.988380 -0.045090 -0.028210 
#    y -0.045090 2.030430 0.076870 
#    z -0.028210 0.076870 2.129250 
# 
# From -- ./inp_files/288889.got.cif
#   From: 2010.05.17/outbox.cif.g08.bks.cpg/sg2_145_cif.got.tgz:288889.got - 2010.06.03 11:33:40.
