data_PCOD9044441
_publ_section_title
;
Structure prediction by ZEFSAII (Michael W. Deem and Ramdas Pophale) SiO2 
 PCOD9044441
Probable space group: P -1
;
_chemical_formula_sum "Si O2"
_cell_formula_units_Z 14
_cell_length_a 5.189668
_cell_length_b 16.095197
_cell_length_c 9.596516
_cell_angle_alpha 68.178839
_cell_angle_beta 80.935441
_cell_angle_gamma 117.802122
_cell_volume 602.434576
_symmetry_space_group_name_H-M "P -1"
_symmetry_group_IT_number 2
_symmetry_cell_setting 'triclinic'
loop_
_space_group_symop_operation_xyz
x,y,z
-x,-y,-z
loop_
_atom_site_type_symbol
_atom_site_label
_atom_site_fract_x
_atom_site_fract_y
_atom_site_fract_z
Si Si1 0.178271 0.755797 0.082015
Si Si2 0.694146 0.411182 0.175247
Si Si3 0.677719 0.147016 0.715993
Si Si4 0.179062 0.471599 0.611473
Si Si5 0.715967 0.743686 0.904081
Si Si6 0.752342 0.014951 0.361207
Si Si7 0.329850 0.200667 0.514053
O O1 0.325438 0.854723 0.116411
O O2 0.038298 0.655301 0.260565
O O3 0.423614 0.749501 0.969766
O O4 0.894436 0.739092 0.025002
O O5 0.736986 0.471852 0.278491
O O6 0.404380 0.360476 0.120006
O O7 0.577570 0.291580 0.325333
O O8 0.000000 0.500000 0.000000
O O9 0.533531 0.210578 0.625126
O O10 0.030924 0.201790 0.586894
O O11 0.434765 0.026945 0.744902
O O12 0.500000 0.500000 0.500000
O O13 0.000000 0.500000 0.500000
O O14 0.966220 0.859727 0.741919
O O15 0.500000 0.000000 0.500000
O O16 0.819298 0.923832 0.442214
#
# Coordination Sequence:
#
# PCOD9044441 Si02
#       7
#     2   2   2   2   2   2   2
#     4  12  26  48  70 111 153 187 248 300 381 435
#     4  12  27  50  77 111 152 194 249 309 380 430
#     4  10  23  46  75 103 146 194 240 306 363 440
#     4  12  27  49  80 106 145 203 249 301 364 446
#     4  12  29  45  74 110 149 193 242 312 368 445
#     4  10  26  45  76 104 143 194 251 301 374 433
#     4  10  24  46  74 106 140 191 252 298 359 439
#
# _framework density 23.239038000000001
#
# number of rings (size 3 to 8) (size 9 to 14) (size 15 to 20)
#    0.857    0.000    1.429    4.286    4.000    4.000 
#    0.000    0.000    0.000    0.000    0.000    0.000 
#    0.000    0.000    0.000    0.000    0.000    0.000 
#
# Total GULP energy -78152.032009 kJ/mol
# GULP energy per Si atom -5582.288001 kJ/mol
# Density = 2.318614 g / cm^3
# Si number density = 23.239038 Si / 1000 Ang^3
#
#
#
# Elastic Constant Matrix: (Units=GPa)
#
#
# Indices 1 2 3 4 5 6 
#
# 1 70.2295 36.8787 22.0583 10.5350 -11.2221 14.6469
# 2 36.8787 142.9397 41.8608 23.1453 1.7581 26.0781
# 3 22.0583 41.8608 103.2817 2.8262 -9.6618 13.1422
# 4 10.5350 23.1453 2.8262 66.0233 11.9175 2.6478
# 5 -11.2221 1.7581 -9.6618 11.9175 44.5970 4.9751
# 6 14.6469 26.0781 13.1422 2.6478 4.9751 29.1268
#
#
#
# Elastic Compliance Matrix: (Units=1/GPa)
#
#
# Indices 1 2 3 4 5 6 
#
# 1 0.019067 -0.002820 -0.001351 -0.002821 0.006179 -0.007253
# 2 -0.002820 0.010044 -0.002648 -0.002662 -0.000289 -0.006089
# 3 -0.001351 -0.002648 0.011605 0.000303 0.002492 -0.002639
# 4 -0.002821 -0.002662 0.000303 0.017392 -0.005524 0.003027
# 5 0.006179 -0.000289 0.002492 -0.005524 0.026905 -0.008067
# 6 -0.007253 -0.006089 -0.002639 0.003027 -0.008067 0.045725
#
#
# Mechanical properties :
#
#
# Convention : Reuss Voigt Hill
#
# Bulk Modulus (GPa) = 36.93016 57.56072 47.24544
# Shear Modulus (GPa) = 32.59382 42.32629 37.46005
#
# Velocity S-wave (km/s) = 3.74912 4.27235 4.01926
# Velocity P-wave (km/s) = 5.88788 7.01142 6.47407
#
# Compressibility (1/GPa) = 0.02707814
#
# Stress axis : x y z
#
# Youngs Moduli (GPa) = 52.44570 99.55801 86.17129
#
# Poissons Ratio (x) = 0.28072 0.11644
# Poissons Ratio (y) = 0.14788 0.22820
# Poissons Ratio (z) = 0.07087 0.26365
#
# Static dielectric constant tensor:
#      x y z
#    x 0.769110 0.845500 -0.130900 
#    y 0.845500 1.335920 0.200510 
#    z -0.130900 0.200510 1.837430 
# 
# From -- ./inp_files/136664.got.cif
#   From: 2010.05.17/outbox.cif.g08.bks.cpg/sg2_69_cif.got.tgz:136664.got - 2010.06.03 11:33:40.
