data_PCOD9044663
_publ_section_title
;
Structure prediction by ZEFSAII (Michael W. Deem and Ramdas Pophale) SiO2 
 PCOD9044663
Probable space group: P -1
;
_chemical_formula_sum "Si O2"
_cell_formula_units_Z 12
_cell_length_a 6.933064
_cell_length_b 10.399779
_cell_length_c 7.479608
_cell_angle_alpha 97.801250
_cell_angle_beta 62.760526
_cell_angle_gamma 82.379301
_cell_volume 463.297282
_symmetry_space_group_name_H-M "P -1"
_symmetry_group_IT_number 2
_symmetry_cell_setting 'triclinic'
loop_
_space_group_symop_operation_xyz
x,y,z
-x,-y,-z
loop_
_atom_site_type_symbol
_atom_site_label
_atom_site_fract_x
_atom_site_fract_y
_atom_site_fract_z
Si Si1 0.278501 0.165112 0.614801
Si Si2 0.714825 0.428659 0.132205
Si Si3 0.688323 0.357477 0.724386
Si Si4 0.119861 0.248529 0.083161
Si Si5 0.209826 0.894348 0.606465
Si Si6 0.725229 0.625496 0.613617
O O1 0.535584 0.121013 0.435383
O O2 0.186569 0.302330 0.574238
O O3 0.154049 0.047685 0.599725
O O4 0.254876 0.184217 0.841299
O O5 0.575582 0.578641 0.188332
O O6 0.536675 0.369486 0.310774
O O7 0.949480 0.384753 0.117550
O O8 0.723753 0.364202 0.920741
O O9 0.762129 0.215388 0.581024
O O10 0.798039 0.468307 0.600307
O O11 0.250569 0.289239 0.203988
O O12 0.967079 0.147777 0.193732
#
# Coordination Sequence:
#
# PCOD9044663 Si02
#       6
#     2   2   2   2   2   2
#     4  11  26  47  72 107 141 187 244 281 354 425
#     4   9  21  45  71 106 145 176 235 300 342 416
#     4   9  21  46  72 103 146 184 231 293 362 404
#     4  12  25  44  76 107 138 189 235 291 355 415
#     4  11  24  49  71 101 150 188 226 302 347 419
#     4  10  23  47  70 109 136 184 239 287 351 420
#
# _framework density 25.901295000000001
#
# number of rings (size 3 to 8) (size 9 to 14) (size 15 to 20)
#    1.000    0.667    1.667    1.500    2.333    4.667 
#    3.000    2.500    0.000    0.000    0.000    0.000 
#    0.000    0.000    0.000    0.000    0.000    0.000 
#
# Total GULP energy -67174.289023 kJ/mol
# GULP energy per Si atom -5597.857419 kJ/mol
# Density = 2.584234 g / cm^3
# Si number density = 25.901295 Si / 1000 Ang^3
#
#
#
# Elastic Constant Matrix: (Units=GPa)
#
#
# Indices 1 2 3 4 5 6 
#
# 1 78.2835 5.7592 10.3503 -0.2187 -9.6418 8.4766
# 2 5.7592 141.2566 47.5603 -13.7112 6.0043 35.0755
# 3 10.3503 47.5603 131.5053 -8.6906 10.9009 24.4879
# 4 -0.2187 -13.7112 -8.6906 34.0552 10.1856 2.0424
# 5 -9.6418 6.0043 10.9009 10.1856 40.7171 2.9752
# 6 8.4766 35.0755 24.4879 2.0424 2.9752 47.6471
#
#
#
# Elastic Compliance Matrix: (Units=1/GPa)
#
#
# Indices 1 2 3 4 5 6 
#
# 1 0.013630 0.000046 -0.001114 -0.001245 0.003983 -0.002082
# 2 0.000046 0.009777 -0.001962 0.004266 -0.001513 -0.006286
# 3 -0.001114 -0.001962 0.009402 0.002666 -0.002930 -0.003121
# 4 -0.001245 0.004266 0.002666 0.035064 -0.010031 -0.005166
# 5 0.003983 -0.001513 -0.002930 -0.010031 0.028981 0.000532
# 6 -0.002082 -0.006286 -0.003121 -0.005166 0.000532 0.027777
#
#
# Mechanical properties :
#
#
# Convention : Reuss Voigt Hill
#
# Bulk Modulus (GPa) = 37.38372 53.15388 45.26880
# Shear Modulus (GPa) = 35.81459 43.64226 39.72842
#
# Velocity S-wave (km/s) = 3.72255 4.10926 3.92067
# Velocity P-wave (km/s) = 5.73942 6.56361 6.16530
#
# Compressibility (1/GPa) = 0.02674962
#
# Stress axis : x y z
#
# Youngs Moduli (GPa) = 73.36520 102.27901 106.36393
#
# Poissons Ratio (x) = -0.00473 0.11852
# Poissons Ratio (y) = -0.00339 0.20867
# Poissons Ratio (z) = 0.08175 0.20065
#
# Static dielectric constant tensor:
#      x y z
#    x 2.142330 -0.044100 -0.107780 
#    y -0.044100 2.052580 -0.007990 
#    z -0.107780 -0.007990 2.011110 
# 
# From -- ./inp_files/146750.got.cif
#   From: 2010.05.17/outbox.cif.g08.bks.cpg/sg2_74_cif.got.tgz:146750.got - 2010.06.03 11:33:40.
