data_PCOD9044281
_publ_section_title
;
Structure prediction by ZEFSAII (Michael W. Deem and Ramdas Pophale) SiO2 
 PCOD9044281
Probable space group: P -1
;
_chemical_formula_sum "Si O2"
_cell_formula_units_Z 12
_cell_length_a 9.554027
_cell_length_b 5.472486
_cell_length_c 10.401539
_cell_angle_alpha 71.842528
_cell_angle_beta 113.324486
_cell_angle_gamma 113.569088
_cell_volume 450.075380
_symmetry_space_group_name_H-M "P -1"
_symmetry_group_IT_number 2
_symmetry_cell_setting 'triclinic'
loop_
_space_group_symop_operation_xyz
x,y,z
-x,-y,-z
loop_
_atom_site_type_symbol
_atom_site_label
_atom_site_fract_x
_atom_site_fract_y
_atom_site_fract_z
Si Si1 0.857885 0.635131 0.949702
Si Si2 0.627862 0.339676 0.600244
Si Si3 0.181715 0.330474 0.768711
Si Si4 0.508941 0.298788 0.918800
Si Si5 0.329610 0.901596 0.619578
Si Si6 0.118842 0.139766 0.338601
O O1 0.680953 0.426173 0.899156
O O2 0.856419 0.862321 0.807131
O O3 0.854022 0.720194 0.083541
O O4 0.000000 0.500000 0.000000
O O5 0.500000 0.500000 0.500000
O O6 0.652479 0.235475 0.486839
O O7 0.807655 0.528475 0.675425
O O8 0.515350 0.082030 0.685341
O O9 0.345506 0.280039 0.790910
O O10 0.226528 0.655904 0.712479
O O11 0.044738 0.112313 0.675206
O O12 0.500000 0.500000 0.000000
O O13 0.500000 0.000000 0.000000
O O14 0.220456 0.072917 0.501136
#
# Coordination Sequence:
#
# PCOD9044281 Si02
#       6
#     2   2   2   2   2   2
#     4  11  26  47  73 107 150 206 252 314 385 467
#     4   9  22  43  69 106 145 198 240 306 382 460
#     4  11  25  47  75 114 150 195 256 322 381 457
#     4  10  24  47  72 108 151 203 254 316 384 461
#     4  10  23  46  72 104 151 191 250 308 382 456
#     4  11  24  44  72 105 148 192 249 309 382 450
#
# _framework density 26.662199999999999
#
# number of rings (size 3 to 8) (size 9 to 14) (size 15 to 20)
#    0.000    1.667    0.000    2.000    9.333    4.667 
#   12.000    0.000    0.000    0.000    0.000    0.000 
#    0.000    0.000    0.000    0.000    0.000    0.000 
#
# Total GULP energy -66896.139991 kJ/mol
# GULP energy per Si atom -5574.678333 kJ/mol
# Density = 2.660152 g / cm^3
# Si number density = 26.662200 Si / 1000 Ang^3
#
#
#
# Elastic Constant Matrix: (Units=GPa)
#
#
# Indices 1 2 3 4 5 6 
#
# 1 104.9716 36.2934 25.2695 5.7551 0.0657 18.8465
# 2 36.2934 201.3980 42.4748 17.6488 16.7649 59.0651
# 3 25.2695 42.4748 110.4992 -5.7871 -3.4632 11.3542
# 4 5.7551 17.6488 -5.7871 61.7113 9.4147 9.0584
# 5 0.0657 16.7649 -3.4632 9.4147 46.7384 20.5024
# 6 18.8465 59.0651 11.3542 9.0584 20.5024 52.8914
#
#
#
# Elastic Compliance Matrix: (Units=1/GPa)
#
#
# Indices 1 2 3 4 5 6 
#
# 1 0.010830 -0.000690 -0.001872 -0.000771 0.001650 -0.003194
# 2 -0.000690 0.008041 -0.002111 -0.001339 0.000918 -0.008408
# 3 -0.001872 -0.002111 0.010402 0.001563 0.001188 0.000063
# 4 -0.000771 -0.001339 0.001563 0.017285 -0.002669 -0.000491
# 5 0.001650 0.000918 0.001188 -0.002669 0.026879 -0.011830
# 6 -0.003194 -0.008408 0.000063 -0.000491 -0.011830 0.034090
#
#
# Mechanical properties :
#
#
# Convention : Reuss Voigt Hill
#
# Bulk Modulus (GPa) = 50.17928 69.43826 59.80877
# Shear Modulus (GPa) = 40.48037 53.12363 46.80200
#
# Velocity S-wave (km/s) = 3.90072 4.46855 4.19426
# Velocity P-wave (km/s) = 6.25690 7.26114 6.77765
#
# Compressibility (1/GPa) = 0.01992854
#
# Stress axis : x y z
#
# Youngs Moduli (GPa) = 92.33355 124.35541 96.13606
#
# Poissons Ratio (x) = 0.08578 0.17997
# Poissons Ratio (y) = 0.06369 0.20292
# Poissons Ratio (z) = 0.17285 0.26248
#
# Static dielectric constant tensor:
#      x y z
#    x 1.151810 0.510330 -0.419440 
#    y 0.510330 1.928070 0.172780 
#    z -0.419440 0.172780 2.082280 
# 
# From -- ./inp_files/372892.got.cif
#   From: 2010.05.17/outbox.cif.g08.bks.cpg/sg2_187_cif.got.tgz:372892.got - 2010.06.03 11:33:40.
