data_PCOD9044368
_publ_section_title
;
Structure prediction by ZEFSAII (Michael W. Deem and Ramdas Pophale) SiO2 
 PCOD9044368
Probable space group: P -1
;
_chemical_formula_sum "Si O2"
_cell_formula_units_Z 12
_cell_length_a 5.193880
_cell_length_b 13.249580
_cell_length_c 9.481862
_cell_angle_alpha 131.935899
_cell_angle_beta 73.242228
_cell_angle_gamma 97.483180
_cell_volume 462.994446
_symmetry_space_group_name_H-M "P -1"
_symmetry_group_IT_number 2
_symmetry_cell_setting 'triclinic'
loop_
_space_group_symop_operation_xyz
x,y,z
-x,-y,-z
loop_
_atom_site_type_symbol
_atom_site_label
_atom_site_fract_x
_atom_site_fract_y
_atom_site_fract_z
Si Si1 0.738335 0.416954 0.973553
Si Si2 0.803980 0.980691 0.883115
Si Si3 0.885541 0.925821 0.316338
Si Si4 0.761541 0.440913 0.316240
Si Si5 0.083436 0.693112 0.560777
Si Si6 0.569731 0.201368 0.606269
O O1 0.753189 0.271008 0.757315
O O2 0.500000 0.500000 0.000000
O O3 0.685479 0.402602 0.134942
O O4 0.000000 0.500000 0.000000
O O5 0.885246 0.825243 0.675194
O O6 0.882755 0.083337 0.844920
O O7 0.500000 0.000000 0.000000
O O8 0.000000 0.000000 0.000000
O O9 0.717942 0.803091 0.277324
O O10 0.662023 0.044931 0.405063
O O11 0.000000 0.000000 0.500000
O O12 0.500000 0.500000 0.500000
O O13 0.968518 0.558257 0.392234
O O14 0.893270 0.324204 0.290978
O O15 0.372525 0.715253 0.465453
#
# Coordination Sequence:
#
# PCOD9044368 Si02
#       6
#     2   2   2   2   2   2
#     4  12  27  47  75 111 151 199 253 315 382 460
#     4  11  28  48  74 112 152 197 258 318 388 453
#     4  10  25  45  77 105 142 204 252 316 380 452
#     4  11  25  44  76 112 151 205 255 312 399 461
#     4  10  24  47  74 108 155 204 255 326 385 467
#     4  10  23  46  73 107 149 194 260 313 381 458
#
# _framework density 25.918239
#
# number of rings (size 3 to 8) (size 9 to 14) (size 15 to 20)
#    0.000    1.333    1.667    1.000   14.000    4.000 
#    0.000    0.000    0.000    0.000    0.000    0.000 
#    0.000    0.000    0.000    0.000    0.000    0.000 
#
# Total GULP energy -67230.323319 kJ/mol
# GULP energy per Si atom -5602.526943 kJ/mol
# Density = 2.585925 g / cm^3
# Si number density = 25.918239 Si / 1000 Ang^3
#
#
#
# Elastic Constant Matrix: (Units=GPa)
#
#
# Indices 1 2 3 4 5 6 
#
# 1 143.5844 70.2609 33.2240 -16.7654 3.1407 33.2644
# 2 70.2609 186.0656 64.6522 -24.8647 -6.6836 35.1299
# 3 33.2240 64.6522 129.0915 -26.6433 16.3301 8.5710
# 4 -16.7654 -24.8647 -26.6433 58.8228 -2.4098 -9.9521
# 5 3.1407 -6.6836 16.3301 -2.4098 48.7324 -5.3474
# 6 33.2644 35.1299 8.5710 -9.9521 -5.3474 55.3712
#
#
#
# Elastic Compliance Matrix: (Units=1/GPa)
#
#
# Indices 1 2 3 4 5 6 
#
# 1 0.009351 -0.002543 -0.000602 0.000608 -0.001149 -0.003913
# 2 -0.002543 0.008229 -0.003381 0.000835 0.002158 -0.002812
# 3 -0.000602 -0.003381 0.010666 0.003261 -0.003719 0.001083
# 4 0.000608 0.000835 0.003261 0.019366 0.000170 0.002097
# 5 -0.001149 0.002158 -0.003719 0.000170 0.022374 0.002088
# 6 -0.003913 -0.002812 0.001083 0.002097 0.002088 0.022605
#
#
# Mechanical properties :
#
#
# Convention : Reuss Voigt Hill
#
# Bulk Modulus (GPa) = 65.81528 88.33510 77.07519
# Shear Modulus (GPa) = 45.16349 51.95891 48.56120
#
# Velocity S-wave (km/s) = 4.17890 4.48227 4.33324
# Velocity P-wave (km/s) = 6.98089 7.80666 7.40529
#
# Compressibility (1/GPa) = 0.01519404
#
# Stress axis : x y z
#
# Youngs Moduli (GPa) = 106.94178 121.51432 93.75203
#
# Poissons Ratio (x) = 0.30901 0.05647
# Poissons Ratio (y) = 0.27195 0.31698
# Poissons Ratio (z) = 0.06442 0.41084
#
# Static dielectric constant tensor:
#      x y z
#    x 2.103630 -0.101380 -0.104600 
#    y -0.101380 2.115930 0.049400 
#    z -0.104600 0.049400 2.080640 
# 
# From -- ./inp_files/131945.got.cif
#   From: 2010.05.17/outbox.cif.g08.bks.cpg/sg2_66_cif.got.tgz:131945.got - 2010.06.03 11:33:40.
