data_PCOD9044233
_publ_section_title
;
Structure prediction by ZEFSAII (Michael W. Deem and Ramdas Pophale) SiO2 
 PCOD9044233
Probable space group: P -1
;
_chemical_formula_sum "Si O2"
_cell_formula_units_Z 16
_cell_length_a 11.380555
_cell_length_b 9.266875
_cell_length_c 13.167834
_cell_angle_alpha 77.434574
_cell_angle_beta 32.964266
_cell_angle_gamma 90.438135
_cell_volume 688.612046
_symmetry_space_group_name_H-M "P -1"
_symmetry_group_IT_number 2
_symmetry_cell_setting 'triclinic'
loop_
_space_group_symop_operation_xyz
x,y,z
-x,-y,-z
loop_
_atom_site_type_symbol
_atom_site_label
_atom_site_fract_x
_atom_site_fract_y
_atom_site_fract_z
Si Si1 0.388807 0.095005 0.920109
Si Si2 0.781884 0.209688 0.331478
Si Si3 0.423900 0.129883 0.418285
Si Si4 0.249296 0.468738 0.728572
Si Si5 0.014071 0.808585 0.173016
Si Si6 0.615922 0.328806 0.046284
Si Si7 0.753141 0.941105 0.743336
Si Si8 0.710775 0.621765 0.064422
O O1 0.460986 0.281287 0.816944
O O2 0.607346 0.043923 0.790347
O O3 0.245642 0.046931 0.137935
O O4 0.212517 0.978806 0.985058
O O5 0.626998 0.169289 0.348433
O O6 0.811370 0.391305 0.301104
O O7 0.660824 0.058403 0.512000
O O8 0.047581 0.231365 0.131483
O O9 0.517376 0.230506 0.235819
O O10 0.208575 0.171782 0.614562
O O11 0.500000 0.500000 0.500000
O O12 0.270530 0.474363 0.833639
O O13 0.080665 0.297352 0.841722
O O14 0.155808 0.710918 0.142550
O O15 0.407715 0.242189 0.134090
O O16 0.668813 0.508141 0.015320
O O17 0.000000 0.000000 0.500000
#
# Coordination Sequence:
#
# PCOD9044233 Si02
#       8
#     2   2   2   2   2   2   2   2
#     4  10  24  44  65  94 125 162 208 274 318 380
#     4  11  22  38  60  88 137 176 206 254 301 361
#     4  11  22  40  59  94 132 175 217 255 299 370
#     4  12  23  37  59  94 137 176 211 253 302 371
#     4  11  21  39  61  90 126 171 213 249 312 372
#     4  11  23  40  69  92 123 168 213 261 326 375
#     4  10  23  46  71  91 119 160 212 270 333 381
#     4  12  23  42  62  94 137 165 210 264 311 372
#
# _framework density 23.235143999999998
#
# number of rings (size 3 to 8) (size 9 to 14) (size 15 to 20)
#    0.000    1.000    5.000    1.875    0.000    3.000 
#    0.000    0.625    0.000    0.000    0.000    0.000 
#    0.000    0.000    0.000    0.000    0.000    0.000 
#
# Total GULP energy -89343.116600 kJ/mol
# GULP energy per Si atom -5583.944787 kJ/mol
# Density = 2.318226 g / cm^3
# Si number density = 23.235144 Si / 1000 Ang^3
#
#
#
# Elastic Constant Matrix: (Units=GPa)
#
#
# Indices 1 2 3 4 5 6 
#
# 1 56.6515 37.0476 26.9792 -5.2974 -9.0049 1.6922
# 2 37.0476 161.7445 23.6183 -3.1474 -15.4539 -3.8227
# 3 26.9792 23.6183 104.3503 8.6118 -12.6354 -2.0826
# 4 -5.2974 -3.1474 8.6118 32.2631 -1.1463 -5.9563
# 5 -9.0049 -15.4539 -12.6354 -1.1463 31.6678 -6.1152
# 6 1.6922 -3.8227 -2.0826 -5.9563 -6.1152 39.2018
#
#
#
# Elastic Compliance Matrix: (Units=1/GPa)
#
#
# Indices 1 2 3 4 5 6 
#
# 1 0.023927 -0.004376 -0.005295 0.004900 0.002620 -0.000588
# 2 -0.004376 0.007512 -0.000262 0.000431 0.002599 0.001378
# 3 -0.005295 -0.000262 0.011706 -0.003778 0.003040 0.000725
# 4 0.004900 0.000431 -0.003778 0.033881 0.002315 0.005139
# 5 0.002620 0.002599 0.003040 0.002315 0.036102 0.006285
# 6 -0.000588 0.001378 0.000725 0.005139 0.006285 0.027469
#
#
# Mechanical properties :
#
#
# Convention : Reuss Voigt Hill
#
# Bulk Modulus (GPa) = 42.95588 55.33736 49.14662
# Shear Modulus (GPa) = 29.72273 36.29997 33.01135
#
# Velocity S-wave (km/s) = 3.58049 3.95687 3.77337
# Velocity P-wave (km/s) = 5.96832 6.68907 6.33895
#
# Compressibility (1/GPa) = 0.02327970
#
# Stress axis : x y z
#
# Youngs Moduli (GPa) = 41.79410 133.11291 85.42790
#
# Poissons Ratio (x) = 0.58244 0.45231
# Poissons Ratio (y) = 0.18287 0.02242
# Poissons Ratio (z) = 0.22129 0.03494
#
# Static dielectric constant tensor:
#      x y z
#    x 1.915310 -0.051190 -0.085840 
#    y -0.051190 2.063190 0.173200 
#    z -0.085840 0.173200 2.072240 
# 
# From -- ./inp_files/515499.got.cif
#   From: 2010.05.17/outbox.cif.g08.bks.cpg/sg2_258_cif.got.tgz:515499.got - 2010.06.03 11:33:40.
