data_PCOD9044691
_publ_section_title
;
Structure prediction by ZEFSAII (Michael W. Deem and Ramdas Pophale) SiO2 
 PCOD9044691
Probable space group: P -1
;
_chemical_formula_sum "Si O2"
_cell_formula_units_Z 16
_cell_length_a 10.615670
_cell_length_b 8.870416
_cell_length_c 18.946000
_cell_angle_alpha 40.323984
_cell_angle_beta 145.981676
_cell_angle_gamma 127.749018
_cell_volume 644.924486
_symmetry_space_group_name_H-M "P -1"
_symmetry_group_IT_number 2
_symmetry_cell_setting 'triclinic'
loop_
_space_group_symop_operation_xyz
x,y,z
-x,-y,-z
loop_
_atom_site_type_symbol
_atom_site_label
_atom_site_fract_x
_atom_site_fract_y
_atom_site_fract_z
Si Si1 0.726684 0.722359 0.911331
Si Si2 0.732176 0.495267 0.567401
Si Si3 0.813465 0.154798 0.596262
Si Si4 0.786554 0.490688 0.167933
Si Si5 0.730037 0.861636 0.132567
Si Si6 0.212640 0.816992 0.077125
Si Si7 0.371802 0.329811 0.269844
Si Si8 0.379346 0.007559 0.709670
O O1 0.718100 0.603330 0.873887
O O2 0.531757 0.927337 0.741813
O O3 0.682333 0.576321 0.013778
O O4 0.972097 0.815280 0.002268
O O5 0.500000 0.500000 0.500000
O O6 0.747140 0.299031 0.584842
O O7 0.750923 0.748019 0.449645
O O8 0.948971 0.460696 0.729717
O O9 0.640501 0.266211 0.418397
O O10 0.082252 0.183532 0.702934
O O11 0.746970 0.889981 0.673190
O O12 0.708985 0.636229 0.151529
O O13 0.762561 0.213421 0.260666
O O14 0.500000 0.000000 0.000000
O O15 0.841924 0.052323 0.067633
O O16 0.310345 0.554808 0.207666
O O17 0.418114 0.952866 0.155770
#
# Coordination Sequence:
#
# PCOD9044691 Si02
#       8
#     2   2   2   2   2   2   2   2
#     4  12  25  45  73 110 148 193 251 310 372 437
#     4  11  23  46  76 110 144 195 248 311 368 442
#     4  10  23  47  71 108 148 188 249 301 378 434
#     4  11  27  46  74 110 152 196 245 311 376 446
#     4  11  26  47  74 107 151 196 250 307 379 445
#     4  12  25  44  72 110 143 198 249 309 367 447
#     4  11  24  44  74 108 147 188 245 315 362 439
#     4  12  25  45  71 106 153 193 246 301 375 442
#
# _framework density 24.809106
#
# number of rings (size 3 to 8) (size 9 to 14) (size 15 to 20)
#    0.000    0.750    3.750    3.000    3.500    0.000 
#    0.000    1.875    0.000    0.000    0.000    0.000 
#    0.000    0.000    0.000    0.000    0.000    0.000 
#
# Total GULP energy -89493.632434 kJ/mol
# GULP energy per Si atom -5593.352027 kJ/mol
# Density = 2.475264 g / cm^3
# Si number density = 24.809106 Si / 1000 Ang^3
#
#
#
# Elastic Constant Matrix: (Units=GPa)
#
#
# Indices 1 2 3 4 5 6 
#
# 1 62.4228 31.0397 11.6075 -0.1779 6.3358 7.3909
# 2 31.0397 159.0203 34.7449 -7.4256 4.4363 2.6516
# 3 11.6075 34.7449 74.8125 24.1116 0.0693 11.0345
# 4 -0.1779 -7.4256 24.1116 61.8184 3.8269 -3.2569
# 5 6.3358 4.4363 0.0693 3.8269 37.7587 -1.9945
# 6 7.3909 2.6516 11.0345 -3.2569 -1.9945 17.8654
#
#
#
# Elastic Compliance Matrix: (Units=1/GPa)
#
#
# Indices 1 2 3 4 5 6 
#
# 1 0.019010 -0.003530 0.000042 -0.000604 -0.003127 -0.007826
# 2 -0.003530 0.008106 -0.004738 0.003034 -0.000464 0.003685
# 3 0.000042 -0.004738 0.020593 -0.009367 0.000740 -0.013659
# 4 -0.000604 0.003034 -0.009367 0.020791 -0.001861 0.009167
# 5 -0.003127 -0.000464 0.000740 -0.001861 0.027442 0.003630
# 6 -0.007826 0.003685 -0.013659 0.009167 0.003630 0.069177
#
#
# Mechanical properties :
#
#
# Convention : Reuss Voigt Hill
#
# Bulk Modulus (GPa) = 31.99325 50.11553 41.05439
# Shear Modulus (GPa) = 26.04298 38.07940 32.06119
#
# Velocity S-wave (km/s) = 3.24348 3.92203 3.59878
# Velocity P-wave (km/s) = 5.19140 6.38389 5.81827
#
# Compressibility (1/GPa) = 0.03125660
#
# Stress axis : x y z
#
# Youngs Moduli (GPa) = 52.60502 123.36544 48.55928
#
# Poissons Ratio (x) = 0.43551 -0.00204
# Poissons Ratio (y) = 0.18571 0.23007
# Poissons Ratio (z) = -0.00221 0.58450
#
# Static dielectric constant tensor:
#      x y z
#    x 1.974550 -0.020130 0.006900 
#    y -0.020130 2.002760 0.052040 
#    z 0.006900 0.052040 2.015580 
# 
# From -- ./inp_files/594001.got.cif
#   From: 2010.05.17/outbox.cif.g08.bks.cpg/sg2_298_cif.got.tgz:594001.got - 2010.06.03 11:33:40.
