data_PCOD9044392
_publ_section_title
;
Structure prediction by ZEFSAII (Michael W. Deem and Ramdas Pophale) SiO2 
 PCOD9044392
Probable space group: P -1
;
_chemical_formula_sum "Si O2"
_cell_formula_units_Z 16
_cell_length_a 22.343289
_cell_length_b 15.971188
_cell_length_c 6.597925
_cell_angle_alpha 75.148361
_cell_angle_beta 62.299683
_cell_angle_gamma 21.623399
_cell_volume 647.116480
_symmetry_space_group_name_H-M "P -1"
_symmetry_group_IT_number 2
_symmetry_cell_setting 'triclinic'
loop_
_space_group_symop_operation_xyz
x,y,z
-x,-y,-z
loop_
_atom_site_type_symbol
_atom_site_label
_atom_site_fract_x
_atom_site_fract_y
_atom_site_fract_z
Si Si1 0.008554 0.007490 0.748555
Si Si2 0.104052 0.724846 0.540437
Si Si3 0.047385 0.278149 0.292155
Si Si4 0.379022 0.854818 0.326813
Si Si5 0.578703 0.736325 0.365746
Si Si6 0.108959 0.281496 0.774224
Si Si7 0.738628 0.692169 0.876597
Si Si8 0.563878 0.410477 0.707107
O O1 0.987195 0.938838 0.726901
O O2 0.237788 0.767178 0.493460
O O3 0.861008 0.260602 0.725702
O O4 0.000000 0.000000 0.000000
O O5 0.959226 0.816375 0.686985
O O6 0.314066 0.435245 0.499720
O O7 0.030054 0.355833 0.073286
O O8 0.853904 0.522258 0.597698
O O9 0.262813 0.043888 0.209161
O O10 0.566872 0.676386 0.249993
O O11 0.417986 0.713959 0.268391
O O12 0.198386 0.084125 0.646186
O O13 0.714761 0.648394 0.115315
O O14 0.331047 0.063228 0.571167
O O15 0.907959 0.554167 0.790188
O O16 0.500000 0.000000 0.000000
O O17 0.500000 0.500000 0.500000
O O18 0.500000 0.500000 0.000000
#
# Coordination Sequence:
#
# PCOD9044392 Si02
#       8
#     2   2   2   2   2   2   2   2
#     4  11  28  43  67 102 147 192 249 314 366 431
#     4  11  24  44  69 101 140 193 253 295 369 442
#     4  11  22  43  76  94 138 191 238 299 366 436
#     4   9  23  43  68  94 142 184 246 293 361 438
#     4  10  23  46  74 100 144 191 240 292 370 446
#     4   9  23  45  68 104 135 182 240 290 359 437
#     4  11  25  46  71 110 147 179 229 304 376 446
#     4  12  28  44  67 102 148 199 249 320 379 433
#
# _framework density 24.725069999999999
#
# number of rings (size 3 to 8) (size 9 to 14) (size 15 to 20)
#    0.750    0.750    2.500    0.750    8.750    3.000 
#    0.000    0.625    0.000    0.000    0.000    0.000 
#    0.000    0.000    0.000    0.000    0.000    0.000 
#
# Total GULP energy -89068.530184 kJ/mol
# GULP energy per Si atom -5566.783136 kJ/mol
# Density = 2.466879 g / cm^3
# Si number density = 24.725070 Si / 1000 Ang^3
#
#
#
# Elastic Constant Matrix: (Units=GPa)
#
#
# Indices 1 2 3 4 5 6 
#
# 1 76.2820 33.4301 35.9169 -12.2083 2.9331 -12.5030
# 2 33.4301 135.9736 50.2126 -32.4667 -1.6938 -28.6571
# 3 35.9169 50.2126 154.9614 -18.9781 -7.7743 -7.1064
# 4 -12.2083 -32.4667 -18.9781 29.5126 -3.6079 0.3229
# 5 2.9331 -1.6938 -7.7743 -3.6079 29.5591 -3.6548
# 6 -12.5030 -28.6571 -7.1064 0.3229 -3.6548 45.1825
#
#
#
# Elastic Compliance Matrix: (Units=1/GPa)
#
#
# Indices 1 2 3 4 5 6 
#
# 1 0.016146 -0.001714 -0.002813 0.002739 -0.001762 0.002777
# 2 -0.001714 0.013201 -0.001789 0.012945 0.002997 0.007767
# 3 -0.002813 -0.001789 0.008083 0.002382 0.002537 -0.000453
# 4 0.002739 0.012945 0.002382 0.051736 0.008607 0.009670
# 5 -0.001762 0.002997 0.002537 0.008607 0.036476 0.004701
# 6 0.002777 0.007767 -0.000453 0.009670 0.004701 0.028067
#
#
# Mechanical properties :
#
#
# Convention : Reuss Voigt Hill
#
# Bulk Modulus (GPa) = 40.32178 67.37069 53.84623
# Shear Modulus (GPa) = 28.63591 37.36133 32.99862
#
# Velocity S-wave (km/s) = 3.40689 3.89147 3.65721
# Velocity P-wave (km/s) = 5.64086 6.89191 6.29753
#
# Compressibility (1/GPa) = 0.02480049
#
# Stress axis : x y z
#
# Youngs Moduli (GPa) = 61.93563 75.74914 123.71822
#
# Poissons Ratio (x) = 0.12981 0.34797
# Poissons Ratio (y) = 0.10614 0.22128
# Poissons Ratio (z) = 0.17420 0.13548
#
# Static dielectric constant tensor:
#      x y z
#    x 1.966340 0.004870 0.058150 
#    y 0.004870 2.080920 -0.005380 
#    z 0.058150 -0.005380 1.980950 
# 
# From -- ./inp_files/124698.got.cif
#   From: 2010.05.17/outbox.cif.g08.bks.cpg/sg2_63_cif.got.tgz:124698.got - 2010.06.03 11:33:40.
