data_PCOD9044372
_publ_section_title
;
Structure prediction by ZEFSAII (Michael W. Deem and Ramdas Pophale) SiO2 
 PCOD9044372
Probable space group: P -1
;
_chemical_formula_sum "Si O2"
_cell_formula_units_Z 14
_cell_length_a 17.223568
_cell_length_b 7.393217
_cell_length_c 5.033447
_cell_angle_alpha 96.495556
_cell_angle_beta 107.749687
_cell_angle_gamma 60.455296
_cell_volume 530.526428
_symmetry_space_group_name_H-M "P -1"
_symmetry_group_IT_number 2
_symmetry_cell_setting 'triclinic'
loop_
_space_group_symop_operation_xyz
x,y,z
-x,-y,-z
loop_
_atom_site_type_symbol
_atom_site_label
_atom_site_fract_x
_atom_site_fract_y
_atom_site_fract_z
Si Si1 0.500258 0.216176 0.486163
Si Si2 0.387392 0.794749 0.910012
Si Si3 0.773647 0.745334 0.060873
Si Si4 0.069064 0.165705 0.556543
Si Si5 0.313843 0.539107 0.050567
Si Si6 0.918461 0.458758 0.793443
Si Si7 0.126994 0.878702 0.072142
O O1 0.529184 0.280719 0.800670
O O2 0.401424 0.384779 0.292776
O O3 0.500000 0.000000 0.500000
O O4 0.655169 0.359857 0.134073
O O5 0.424483 0.811795 0.664818
O O6 0.311800 0.023130 0.973362
O O7 0.857218 0.752874 0.304025
O O8 0.738213 0.590192 0.109762
O O9 0.819463 0.657446 0.802699
O O10 0.965121 0.345824 0.545466
O O11 0.091288 0.059282 0.279555
O O12 0.094981 0.983797 0.770237
O O13 0.238161 0.738478 0.165619
O O14 0.909726 0.277994 0.909657
O O15 0.000000 0.500000 0.000000
#
# Coordination Sequence:
#
# PCOD9044372 Si02
#       7
#     2   2   2   2   2   2   2
#     4  12  27  49  76 107 145 192 240 306 362 441
#     4  12  26  49  74 105 150 189 244 301 367 432
#     4  10  23  46  73 108 146 192 244 303 358 436
#     4  11  23  46  71 103 148 187 245 295 363 423
#     4  11  25  48  74 109 145 195 247 296 374 432
#     4   9  21  44  70 107 145 190 242 298 358 428
#     4  11  24  43  73 105 143 194 238 302 355 435
#
# _framework density 26.388885999999999
#
# number of rings (size 3 to 8) (size 9 to 14) (size 15 to 20)
#    0.000    1.143    2.857    2.143    2.000    1.143 
#    2.571   18.571    0.000    0.000    0.000    0.000 
#    0.000    0.000    0.000    0.000    0.000    0.000 
#
# Total GULP energy -78556.195309 kJ/mol
# GULP energy per Si atom -5611.156808 kJ/mol
# Density = 2.632882 g / cm^3
# Si number density = 26.388886 Si / 1000 Ang^3
#
#
#
# Elastic Constant Matrix: (Units=GPa)
#
#
# Indices 1 2 3 4 5 6 
#
# 1 199.9089 70.8627 35.8437 3.9549 -23.3468 25.3081
# 2 70.8627 173.8327 30.8718 -5.6577 -17.6805 -30.3974
# 3 35.8437 30.8718 84.3735 11.9334 -21.7470 -1.4029
# 4 3.9549 -5.6577 11.9334 42.3029 4.2965 1.4161
# 5 -23.3468 -17.6805 -21.7470 4.2965 34.2444 -5.8173
# 6 25.3081 -30.3974 -1.4029 1.4161 -5.8173 72.2607
#
#
#
# Elastic Compliance Matrix: (Units=1/GPa)
#
#
# Indices 1 2 3 4 5 6 
#
# 1 0.007029 -0.003103 -0.001334 -0.000759 0.001821 -0.003631
# 2 -0.003103 0.008321 -0.001351 0.001430 0.001940 0.004689
# 3 -0.001334 -0.001351 0.016195 -0.005633 0.009570 0.001094
# 4 -0.000759 0.001430 -0.005633 0.026180 -0.006691 -0.000294
# 5 0.001821 0.001940 0.009570 -0.006691 0.038979 0.003633
# 6 -0.003631 0.004689 0.001094 -0.000294 0.003633 0.017403
#
#
# Mechanical properties :
#
#
# Convention : Reuss Voigt Hill
#
# Bulk Modulus (GPa) = 50.07778 81.47460 65.77619
# Shear Modulus (GPa) = 37.78188 51.13072 44.45630
#
# Velocity S-wave (km/s) = 3.78793 4.40658 4.10891
# Velocity P-wave (km/s) = 6.17651 7.53871 6.89135
#
# Compressibility (1/GPa) = 0.01996894
#
# Stress axis : x y z
#
# Youngs Moduli (GPa) = 142.27153 120.17419 61.74859
#
# Poissons Ratio (x) = 0.37288 0.08239
# Poissons Ratio (y) = 0.44144 0.08341
# Poissons Ratio (z) = 0.18984 0.16233
#
# Static dielectric constant tensor:
#      x y z
#    x 2.055660 0.015070 -0.006020 
#    y 0.015070 2.067410 -0.021260 
#    z -0.006020 -0.021260 2.092530 
# 
# From -- ./inp_files/105439.got.cif
#   From: 2010.05.17/outbox.cif.g08.bks.cpg/sg2_53_cif.got.tgz:105439.got - 2010.06.03 11:33:40.
