data_PCOD9044654
_publ_section_title
;
Structure prediction by ZEFSAII (Michael W. Deem and Ramdas Pophale) SiO2 
 PCOD9044654
Probable space group: P -1
;
_chemical_formula_sum "Si O2"
_cell_formula_units_Z 14
_cell_length_a 9.015340
_cell_length_b 18.360204
_cell_length_c 17.319971
_cell_angle_alpha 150.318557
_cell_angle_beta 155.151163
_cell_angle_gamma 37.552041
_cell_volume 596.418583
_symmetry_space_group_name_H-M "P -1"
_symmetry_group_IT_number 2
_symmetry_cell_setting 'triclinic'
loop_
_space_group_symop_operation_xyz
x,y,z
-x,-y,-z
loop_
_atom_site_type_symbol
_atom_site_label
_atom_site_fract_x
_atom_site_fract_y
_atom_site_fract_z
Si Si1 0.732495 0.489754 0.291010
Si Si2 0.450030 0.216013 0.830887
Si Si3 0.717383 0.551170 0.724073
Si Si4 0.651072 0.152234 0.180691
Si Si5 0.199587 0.350258 0.692566
Si Si6 0.801893 0.920102 0.764386
Si Si7 0.707122 0.335211 0.656656
O O1 0.798895 0.588341 0.337174
O O2 0.346754 0.553525 0.194090
O O3 0.000000 0.500000 0.500000
O O4 0.710859 0.321850 0.098538
O O5 0.473435 0.261893 0.794268
O O6 0.070404 0.257031 0.728509
O O7 0.541286 0.045431 0.722557
O O8 0.500000 0.500000 0.500000
O O9 0.645071 0.721863 0.863171
O O10 0.596341 0.444209 0.635578
O O11 0.107750 0.492723 0.833815
O O12 0.887015 0.230338 0.429344
O O13 0.907361 0.125864 0.204415
O O14 0.500000 0.000000 0.000000
O O15 0.570994 0.788826 0.567020
O O16 0.000000 0.000000 0.000000
#
# Coordination Sequence:
#
# PCOD9044654 Si02
#       7
#     2   2   2   2   2   2   2
#     4  12  23  44  77 108 143 185 253 301 357 432
#     4  11  27  46  71 102 150 193 237 302 372 434
#     4   9  21  40  70 100 139 189 237 296 352 432
#     4  11  25  44  70 110 144 189 240 297 367 433
#     4  10  23  47  70 103 143 195 238 295 361 431
#     4  12  28  45  71 107 148 194 241 304 365 432
#     4  11  24  47  70 104 145 190 246 298 363 424
#
# _framework density 23.473447
#
# number of rings (size 3 to 8) (size 9 to 14) (size 15 to 20)
#    0.000    1.143    1.429    3.857   10.000    0.571 
#    0.000    0.000    0.000    0.000    0.000    0.000 
#    0.000    0.000    0.000    0.000    0.000    0.000 
#
# Total GULP energy -78168.493823 kJ/mol
# GULP energy per Si atom -5583.463845 kJ/mol
# Density = 2.342002 g / cm^3
# Si number density = 23.473447 Si / 1000 Ang^3
#
#
#
# Elastic Constant Matrix: (Units=GPa)
#
#
# Indices 1 2 3 4 5 6 
#
# 1 156.6977 73.1045 42.9935 20.1593 16.2301 9.7027
# 2 73.1045 166.7091 36.0172 37.5989 10.8908 13.7799
# 3 42.9935 36.0172 100.0368 28.7684 10.3571 21.4573
# 4 20.1593 37.5989 28.7684 44.7963 8.3542 1.8493
# 5 16.2301 10.8908 10.3571 8.3542 41.1582 9.7356
# 6 9.7027 13.7799 21.4573 1.8493 9.7356 45.4864
#
#
#
# Elastic Compliance Matrix: (Units=1/GPa)
#
#
# Indices 1 2 3 4 5 6 
#
# 1 0.008792 -0.003426 -0.002835 0.001129 -0.002300 0.000946
# 2 -0.003426 0.008954 0.000433 -0.006286 0.000637 -0.002067
# 3 -0.002835 0.000433 0.014767 -0.008401 0.000471 -0.006252
# 4 0.001129 -0.006286 -0.008401 0.033134 -0.004641 0.005273
# 5 -0.002300 0.000637 0.000471 -0.004641 0.027171 -0.005552
# 6 0.000946 -0.002067 -0.006252 0.005273 -0.005552 0.026332
#
#
# Mechanical properties :
#
#
# Convention : Reuss Voigt Hill
#
# Bulk Modulus (GPa) = 47.94073 80.85268 64.39670
# Shear Modulus (GPa) = 36.29588 44.37673 40.33630
#
# Velocity S-wave (km/s) = 3.93651 4.35271 4.14983
# Velocity P-wave (km/s) = 6.41320 7.73179 7.10316
#
# Compressibility (1/GPa) = 0.02085909
#
# Stress axis : x y z
#
# Youngs Moduli (GPa) = 113.73924 111.68400 67.71974
#
# Poissons Ratio (x) = 0.38258 0.19197
# Poissons Ratio (y) = 0.38962 -0.02936
# Poissons Ratio (z) = 0.32242 -0.04841
#
# Static dielectric constant tensor:
#      x y z
#    x 1.983240 -0.077610 0.067650 
#    y -0.077610 1.987090 -0.057520 
#    z 0.067650 -0.057520 1.950890 
# 
# From -- ./inp_files/561938.got.cif
#   From: 2010.05.17/outbox.cif.g08.bks.cpg/sg2_281_cif.got.tgz:561938.got - 2010.06.03 11:33:40.
