data_PCOD9044136
_publ_section_title
;
Structure prediction by ZEFSAII (Michael W. Deem and Ramdas Pophale) SiO2 
 PCOD9044136
Probable space group: P -1
;
_chemical_formula_sum "Si O2"
_cell_formula_units_Z 10
_cell_length_a 15.536649
_cell_length_b 6.526404
_cell_length_c 5.392769
_cell_angle_alpha 82.847625
_cell_angle_beta 89.786551
_cell_angle_gamma 132.776416
_cell_volume 395.309859
_symmetry_space_group_name_H-M "P -1"
_symmetry_group_IT_number 2
_symmetry_cell_setting 'triclinic'
loop_
_space_group_symop_operation_xyz
x,y,z
-x,-y,-z
loop_
_atom_site_type_symbol
_atom_site_label
_atom_site_fract_x
_atom_site_fract_y
_atom_site_fract_z
Si Si1 0.183263 0.637635 0.471286
Si Si2 0.532864 0.171638 0.219363
Si Si3 0.384182 0.255396 0.385374
Si Si4 0.965603 0.271080 0.832732
Si Si5 0.760975 0.625151 0.893808
O O1 0.112123 0.716998 0.352617
O O2 0.213166 0.528959 0.262652
O O3 0.087604 0.388487 0.697871
O O4 0.294196 0.938142 0.549143
O O5 0.447114 0.226969 0.176952
O O6 0.500000 0.000000 0.500000
O O7 0.672574 0.442248 0.153328
O O8 0.500000 0.000000 0.000000
O O9 0.500000 0.500000 0.500000
O O10 0.314507 0.339279 0.281612
O O11 0.877741 0.937272 0.936211
O O12 0.000000 0.500000 0.000000
#
# Coordination Sequence:
#
# PCOD9044136 Si02
#       5
#     2   2   2   2   2
#     4  10  23  46  70 105 149 187 253 307 374 453
#     4  12  26  48  75 111 153 202 251 311 380 458
#     4  11  25  44  74 110 151 199 250 304 382 449
#     4  10  24  45  72 105 142 192 251 312 374 446
#     4  11  24  47  73 105 152 198 247 311 377 450
#
# _framework density 25.296610000000001
#
# number of rings (size 3 to 8) (size 9 to 14) (size 15 to 20)
#    0.000    1.200    2.000    2.400    2.800    2.400 
#    3.600    0.000    0.000    0.000    0.000    0.000 
#    0.000    0.000    0.000    0.000    0.000    0.000 
#
# Total GULP energy -55897.626940 kJ/mol
# GULP energy per Si atom -5589.762694 kJ/mol
# Density = 2.523903 g / cm^3
# Si number density = 25.296610 Si / 1000 Ang^3
#
#
#
# Elastic Constant Matrix: (Units=GPa)
#
#
# Indices 1 2 3 4 5 6 
#
# 1 138.1263 48.9146 28.8119 -24.6500 -19.6801 0.6783
# 2 48.9146 223.0987 70.6072 -29.2835 -10.6295 42.1191
# 3 28.8119 70.6072 106.4987 -26.5959 -14.1483 7.9371
# 4 -24.6500 -29.2835 -26.5959 58.4882 3.0352 -5.7145
# 5 -19.6801 -10.6295 -14.1483 3.0352 49.8151 -3.2598
# 6 0.6783 42.1191 7.9371 -5.7145 -3.2598 57.1242
#
#
#
# Elastic Compliance Matrix: (Units=1/GPa)
#
#
# Indices 1 2 3 4 5 6 
#
# 1 0.008787 -0.001614 -0.000347 0.002738 0.002965 0.001577
# 2 -0.001614 0.006936 -0.003727 0.000683 -0.000555 -0.004540
# 3 -0.000347 -0.003727 0.013197 0.003994 0.002669 0.001470
# 4 0.002738 0.000683 0.003994 0.020448 0.001183 0.001022
# 5 0.002965 -0.000555 0.002669 0.001183 0.021903 0.001371
# 6 0.001577 -0.004540 0.001470 0.001022 0.001371 0.020811
#
#
# Mechanical properties :
#
#
# Convention : Reuss Voigt Hill
#
# Bulk Modulus (GPa) = 56.99819 84.93237 70.96528
# Shear Modulus (GPa) = 45.74377 54.37815 50.06096
#
# Velocity S-wave (km/s) = 4.25702 4.64143 4.45338
# Velocity P-wave (km/s) = 6.83695 7.89755 7.38631
#
# Compressibility (1/GPa) = 0.01754442
#
# Stress axis : x y z
#
# Youngs Moduli (GPa) = 113.80603 144.17597 75.77618
#
# Poissons Ratio (x) = 0.23266 0.02632
# Poissons Ratio (y) = 0.18365 0.28239
# Poissons Ratio (z) = 0.03952 0.53728
#
# Static dielectric constant tensor:
#      x y z
#    x 2.146020 -0.411920 -0.167490 
#    y -0.411920 3.950390 0.756320 
#    z -0.167490 0.756320 2.375280 
# 
# From -- ./inp_files/4689.got.cif
#   From: 2010.05.17/outbox.cif.g08.bks.cpg/sg2_3_cif.got.tgz:4689.got - 2010.06.03 11:33:40.
