data_PCOD9044435
_publ_section_title
;
Structure prediction by ZEFSAII (Michael W. Deem and Ramdas Pophale) SiO2 
 PCOD9044435
Probable space group: P -1
;
_chemical_formula_sum "Si O2"
_cell_formula_units_Z 12
_cell_length_a 6.774217
_cell_length_b 21.946656
_cell_length_c 18.945294
_cell_angle_alpha 16.888553
_cell_angle_beta 40.640011
_cell_angle_gamma 39.397458
_cell_volume 516.469194
_symmetry_space_group_name_H-M "P -1"
_symmetry_group_IT_number 2
_symmetry_cell_setting 'triclinic'
loop_
_space_group_symop_operation_xyz
x,y,z
-x,-y,-z
loop_
_atom_site_type_symbol
_atom_site_label
_atom_site_fract_x
_atom_site_fract_y
_atom_site_fract_z
Si Si1 0.254465 0.639102 0.857137
Si Si2 0.674251 0.267237 0.525173
Si Si3 0.619558 0.958896 0.432454
Si Si4 0.758539 0.485867 0.519349
Si Si5 0.470726 0.140383 0.924478
Si Si6 0.585346 0.604239 0.063565
O O1 0.355435 0.861536 0.576736
O O2 0.314608 0.518601 0.900365
O O3 0.500000 0.500000 0.000000
O O4 0.895150 0.660879 0.949963
O O5 0.570193 0.398251 0.480616
O O6 0.500714 0.430676 0.331016
O O7 0.043946 0.207716 0.476713
O O8 0.591002 0.034545 0.809366
O O9 0.500000 0.000000 0.500000
O O10 0.642668 0.171309 0.147515
O O11 0.741495 0.248978 0.760453
O O12 0.779270 0.641479 0.275301
O O13 0.000000 0.500000 0.500000
O O14 0.500000 0.000000 0.000000
#
# Coordination Sequence:
#
# PCOD9044435 Si02
#       6
#     2   2   2   2   2   2
#     4  11  21  44  65  90 139 184 236 284 329 403
#     4  11  25  42  66 109 135 176 239 285 341 422
#     4  12  24  42  69  94 140 189 226 282 336 398
#     4  10  23  46  75 100 138 183 224 287 362 420
#     4   9  22  46  71 102 140 173 229 291 348 420
#     4  11  24  41  65  98 132 187 232 278 348 394
#
# _framework density 23.234687999999998
#
# number of rings (size 3 to 8) (size 9 to 14) (size 15 to 20)
#    0.000    1.333    3.333    1.500    2.333    6.667 
#    6.000    0.000    0.000    0.000    0.000    0.000 
#    0.000    0.000    0.000    0.000    0.000    0.000 
#
# Total GULP energy -66944.844423 kJ/mol
# GULP energy per Si atom -5578.737035 kJ/mol
# Density = 2.318181 g / cm^3
# Si number density = 23.234688 Si / 1000 Ang^3
#
#
#
# Elastic Constant Matrix: (Units=GPa)
#
#
# Indices 1 2 3 4 5 6 
#
# 1 124.7216 22.7869 57.8117 -6.0841 -4.9575 5.4659
# 2 22.7869 74.3552 16.4063 -6.6996 0.1506 -9.6711
# 3 57.8117 16.4063 199.3308 0.0344 13.8907 6.0887
# 4 -6.0841 -6.6996 0.0344 27.4641 8.3720 1.1774
# 5 -4.9575 0.1506 13.8907 8.3720 57.6466 -5.8764
# 6 5.4659 -9.6711 6.0887 1.1774 -5.8764 21.2774
#
#
#
# Elastic Compliance Matrix: (Units=1/GPa)
#
#
# Indices 1 2 3 4 5 6 
#
# 1 0.009976 -0.002720 -0.002654 0.001361 0.001018 -0.002834
# 2 -0.002720 0.015747 -0.000775 0.002798 0.000322 0.008012
# 3 -0.002654 -0.000775 0.006038 -0.000137 -0.001855 -0.001903
# 4 0.001361 0.002798 -0.000137 0.039301 -0.005853 -0.002830
# 5 0.001018 0.000322 -0.001855 -0.005853 0.019351 0.006084
# 6 -0.002834 0.008012 -0.001903 -0.002830 0.006084 0.053749
#
#
# Mechanical properties :
#
#
# Convention : Reuss Voigt Hill
#
# Bulk Modulus (GPa) = 51.37857 65.82412 58.60135
# Shear Modulus (GPa) = 30.68478 41.37113 36.02796
#
# Velocity S-wave (km/s) = 3.63801 4.22427 3.94205
# Velocity P-wave (km/s) = 6.30933 7.22386 6.78203
#
# Compressibility (1/GPa) = 0.01946337
#
# Stress axis : x y z
#
# Youngs Moduli (GPa) = 100.24029 63.50432 165.62404
#
# Poissons Ratio (x) = 0.17271 0.43959
# Poissons Ratio (y) = 0.27261 0.12835
# Poissons Ratio (z) = 0.26605 0.04921
#
# Static dielectric constant tensor:
#      x y z
#    x 1.934310 -0.093000 0.035260 
#    y -0.093000 1.999460 -0.047210 
#    z 0.035260 -0.047210 2.022380 
# 
# From -- ./inp_files/119970.got.cif
#   From: 2010.05.17/outbox.cif.g08.bks.cpg/sg2_60_cif.got.tgz:119970.got - 2010.06.03 11:33:40.
