data_PCOD9044078
_publ_section_title
;
Structure prediction by ZEFSAII (Michael W. Deem and Ramdas Pophale) SiO2 
 PCOD9044078
Probable space group: P -1
;
_chemical_formula_sum "Si O2"
_cell_formula_units_Z 16
_cell_length_a 15.494346
_cell_length_b 12.564808
_cell_length_c 8.942546
_cell_angle_alpha 111.062527
_cell_angle_beta 68.761887
_cell_angle_gamma 50.354177
_cell_volume 710.172160
_symmetry_space_group_name_H-M "P -1"
_symmetry_group_IT_number 2
_symmetry_cell_setting 'triclinic'
loop_
_space_group_symop_operation_xyz
x,y,z
-x,-y,-z
loop_
_atom_site_type_symbol
_atom_site_label
_atom_site_fract_x
_atom_site_fract_y
_atom_site_fract_z
Si Si1 0.046469 0.827207 0.129510
Si Si2 0.515411 0.853468 0.970016
Si Si3 0.351888 0.701632 0.822218
Si Si4 0.704435 0.548616 0.982373
Si Si5 0.781464 0.903929 0.934468
Si Si6 0.163395 0.529367 0.653799
Si Si7 0.348427 0.609646 0.264156
Si Si8 0.522213 0.863359 0.515161
O O1 0.096333 0.682687 0.159212
O O2 0.205659 0.758572 0.993766
O O3 0.074416 0.731009 0.906441
O O4 0.832391 0.114631 0.432810
O O5 0.611454 0.739292 0.016709
O O6 0.668289 0.622766 0.647287
O O7 0.299842 0.040460 0.151099
O O8 0.500000 0.000000 0.000000
O O9 0.500000 0.500000 0.500000
O O10 0.504255 0.575546 0.788319
O O11 0.234790 0.941525 0.969010
O O12 0.725655 0.418147 0.794647
O O13 0.553738 0.725562 0.306794
O O14 0.644870 0.992124 0.190149
O O15 0.002651 0.637051 0.712414
O O16 0.280919 0.333082 0.608489
O O17 0.500000 0.500000 0.000000
O O18 0.500000 0.000000 0.500000
#
# Coordination Sequence:
#
# PCOD9044078 Si02
#       8
#     2   2   2   2   2   2   2   2
#     4  11  26  42  67 100 138 180 222 269 331 409
#     4  11  24  45  68  96 131 172 219 286 339 385
#     4  12  24  41  66  98 138 179 222 265 332 408
#     4  11  22  42  66  96 134 168 221 275 337 386
#     4  11  24  41  68  95 130 174 221 267 333 402
#     4  10  24  43  68  96 131 171 226 266 329 406
#     4  12  26  41  65 100 137 180 221 271 337 396
#     4  10  23  46  69  94 127 174 223 282 334 390
#
# _framework density 22.529748000000001
#
# number of rings (size 3 to 8) (size 9 to 14) (size 15 to 20)
#    0.000    1.000    2.500    4.875    3.500    2.000 
#    0.000    0.000    0.000    0.000    0.000    0.000 
#    0.000    0.000    0.000    0.000    0.000    0.000 
#
# Total GULP energy -89167.868413 kJ/mol
# GULP energy per Si atom -5572.991776 kJ/mol
# Density = 2.247847 g / cm^3
# Si number density = 22.529748 Si / 1000 Ang^3
#
#
#
# Elastic Constant Matrix: (Units=GPa)
#
#
# Indices 1 2 3 4 5 6 
#
# 1 61.4358 38.5949 16.8459 10.3652 -1.2926 -16.9831
# 2 38.5949 154.1673 25.6517 6.2252 -19.2685 -16.4397
# 3 16.8459 25.6517 79.1787 3.7839 -7.0889 -7.7618
# 4 10.3652 6.2252 3.7839 29.6981 -14.4668 1.7039
# 5 -1.2926 -19.2685 -7.0889 -14.4668 31.1414 1.7423
# 6 -16.9831 -16.4397 -7.7618 1.7039 1.7423 43.7269
#
#
#
# Elastic Compliance Matrix: (Units=1/GPa)
#
#
# Indices 1 2 3 4 5 6 
#
# 1 0.024447 -0.005450 -0.002912 -0.011821 -0.008945 0.007746
# 2 -0.005450 0.008786 -0.001211 0.003320 0.006444 0.000585
# 3 -0.002912 -0.001211 0.013913 0.000715 0.002587 0.000752
# 4 -0.011821 0.003320 0.000715 0.049596 0.025110 -0.006149
# 5 -0.008945 0.006444 0.002587 0.025110 0.048177 -0.003490
# 6 0.007746 0.000585 0.000752 -0.006149 -0.003490 0.026610
#
#
# Mechanical properties :
#
#
# Convention : Reuss Voigt Hill
#
# Bulk Modulus (GPa) = 35.71605 50.77409 43.24507
# Shear Modulus (GPa) = 24.99885 35.15923 30.07904
#
# Velocity S-wave (km/s) = 3.33467 3.95469 3.65784
# Velocity P-wave (km/s) = 5.54202 6.59076 6.08901
#
# Compressibility (1/GPa) = 0.02799862
#
# Stress axis : x y z
#
# Youngs Moduli (GPa) = 40.90451 113.81451 71.87607
#
# Poissons Ratio (x) = 0.62033 0.20932
# Poissons Ratio (y) = 0.22294 0.08706
# Poissons Ratio (z) = 0.11912 0.13786
#
# Static dielectric constant tensor:
#      x y z
#    x 1.879810 0.025640 0.015920 
#    y 0.025640 1.847080 0.037520 
#    z 0.015920 0.037520 1.812440 
# 
# From -- ./inp_files/307964.got.cif
#   From: 2010.05.17/outbox.cif.g08.bks.cpg/sg2_154_cif.got.tgz:307964.got - 2010.06.03 11:33:40.
