data_PCOD9044129
_publ_section_title
;
Structure prediction by ZEFSAII (Michael W. Deem and Ramdas Pophale) SiO2 
 PCOD9044129
Probable space group: P -1
;
_chemical_formula_sum "Si O2"
_cell_formula_units_Z 12
_cell_length_a 12.099420
_cell_length_b 5.429316
_cell_length_c 7.143694
_cell_angle_alpha 80.526252
_cell_angle_beta 106.882692
_cell_angle_gamma 106.872191
_cell_volume 428.069662
_symmetry_space_group_name_H-M "P -1"
_symmetry_group_IT_number 2
_symmetry_cell_setting 'triclinic'
loop_
_space_group_symop_operation_xyz
x,y,z
-x,-y,-z
loop_
_atom_site_type_symbol
_atom_site_label
_atom_site_fract_x
_atom_site_fract_y
_atom_site_fract_z
Si Si1 0.995839 0.946253 0.280940
Si Si2 0.217701 0.842868 0.896309
Si Si3 0.535663 0.595323 0.794717
Si Si4 0.788293 0.608097 0.776783
Si Si5 0.407353 0.042427 0.684089
Si Si6 0.817467 0.315287 0.503118
O O1 0.086060 0.179675 0.185689
O O2 0.863550 0.956335 0.159517
O O3 0.062456 0.717742 0.338135
O O4 0.000000 0.000000 0.500000
O O5 0.351112 0.976724 0.874670
O O6 0.169927 0.653547 0.717641
O O7 0.207853 0.662642 0.090958
O O8 0.676343 0.669605 0.815788
O O9 0.482766 0.838715 0.700137
O O10 0.478599 0.336867 0.678498
O O11 0.500000 0.500000 0.000000
O O12 0.771518 0.532560 0.558019
O O13 0.712919 0.047998 0.489046
#
# Coordination Sequence:
#
# PCOD9044129 Si02
#       6
#     2   2   2   2   2   2
#     4  10  23  46  70 104 149 188 250 310 369 436
#     4   9  22  47  68 106 148 191 250 302 371 438
#     4  12  25  46  76 109 154 191 250 303 368 446
#     4  12  25  42  76 105 143 200 246 302 375 440
#     4  10  25  46  73 107 148 199 235 311 366 432
#     4   9  24  44  68 107 144 191 244 301 371 436
#
# _framework density 28.032824000000002
#
# number of rings (size 3 to 8) (size 9 to 14) (size 15 to 20)
#    1.000    0.667    1.667    1.000    4.667    4.667 
#    3.000    0.000    0.000    0.000    0.000    0.000 
#    0.000    0.000    0.000    0.000    0.000    0.000 
#
# Total GULP energy -67270.934187 kJ/mol
# GULP energy per Si atom -5605.911182 kJ/mol
# Density = 2.796902 g / cm^3
# Si number density = 28.032824 Si / 1000 Ang^3
#
#
#
# Elastic Constant Matrix: (Units=GPa)
#
#
# Indices 1 2 3 4 5 6 
#
# 1 206.9163 79.4255 34.1790 -1.6544 -7.1583 -20.1926
# 2 79.4255 147.2003 40.2818 -4.4456 1.4656 -2.3375
# 3 34.1790 40.2818 86.6681 -3.0377 -26.2877 -5.4223
# 4 -1.6544 -4.4456 -3.0377 48.5015 -2.5156 -8.0601
# 5 -7.1583 1.4656 -26.2877 -2.5156 48.7416 2.3763
# 6 -20.1926 -2.3375 -5.4223 -8.0601 2.3763 59.3699
#
#
#
# Elastic Compliance Matrix: (Units=1/GPa)
#
#
# Indices 1 2 3 4 5 6 
#
# 1 0.006407 -0.003226 -0.000723 0.000238 0.000563 0.001996
# 2 -0.003226 0.009701 -0.004189 0.000205 -0.002968 -0.000951
# 3 -0.000723 -0.004189 0.016599 0.001249 0.008992 0.000915
# 4 0.000238 0.000205 0.001249 0.021313 0.001655 0.003030
# 5 0.000563 -0.002968 0.008992 0.001655 0.025619 0.000095
# 6 0.001996 -0.000951 0.000915 0.003030 0.000095 0.017976
#
#
# Mechanical properties :
#
#
# Convention : Reuss Voigt Hill
#
# Bulk Modulus (GPa) = 60.86434 83.17305 72.01869
# Shear Modulus (GPa) = 41.88750 50.44915 46.16832
#
# Velocity S-wave (km/s) = 3.86972 4.24683 4.06265
# Velocity P-wave (km/s) = 6.45951 7.33360 6.91039
#
# Compressibility (1/GPa) = 0.01642998
#
# Stress axis : x y z
#
# Youngs Moduli (GPa) = 156.08721 103.08249 60.24421
#
# Poissons Ratio (x) = 0.33250 0.04359
# Poissons Ratio (y) = 0.50348 0.25238
# Poissons Ratio (z) = 0.11293 0.43184
#
# Static dielectric constant tensor:
#      x y z
#    x 2.127540 0.023760 0.048850 
#    y 0.023760 2.151240 0.058020 
#    z 0.048850 0.058020 2.216920 
# 
# From -- ./inp_files/29800.got.cif
#   From: 2010.05.17/outbox.cif.g08.bks.cpg/sg2_15_cif.got.tgz:29800.got - 2010.06.03 11:33:40.
