data_PCOD9044314
_publ_section_title
;
Structure prediction by ZEFSAII (Michael W. Deem and Ramdas Pophale) SiO2 
 PCOD9044314
Probable space group: P -1
;
_chemical_formula_sum "Si O2"
_cell_formula_units_Z 16
_cell_length_a 12.350622
_cell_length_b 8.889215
_cell_length_c 15.546556
_cell_angle_alpha 54.889040
_cell_angle_beta 44.025861
_cell_angle_gamma 35.594542
_cell_volume 690.235469
_symmetry_space_group_name_H-M "P -1"
_symmetry_group_IT_number 2
_symmetry_cell_setting 'triclinic'
loop_
_space_group_symop_operation_xyz
x,y,z
-x,-y,-z
loop_
_atom_site_type_symbol
_atom_site_label
_atom_site_fract_x
_atom_site_fract_y
_atom_site_fract_z
Si Si1 0.649386 0.414365 0.360773
Si Si2 0.837963 0.786313 0.037252
Si Si3 0.935312 0.863186 0.131824
Si Si4 0.135681 0.906916 0.306350
Si Si5 0.892711 0.768451 0.512118
Si Si6 0.728763 0.287063 0.890142
Si Si7 0.374598 0.911189 0.610357
Si Si8 0.583284 0.051771 0.753265
O O1 0.500000 0.500000 0.500000
O O2 0.549855 0.358377 0.364308
O O3 0.594114 0.661747 0.279366
O O4 0.905490 0.186485 0.312861
O O5 0.902150 0.745201 0.114597
O O6 0.580929 0.959407 0.109151
O O7 0.000000 0.500000 0.000000
O O8 0.850016 0.989012 0.933186
O O9 0.120439 0.687635 0.156688
O O10 0.721756 0.028404 0.259168
O O11 0.000000 0.000000 0.000000
O O12 0.272216 0.706657 0.214235
O O13 0.269081 0.952872 0.264471
O O14 0.055410 0.794444 0.442718
O O15 0.000000 0.500000 0.500000
O O16 0.781036 0.944961 0.432471
O O17 0.728984 0.861972 0.652687
O O18 0.500000 0.500000 0.000000
O O19 0.500000 0.000000 0.500000
#
# Coordination Sequence:
#
# PCOD9044314 Si02
#       8
#     2   2   2   2   2   2   2   2
#     4  11  23  44  69 101 145 185 235 285 370 432
#     4  11  27  47  71 107 142 184 249 298 361 440
#     4  10  23  46  72  98 144 190 239 299 361 440
#     4  11  25  47  71 104 147 187 236 296 367 438
#     4  11  25  44  66 105 144 180 246 296 358 439
#     4  11  25  48  72 102 139 194 243 297 366 434
#     4  11  23  42  70 104 136 187 239 297 355 426
#     4  12  26  45  73 106 144 192 231 301 370 432
#
# _framework density 23.180496000000002
#
# number of rings (size 3 to 8) (size 9 to 14) (size 15 to 20)
#    0.000    1.000    5.000    1.875    7.000    1.500 
#    4.500    0.000    0.000    0.000    0.000    0.000 
#    0.000    0.000    0.000    0.000    0.000    0.000 
#
# Total GULP energy -89211.513040 kJ/mol
# GULP energy per Si atom -5575.719565 kJ/mol
# Density = 2.312774 g / cm^3
# Si number density = 23.180496 Si / 1000 Ang^3
#
#
#
# Elastic Constant Matrix: (Units=GPa)
#
#
# Indices 1 2 3 4 5 6 
#
# 1 166.4635 26.1262 47.6231 26.6243 -2.1176 18.1238
# 2 26.1262 64.1839 15.0102 27.8862 1.0781 11.1391
# 3 47.6231 15.0102 132.6768 35.2800 14.5083 16.7731
# 4 26.6243 27.8862 35.2800 40.3698 11.8556 8.2572
# 5 -2.1176 1.0781 14.5083 11.8556 40.2088 6.7864
# 6 18.1238 11.1391 16.7731 8.2572 6.7864 33.1058
#
#
#
# Elastic Compliance Matrix: (Units=1/GPa)
#
#
# Indices 1 2 3 4 5 6 
#
# 1 0.007425 -0.000947 -0.001710 -0.002894 0.002332 -0.002636
# 2 -0.000947 0.024409 0.002777 -0.018976 0.004792 -0.005351
# 3 -0.001710 0.002777 0.010793 -0.009384 -0.000792 -0.002964
# 4 -0.002894 -0.018976 -0.009384 0.050924 -0.011681 0.002416
# 5 0.002332 0.004792 -0.000792 -0.011681 0.029545 -0.005631
# 6 -0.002636 -0.005351 -0.002964 0.002416 -0.005631 0.035503
#
#
# Mechanical properties :
#
#
# Convention : Reuss Voigt Hill
#
# Bulk Modulus (GPa) = 23.32832 60.09369 41.71101
# Shear Modulus (GPa) = 28.96073 41.04120 35.00096
#
# Velocity S-wave (km/s) = 3.53846 4.21230 3.89000
# Velocity P-wave (km/s) = 5.17493 7.04546 6.18136
#
# Compressibility (1/GPa) = 0.04286635
#
# Stress axis : x y z
#
# Youngs Moduli (GPa) = 134.68693 40.96870 92.64942
#
# Poissons Ratio (x) = 0.03879 0.15845
# Poissons Ratio (y) = 0.12752 -0.25726
# Poissons Ratio (z) = 0.23034 -0.11376
#
# Static dielectric constant tensor:
#      x y z
#    x 1.951790 0.126150 -0.130070 
#    y 0.126150 2.218470 -0.181400 
#    z -0.130070 -0.181400 2.029790 
# 
# From -- ./inp_files/515326.got.cif
#   From: 2010.05.17/outbox.cif.g08.bks.cpg/sg2_258_cif.got.tgz:515326.got - 2010.06.03 11:33:40.
