data_PCOD9044246
_publ_section_title
;
Structure prediction by ZEFSAII (Michael W. Deem and Ramdas Pophale) SiO2 
 PCOD9044246
Probable space group: P -1
;
_chemical_formula_sum "Si O2"
_cell_formula_units_Z 16
_cell_length_a 11.540974
_cell_length_b 9.271331
_cell_length_c 13.337753
_cell_angle_alpha 105.883602
_cell_angle_beta 148.606537
_cell_angle_gamma 66.914993
_cell_volume 678.320120
_symmetry_space_group_name_H-M "P -1"
_symmetry_group_IT_number 2
_symmetry_cell_setting 'triclinic'
loop_
_space_group_symop_operation_xyz
x,y,z
-x,-y,-z
loop_
_atom_site_type_symbol
_atom_site_label
_atom_site_fract_x
_atom_site_fract_y
_atom_site_fract_z
Si Si1 0.243845 0.308435 0.496267
Si Si2 0.272435 0.640465 0.631962
Si Si3 0.924884 0.817709 0.137934
Si Si4 0.145857 0.091642 0.683425
Si Si5 0.587014 0.346520 0.608260
Si Si6 0.706694 0.332977 0.121843
Si Si7 0.553890 0.082192 0.837910
Si Si8 0.229987 0.453345 0.089730
O O1 0.277247 0.459434 0.608153
O O2 0.362741 0.305137 0.474361
O O3 0.388503 0.152547 0.634473
O O4 0.968139 0.336146 0.293501
O O5 0.293700 0.712053 0.769733
O O6 0.490126 0.651336 0.727170
O O7 0.019385 0.727915 0.417198
O O8 0.848938 0.928826 0.198780
O O9 0.199477 0.779419 0.313148
O O10 0.864253 0.653937 0.077154
O O11 0.763006 0.917739 0.948204
O O12 0.385213 0.058491 0.796497
O O13 0.000000 0.000000 0.500000
O O14 0.500000 0.500000 0.500000
O O15 0.707902 0.385745 0.807742
O O16 0.500000 0.500000 0.000000
O O17 0.653599 0.216939 0.979857
O O18 0.000000 0.500000 0.000000
#
# Coordination Sequence:
#
# PCOD9044246 Si02
#       8
#     2   2   2   2   2   2   2   2
#     4  11  24  44  65 100 134 175 229 283 340 404
#     4  11  20  39  63  94 132 175 227 284 337 397
#     4  11  23  42  67 101 135 182 226 276 350 399
#     4  12  24  41  69  98 140 177 228 282 340 407
#     4  10  23  46  71  98 131 175 232 286 338 410
#     4  12  23  40  65  96 135 180 226 277 342 404
#     4  12  25  42  66  99 141 176 227 279 342 415
#     4   9  20  38  64  95 129 169 226 281 332 397
#
# _framework density 23.587682000000001
#
# number of rings (size 3 to 8) (size 9 to 14) (size 15 to 20)
#    0.000    1.000    2.500    5.250    0.000    2.500 
#    2.250    0.625    0.000    0.000    0.000    0.000 
#    0.000    0.000    0.000    0.000    0.000    0.000 
#
# Total GULP energy -89115.917551 kJ/mol
# GULP energy per Si atom -5569.744847 kJ/mol
# Density = 2.353400 g / cm^3
# Si number density = 23.587682 Si / 1000 Ang^3
#
#
#
# Elastic Constant Matrix: (Units=GPa)
#
#
# Indices 1 2 3 4 5 6 
#
# 1 113.0968 28.6837 67.0438 -10.6939 37.0384 -2.6234
# 2 28.6837 44.4858 31.9764 -4.8810 0.3993 0.2924
# 3 67.0438 31.9764 135.1109 -17.6395 33.4938 4.5235
# 4 -10.6939 -4.8810 -17.6395 61.4929 -7.2224 -4.8515
# 5 37.0384 0.3993 33.4938 -7.2224 50.2027 -0.6862
# 6 -2.6234 0.2924 4.5235 -4.8515 -0.6862 12.2711
#
#
#
# Elastic Compliance Matrix: (Units=1/GPa)
#
#
# Indices 1 2 3 4 5 6 
#
# 1 0.016339 -0.007410 -0.004224 0.000361 -0.009059 0.004863
# 2 -0.007410 0.031594 -0.006060 0.000633 0.009359 0.000671
# 3 -0.004224 -0.006060 0.012541 0.001382 -0.005074 -0.005119
# 4 0.000361 0.000633 0.001382 0.017452 0.001406 0.006531
# 5 -0.009059 0.009359 -0.005074 0.001406 0.030143 0.001952
# 6 0.004863 0.000671 -0.005119 0.006531 0.001952 0.087094
#
#
# Mechanical properties :
#
#
# Convention : Reuss Voigt Hill
#
# Bulk Modulus (GPa) = 39.86294 60.90015 50.38154
# Shear Modulus (GPa) = 20.92812 35.79266 28.36039
#
# Velocity S-wave (km/s) = 2.98190 3.89965 3.47124
# Velocity P-wave (km/s) = 5.36584 6.79345 6.12141
#
# Compressibility (1/GPa) = 0.02508596
#
# Stress axis : x y z
#
# Youngs Moduli (GPa) = 61.20340 31.65141 79.73781
#
# Poissons Ratio (x) = 0.23454 0.33679
# Poissons Ratio (y) = 0.45352 0.48324
# Poissons Ratio (z) = 0.25851 0.19182
#
# Static dielectric constant tensor:
#      x y z
#    x 1.001580 -1.025780 1.483810 
#    y -1.025780 0.750800 1.709920 
#    z 1.483810 1.709920 -0.553790 
# 
# From -- ./inp_files/515803.got.cif
#   From: 2010.05.17/outbox.cif.g08.bks.cpg/sg2_258_cif.got.tgz:515803.got - 2010.06.03 11:33:40.
