data_PCOD9044922
_publ_section_title
;
Structure prediction by ZEFSAII (Michael W. Deem and Ramdas Pophale) SiO2 
 PCOD9044922
Probable space group: P -1
;
_chemical_formula_sum "Si O2"
_cell_formula_units_Z 14
_cell_length_a 5.567142
_cell_length_b 13.362728
_cell_length_c 13.996305
_cell_angle_alpha 141.062599
_cell_angle_beta 118.955543
_cell_angle_gamma 83.462617
_cell_volume 503.002871
_symmetry_space_group_name_H-M "P -1"
_symmetry_group_IT_number 2
_symmetry_cell_setting 'triclinic'
loop_
_space_group_symop_operation_xyz
x,y,z
-x,-y,-z
loop_
_atom_site_type_symbol
_atom_site_label
_atom_site_fract_x
_atom_site_fract_y
_atom_site_fract_z
Si Si1 0.092781 0.303039 0.132220
Si Si2 0.887338 0.950957 0.720857
Si Si3 0.792488 0.079139 0.075403
Si Si4 0.270984 0.674327 0.085957
Si Si5 0.690559 0.343254 0.371718
Si Si6 0.115048 0.290690 0.812795
Si Si7 0.184738 0.804017 0.521671
O O1 0.412816 0.383796 0.313177
O O2 0.818294 0.213037 0.091708
O O3 0.982588 0.398237 0.102436
O O4 0.106470 0.151503 0.952360
O O5 0.542360 0.921198 0.644438
O O6 0.942186 0.830460 0.722086
O O7 0.005012 0.897769 0.609969
O O8 0.546210 0.127920 0.142146
O O9 0.000000 0.000000 0.000000
O O10 0.614411 0.765959 0.173991
O O11 0.167062 0.783833 0.220795
O O12 0.269117 0.507908 0.021069
O O13 0.778275 0.322884 0.482809
O O14 0.000000 0.500000 0.500000
O O15 0.993232 0.261823 0.660699
#
# Coordination Sequence:
#
# PCOD9044922 Si02
#       7
#     2   2   2   2   2   2   2
#     4  12  24  42  69 102 140 174 245 281 346 417
#     4  11  23  41  68 101 132 193 221 278 350 425
#     4  11  22  41  66  95 145 185 225 274 347 430
#     4  10  25  42  75  94 132 185 232 289 344 410
#     4  11  26  39  65 105 141 180 228 294 352 412
#     4  10  23  48  66  97 132 184 236 278 356 410
#     4  11  24  44  69  95 143 181 230 283 354 409
#
# _framework density 27.832844000000001
#
# number of rings (size 3 to 8) (size 9 to 14) (size 15 to 20)
#    0.000    1.143    2.857    3.000    4.000    5.143 
#    0.000    4.286    0.000    0.000    0.000    0.000 
#    0.000    0.000    0.000    0.000    0.000    0.000 
#
# Total GULP energy -78175.808703 kJ/mol
# GULP energy per Si atom -5583.986336 kJ/mol
# Density = 2.776950 g / cm^3
# Si number density = 27.832844 Si / 1000 Ang^3
#
#
#
# Elastic Constant Matrix: (Units=GPa)
#
#
# Indices 1 2 3 4 5 6 
#
# 1 288.2436 65.0487 76.0995 -17.6090 -5.4075 -11.2051
# 2 65.0487 120.8784 43.2108 -18.2828 3.9244 9.5714
# 3 76.0995 43.2108 135.8550 -35.0955 -10.1145 -3.6357
# 4 -17.6090 -18.2828 -35.0955 46.3658 1.5772 3.7666
# 5 -5.4075 3.9244 -10.1145 1.5772 59.6102 -9.0341
# 6 -11.2051 9.5714 -3.6357 3.7666 -9.0341 62.9450
#
#
#
# Elastic Compliance Matrix: (Units=1/GPa)
#
#
# Indices 1 2 3 4 5 6 
#
# 1 0.004425 -0.001860 -0.002005 -0.000668 0.000360 0.001046
# 2 -0.001860 0.010542 -0.001914 0.002253 -0.001612 -0.002411
# 3 -0.002005 -0.001914 0.010956 0.006687 0.001688 0.000409
# 4 -0.000668 0.002253 0.006687 0.027406 -0.000061 -0.001724
# 5 0.000360 -0.001612 0.001688 -0.000061 0.017649 0.002943
# 6 0.001046 -0.002411 0.000409 -0.001724 0.002943 0.016989
#
#
# Mechanical properties :
#
#
# Convention : Reuss Voigt Hill
#
# Bulk Modulus (GPa) = 69.60797 101.52167 85.56482
# Shear Modulus (GPa) = 47.93308 57.82540 52.87924
#
# Velocity S-wave (km/s) = 4.15441 4.56301 4.36350
# Velocity P-wave (km/s) = 6.93367 8.01973 7.49640
#
# Compressibility (1/GPa) = 0.01436617
#
# Stress axis : x y z
#
# Youngs Moduli (GPa) = 225.99036 94.86037 91.27105
#
# Poissons Ratio (x) = 0.17645 0.18297
# Poissons Ratio (y) = 0.42037 0.17467
# Poissons Ratio (z) = 0.45304 0.18153
#
# Static dielectric constant tensor:
#      x y z
#    x 2.264250 0.004290 -0.036510 
#    y 0.004290 2.296570 0.151800 
#    z -0.036510 0.151800 2.220150 
# 
# From -- ./inp_files/484562.got.cif
#   From: 2010.05.17/outbox.cif.g08.bks.cpg/sg2_243_cif.got.tgz:484562.got - 2010.06.03 11:33:40.
