data_PCOD9044908
_publ_section_title
;
Structure prediction by ZEFSAII (Michael W. Deem and Ramdas Pophale) SiO2 
 PCOD9044908
Probable space group: P -1
;
_chemical_formula_sum "Si O2"
_cell_formula_units_Z 14
_cell_length_a 11.186614
_cell_length_b 8.714473
_cell_length_c 8.439443
_cell_angle_alpha 112.312758
_cell_angle_beta 95.016334
_cell_angle_gamma 47.277098
_cell_volume 541.347859
_symmetry_space_group_name_H-M "P -1"
_symmetry_group_IT_number 2
_symmetry_cell_setting 'triclinic'
loop_
_space_group_symop_operation_xyz
x,y,z
-x,-y,-z
loop_
_atom_site_type_symbol
_atom_site_label
_atom_site_fract_x
_atom_site_fract_y
_atom_site_fract_z
Si Si1 0.159557 0.973583 0.985049
Si Si2 0.757454 0.187679 0.738145
Si Si3 0.850263 0.441799 0.823692
Si Si4 0.581513 0.438459 0.316154
Si Si5 0.354093 0.103667 0.149854
Si Si6 0.651076 0.698381 0.233493
Si Si7 0.886847 0.710222 0.435338
O O1 0.260819 0.836086 0.785360
O O2 0.270145 0.801013 0.074718
O O3 0.199867 0.132126 0.083074
O O4 0.000000 0.000000 0.000000
O O5 0.882984 0.215603 0.729616
O O6 0.583186 0.431485 0.755721
O O7 0.832709 0.942446 0.587588
O O8 0.727207 0.635444 0.748976
O O9 0.019854 0.358941 0.749695
O O10 0.771266 0.553086 0.033405
O O11 0.500000 0.500000 0.500000
O O12 0.647179 0.546295 0.291843
O O13 0.465203 0.920262 0.231943
O O14 0.500000 0.000000 0.000000
O O15 0.724226 0.768836 0.382235
O O16 0.000000 0.500000 0.500000
#
# Coordination Sequence:
#
# PCOD9044908 Si02
#       7
#     2   2   2   2   2   2   2
#     4  12  27  51  85 120 164 215 272 340 412 484
#     4  12  27  50  77 115 164 211 269 332 405 488
#     4  11  25  48  84 112 163 211 270 333 412 485
#     4  12  28  49  82 117 161 212 278 326 407 482
#     4  10  23  47  83 118 154 213 274 327 402 498
#     4  11  25  52  82 113 160 220 270 330 406 494
#     4  12  30  48  76 124 168 207 270 340 413 474
#
# _framework density 25.861377999999998
#
# number of rings (size 3 to 8) (size 9 to 14) (size 15 to 20)
#    0.000    0.571    2.857    3.857    6.000    7.429 
#    2.571    0.000    0.000    0.000    0.000    0.000 
#    0.000    0.000    0.000    0.000    0.000    0.000 
#
# Total GULP energy -78012.373607 kJ/mol
# GULP energy per Si atom -5572.312400 kJ/mol
# Density = 2.580252 g / cm^3
# Si number density = 25.861378 Si / 1000 Ang^3
#
#
#
# Elastic Constant Matrix: (Units=GPa)
#
#
# Indices 1 2 3 4 5 6 
#
# 1 141.5801 49.7526 75.5917 3.8030 -1.0229 18.4356
# 2 49.7526 111.1431 48.6151 12.0533 23.2961 10.1060
# 3 75.5917 48.6151 140.4222 10.7258 -17.4467 10.6854
# 4 3.8030 12.0533 10.7258 33.7359 9.4319 9.8989
# 5 -1.0229 23.2961 -17.4467 9.4319 55.0383 -0.4226
# 6 18.4356 10.1060 10.6854 9.8989 -0.4226 42.1911
#
#
#
# Elastic Compliance Matrix: (Units=1/GPa)
#
#
# Indices 1 2 3 4 5 6 
#
# 1 0.011058 -0.002493 -0.005117 0.002541 -0.000824 -0.003543
# 2 -0.002493 0.013524 -0.004041 -0.001066 -0.006876 -0.000945
# 3 -0.005117 -0.004041 0.012260 -0.003923 0.006182 0.001081
# 4 0.002541 -0.001066 -0.003923 0.035312 -0.006860 -0.008215
# 5 -0.000824 -0.006876 0.006182 -0.006860 0.024217 0.002293
# 6 -0.003543 -0.000945 0.001081 -0.008215 0.002293 0.027153
#
#
# Mechanical properties :
#
#
# Convention : Reuss Voigt Hill
#
# Bulk Modulus (GPa) = 73.84774 82.34049 78.09411
# Shear Modulus (GPa) = 33.03844 40.80545 36.92195
#
# Velocity S-wave (km/s) = 3.57812 3.97653 3.78257
# Velocity P-wave (km/s) = 6.75928 7.27956 7.02424
#
# Compressibility (1/GPa) = 0.01354138
#
# Stress axis : x y z
#
# Youngs Moduli (GPa) = 90.43129 73.94435 81.56412
#
# Poissons Ratio (x) = 0.18432 0.41733
# Poissons Ratio (y) = 0.22542 0.32960
# Poissons Ratio (z) = 0.46270 0.29881
#
# Static dielectric constant tensor:
#      x y z
#    x 1.888160 0.153780 -0.001270 
#    y 0.153780 2.000320 0.057820 
#    z -0.001270 0.057820 2.137180 
# 
# From -- ./inp_files/245536.got.cif
#   From: 2010.05.17/outbox.cif.g08.bks.cpg/sg2_123_cif.got.tgz:245536.got - 2010.06.03 11:33:40.
