data_PCOD9044805
_publ_section_title
;
Structure prediction by ZEFSAII (Michael W. Deem and Ramdas Pophale) SiO2 
 PCOD9044805
Probable space group: P -1
;
_chemical_formula_sum "Si O2"
_cell_formula_units_Z 14
_cell_length_a 8.582977
_cell_length_b 8.204426
_cell_length_c 11.779472
_cell_angle_alpha 105.083911
_cell_angle_beta 123.066528
_cell_angle_gamma 57.234775
_cell_volume 583.820711
_symmetry_space_group_name_H-M "P -1"
_symmetry_group_IT_number 2
_symmetry_cell_setting 'triclinic'
loop_
_space_group_symop_operation_xyz
x,y,z
-x,-y,-z
loop_
_atom_site_type_symbol
_atom_site_label
_atom_site_fract_x
_atom_site_fract_y
_atom_site_fract_z
Si Si1 0.354096 0.717685 0.527588
Si Si2 0.241337 0.642884 0.930180
Si Si3 0.033475 0.287273 0.975110
Si Si4 0.865567 0.982500 0.698729
Si Si5 0.196276 0.270758 0.797067
Si Si6 0.014767 0.688031 0.514359
Si Si7 0.573110 0.961182 0.756091
O O1 0.500000 0.500000 0.500000
O O2 0.232925 0.694130 0.585665
O O3 0.471552 0.835711 0.639832
O O4 0.202704 0.838065 0.382822
O O5 0.165677 0.486637 0.836131
O O6 0.173533 0.703348 0.046490
O O7 0.092409 0.843963 0.834629
O O8 0.500000 0.500000 0.000000
O O9 0.215951 0.179713 0.118604
O O10 0.117908 0.214281 0.869726
O O11 0.000000 0.500000 0.000000
O O12 0.660726 0.043918 0.708080
O O13 0.877776 0.828408 0.584054
O O14 0.077544 0.256354 0.637362
O O15 0.434281 0.117592 0.825233
O O16 0.000000 0.500000 0.500000
#
# Coordination Sequence:
#
# PCOD9044805 Si02
#       7
#     2   2   2   2   2   2   2
#     4  12  28  43  73 110 142 195 246 301 370 442
#     4  10  23  47  74 105 146 196 242 301 363 432
#     4   9  22  44  68 101 142 190 241 295 353 432
#     4  11  24  47  71 107 150 185 244 306 363 436
#     4  11  23  44  72 101 148 195 238 298 367 427
#     4  12  25  46  70 103 149 188 242 304 365 432
#     4  11  24  46  74 105 147 194 243 300 371 433
#
# _framework density 23.979966999999998
#
# number of rings (size 3 to 8) (size 9 to 14) (size 15 to 20)
#    0.000    1.143    2.857    2.143    6.000    2.286 
#    5.143    1.429    0.000    0.000    0.000    0.000 
#    0.000    0.000    0.000    0.000    0.000    0.000 
#
# Total GULP energy -78035.357656 kJ/mol
# GULP energy per Si atom -5573.954118 kJ/mol
# Density = 2.392539 g / cm^3
# Si number density = 23.979967 Si / 1000 Ang^3
#
#
#
# Elastic Constant Matrix: (Units=GPa)
#
#
# Indices 1 2 3 4 5 6 
#
# 1 106.8484 32.6386 39.5866 -13.9745 -19.9790 -25.4940
# 2 32.6386 128.0503 1.0249 -10.7200 -6.0412 -7.4520
# 3 39.5866 1.0249 76.1057 -3.2637 -11.8261 -7.0144
# 4 -13.9745 -10.7200 -3.2637 36.7479 0.0285 -9.4105
# 5 -19.9790 -6.0412 -11.8261 0.0285 41.6293 8.9466
# 6 -25.4940 -7.4520 -7.0144 -9.4105 8.9466 39.3981
#
#
#
# Elastic Compliance Matrix: (Units=1/GPa)
#
#
# Indices 1 2 3 4 5 6 
#
# 1 0.016867 -0.002854 -0.006927 0.007562 0.003527 0.010146
# 2 -0.002854 0.008702 0.001515 0.001696 0.000232 0.000421
# 3 -0.006927 0.001515 0.016815 -0.001204 0.002095 -0.001966
# 4 0.007562 0.001696 -0.001204 0.033779 0.000738 0.012900
# 5 0.003527 0.000232 0.002095 0.000738 0.027045 -0.003266
# 6 0.010146 0.000421 -0.001966 0.012900 -0.003266 0.035500
#
#
# Mechanical properties :
#
#
# Convention : Reuss Voigt Hill
#
# Bulk Modulus (GPa) = 38.68246 50.83385 44.75815
# Shear Modulus (GPa) = 30.51429 39.40535 34.95982
#
# Velocity S-wave (km/s) = 3.57107 4.05811 3.82236
# Velocity P-wave (km/s) = 5.75930 6.57284 6.17947
#
# Compressibility (1/GPa) = 0.02585151
#
# Stress axis : x y z
#
# Youngs Moduli (GPa) = 59.28812 114.91472 59.46962
#
# Poissons Ratio (x) = 0.32794 0.41197
# Poissons Ratio (y) = 0.16919 -0.09008
# Poissons Ratio (z) = 0.41071 -0.17407
#
# Static dielectric constant tensor:
#      x y z
#    x 2.649220 0.351300 -0.017550 
#    y 0.351300 2.210040 -0.059580 
#    z -0.017550 -0.059580 1.933830 
# 
# From -- ./inp_files/383009.got.cif
#   From: 2010.05.17/outbox.cif.g08.bks.cpg/sg2_192_cif.got.tgz:383009.got - 2010.06.03 11:33:40.
