data_PCOD9044716
_publ_section_title
;
Structure prediction by ZEFSAII (Michael W. Deem and Ramdas Pophale) SiO2 
 PCOD9044716
Probable space group: P -1
;
_chemical_formula_sum "Si O2"
_cell_formula_units_Z 14
_cell_length_a 11.704858
_cell_length_b 7.255168
_cell_length_c 9.439028
_cell_angle_alpha 106.698501
_cell_angle_beta 44.299397
_cell_angle_gamma 88.725407
_cell_volume 504.140458
_symmetry_space_group_name_H-M "P -1"
_symmetry_group_IT_number 2
_symmetry_cell_setting 'triclinic'
loop_
_space_group_symop_operation_xyz
x,y,z
-x,-y,-z
loop_
_atom_site_type_symbol
_atom_site_label
_atom_site_fract_x
_atom_site_fract_y
_atom_site_fract_z
Si Si1 0.744344 0.169959 0.952389
Si Si2 0.508297 0.268331 0.937189
Si Si3 0.339016 0.963554 0.722398
Si Si4 0.169582 0.501903 0.431180
Si Si5 0.677154 0.634497 0.149183
Si Si6 0.862781 0.065417 0.362613
Si Si7 0.833500 0.621680 0.274569
O O1 0.658542 0.129643 0.874579
O O2 0.749351 0.400998 0.982966
O O3 0.623763 0.153933 0.187793
O O4 0.932847 0.025258 0.800762
O O5 0.324194 0.309179 0.188737
O O6 0.500000 0.500000 0.000000
O O7 0.480987 0.245299 0.789637
O O8 0.223603 0.201617 0.912765
O O9 0.218525 0.878039 0.711025
O O10 0.500000 0.000000 0.500000
O O11 0.154676 0.475686 0.605296
O O12 0.000000 0.500000 0.500000
O O13 0.193567 0.724861 0.450057
O O14 0.673665 0.608865 0.316248
O O15 0.815543 0.856995 0.375922
O O16 0.000000 0.500000 0.000000
#
# Coordination Sequence:
#
# PCOD9044716 Si02
#       7
#     2   2   2   2   2   2   2
#     4  11  24  45  75 103 148 202 240 303 384 436
#     4  10  26  50  72 106 153 201 246 311 374 445
#     4  11  27  43  75 115 150 189 256 314 367 454
#     4  12  29  49  76 112 153 197 255 314 377 446
#     4  10  23  47  72 101 151 193 246 301 372 438
#     4  11  27  46  74 112 147 195 251 303 374 452
#     4  11  23  45  79 108 149 193 250 310 377 441
#
# _framework density 27.770036999999999
#
# number of rings (size 3 to 8) (size 9 to 14) (size 15 to 20)
#    0.000    1.143    1.429    2.143   16.000    1.714 
#    0.000    0.000    0.000    0.000    0.000    0.000 
#    0.000    0.000    0.000    0.000    0.000    0.000 
#
# Total GULP energy -78113.986872 kJ/mol
# GULP energy per Si atom -5579.570491 kJ/mol
# Density = 2.770683 g / cm^3
# Si number density = 27.770037 Si / 1000 Ang^3
#
#
#
# Elastic Constant Matrix: (Units=GPa)
#
#
# Indices 1 2 3 4 5 6 
#
# 1 258.5991 58.1864 63.2001 -15.1646 35.4706 -40.4551
# 2 58.1864 141.4799 47.7748 -1.7239 18.4149 12.8798
# 3 63.2001 47.7748 112.3115 -8.4484 22.0341 -31.0759
# 4 -15.1646 -1.7239 -8.4484 31.9866 -2.9338 18.7851
# 5 35.4706 18.4149 22.0341 -2.9338 40.8594 -3.5338
# 6 -40.4551 12.8798 -31.0759 18.7851 -3.5338 65.8815
#
#
#
# Elastic Compliance Matrix: (Units=1/GPa)
#
#
# Indices 1 2 3 4 5 6 
#
# 1 0.005393 -0.001826 -0.000770 0.000148 -0.003165 0.003093
# 2 -0.001826 0.010003 -0.004521 0.001786 -0.000856 -0.005764
# 3 -0.000770 -0.004521 0.013990 -0.001550 -0.004325 0.007220
# 4 0.000148 0.001786 -0.001550 0.038075 0.001619 -0.011759
# 5 -0.003165 -0.000856 -0.004325 0.001619 0.029825 -0.002678
# 6 0.003093 -0.005764 0.007220 -0.011759 -0.002678 0.024820
#
#
# Mechanical properties :
#
#
# Convention : Reuss Voigt Hill
#
# Bulk Modulus (GPa) = 65.99174 94.52367 80.25771
# Shear Modulus (GPa) = 35.36353 50.62743 42.99548
#
# Velocity S-wave (km/s) = 3.57240 4.27440 3.93907
# Velocity P-wave (km/s) = 6.38994 7.64674 7.04642
#
# Compressibility (1/GPa) = 0.01515341
#
# Stress axis : x y z
#
# Youngs Moduli (GPa) = 185.43625 99.96598 71.48134
#
# Poissons Ratio (x) = 0.18250 0.05504
# Poissons Ratio (y) = 0.33854 0.32313
# Poissons Ratio (z) = 0.14279 0.45190
#
# Static dielectric constant tensor:
#      x y z
#    x 2.254120 -0.012060 -0.035260 
#    y -0.012060 2.266110 0.136970 
#    z -0.035260 0.136970 2.498150 
# 
# From -- ./inp_files/238127.got.cif
#   From: 2010.05.17/outbox.cif.g08.bks.cpg/sg2_120_cif.got.tgz:238127.got - 2010.06.03 11:33:40.
