data_PCOD9044225
_publ_section_title
;
Structure prediction by ZEFSAII (Michael W. Deem and Ramdas Pophale) SiO2 
 PCOD9044225
Probable space group: P -1
;
_chemical_formula_sum "Si O2"
_cell_formula_units_Z 15
_cell_length_a 5.076478
_cell_length_b 8.379315
_cell_length_c 18.404607
_cell_angle_alpha 53.282926
_cell_angle_beta 82.015633
_cell_angle_gamma 61.754722
_cell_volume 541.212288
_symmetry_space_group_name_H-M "P -1"
_symmetry_group_IT_number 2
_symmetry_cell_setting 'triclinic'
loop_
_space_group_symop_operation_xyz
x,y,z
-x,-y,-z
loop_
_atom_site_type_symbol
_atom_site_label
_atom_site_fract_x
_atom_site_fract_y
_atom_site_fract_z
Si Si1 0.469158 0.670704 0.232840
Si Si2 0.000000 0.500000 0.500000
Si Si3 0.224231 0.030443 0.376648
Si Si4 0.389696 0.360529 0.211983
Si Si5 0.160827 0.654232 0.006491
Si Si6 0.965530 0.897806 0.288261
Si Si7 0.252580 0.704795 0.557566
Si Si8 0.473966 0.939074 0.934987
O O1 0.516696 0.506832 0.208315
O O2 0.566699 0.524303 0.342283
O O3 0.119155 0.828056 0.223855
O O4 0.603236 0.836281 0.168957
O O5 0.937692 0.698070 0.384341
O O6 0.913686 0.352796 0.484064
O O7 0.280104 0.243966 0.309291
O O8 0.930839 0.125434 0.414780
O O9 0.446670 0.798779 0.477652
O O10 0.158506 0.967624 0.317623
O O11 0.160903 0.520499 0.116047
O O12 0.651817 0.132456 0.227579
O O13 0.500000 0.500000 0.000000
O O14 0.219554 0.863569 0.965413
O O15 0.831133 0.746660 0.955180
O O16 0.500000 0.000000 0.000000
#
# Coordination Sequence:
#
# PCOD9044225 Si02
#       8
#     2   1   2   2   2   2   2   2
#     4  12  27  46  79 106 154 200 259 318 395 460
#     4  10  24  44  72 106 156 196 250 308 390 454
#     4  10  24  44  71 104 152 188 253 309 375 465
#     4  12  27  46  77 107 151 202 257 315 393 467
#     4  12  29  51  83 116 161 209 266 339 404 471
#     4  11  26  45  68 115 143 199 254 312 376 474
#     4  10  23  46  71 108 150 197 247 314 382 466
#     4  12  28  53  80 118 159 208 269 335 402 475
#
# _framework density 27.715554999999998
#
# number of rings (size 3 to 8) (size 9 to 14) (size 15 to 20)
#    0.000    0.800    2.667    2.400    9.333    2.667 
#    0.000    0.000    0.000    0.000    0.000    0.000 
#    0.000    0.000    0.000    0.000    0.000    0.000 
#
# Total GULP energy -83779.085805 kJ/mol
# GULP energy per Si atom -5585.272387 kJ/mol
# Density = 2.765247 g / cm^3
# Si number density = 27.715555 Si / 1000 Ang^3
#
#
#
# Elastic Constant Matrix: (Units=GPa)
#
#
# Indices 1 2 3 4 5 6 
#
# 1 102.4369 24.4319 39.1948 -1.6773 -8.3235 9.8466
# 2 24.4319 101.0006 14.1769 -8.3926 -18.2336 13.4782
# 3 39.1948 14.1769 196.1852 -33.7498 -9.8620 10.1713
# 4 -1.6773 -8.3926 -33.7498 32.6842 7.1364 -8.9524
# 5 -8.3235 -18.2336 -9.8620 7.1364 44.3766 5.0379
# 6 9.8466 13.4782 10.1713 -8.9524 5.0379 31.5740
#
#
#
# Elastic Compliance Matrix: (Units=1/GPa)
#
#
# Indices 1 2 3 4 5 6 
#
# 1 0.011631 -0.002008 -0.002586 -0.003889 0.001785 -0.003325
# 2 -0.002008 0.012028 0.000164 0.000619 0.005093 -0.005198
# 3 -0.002586 0.000164 0.006788 0.007104 -0.000118 0.000583
# 4 -0.003889 0.000619 0.007104 0.042705 -0.007115 0.011904
# 5 0.001785 0.005093 -0.000118 -0.007115 0.027105 -0.009035
# 6 -0.003325 -0.005198 0.000583 0.011904 -0.009035 0.039556
#
#
# Mechanical properties :
#
#
# Convention : Reuss Voigt Hill
#
# Bulk Modulus (GPa) = 46.32161 61.69220 54.00690
# Shear Modulus (GPa) = 32.07820 43.18156 37.62988
#
# Velocity S-wave (km/s) = 3.40576 3.95147 3.68872
# Velocity P-wave (km/s) = 5.67584 6.56705 6.13764
#
# Compressibility (1/GPa) = 0.02158820
#
# Stress axis : x y z
#
# Youngs Moduli (GPa) = 85.97539 83.13857 147.32104
#
# Poissons Ratio (x) = 0.16694 0.38091
# Poissons Ratio (y) = 0.17263 -0.02416
# Poissons Ratio (z) = 0.22229 -0.01363
#
# Static dielectric constant tensor:
#      x y z
#    x 2.086730 -0.082510 -0.000980 
#    y -0.082510 2.234950 -0.157700 
#    z -0.000980 -0.157700 2.293900 
# 
# From -- ./inp_files/547735.got.cif
#   From: 2010.05.17/outbox.cif.g08.bks.cpg/sg2_274_cif.got.tgz:547735.got - 2010.06.03 11:33:40.
