data_PCOD9044412
_publ_section_title
;
Structure prediction by ZEFSAII (Michael W. Deem and Ramdas Pophale) SiO2 
 PCOD9044412
Probable space group: P -1
;
_chemical_formula_sum "Si O2"
_cell_formula_units_Z 14
_cell_length_a 9.600778
_cell_length_b 5.340044
_cell_length_c 13.730105
_cell_angle_alpha 114.056223
_cell_angle_beta 69.192842
_cell_angle_gamma 79.383942
_cell_volume 554.430187
_symmetry_space_group_name_H-M "P -1"
_symmetry_group_IT_number 2
_symmetry_cell_setting 'triclinic'
loop_
_space_group_symop_operation_xyz
x,y,z
-x,-y,-z
loop_
_atom_site_type_symbol
_atom_site_label
_atom_site_fract_x
_atom_site_fract_y
_atom_site_fract_z
Si Si1 0.538143 0.178975 0.390634
Si Si2 0.057801 0.269716 0.038684
Si Si3 0.380851 0.841388 0.976695
Si Si4 0.238556 0.010235 0.448355
Si Si5 0.614777 0.610012 0.733372
Si Si6 0.093304 0.191787 0.702976
Si Si7 0.817177 0.973829 0.767533
O O1 0.500000 0.500000 0.500000
O O2 0.510369 0.184997 0.281914
O O3 0.397440 0.072664 0.442691
O O4 0.721852 0.970429 0.334866
O O5 0.981278 0.479881 0.183053
O O6 0.244995 0.085528 0.983975
O O7 0.000000 0.500000 0.000000
O O8 0.000000 0.000000 0.000000
O O9 0.293479 0.786609 0.086320
O O10 0.497029 0.566483 0.838482
O O11 0.500000 0.000000 0.000000
O O12 0.283107 0.665914 0.402827
O O13 0.208200 0.019022 0.342117
O O14 0.098437 0.199576 0.585308
O O15 0.746872 0.718161 0.764907
O O16 0.988364 0.006489 0.736358
#
# Coordination Sequence:
#
# PCOD9044412 Si02
#       7
#     2   2   2   2   2   2   2
#     4  11  24  46  71 109 149 202 255 316 390 476
#     4  12  29  53  77 117 158 211 264 334 407 467
#     4  10  24  49  77 106 150 210 261 323 382 476
#     4  11  25  45  73 111 146 201 251 320 388 469
#     4  10  23  46  74 105 149 195 259 313 388 464
#     4  12  26  47  77 110 156 198 259 325 398 473
#     4  10  25  47  69 112 151 198 252 317 397 451
#
# _framework density 25.251149999999999
#
# number of rings (size 3 to 8) (size 9 to 14) (size 15 to 20)
#    0.000    1.143    1.429    2.571    6.000    3.429 
#    5.143    0.000    0.000    0.000    0.000    0.000 
#    0.000    0.000    0.000    0.000    0.000    0.000 
#
# Total GULP energy -78165.809230 kJ/mol
# GULP energy per Si atom -5583.272088 kJ/mol
# Density = 2.519368 g / cm^3
# Si number density = 25.251150 Si / 1000 Ang^3
#
#
#
# Elastic Constant Matrix: (Units=GPa)
#
#
# Indices 1 2 3 4 5 6 
#
# 1 184.0167 54.5456 48.5574 0.3114 -8.3560 14.5461
# 2 54.5456 80.0735 46.3198 1.4203 3.7467 8.4228
# 3 48.5574 46.3198 205.0509 -7.1328 -17.1010 7.8052
# 4 0.3114 1.4203 -7.1328 56.4860 3.3588 8.3992
# 5 -8.3560 3.7467 -17.1010 3.3588 38.9825 -4.8662
# 6 14.5461 8.4228 7.8052 8.3992 -4.8662 43.0119
#
#
#
# Elastic Compliance Matrix: (Units=1/GPa)
#
#
# Indices 1 2 3 4 5 6 
#
# 1 0.007057 -0.004472 -0.000478 0.000109 0.001565 -0.001268
# 2 -0.004472 0.017823 -0.003268 -0.000311 -0.004305 -0.001811
# 3 -0.000478 -0.003268 0.005987 0.000692 0.002765 -0.000107
# 4 0.000109 -0.000311 0.000692 0.018481 -0.001723 -0.003905
# 5 0.001565 -0.004305 0.002765 -0.001723 0.028180 0.003336
# 6 -0.001268 -0.001811 -0.000107 -0.003905 0.003336 0.025192
#
#
# Mechanical properties :
#
#
# Convention : Reuss Voigt Hill
#
# Bulk Modulus (GPa) = 69.30022 85.33186 77.31604
# Shear Modulus (GPa) = 40.33297 49.01064 44.67180
#
# Velocity S-wave (km/s) = 4.00093 4.41037 4.21063
# Velocity P-wave (km/s) = 6.98907 7.73316 7.37052
#
# Compressibility (1/GPa) = 0.01442997
#
# Stress axis : x y z
#
# Youngs Moduli (GPa) = 141.69588 56.10759 167.02694
#
# Poissons Ratio (x) = 0.25094 0.07990
# Poissons Ratio (y) = 0.63373 0.54582
# Poissons Ratio (z) = 0.06778 0.18335
#
# Static dielectric constant tensor:
#      x y z
#    x 2.299230 0.042230 0.046930 
#    y 0.042230 2.119420 -0.062870 
#    z 0.046930 -0.062870 2.048860 
# 
# From -- ./inp_files/488747.got.cif
#   From: 2010.05.17/outbox.cif.g08.bks.cpg/sg2_245_cif.got.tgz:488747.got - 2010.06.03 11:33:40.
