data_PCOD9044881
_publ_section_title
;
Structure prediction by ZEFSAII (Michael W. Deem and Ramdas Pophale) SiO2 
 PCOD9044881
Probable space group: P -1
;
_chemical_formula_sum "Si O2"
_cell_formula_units_Z 14
_cell_length_a 14.161098
_cell_length_b 9.402432
_cell_length_c 15.588069
_cell_angle_alpha 133.231880
_cell_angle_beta 27.935725
_cell_angle_gamma 115.838235
_cell_volume 615.146636
_symmetry_space_group_name_H-M "P -1"
_symmetry_group_IT_number 2
_symmetry_cell_setting 'triclinic'
loop_
_space_group_symop_operation_xyz
x,y,z
-x,-y,-z
loop_
_atom_site_type_symbol
_atom_site_label
_atom_site_fract_x
_atom_site_fract_y
_atom_site_fract_z
Si Si1 0.931950 0.851713 0.260306
Si Si2 0.883675 0.286781 0.449810
Si Si3 0.553567 0.404441 0.320695
Si Si4 0.257375 0.226406 0.267535
Si Si5 0.885446 0.638513 0.376432
Si Si6 0.448355 0.171593 0.535960
Si Si7 0.098904 0.139232 0.028988
O O1 0.947179 0.768809 0.310531
O O2 0.803711 0.748110 0.265451
O O3 0.784946 0.122237 0.484638
O O4 0.181142 0.771604 0.984527
O O5 0.718223 0.555922 0.688788
O O6 0.094586 0.220687 0.320354
O O7 0.986367 0.215502 0.242909
O O8 0.500000 0.500000 0.500000
O O9 0.376609 0.318527 0.405418
O O10 0.510404 0.622601 0.390127
O O11 0.106383 0.294319 0.504564
O O12 0.500000 0.000000 0.000000
O O13 0.040343 0.371171 0.125620
O O14 0.500000 0.000000 0.500000
O O15 0.628425 0.027777 0.257225
O O16 0.000000 0.000000 0.000000
#
# Coordination Sequence:
#
# PCOD9044881 Si02
#       7
#     2   2   2   2   2   2   2
#     4  12  26  42  65 104 139 175 242 282 346 426
#     4  10  24  45  72 101 138 183 232 296 346 418
#     4  12  24  42  66  97 142 191 224 277 346 415
#     4  10  23  47  77  97 133 186 240 289 358 412
#     4  11  25  44  71 101 135 189 231 288 350 410
#     4  12  25  37  63  99 144 185 222 279 341 415
#     4  11  22  43  69 100 145 185 228 280 351 421
#
# _framework density 22.758800999999998
#
# number of rings (size 3 to 8) (size 9 to 14) (size 15 to 20)
#    0.000    0.857    2.857    3.857    6.000    0.571 
#    2.571    0.714    0.000    0.000    0.000    0.000 
#    0.000    0.000    0.000    0.000    0.000    0.000 
#
# Total GULP energy -78317.033890 kJ/mol
# GULP energy per Si atom -5594.073849 kJ/mol
# Density = 2.270700 g / cm^3
# Si number density = 22.758801 Si / 1000 Ang^3
#
#
#
# Elastic Constant Matrix: (Units=GPa)
#
#
# Indices 1 2 3 4 5 6 
#
# 1 106.5029 14.8483 27.0241 1.0312 15.4596 -5.9219
# 2 14.8483 130.1723 32.1652 22.1384 5.4261 -21.8197
# 3 27.0241 32.1652 98.8228 22.5952 -13.6100 6.7097
# 4 1.0312 22.1384 22.5952 34.6751 -3.6439 -10.7338
# 5 15.4596 5.4261 -13.6100 -3.6439 39.0795 -0.0982
# 6 -5.9219 -21.8197 6.7097 -10.7338 -0.0982 34.2970
#
#
#
# Elastic Compliance Matrix: (Units=1/GPa)
#
#
# Indices 1 2 3 4 5 6 
#
# 1 0.011806 0.000356 -0.005326 0.003605 -0.006228 0.004418
# 2 0.000356 0.010190 -0.003732 -0.002388 -0.003062 0.006518
# 3 -0.005326 -0.003732 0.016976 -0.010822 0.007503 -0.009981
# 4 0.003605 -0.002388 -0.010822 0.041618 -0.000947 0.014242
# 5 -0.006228 -0.003062 0.007503 -0.000947 0.030991 -0.004699
# 6 0.004418 0.006518 -0.009981 0.014242 -0.004699 0.040463
#
#
# Mechanical properties :
#
#
# Convention : Reuss Voigt Hill
#
# Bulk Modulus (GPa) = 46.36676 53.73035 50.04856
# Shear Modulus (GPa) = 28.30657 39.04103 33.67380
#
# Velocity S-wave (km/s) = 3.53053 4.14626 3.85072
# Velocity P-wave (km/s) = 6.08579 6.82509 6.46602
#
# Compressibility (1/GPa) = 0.02156717
#
# Stress axis : x y z
#
# Youngs Moduli (GPa) = 84.70290 98.13355 58.90728
#
# Poissons Ratio (x) = -0.03498 0.31377
# Poissons Ratio (y) = -0.03019 0.21987
# Poissons Ratio (z) = 0.45116 0.36627
#
# Static dielectric constant tensor:
#      x y z
#    x 1.867180 -0.005910 -0.022970 
#    y -0.005910 1.944600 0.058990 
#    z -0.022970 0.058990 1.900930 
# 
# From -- ./inp_files/304750.got.cif
#   From: 2010.05.17/outbox.cif.g08.bks.cpg/sg2_153_cif.got.tgz:304750.got - 2010.06.03 11:33:40.
