data_PCOD9044512
_publ_section_title
;
Structure prediction by ZEFSAII (Michael W. Deem and Ramdas Pophale) SiO2 
 PCOD9044512
Probable space group: P -1
;
_chemical_formula_sum "Si O2"
_cell_formula_units_Z 15
_cell_length_a 14.895673
_cell_length_b 8.253273
_cell_length_c 11.452323
_cell_angle_alpha 77.718249
_cell_angle_beta 148.447040
_cell_angle_gamma 81.896331
_cell_volume 558.935925
_symmetry_space_group_name_H-M "P -1"
_symmetry_group_IT_number 2
_symmetry_cell_setting 'triclinic'
loop_
_space_group_symop_operation_xyz
x,y,z
-x,-y,-z
loop_
_atom_site_type_symbol
_atom_site_label
_atom_site_fract_x
_atom_site_fract_y
_atom_site_fract_z
Si Si1 0.277617 0.909588 0.779130
Si Si2 0.528444 0.795150 0.296158
Si Si3 0.478215 0.192263 0.159879
Si Si4 0.796975 0.185462 0.671621
Si Si5 0.104157 0.659833 0.609745
Si Si6 0.803218 0.544578 0.855036
Si Si7 0.954214 0.431739 0.695536
Si Si8 0.500000 0.500000 0.500000
O O1 0.463978 0.855069 0.906121
O O2 0.188764 0.791346 0.646839
O O3 0.367700 0.808392 0.023484
O O4 0.100292 0.162410 0.563554
O O5 0.581835 0.682258 0.500162
O O6 0.758585 0.664072 0.499474
O O7 0.430098 0.035588 0.171055
O O8 0.695235 0.114633 0.481825
O O9 0.296164 0.446242 0.922085
O O10 0.882575 0.295986 0.683712
O O11 0.596200 0.357839 0.506921
O O12 0.000000 0.000000 0.000000
O O13 0.046312 0.588862 0.440877
O O14 0.770658 0.371967 0.866535
O O15 0.000000 0.500000 0.000000
O O16 0.828536 0.637009 0.984373
#
# Coordination Sequence:
#
# PCOD9044512 Si02
#       8
#     2   2   2   2   2   2   2   1
#     4  11  24  44  71 107 145 199 256 312 374 467
#     4  11  23  44  74 102 151 201 246 313 389 441
#     4  12  25  45  71 108 153 199 248 320 388 446
#     4  12  27  46  76 112 152 203 261 319 386 461
#     4  11  25  44  74 109 145 201 259 309 383 462
#     4  10  23  46  79 111 152 201 255 321 381 453
#     4  11  22  49  74 104 161 199 247 329 381 446
#     4  12  26  48  80 112 146 210 254 310 388 460
#
# _framework density 26.836706
#
# number of rings (size 3 to 8) (size 9 to 14) (size 15 to 20)
#    0.000    0.800    5.333    2.400    1.867    3.733 
#    0.000    2.000    0.000    0.000    0.000    0.000 
#    0.000    0.000    0.000    0.000    0.000    0.000 
#
# Total GULP energy -83791.981012 kJ/mol
# GULP energy per Si atom -5586.132067 kJ/mol
# Density = 2.677562 g / cm^3
# Si number density = 26.836706 Si / 1000 Ang^3
#
#
#
# Elastic Constant Matrix: (Units=GPa)
#
#
# Indices 1 2 3 4 5 6 
#
# 1 104.9845 20.8585 24.1578 -0.5915 -16.2692 -11.3848
# 2 20.8585 136.0924 57.7805 18.5238 -8.1046 -22.0721
# 3 24.1578 57.7805 150.0028 10.0774 -12.4752 -18.4409
# 4 -0.5915 18.5238 10.0774 78.3014 1.5695 4.4757
# 5 -16.2692 -8.1046 -12.4752 1.5695 39.2271 13.5060
# 6 -11.3848 -22.0721 -18.4409 4.4757 13.5060 28.3220
#
#
#
# Elastic Compliance Matrix: (Units=1/GPa)
#
#
# Indices 1 2 3 4 5 6 
#
# 1 0.010589 -0.000838 -0.000953 0.000258 0.003460 0.001292
# 2 -0.000838 0.010004 -0.002860 -0.002356 -0.001377 0.006627
# 3 -0.000953 -0.002860 0.008337 -0.000564 0.000822 0.002513
# 4 0.000258 -0.002356 -0.000564 0.013649 0.000431 -0.004462
# 5 0.003460 -0.001377 0.000822 0.000431 0.031846 -0.014402
# 6 0.001292 0.006627 0.002513 -0.004462 -0.014402 0.050201
#
#
# Mechanical properties :
#
#
# Convention : Reuss Voigt Hill
#
# Bulk Modulus (GPa) = 50.94886 66.29702 58.62294
# Shear Modulus (GPa) = 35.59446 48.38895 41.99171
#
# Velocity S-wave (km/s) = 3.64584 4.25089 3.95993
# Velocity P-wave (km/s) = 6.06208 6.98934 6.54216
#
# Compressibility (1/GPa) = 0.01962753
#
# Stress axis : x y z
#
# Youngs Moduli (GPa) = 94.43936 99.95918 119.94665
#
# Poissons Ratio (x) = 0.08372 0.11435
# Poissons Ratio (y) = 0.07910 0.34308
# Poissons Ratio (z) = 0.09003 0.28591
#
# Static dielectric constant tensor:
#      x y z
#    x 1.820220 -0.417290 0.108820 
#    y -0.417290 1.586410 0.061300 
#    z 0.108820 0.061300 2.158990 
# 
# From -- ./inp_files/461323.got.cif
#   From: 2010.05.17/outbox.cif.g08.bks.cpg/sg2_231_cif.got.tgz:461323.got - 2010.06.03 11:33:40.
