data_PCOD9044275
_publ_section_title
;
Structure prediction by ZEFSAII (Michael W. Deem and Ramdas Pophale) SiO2 
 PCOD9044275
Probable space group: P -1
;
_chemical_formula_sum "Si O2"
_cell_formula_units_Z 14
_cell_length_a 12.171358
_cell_length_b 6.005792
_cell_length_c 14.861265
_cell_angle_alpha 58.916512
_cell_angle_beta 45.863188
_cell_angle_gamma 50.061248
_cell_volume 593.025246
_symmetry_space_group_name_H-M "P -1"
_symmetry_group_IT_number 2
_symmetry_cell_setting 'triclinic'
loop_
_space_group_symop_operation_xyz
x,y,z
-x,-y,-z
loop_
_atom_site_type_symbol
_atom_site_label
_atom_site_fract_x
_atom_site_fract_y
_atom_site_fract_z
Si Si1 0.387743 0.340578 0.005658
Si Si2 0.290397 0.844232 0.686420
Si Si3 0.498582 0.221345 0.166520
Si Si4 0.818433 0.621875 0.129446
Si Si5 0.615453 0.877977 0.574286
Si Si6 0.039603 0.658610 0.534907
Si Si7 0.992348 0.409787 0.795088
O O1 0.401100 0.358394 0.101959
O O2 0.185798 0.488128 0.072308
O O3 0.471761 0.512416 0.868558
O O4 0.500000 0.000000 0.000000
O O5 0.297294 0.545247 0.775896
O O6 0.428287 0.921982 0.641319
O O7 0.330325 0.893382 0.550139
O O8 0.093723 0.076179 0.773343
O O9 0.392819 0.120468 0.314024
O O10 0.689975 0.952499 0.103674
O O11 0.876041 0.575354 0.210796
O O12 0.000000 0.500000 0.000000
O O13 0.755443 0.557437 0.529297
O O14 0.000000 0.500000 0.500000
O O15 0.962011 0.594920 0.683258
O O16 0.000000 0.000000 0.500000
#
# Coordination Sequence:
#
# PCOD9044275 Si02
#       7
#     2   2   2   2   2   2   2
#     4  11  26  44  68  98 142 189 246 299 363 452
#     4  10  24  45  69 105 143 180 245 306 379 450
#     4  11  25  44  68 105 136 189 241 301 375 440
#     4  12  26  43  74 107 146 194 247 312 382 445
#     4  10  23  46  72 103 143 192 240 306 376 448
#     4  11  27  47  75 110 152 203 250 314 387 459
#     4  11  25  45  69 105 142 191 248 311 369 454
#
# _framework density 23.607765000000001
#
# number of rings (size 3 to 8) (size 9 to 14) (size 15 to 20)
#    0.000    1.143    1.429    2.571   10.000    4.000 
#    0.000    0.000    0.000    0.000    0.000    0.000 
#    0.000    0.000    0.000    0.000    0.000    0.000 
#
# Total GULP energy -78070.749109 kJ/mol
# GULP energy per Si atom -5576.482079 kJ/mol
# Density = 2.355403 g / cm^3
# Si number density = 23.607765 Si / 1000 Ang^3
#
#
#
# Elastic Constant Matrix: (Units=GPa)
#
#
# Indices 1 2 3 4 5 6 
#
# 1 92.6371 4.0928 17.7049 -7.1279 7.3624 -5.7471
# 2 4.0928 111.9143 20.1503 -11.7167 -28.7592 -4.0890
# 3 17.7049 20.1503 93.6139 4.6442 -1.8869 8.5465
# 4 -7.1279 -11.7167 4.6442 36.8820 -11.8709 -8.3532
# 5 7.3624 -28.7592 -1.8869 -11.8709 40.0716 5.1487
# 6 -5.7471 -4.0890 8.5465 -8.3532 5.1487 28.2303
#
#
#
# Elastic Compliance Matrix: (Units=1/GPa)
#
#
# Indices 1 2 3 4 5 6 
#
# 1 0.012031 0.000078 -0.002909 0.003134 -0.001957 0.004626
# 2 0.000078 0.013825 -0.003563 0.009596 0.012104 0.003729
# 3 -0.002909 -0.003563 0.012787 -0.005422 -0.002233 -0.006177
# 4 0.003134 0.009596 -0.005422 0.039457 0.016152 0.012399
# 5 -0.001957 0.012104 -0.002233 0.016152 0.038714 -0.000251
# 6 0.004626 0.003729 -0.006177 0.012399 -0.000251 0.042489
#
#
# Mechanical properties :
#
#
# Convention : Reuss Voigt Hill
#
# Bulk Modulus (GPa) = 38.67801 42.45125 40.56463
# Shear Modulus (GPa) = 27.66840 38.11793 32.89316
#
# Velocity S-wave (km/s) = 3.42717 4.02261 3.73677
# Velocity P-wave (km/s) = 5.66390 6.29255 5.98648
#
# Compressibility (1/GPa) = 0.02585449
#
# Stress axis : x y z
#
# Youngs Moduli (GPa) = 83.11799 72.33041 78.20274
#
# Poissons Ratio (x) = -0.00564 0.22752
# Poissons Ratio (y) = -0.00648 0.27865
# Poissons Ratio (z) = 0.24182 0.25773
#
# Static dielectric constant tensor:
#      x y z
#    x 2.337280 0.059770 0.067380 
#    y 0.059770 1.912670 0.027980 
#    z 0.067380 0.027980 2.068890 
# 
# From -- ./inp_files/69078.got.cif
#   From: 2010.05.17/outbox.cif.g08.bks.cpg/sg2_35_cif.got.tgz:69078.got - 2010.06.03 11:33:40.
