data_PCOD9044536
_publ_section_title
;
Structure prediction by ZEFSAII (Michael W. Deem and Ramdas Pophale) SiO2 
 PCOD9044536
Probable space group: P -1
;
_chemical_formula_sum "Si O2"
_cell_formula_units_Z 16
_cell_length_a 14.901106
_cell_length_b 15.045828
_cell_length_c 9.501811
_cell_angle_alpha 131.493661
_cell_angle_beta 45.928321
_cell_angle_gamma 148.935553
_cell_volume 776.871348
_symmetry_space_group_name_H-M "P -1"
_symmetry_group_IT_number 2
_symmetry_cell_setting 'triclinic'
loop_
_space_group_symop_operation_xyz
x,y,z
-x,-y,-z
loop_
_atom_site_type_symbol
_atom_site_label
_atom_site_fract_x
_atom_site_fract_y
_atom_site_fract_z
Si Si1 0.092038 0.145552 0.169095
Si Si2 0.505167 0.627860 0.042501
Si Si3 0.651454 0.357286 0.021184
Si Si4 0.056933 0.569156 0.848915
Si Si5 0.135608 0.019635 0.474026
Si Si6 0.360122 0.971513 0.016857
Si Si7 0.478184 0.597433 0.528101
Si Si8 0.252319 0.493749 0.397930
O O1 0.137345 0.312780 0.251025
O O2 0.977947 0.083959 0.370669
O O3 0.282677 0.209682 0.056427
O O4 0.000000 0.000000 0.000000
O O5 0.397568 0.570241 0.954744
O O6 0.408311 0.647863 0.281306
O O7 0.500000 0.500000 0.000000
O O8 0.863258 0.472715 0.891067
O O9 0.620615 0.375541 0.235333
O O10 0.498590 0.145895 0.950605
O O11 0.132024 0.509762 0.618152
O O12 0.221017 0.780859 0.896929
O O13 0.000000 0.500000 0.000000
O O14 0.223314 0.967007 0.244146
O O15 0.315629 0.217428 0.533765
O O16 0.000000 0.000000 0.500000
O O17 0.500000 0.000000 0.000000
O O18 0.500000 0.500000 0.500000
O O19 0.357694 0.501623 0.420011
#
# Coordination Sequence:
#
# PCOD9044536 Si02
#       8
#     2   2   2   2   2   2   2   2
#     4  11  23  41  65  94 130 175 223 282 347 408
#     4  10  23  47  65  93 139 177 223 286 346 413
#     4  11  24  42  68 101 139 179 229 284 343 414
#     4  12  22  42  72 100 136 182 229 282 345 417
#     4  11  23  39  64 103 132 167 228 285 343 411
#     4  11  23  42  67 105 145 178 227 292 348 416
#     4  11  21  37  66  97 131 172 219 283 346 404
#     4  11  23  43  65  95 132 181 227 273 345 419
#
# _framework density 20.595428999999999
#
# number of rings (size 3 to 8) (size 9 to 14) (size 15 to 20)
#    0.000    1.000    2.500    6.000    1.750    1.500 
#    4.500    0.625    0.000    0.000    0.000    0.000 
#    0.000    0.000    0.000    0.000    0.000    0.000 
#
# Total GULP energy -89274.987654 kJ/mol
# GULP energy per Si atom -5579.686728 kJ/mol
# Density = 2.054855 g / cm^3
# Si number density = 20.595429 Si / 1000 Ang^3
#
#
#
# Elastic Constant Matrix: (Units=GPa)
#
#
# Indices 1 2 3 4 5 6 
#
# 1 103.9154 32.8867 33.8881 -5.4905 -14.2357 24.0300
# 2 32.8867 118.8348 48.1481 2.5771 -13.8126 18.0643
# 3 33.8881 48.1481 118.0726 -6.2623 -18.5973 21.2743
# 4 -5.4905 2.5771 -6.2623 43.7606 4.8145 -2.3830
# 5 -14.2357 -13.8126 -18.5973 4.8145 34.0860 -9.1830
# 6 24.0300 18.0643 21.2743 -2.3830 -9.1830 34.1108
#
#
#
# Elastic Compliance Matrix: (Units=1/GPa)
#
#
# Indices 1 2 3 4 5 6 
#
# 1 0.012395 -0.001704 -0.001363 0.000904 0.001889 -0.006408
# 2 -0.001704 0.010784 -0.003381 -0.001610 0.001471 -0.002119
# 3 -0.001363 -0.003381 0.011422 0.001123 0.003210 -0.003431
# 4 0.000904 -0.001610 0.001123 0.023559 -0.002886 0.000384
# 5 0.001889 0.001471 0.003210 -0.002886 0.034200 0.004894
# 6 -0.006408 -0.002119 -0.003431 0.000384 0.004894 0.038437
#
#
# Mechanical properties :
#
#
# Convention : Reuss Voigt Hill
#
# Bulk Modulus (GPa) = 46.06754 63.40764 54.73759
# Shear Modulus (GPa) = 33.12836 37.45145 35.28991
#
# Velocity S-wave (km/s) = 4.01500 4.26894 4.14391
# Velocity P-wave (km/s) = 6.62646 7.42647 7.03785
#
# Compressibility (1/GPa) = 0.02170726
#
# Stress axis : x y z
#
# Youngs Moduli (GPa) = 80.67607 92.72764 87.54755
#
# Poissons Ratio (x) = 0.15802 0.11929
# Poissons Ratio (y) = 0.13749 0.29596
# Poissons Ratio (z) = 0.10993 0.31347
#
# Static dielectric constant tensor:
#      x y z
#    x 1.753510 -0.046130 -0.029810 
#    y -0.046130 1.832230 0.017310 
#    z -0.029810 0.017310 1.756130 
# 
# From -- ./inp_files/315833.got.cif
#   From: 2010.05.17/outbox.cif.g08.bks.cpg/sg2_158_cif.got.tgz:315833.got - 2010.06.03 11:33:40.
