data_PCOD9044267
_publ_section_title
;
Structure prediction by ZEFSAII (Michael W. Deem and Ramdas Pophale) SiO2 
 PCOD9044267
Probable space group: P -1
;
_chemical_formula_sum "Si O2"
_cell_formula_units_Z 14
_cell_length_a 19.734369
_cell_length_b 10.005455
_cell_length_c 5.307112
_cell_angle_alpha 53.164401
_cell_angle_beta 116.595648
_cell_angle_gamma 134.462689
_cell_volume 597.873821
_symmetry_space_group_name_H-M "P -1"
_symmetry_group_IT_number 2
_symmetry_cell_setting 'triclinic'
loop_
_space_group_symop_operation_xyz
x,y,z
-x,-y,-z
loop_
_atom_site_type_symbol
_atom_site_label
_atom_site_fract_x
_atom_site_fract_y
_atom_site_fract_z
Si Si1 0.197289 0.557102 0.579284
Si Si2 0.403751 0.947519 0.516859
Si Si3 0.570823 0.830434 0.174577
Si Si4 0.126745 0.807940 0.936982
Si Si5 0.932647 0.504999 0.188724
Si Si6 0.357149 0.426770 0.220549
Si Si7 0.237463 0.298386 0.654245
O O1 0.168247 0.706445 0.280168
O O2 0.131683 0.444164 0.840784
O O3 0.180108 0.387453 0.543226
O O4 0.310073 0.710018 0.638936
O O5 0.421573 0.033112 0.732561
O O6 0.500000 0.000000 0.500000
O O7 0.381990 0.055204 0.140539
O O8 0.460150 0.650093 0.135619
O O9 0.619585 0.730124 0.475103
O O10 0.012527 0.678572 0.933192
O O11 0.134190 0.730672 0.764730
O O12 0.177060 0.049948 0.790091
O O13 0.000000 0.500000 0.500000
O O14 0.294854 0.412785 0.364852
O O15 0.306441 0.356188 0.944745
#
# Coordination Sequence:
#
# PCOD9044267 Si02
#       7
#     2   2   2   2   2   2   2
#     4  11  25  42  71 103 140 186 233 288 349 413
#     4  12  25  40  66 100 141 190 237 284 342 409
#     4  11  23  42  66  89 138 194 235 290 349 394
#     4  10  23  46  72 102 139 181 230 289 354 421
#     4   9  22  45  73 102 135 179 233 285 351 429
#     4  11  24  43  63 101 137 182 243 290 339 415
#     4  12  27  42  71 104 142 178 233 291 346 420
#
# _framework density 23.416311
#
# number of rings (size 3 to 8) (size 9 to 14) (size 15 to 20)
#    0.000    1.143    0.000    5.571   10.000    2.857 
#    0.000    6.429    0.000    0.000    0.000    0.000 
#    0.000    0.000    0.000    0.000    0.000    0.000 
#
# Total GULP energy -78227.378857 kJ/mol
# GULP energy per Si atom -5587.669918 kJ/mol
# Density = 2.336301 g / cm^3
# Si number density = 23.416311 Si / 1000 Ang^3
#
#
#
# Elastic Constant Matrix: (Units=GPa)
#
#
# Indices 1 2 3 4 5 6 
#
# 1 146.3687 42.1917 7.6438 -8.3824 -8.7734 -4.8762
# 2 42.1917 137.3411 32.6404 -0.0253 -19.9288 -10.3379
# 3 7.6438 32.6404 88.7481 7.5618 -10.2165 2.7068
# 4 -8.3824 -0.0253 7.5618 42.1964 -7.4988 1.2230
# 5 -8.7734 -19.9288 -10.2165 -7.4988 24.5635 12.2022
# 6 -4.8762 -10.3379 2.7068 1.2230 12.2022 31.6746
#
#
#
# Elastic Compliance Matrix: (Units=1/GPa)
#
#
# Indices 1 2 3 4 5 6 
#
# 1 0.007644 -0.002162 0.000193 0.001802 0.001751 -0.000289
# 2 -0.002162 0.009489 -0.002758 0.001068 0.005733 0.000750
# 3 0.000193 -0.002758 0.013036 -0.001356 0.004699 -0.003742
# 4 0.001802 0.001068 -0.001356 0.026448 0.011326 -0.004643
# 5 0.001751 0.005733 0.004699 0.011326 0.062763 -0.022877
# 6 -0.000289 0.000750 -0.003742 -0.004643 -0.022877 0.041083
#
#
# Mechanical properties :
#
#
# Convention : Reuss Voigt Hill
#
# Bulk Modulus (GPa) = 48.26918 59.71218 53.99068
# Shear Modulus (GPa) = 28.27732 39.01904 33.64818
#
# Velocity S-wave (km/s) = 3.47881 4.08649 3.79483
# Velocity P-wave (km/s) = 6.06584 6.91530 6.50445
#
# Compressibility (1/GPa) = 0.02071715
#
# Stress axis : x y z
#
# Youngs Moduli (GPa) = 130.82981 105.38420 76.71072
#
# Poissons Ratio (x) = 0.22779 -0.01484
# Poissons Ratio (y) = 0.28279 0.21154
# Poissons Ratio (z) = -0.02531 0.29062
#
# Static dielectric constant tensor:
#      x y z
#    x 1.947310 -0.007270 -0.005460 
#    y -0.007270 1.852400 0.001150 
#    z -0.005460 0.001150 2.071710 
# 
# From -- ./inp_files/106367.got.cif
#   From: 2010.05.17/outbox.cif.g08.bks.cpg/sg2_54_cif.got.tgz:106367.got - 2010.06.03 11:33:40.
