data_PCOD9044288
_publ_section_title
;
Structure prediction by ZEFSAII (Michael W. Deem and Ramdas Pophale) SiO2 
 PCOD9044288
Probable space group: P -1
;
_chemical_formula_sum "Si O2"
_cell_formula_units_Z 14
_cell_length_a 8.087376
_cell_length_b 8.713508
_cell_length_c 14.601216
_cell_angle_alpha 44.725402
_cell_angle_beta 82.594708
_cell_angle_gamma 109.152786
_cell_volume 573.688416
_symmetry_space_group_name_H-M "P -1"
_symmetry_group_IT_number 2
_symmetry_cell_setting 'triclinic'
loop_
_space_group_symop_operation_xyz
x,y,z
-x,-y,-z
loop_
_atom_site_type_symbol
_atom_site_label
_atom_site_fract_x
_atom_site_fract_y
_atom_site_fract_z
Si Si1 0.017723 0.822723 0.806645
Si Si2 0.327178 0.818207 0.667469
Si Si3 0.086857 0.631744 0.223183
Si Si4 0.924420 0.673004 0.397713
Si Si5 0.412579 0.709234 0.297705
Si Si6 0.583217 0.319218 0.091340
Si Si7 0.829957 0.980750 0.084334
O O1 0.228598 0.925994 0.695204
O O2 0.067669 0.869126 0.891311
O O3 0.967180 0.030854 0.693022
O O4 0.815438 0.512715 0.948029
O O5 0.116071 0.598245 0.720499
O O6 0.401045 0.704581 0.788909
O O7 0.500000 0.000000 0.500000
O O8 0.988142 0.716137 0.269959
O O9 0.227494 0.571051 0.293966
O O10 0.233460 0.869928 0.040921
O O11 0.684718 0.476070 0.526439
O O12 0.000000 0.500000 0.500000
O O13 0.469360 0.010208 0.190684
O O14 0.604600 0.719471 0.241979
O O15 0.500000 0.500000 0.000000
O O16 0.000000 0.000000 0.000000
#
# Coordination Sequence:
#
# PCOD9044288 Si02
#       7
#     2   2   2   2   2   2   2
#     4  12  25  49  76 107 152 201 248 315 383 446
#     4  12  27  49  78 114 154 198 255 317 381 452
#     4  11  23  44  73 107 146 191 251 312 367 452
#     4  10  23  46  72 106 150 196 246 314 378 446
#     4  11  25  46  73 108 153 195 247 314 380 443
#     4  12  25  48  80 111 152 204 249 311 386 453
#     4  12  24  42  72 108 146 192 256 302 368 447
#
# _framework density 24.403490999999999
#
# number of rings (size 3 to 8) (size 9 to 14) (size 15 to 20)
#    0.000    0.571    4.286    4.286    0.000    2.857 
#    0.000    6.429    0.000    0.000    0.000    0.000 
#    0.000    0.000    0.000    0.000    0.000    0.000 
#
# Total GULP energy -78090.425860 kJ/mol
# GULP energy per Si atom -5577.887561 kJ/mol
# Density = 2.434795 g / cm^3
# Si number density = 24.403491 Si / 1000 Ang^3
#
#
#
# Elastic Constant Matrix: (Units=GPa)
#
#
# Indices 1 2 3 4 5 6 
#
# 1 120.1041 34.3555 42.3085 14.7170 -6.8376 -2.6303
# 2 34.3555 84.3709 36.7729 8.2037 0.3179 -3.9102
# 3 42.3085 36.7729 168.2712 19.4121 -18.1243 -9.5308
# 4 14.7170 8.2037 19.4121 41.7464 -9.2950 -8.0814
# 5 -6.8376 0.3179 -18.1243 -9.2950 56.2968 5.8287
# 6 -2.6303 -3.9102 -9.5308 -8.0814 5.8287 40.3210
#
#
#
# Elastic Compliance Matrix: (Units=1/GPa)
#
#
# Indices 1 2 3 4 5 6 
#
# 1 0.010084 -0.003240 -0.001557 -0.002200 0.000433 -0.000528
# 2 -0.003240 0.014302 -0.002337 -0.000768 -0.001423 0.000675
# 3 -0.001557 -0.002337 0.007293 -0.001836 0.001789 0.000769
# 4 -0.002200 -0.000768 -0.001836 0.027290 0.003201 0.004355
# 5 0.000433 -0.001423 0.001789 0.003201 0.019115 -0.001809
# 6 -0.000528 0.000675 0.000769 0.004355 -0.001809 0.026148
#
#
# Mechanical properties :
#
#
# Convention : Reuss Voigt Hill
#
# Bulk Modulus (GPa) = 57.43561 66.62445 62.03003
# Shear Modulus (GPa) = 40.22404 44.96014 42.59209
#
# Velocity S-wave (km/s) = 4.06432 4.29693 4.18224
# Velocity P-wave (km/s) = 6.75365 7.20962 6.98536
#
# Compressibility (1/GPa) = 0.01741080
#
# Stress axis : x y z
#
# Youngs Moduli (GPa) = 99.16743 69.92195 137.11615
#
# Poissons Ratio (x) = 0.22653 0.21347
# Poissons Ratio (y) = 0.32128 0.32049
# Poissons Ratio (z) = 0.15439 0.16343
#
# Static dielectric constant tensor:
#      x y z
#    x 2.172500 -0.112980 0.042100 
#    y -0.112980 2.037570 -0.029750 
#    z 0.042100 -0.029750 1.980700 
# 
# From -- ./inp_files/492027.got.cif
#   From: 2010.05.17/outbox.cif.g08.bks.cpg/sg2_247_cif.got.tgz:492027.got - 2010.06.03 11:33:40.
