data_PCOD9044889
_publ_section_title
;
Structure prediction by ZEFSAII (Michael W. Deem and Ramdas Pophale) SiO2 
 PCOD9044889
Probable space group: P -1
;
_chemical_formula_sum "Si O2"
_cell_formula_units_Z 14
_cell_length_a 5.106647
_cell_length_b 23.180126
_cell_length_c 25.856014
_cell_angle_alpha 169.004084
_cell_angle_beta 76.090774
_cell_angle_gamma 104.012103
_cell_volume 566.353617
_symmetry_space_group_name_H-M "P -1"
_symmetry_group_IT_number 2
_symmetry_cell_setting 'triclinic'
loop_
_space_group_symop_operation_xyz
x,y,z
-x,-y,-z
loop_
_atom_site_type_symbol
_atom_site_label
_atom_site_fract_x
_atom_site_fract_y
_atom_site_fract_z
Si Si1 0.800127 0.543248 0.394562
Si Si2 0.775565 0.345913 0.339588
Si Si3 0.775995 0.238949 0.007261
Si Si4 0.887291 0.960227 0.386726
Si Si5 0.651501 0.463954 0.786514
Si Si6 0.233721 0.437186 0.862291
Si Si7 0.325971 0.279972 0.151169
O O1 0.839164 0.417856 0.340690
O O2 0.467021 0.545988 0.411571
O O3 0.074297 0.376978 0.214935
O O4 0.850178 0.895066 0.689511
O O5 0.500000 0.500000 0.500000
O O6 0.000000 0.500000 0.500000
O O7 0.736530 0.000750 0.055691
O O8 0.557669 0.408485 0.132264
O O9 0.611919 0.233801 0.065685
O O10 0.054481 0.417075 0.139554
O O11 0.730341 0.771275 0.272503
O O12 0.694784 0.113176 0.488862
O O13 0.065819 0.223485 0.640496
O O14 0.069532 0.723168 0.140030
O O15 0.512019 0.555055 0.927237
#
# Coordination Sequence:
#
# PCOD9044889 Si02
#       7
#     2   2   2   2   2   2   2
#     4  12  26  47  73 104 140 187 242 303 367 438
#     4  12  24  44  76 101 141 184 238 311 370 428
#     4  12  28  47  71 102 148 194 238 294 364 444
#     4  10  23  47  78 112 150 195 251 316 378 443
#     4  12  25  48  70 109 146 198 246 300 370 453
#     4  10  23  47  78 112 150 195 251 316 378 443
#     4  12  26  47  73 104 140 187 242 303 367 438
#
# _framework density 24.719539000000001
#
# number of rings (size 3 to 8) (size 9 to 14) (size 15 to 20)
#    0.000    0.571    2.857    4.714    2.000    4.571 
#    5.143    4.286    0.000    0.000    0.000    0.000 
#    0.000    0.000    0.000    0.000    0.000    0.000 
#
# Total GULP energy -78101.655665 kJ/mol
# GULP energy per Si atom -5578.689690 kJ/mol
# Density = 2.466328 g / cm^3
# Si number density = 24.719539 Si / 1000 Ang^3
#
#
#
# Elastic Constant Matrix: (Units=GPa)
#
#
# Indices 1 2 3 4 5 6 
#
# 1 176.0994 80.7222 -5.6069 -22.7900 -32.0045 -22.0912
# 2 80.7222 47.8798 141.8084 121.4705 21.0442 90.5106
# 3 -5.6069 141.8084 -31.0613 -118.7019 -50.6881 -130.5510
# 4 -22.7900 121.4705 -118.7019 -71.8653 -28.9190 -106.6712
# 5 -32.0045 21.0442 -50.6881 -28.9190 39.9341 -16.7819
# 6 -22.0912 90.5106 -130.5510 -106.6712 -16.7819 -45.5749
#
#
#
# Elastic Compliance Matrix: (Units=1/GPa)
#
#
# Indices 1 2 3 4 5 6 
#
# 1 0.006654 -0.001924 -0.001252 -0.000924 0.003068 -0.002430
# 2 -0.001924 0.006226 0.001339 0.002054 0.000277 0.004552
# 3 -0.001252 0.001339 0.007420 -0.007013 0.001705 -0.002202
# 4 -0.000924 0.002054 -0.007013 0.014397 -0.003563 -0.007767
# 5 0.003068 0.000277 0.001705 -0.003563 0.024245 -0.006410
# 6 -0.002430 0.004552 -0.002202 -0.007767 -0.006410 0.015124
#
#
# Mechanical properties :
#
#
# Convention : Reuss Voigt Hill
#
# Bulk Modulus (GPa) = 60.14156 69.64060 64.89108
# Shear Modulus (GPa) = 60.03776 -17.10162 21.46807
#
# Velocity S-wave (km/s) = 4.93359 -2.63311 2.95017
# Velocity P-wave (km/s) = 7.53897 4.35765 6.15732
#
# Compressibility (1/GPa) = 0.01662744
#
# Stress axis : x y z
#
# Youngs Moduli (GPa) = 150.28350 160.61616 134.76466
#
# Poissons Ratio (x) = 0.30905 0.16867
# Poissons Ratio (y) = 0.28917 -0.18047
# Poissons Ratio (z) = 0.18809 -0.21509
#
# Static dielectric constant tensor:
#      x y z
#    x 1.976470 0.003810 -0.227550 
#    y 0.003810 2.106980 0.113070 
#    z -0.227550 0.113070 1.969160 
# 
# From -- ./inp_files/615928.got.cif
#   From: 2010.05.17/outbox.cif.g08.bks.cpg/sg2_308_cif.got.tgz:615928.got - 2010.06.03 11:33:40.
