data_PCOD9044796
_publ_section_title
;
Structure prediction by ZEFSAII (Michael W. Deem and Ramdas Pophale) SiO2 
 PCOD9044796
Probable space group: P -1
;
_chemical_formula_sum "Si O2"
_cell_formula_units_Z 14
_cell_length_a 4.988655
_cell_length_b 18.471898
_cell_length_c 15.810358
_cell_angle_alpha 156.218053
_cell_angle_beta 75.274169
_cell_angle_gamma 94.107351
_cell_volume 517.552242
_symmetry_space_group_name_H-M "P -1"
_symmetry_group_IT_number 2
_symmetry_cell_setting 'triclinic'
loop_
_space_group_symop_operation_xyz
x,y,z
-x,-y,-z
loop_
_atom_site_type_symbol
_atom_site_label
_atom_site_fract_x
_atom_site_fract_y
_atom_site_fract_z
Si Si1 0.843429 0.673386 0.762898
Si Si2 0.797915 0.435223 0.031933
Si Si3 0.713715 0.770803 0.624097
Si Si4 0.303083 0.834451 0.876362
Si Si5 0.457593 0.211382 0.763483
Si Si6 0.280743 0.792954 0.526734
Si Si7 0.940362 0.765511 0.034740
O O1 0.491467 0.732062 0.836887
O O2 0.000000 0.500000 0.500000
O O3 0.976825 0.830255 0.891287
O O4 0.946297 0.646315 0.821986
O O5 0.726776 0.280700 0.815499
O O6 0.152249 0.387347 0.938973
O O7 0.816595 0.361709 0.051124
O O8 0.520580 0.648874 0.285812
O O9 0.515488 0.718535 0.656806
O O10 0.491004 0.813940 0.607802
O O11 0.049241 0.700180 0.478062
O O12 0.736365 0.947571 0.866719
O O13 0.373403 0.198575 0.854350
O O14 0.500000 0.000000 0.500000
O O15 0.085283 0.014888 0.746114
#
# Coordination Sequence:
#
# PCOD9044796 Si02
#       7
#     2   2   2   2   2   2   2
#     4  12  25  40  62  93 139 183 239 284 339 404
#     4  10  25  42  71 102 136 173 229 272 354 410
#     4  11  23  39  65  87 134 179 236 286 346 388
#     4  11  23  42  56  91 125 182 237 291 339 398
#     4  10  23  47  74 102 141 175 218 285 352 415
#     4  12  23  43  68  99 135 181 233 285 337 415
#     4  10  26  42  71  98 137 181 228 285 345 403
#
# _framework density 27.050412999999999
#
# number of rings (size 3 to 8) (size 9 to 14) (size 15 to 20)
#    0.857    0.286    2.857    2.571    6.000    3.429 
#    0.000    1.429    0.000    0.000    0.000    0.000 
#    0.000    0.000    0.000    0.000    0.000    0.000 
#
# Total GULP energy -78159.730892 kJ/mol
# GULP energy per Si atom -5582.837921 kJ/mol
# Density = 2.698884 g / cm^3
# Si number density = 27.050413 Si / 1000 Ang^3
#
#
#
# Elastic Constant Matrix: (Units=GPa)
#
#
# Indices 1 2 3 4 5 6 
#
# 1 122.7422 20.3967 37.2713 -1.9135 -0.5503 0.3398
# 2 20.3967 51.5168 0.1529 -11.6703 3.8301 -3.5604
# 3 37.2713 0.1529 109.5671 -19.8290 -4.0809 3.6486
# 4 -1.9135 -11.6703 -19.8290 48.7200 5.1861 1.9344
# 5 -0.5503 3.8301 -4.0809 5.1861 45.8270 -4.8264
# 6 0.3398 -3.5604 3.6486 1.9344 -4.8264 46.5124
#
#
#
# Elastic Compliance Matrix: (Units=1/GPa)
#
#
# Indices 1 2 3 4 5 6 
#
# 1 0.010014 -0.004499 -0.003797 -0.002275 0.000417 0.000018
# 2 -0.004499 0.022923 0.002563 0.006567 -0.002372 0.001067
# 3 -0.003797 0.002563 0.011373 0.005120 0.000082 -0.000873
# 4 -0.002275 0.006567 0.005120 0.024462 -0.003016 -0.001213
# 5 0.000417 -0.002372 0.000082 -0.003016 0.022613 0.002281
# 6 0.000018 0.001067 -0.000873 -0.001213 0.002281 0.021937
#
#
# Mechanical properties :
#
#
# Convention : Reuss Voigt Hill
#
# Bulk Modulus (GPa) = 30.44618 44.38531 37.41574
# Shear Modulus (GPa) = 36.83626 43.27889 40.05758
#
# Velocity S-wave (km/s) = 3.69421 4.00426 3.85235
# Velocity P-wave (km/s) = 5.42918 6.15002 5.80081
#
# Compressibility (1/GPa) = 0.03284485
#
# Stress axis : x y z
#
# Youngs Moduli (GPa) = 99.85996 43.62524 87.92377
#
# Poissons Ratio (x) = 0.19625 0.33384
# Poissons Ratio (y) = 0.44923 -0.22534
# Poissons Ratio (z) = 0.37916 -0.11181
#
# Static dielectric constant tensor:
#      x y z
#    x 2.044010 0.102180 -0.027990 
#    y 0.102180 2.375420 0.112130 
#    z -0.027990 0.112130 2.214710 
# 
# From -- ./inp_files/551276.got.cif
#   From: 2010.05.17/outbox.cif.g08.bks.cpg/sg2_276_cif.got.tgz:551276.got - 2010.06.03 11:33:40.
