data_PCOD9044332
_publ_section_title
;
Structure prediction by ZEFSAII (Michael W. Deem and Ramdas Pophale) SiO2 
 PCOD9044332
Probable space group: P -1
;
_chemical_formula_sum "Si O2"
_cell_formula_units_Z 15
_cell_length_a 13.916825
_cell_length_b 11.036195
_cell_length_c 5.844629
_cell_angle_alpha 110.650462
_cell_angle_beta 69.734572
_cell_angle_gamma 137.397558
_cell_volume 563.235880
_symmetry_space_group_name_H-M "P -1"
_symmetry_group_IT_number 2
_symmetry_cell_setting 'triclinic'
loop_
_space_group_symop_operation_xyz
x,y,z
-x,-y,-z
loop_
_atom_site_type_symbol
_atom_site_label
_atom_site_fract_x
_atom_site_fract_y
_atom_site_fract_z
Si Si1 0.025122 0.793211 0.191485
Si Si2 0.097288 0.500350 0.251093
Si Si3 0.240222 0.439058 0.416181
Si Si4 0.422429 0.851043 0.659623
Si Si5 0.583686 0.668952 0.800513
Si Si6 0.327945 0.262641 0.740177
Si Si7 0.000000 0.000000 0.000000
Si Si8 0.289371 0.883661 0.152980
O O1 0.166113 0.880549 0.275003
O O2 0.887841 0.698992 0.395001
O O3 0.988350 0.626772 0.979906
O O4 0.052934 0.936410 0.097448
O O5 0.153613 0.415761 0.254645
O O6 0.232838 0.708692 0.219908
O O7 0.000000 0.500000 0.500000
O O8 0.342631 0.647758 0.536430
O O9 0.325498 0.383445 0.281492
O O10 0.500000 0.000000 0.500000
O O11 0.550966 0.937750 0.788664
O O12 0.306236 0.845979 0.857682
O O13 0.417348 0.478378 0.807748
O O14 0.626847 0.747860 0.558271
O O15 0.614678 0.760449 0.087720
O O16 0.158654 0.129041 0.820973
#
# Coordination Sequence:
#
# PCOD9044332 Si02
#       8
#     2   2   2   2   2   2   1   2
#     4  12  26  46  71 105 145 195 246 307 372 446
#     4  12  23  42  75 104 139 188 240 301 376 451
#     4  12  23  42  73 100 140 192 237 299 379 453
#     4  11  24  42  67 105 145 179 233 301 374 442
#     4  10  23  46  73 102 138 198 248 305 379 448
#     4  10  23  48  72 100 143 191 257 310 364 443
#     4  12  26  50  70 108 150 198 260 318 364 450
#     4  11  24  44  67 105 144 183 237 304 368 444
#
# _framework density 26.631827999999999
#
# number of rings (size 3 to 8) (size 9 to 14) (size 15 to 20)
#    0.000    0.800    5.333    2.000    0.000    1.600 
#    9.600    0.000    0.000    0.000    0.000    0.000 
#    0.000    0.000    0.000    0.000    0.000    0.000 
#
# Total GULP energy -83744.963963 kJ/mol
# GULP energy per Si atom -5582.997598 kJ/mol
# Density = 2.657121 g / cm^3
# Si number density = 26.631828 Si / 1000 Ang^3
#
#
#
# Elastic Constant Matrix: (Units=GPa)
#
#
# Indices 1 2 3 4 5 6 
#
# 1 102.8685 16.9145 27.5543 -19.9859 -4.7765 -4.8443
# 2 16.9145 112.2949 53.9486 -27.5513 -2.6389 16.3469
# 3 27.5543 53.9486 135.0165 -47.0007 -0.7886 2.4373
# 4 -19.9859 -27.5513 -47.0007 55.3741 14.2512 -0.1681
# 5 -4.7765 -2.6389 -0.7886 14.2512 46.5803 -9.3341
# 6 -4.8443 16.3469 2.4373 -0.1681 -9.3341 49.8480
#
#
#
# Elastic Compliance Matrix: (Units=1/GPa)
#
#
# Indices 1 2 3 4 5 6 
#
# 1 0.010694 -0.000686 -0.001073 0.002465 0.000572 0.001432
# 2 -0.000686 0.012011 -0.003545 0.003012 -0.001181 -0.004043
# 3 -0.001073 -0.003545 0.012107 0.008851 -0.002820 -0.000032
# 4 0.002465 0.003012 0.008851 0.030338 -0.009273 -0.002815
# 5 0.000572 -0.001181 -0.002820 -0.009273 0.025309 0.005289
# 6 0.001432 -0.004043 -0.000032 -0.002815 0.005289 0.022509
#
#
# Mechanical properties :
#
#
# Convention : Reuss Voigt Hill
#
# Bulk Modulus (GPa) = 41.31273 60.77943 51.04608
# Shear Modulus (GPa) = 37.98144 47.14463 42.56303
#
# Velocity S-wave (km/s) = 3.78056 4.21198 4.00209
# Velocity P-wave (km/s) = 5.88244 6.82100 6.36903
#
# Compressibility (1/GPa) = 0.02420561
#
# Stress axis : x y z
#
# Youngs Moduli (GPa) = 93.50846 83.25594 82.59558
#
# Poissons Ratio (x) = 0.05708 0.08862
# Poissons Ratio (y) = 0.06411 0.29280
# Poissons Ratio (z) = 0.10033 0.29514
#
# Static dielectric constant tensor:
#      x y z
#    x 1.500870 -0.508200 0.325860 
#    y -0.508200 1.618670 0.277830 
#    z 0.325860 0.277830 2.069300 
# 
# From -- ./inp_files/95135.got.cif
#   From: 2010.05.17/outbox.cif.g08.bks.cpg/sg2_48_cif.got.tgz:95135.got - 2010.06.03 11:33:40.
