data_PCOD9044818
_publ_section_title
;
Structure prediction by ZEFSAII (Michael W. Deem and Ramdas Pophale) SiO2 
 PCOD9044818
Probable space group: P -1
;
_chemical_formula_sum "Si O2"
_cell_formula_units_Z 12
_cell_length_a 18.764916
_cell_length_b 15.593384
_cell_length_c 5.273900
_cell_angle_alpha 63.017724
_cell_angle_beta 106.843795
_cell_angle_gamma 159.199522
_cell_volume 442.140839
_symmetry_space_group_name_H-M "P -1"
_symmetry_group_IT_number 2
_symmetry_cell_setting 'triclinic'
loop_
_space_group_symop_operation_xyz
x,y,z
-x,-y,-z
loop_
_atom_site_type_symbol
_atom_site_label
_atom_site_fract_x
_atom_site_fract_y
_atom_site_fract_z
Si Si1 0.323442 0.832554 0.732683
Si Si2 0.012082 0.081519 0.150698
Si Si3 0.612571 0.710237 0.029845
Si Si4 0.822350 0.154131 0.649360
Si Si5 0.622608 0.420033 0.818671
Si Si6 0.762525 0.431060 0.624489
O O1 0.500000 0.000000 0.500000
O O2 0.165901 0.725651 0.616037
O O3 0.506412 0.107363 0.727289
O O4 0.199252 0.596845 0.066417
O O5 0.816019 0.915961 0.118302
O O6 0.000000 0.000000 0.500000
O O7 0.237122 0.415106 0.995849
O O8 0.000000 0.000000 0.000000
O O9 0.707546 0.921703 0.698534
O O10 0.500000 0.500000 0.000000
O O11 0.446679 0.552337 0.282405
O O12 0.622516 0.924375 0.953642
O O13 0.062853 0.401623 0.619086
O O14 0.773839 0.551633 0.592313
#
# Coordination Sequence:
#
# PCOD9044818 Si02
#       6
#     2   2   2   2   2   2
#     4  11  23  47  72 104 150 190 258 320 380 473
#     4  12  27  48  79 111 155 211 265 327 393 465
#     4  10  23  47  74 110 154 203 256 320 388 461
#     4  10  24  43  73 105 149 193 255 310 390 459
#     4  10  25  44  74 111 149 198 258 319 384 466
#     4  11  25  44  73 107 145 204 246 320 396 453
#
# _framework density 27.140674000000001
#
# number of rings (size 3 to 8) (size 9 to 14) (size 15 to 20)
#    1.000    0.333    3.333    0.500    4.667    4.000 
#    3.000    0.000    0.000    0.000    0.000    0.000 
#    0.000    0.000    0.000    0.000    0.000    0.000 
#
# Total GULP energy -66927.620618 kJ/mol
# GULP energy per Si atom -5577.301718 kJ/mol
# Density = 2.707890 g / cm^3
# Si number density = 27.140674 Si / 1000 Ang^3
#
#
#
# Elastic Constant Matrix: (Units=GPa)
#
#
# Indices 1 2 3 4 5 6 
#
# 1 208.2255 66.3067 35.0768 13.1694 -23.7475 28.5210
# 2 66.3067 114.3663 24.2547 -1.2668 -26.6835 41.5836
# 3 35.0768 24.2547 76.7520 8.2649 0.4828 0.6609
# 4 13.1694 -1.2668 8.2649 35.8809 -3.5435 -9.8487
# 5 -23.7475 -26.6835 0.4828 -3.5435 49.6411 -8.2594
# 6 28.5210 41.5836 0.6609 -9.8487 -8.2594 64.2759
#
#
#
# Elastic Compliance Matrix: (Units=1/GPa)
#
#
# Indices 1 2 3 4 5 6 
#
# 1 0.006407 -0.002536 -0.001881 -0.002248 0.001334 -0.001356
# 2 -0.002536 0.015182 -0.003687 0.000740 0.005737 -0.007808
# 3 -0.001881 -0.003687 0.015334 -0.002622 -0.002836 0.002296
# 4 -0.002248 0.000740 -0.002622 0.031120 0.002507 0.005637
# 5 0.001334 0.005737 -0.002836 0.002507 0.023938 -0.000814
# 6 -0.001356 -0.007808 0.002296 0.005637 -0.000814 0.021947
#
#
# Mechanical properties :
#
#
# Convention : Reuss Voigt Hill
#
# Bulk Modulus (GPa) = 48.27637 72.29112 60.28374
# Shear Modulus (GPa) = 36.48529 48.20660 42.34594
#
# Velocity S-wave (km/s) = 3.67045 4.21904 3.95427
# Velocity P-wave (km/s) = 5.98239 7.10122 6.56568
#
# Compressibility (1/GPa) = 0.02071407
#
# Stress axis : x y z
#
# Youngs Moduli (GPa) = 156.07679 65.86694 65.21348
#
# Poissons Ratio (x) = 0.16707 0.12268
# Poissons Ratio (y) = 0.39588 0.24045
# Poissons Ratio (z) = 0.29361 0.24286
#
# Static dielectric constant tensor:
#      x y z
#    x 2.165090 -0.043530 0.110820 
#    y -0.043530 2.231750 -0.097460 
#    z 0.110820 -0.097460 2.394900 
# 
# From -- ./inp_files/119553.got.cif
#   From: 2010.05.17/outbox.cif.g08.bks.cpg/sg2_60_cif.got.tgz:119553.got - 2010.06.03 11:33:40.
