data_PCOD9044625
_publ_section_title
;
Structure prediction by ZEFSAII (Michael W. Deem and Ramdas Pophale) SiO2 
 PCOD9044625
Probable space group: P -1
;
_chemical_formula_sum "Si O2"
_cell_formula_units_Z 16
_cell_length_a 12.296886
_cell_length_b 9.557145
_cell_length_c 18.278208
_cell_angle_alpha 139.956374
_cell_angle_beta 137.793098
_cell_angle_gamma 73.974630
_cell_volume 686.504447
_symmetry_space_group_name_H-M "P -1"
_symmetry_group_IT_number 2
_symmetry_cell_setting 'triclinic'
loop_
_space_group_symop_operation_xyz
x,y,z
-x,-y,-z
loop_
_atom_site_type_symbol
_atom_site_label
_atom_site_fract_x
_atom_site_fract_y
_atom_site_fract_z
Si Si1 0.695503 0.225115 0.058903
Si Si2 0.320426 0.203662 0.885544
Si Si3 0.914843 0.287316 0.941348
Si Si4 0.035587 0.736991 0.667159
Si Si5 0.792367 0.655927 0.774712
Si Si6 0.678608 0.606121 0.535214
Si Si7 0.562897 0.195416 0.827804
Si Si8 0.111706 0.868037 0.502416
O O1 0.779421 0.140999 0.129751
O O2 0.924781 0.526619 0.265947
O O3 0.546890 0.279830 0.043944
O O4 0.586602 0.075177 0.866122
O O5 0.218270 0.969914 0.676090
O O6 0.363308 0.487234 0.994273
O O7 0.142912 0.028806 0.790904
O O8 0.716524 0.234548 0.859683
O O9 0.813769 0.957419 0.741818
O O10 0.000000 0.500000 0.000000
O O11 0.108122 0.428833 0.153980
O O12 0.803920 0.580770 0.526367
O O13 0.000000 0.500000 0.500000
O O14 0.711677 0.529252 0.601534
O O15 0.578595 0.572635 0.671884
O O16 0.000000 0.000000 0.000000
O O17 0.311601 0.001553 0.602187
O O18 0.000000 0.000000 0.500000
#
# Coordination Sequence:
#
# PCOD9044625 Si02
#       8
#     2   2   2   2   2   2   2   2
#     4  11  22  41  63  93 133 168 214 262 314 388
#     4  11  22  41  59  95 133 169 206 260 322 384
#     4  11  24  44  64 102 129 169 222 271 331 385
#     4  12  25  42  64  99 132 168 210 266 332 386
#     4   9  21  46  73  92 125 175 225 269 324 379
#     4  10  23  47  69  92 135 172 220 274 321 386
#     4  11  23  38  71  91 126 175 217 257 321 390
#     4  11  19  39  63  93 128 167 213 258 314 379
#
# _framework density 23.306477000000001
#
# number of rings (size 3 to 8) (size 9 to 14) (size 15 to 20)
#    0.000    1.250    3.750    2.625    0.000    4.500 
#   13.500    0.000    0.000    0.000    0.000    0.000 
#    0.000    0.000    0.000    0.000    0.000    0.000 
#
# Total GULP energy -89405.731744 kJ/mol
# GULP energy per Si atom -5587.858234 kJ/mol
# Density = 2.325343 g / cm^3
# Si number density = 23.306477 Si / 1000 Ang^3
#
#
#
# Elastic Constant Matrix: (Units=GPa)
#
#
# Indices 1 2 3 4 5 6 
#
# 1 169.1582 38.0163 49.9235 -4.9429 44.8738 0.6234
# 2 38.0163 109.8828 33.2701 -4.7477 17.3116 13.6965
# 3 49.9235 33.2701 112.3060 -13.8132 27.3573 -1.4280
# 4 -4.9429 -4.7477 -13.8132 26.3268 -9.9747 1.1072
# 5 44.8738 17.3116 27.3573 -9.9747 48.4955 3.5608
# 6 0.6234 13.6965 -1.4280 1.1072 3.5608 31.4687
#
#
#
# Elastic Compliance Matrix: (Units=1/GPa)
#
#
# Indices 1 2 3 4 5 6 
#
# 1 0.008586 -0.001558 -0.001956 -0.002349 -0.006862 0.001278
# 2 -0.001558 0.011112 -0.002442 0.000362 -0.000717 -0.004848
# 3 -0.001956 -0.002442 0.011822 0.004072 -0.003287 0.001867
# 4 -0.002349 0.000362 0.004072 0.043185 0.008809 -0.002443
# 5 -0.006862 -0.000717 -0.003287 0.008809 0.031152 -0.003536
# 6 0.001278 -0.004848 0.001867 -0.002443 -0.003536 0.034433
#
#
# Mechanical properties :
#
#
# Convention : Reuss Voigt Hill
#
# Bulk Modulus (GPa) = 50.99813 70.41854 60.70833
# Shear Modulus (GPa) = 31.49834 39.26734 35.38284
#
# Velocity S-wave (km/s) = 3.68024 4.10912 3.90058
# Velocity P-wave (km/s) = 6.32360 7.26587 6.81105
#
# Compressibility (1/GPa) = 0.01960856
#
# Stress axis : x y z
#
# Youngs Moduli (GPa) = 116.46635 89.99442 84.58483
#
# Poissons Ratio (x) = 0.14021 0.16548
# Poissons Ratio (y) = 0.18145 0.20652
# Poissons Ratio (z) = 0.22785 0.21973
#
# Static dielectric constant tensor:
#      x y z
#    x 1.911010 -0.042530 0.006830 
#    y -0.042530 1.975570 -0.105150 
#    z 0.006830 -0.105150 2.045060 
# 
# From -- ./inp_files/68515.got.cif
#   From: 2010.05.17/outbox.cif.g08.bks.cpg/sg2_35_cif.got.tgz:68515.got - 2010.06.03 11:33:40.
