data_PCOD9044432
_publ_section_title
;
Structure prediction by ZEFSAII (Michael W. Deem and Ramdas Pophale) SiO2 
 PCOD9044432
Probable space group: P -1
;
_chemical_formula_sum "Si O2"
_cell_formula_units_Z 15
_cell_length_a 11.275166
_cell_length_b 11.480855
_cell_length_c 14.569936
_cell_angle_alpha 31.499420
_cell_angle_beta 128.146276
_cell_angle_gamma 136.808818
_cell_volume 674.431942
_symmetry_space_group_name_H-M "P -1"
_symmetry_group_IT_number 2
_symmetry_cell_setting 'triclinic'
loop_
_space_group_symop_operation_xyz
x,y,z
-x,-y,-z
loop_
_atom_site_type_symbol
_atom_site_label
_atom_site_fract_x
_atom_site_fract_y
_atom_site_fract_z
Si Si1 0.090392 0.254598 0.936196
Si Si2 0.846339 0.542615 0.863262
Si Si3 0.482040 0.193987 0.929691
Si Si4 0.949610 0.008194 0.712021
Si Si5 0.324751 0.491090 0.558010
Si Si6 0.216522 0.685222 0.216834
Si Si7 0.500000 0.500000 0.000000
Si Si8 0.357843 0.945729 0.393200
O O1 0.967685 0.384282 0.778774
O O2 0.060882 0.165247 0.089058
O O3 0.298370 0.424597 0.911720
O O4 0.000000 0.000000 0.000000
O O5 0.666902 0.359904 0.954885
O O6 0.893847 0.829638 0.715889
O O7 0.817037 0.455426 0.802436
O O8 0.000000 0.500000 0.000000
O O9 0.452083 0.397855 0.721997
O O10 0.500000 0.000000 0.000000
O O11 0.322594 0.995890 0.047924
O O12 0.817300 0.105830 0.606523
O O13 0.141754 0.234302 0.643531
O O14 0.337522 0.608381 0.384959
O O15 0.327020 0.704518 0.481534
O O16 0.421549 0.201442 0.191669
O O17 0.500000 0.000000 0.500000
#
# Coordination Sequence:
#
# PCOD9044432 Si02
#       8
#     2   2   2   2   2   2   1   2
#     4  11  23  43  71 102 142 193 237 297 372 423
#     4  11  22  44  71 102 136 187 240 291 363 423
#     4  10  23  46  74  98 143 186 235 300 356 428
#     4  11  23  43  66  98 144 182 232 298 350 430
#     4  12  25  44  71 106 140 186 242 290 366 432
#     4  11  24  44  71 104 140 191 238 298 358 428
#     4  10  26  44  68 106 144 184 242 296 358 436
#     4  11  26  43  68 103 139 185 235 294 362 426
#
# _framework density 22.240939999999998
#
# number of rings (size 3 to 8) (size 9 to 14) (size 15 to 20)
#    0.000    1.067    2.667    3.600    3.733    8.000 
#    0.000    0.000    0.000    0.000    0.000    0.000 
#    0.000    0.000    0.000    0.000    0.000    0.000 
#
# Total GULP energy -83566.740689 kJ/mol
# GULP energy per Si atom -5571.116046 kJ/mol
# Density = 2.219032 g / cm^3
# Si number density = 22.240940 Si / 1000 Ang^3
#
#
#
# Elastic Constant Matrix: (Units=GPa)
#
#
# Indices 1 2 3 4 5 6 
#
# 1 74.5253 45.7035 21.0857 -7.5754 19.0094 4.4919
# 2 45.7035 137.5507 19.1043 -15.1107 0.2881 5.6882
# 3 21.0857 19.1043 94.1512 7.8341 21.9455 -4.0062
# 4 -7.5754 -15.1107 7.8341 45.2319 3.2451 5.2841
# 5 19.0094 0.2881 21.9455 3.2451 24.9660 1.0443
# 6 4.4919 5.6882 -4.0062 5.2841 1.0443 51.9492
#
#
#
# Elastic Compliance Matrix: (Units=1/GPa)
#
#
# Indices 1 2 3 4 5 6 
#
# 1 0.022577 -0.007150 0.000227 0.002743 -0.017619 -0.001076
# 2 -0.007150 0.010253 -0.002383 0.002250 0.007173 -0.001061
# 3 0.000227 -0.002383 0.014236 -0.002550 -0.012405 0.001848
# 4 0.002743 0.002250 -0.002550 0.024331 -0.002906 -0.003097
# 5 -0.017619 0.007173 -0.012405 -0.002906 0.064721 -0.001224
# 6 -0.001076 -0.001061 0.001848 -0.003097 -0.001224 0.019941
#
#
# Mechanical properties :
#
#
# Convention : Reuss Voigt Hill
#
# Bulk Modulus (GPa) = 35.14518 53.11269 44.12893
# Shear Modulus (GPa) = 27.15092 39.11834 33.13463
#
# Velocity S-wave (km/s) = 3.49773 4.19841 3.86398
# Velocity P-wave (km/s) = 5.66996 6.88728 6.30805
#
# Compressibility (1/GPa) = 0.02845341
#
# Stress axis : x y z
#
# Youngs Moduli (GPa) = 44.29320 97.53312 70.24331
#
# Poissons Ratio (x) = 0.69740 -0.01598
# Poissons Ratio (y) = 0.31671 0.16742
# Poissons Ratio (z) = -0.01008 0.23246
#
# Static dielectric constant tensor:
#      x y z
#    x 1.903280 0.006910 -0.016280 
#    y 0.006910 1.837450 0.039450 
#    z -0.016280 0.039450 1.867310 
# 
# From -- ./inp_files/515324.got.cif
#   From: 2010.05.17/outbox.cif.g08.bks.cpg/sg2_258_cif.got.tgz:515324.got - 2010.06.03 11:33:40.
