data_PCOD9044722
_publ_section_title
;
Structure prediction by ZEFSAII (Michael W. Deem and Ramdas Pophale) SiO2 
 PCOD9044722
Probable space group: P -1
;
_chemical_formula_sum "Si O2"
_cell_formula_units_Z 16
_cell_length_a 6.673897
_cell_length_b 16.140011
_cell_length_c 19.401469
_cell_angle_alpha 156.493971
_cell_angle_beta 70.610025
_cell_angle_gamma 120.965165
_cell_volume 652.273287
_symmetry_space_group_name_H-M "P -1"
_symmetry_group_IT_number 2
_symmetry_cell_setting 'triclinic'
loop_
_space_group_symop_operation_xyz
x,y,z
-x,-y,-z
loop_
_atom_site_type_symbol
_atom_site_label
_atom_site_fract_x
_atom_site_fract_y
_atom_site_fract_z
Si Si1 0.732530 0.071322 0.479799
Si Si2 0.928001 0.008638 0.936143
Si Si3 0.380648 0.005040 0.832048
Si Si4 0.090946 0.477988 0.858488
Si Si5 0.426793 0.270600 0.465424
Si Si6 0.844148 0.469528 0.663710
Si Si7 0.621006 0.361196 0.333495
Si Si8 0.917098 0.768752 0.183023
O O1 0.728549 0.226996 0.536624
O O2 0.973178 0.269859 0.652926
O O3 0.500000 0.000000 0.500000
O O4 0.700924 0.823250 0.262557
O O5 0.098789 0.946983 0.823847
O O6 0.021109 0.286800 0.117032
O O7 0.626784 0.831993 0.830140
O O8 0.000000 0.000000 0.000000
O O9 0.427800 0.871825 0.663381
O O10 0.397489 0.841559 0.765207
O O11 0.618429 0.294232 0.021458
O O12 0.073933 0.343364 0.830019
O O13 0.942150 0.612643 0.999734
O O14 0.622498 0.475699 0.653699
O O15 0.406434 0.397397 0.494101
O O16 0.152073 0.057276 0.361614
O O17 0.086734 0.514617 0.628604
#
# Coordination Sequence:
#
# PCOD9044722 Si02
#       8
#     2   2   2   2   2   2   2   2
#     4  12  26  43  71 107 136 183 232 280 350 419
#     4  12  25  41  64  97 134 179 225 286 339 403
#     4  11  26  43  69 101 133 183 233 278 350 413
#     4  10  24  46  72 100 140 182 230 286 346 412
#     4  11  24  45  69  99 137 181 226 289 345 407
#     4  12  26  43  68  99 141 179 227 282 345 414
#     4  12  23  44  69  96 140 177 233 281 342 417
#     4  10  23  47  72 102 139 181 226 292 348 402
#
# _framework density 24.529596999999999
#
# number of rings (size 3 to 8) (size 9 to 14) (size 15 to 20)
#    0.000    0.750    3.750    2.625    5.250    3.500 
#    2.250    0.000    0.000    0.000    0.000    0.000 
#    0.000    0.000    0.000    0.000    0.000    0.000 
#
# Total GULP energy -89139.762250 kJ/mol
# GULP energy per Si atom -5571.235141 kJ/mol
# Density = 2.447377 g / cm^3
# Si number density = 24.529597 Si / 1000 Ang^3
#
#
#
# Elastic Constant Matrix: (Units=GPa)
#
#
# Indices 1 2 3 4 5 6 
#
# 1 66.9990 29.1659 7.5138 10.0733 -10.4575 0.1216
# 2 29.1659 142.5248 9.6155 29.5457 -11.4357 -8.4709
# 3 7.5138 9.6155 70.8980 20.1086 -18.7799 -3.3665
# 4 10.0733 29.5457 20.1086 46.7831 9.3807 -9.8111
# 5 -10.4575 -11.4357 -18.7799 9.3807 50.1909 3.7069
# 6 0.1216 -8.4709 -3.3665 -9.8111 3.7069 35.4732
#
#
#
# Elastic Compliance Matrix: (Units=1/GPa)
#
#
# Indices 1 2 3 4 5 6 
#
# 1 0.017155 -0.002632 0.000463 -0.003442 0.003940 -0.002007
# 2 -0.002632 0.009088 0.001842 -0.006619 0.003437 0.000164
# 3 0.000463 0.001842 0.020002 -0.012423 0.010484 -0.002195
# 4 -0.003442 -0.006619 -0.012423 0.036354 -0.014318 0.008803
# 5 0.003940 0.003437 0.010484 -0.014318 0.028506 -0.005137
# 6 -0.002007 0.000164 -0.002195 0.008803 -0.005137 0.031000
#
#
# Mechanical properties :
#
#
# Convention : Reuss Voigt Hill
#
# Bulk Modulus (GPa) = 21.93316 41.44582 31.68949
# Shear Modulus (GPa) = 31.65438 42.09786 36.87612
#
# Velocity S-wave (km/s) = 3.59619 4.14721 3.88149
# Velocity P-wave (km/s) = 5.11902 6.31390 5.74760
#
# Compressibility (1/GPa) = 0.04559306
#
# Stress axis : x y z
#
# Youngs Moduli (GPa) = 58.29117 110.03179 49.99405
#
# Poissons Ratio (x) = 0.28955 -0.02316
# Poissons Ratio (y) = 0.15339 -0.09208
# Poissons Ratio (z) = -0.02700 -0.20266
#
# Static dielectric constant tensor:
#      x y z
#    x 2.109400 0.005120 0.074680 
#    y 0.005120 2.048750 -0.175480 
#    z 0.074680 -0.175480 2.100270 
# 
# From -- ./inp_files/605011.got.cif
#   From: 2010.05.17/outbox.cif.g08.bks.cpg/sg2_303_cif.got.tgz:605011.got - 2010.06.03 11:33:40.
