data_PCOD9044589
_publ_section_title
;
Structure prediction by ZEFSAII (Michael W. Deem and Ramdas Pophale) SiO2 
 PCOD9044589
Probable space group: P -1
;
_chemical_formula_sum "Si O2"
_cell_formula_units_Z 11
_cell_length_a 8.765336
_cell_length_b 8.700490
_cell_length_c 7.502729
_cell_angle_alpha 112.331142
_cell_angle_beta 71.236507
_cell_angle_gamma 81.558212
_cell_volume 476.912900
_symmetry_space_group_name_H-M "P -1"
_symmetry_group_IT_number 2
_symmetry_cell_setting 'triclinic'
loop_
_space_group_symop_operation_xyz
x,y,z
-x,-y,-z
loop_
_atom_site_type_symbol
_atom_site_label
_atom_site_fract_x
_atom_site_fract_y
_atom_site_fract_z
Si Si1 0.494530 0.673552 0.683312
Si Si2 0.128048 0.096698 0.752048
Si Si3 0.634003 0.610243 0.977998
Si Si4 0.201252 0.960608 0.058642
Si Si5 0.415442 0.997713 0.316847
Si Si6 0.000000 0.500000 0.000000
O O1 0.500000 0.500000 0.500000
O O2 0.630999 0.629025 0.772167
O O3 0.524074 0.830391 0.625346
O O4 0.305458 0.762646 0.874059
O O5 0.281452 0.006064 0.525924
O O6 0.968247 0.025054 0.764666
O O7 0.068145 0.299655 0.822104
O O8 0.162640 0.069280 0.939452
O O9 0.500000 0.500000 0.000000
O O10 0.548907 0.804816 0.176306
O O11 0.815676 0.530244 0.965542
O O12 0.325145 0.014445 0.167013
#
# Coordination Sequence:
#
# PCOD9044589 Si02
#       6
#     2   2   2   2   2   1
#     4  11  25  45  73 109 147 201 254 310 377 451
#     4  11  25  42  76 103 150 192 245 315 378 448
#     4  11  26  47  77 110 153 196 252 317 377 455
#     4  10  23  47  68 105 147 193 251 309 374 452
#     4  11  24  47  75 103 145 206 248 303 385 446
#     4  12  24  44  70 116 146 188 250 312 368 450
#
# _framework density 23.065004999999999
#
# number of rings (size 3 to 8) (size 9 to 14) (size 15 to 20)
#    0.000    1.091    0.000    7.091    7.636    1.455 
#    3.273    1.818    0.000    0.000    0.000    0.000 
#    0.000    0.000    0.000    0.000    0.000    0.000 
#
# Total GULP energy -61244.774316 kJ/mol
# GULP energy per Si atom -5567.706756 kJ/mol
# Density = 2.301251 g / cm^3
# Si number density = 23.065005 Si / 1000 Ang^3
#
#
#
# Elastic Constant Matrix: (Units=GPa)
#
#
# Indices 1 2 3 4 5 6 
#
# 1 168.3236 75.0238 62.8737 1.9681 2.3543 -23.0581
# 2 75.0238 89.1893 64.9665 27.4175 -2.0383 -6.3282
# 3 62.8737 64.9665 134.3889 19.2289 -0.3687 -2.2111
# 4 1.9681 27.4175 19.2289 41.0920 2.4612 -0.3151
# 5 2.3543 -2.0383 -0.3687 2.4612 33.1238 -7.5362
# 6 -23.0581 -6.3282 -2.2111 -0.3151 -7.5362 51.8056
#
#
#
# Elastic Compliance Matrix: (Units=1/GPa)
#
#
# Indices 1 2 3 4 5 6 
#
# 1 0.011769 -0.011149 -0.001133 0.007509 -0.001253 0.003691
# 2 -0.011149 0.031298 -0.007477 -0.017077 0.003670 -0.001028
# 3 -0.001133 -0.007477 0.011622 -0.000376 -0.000447 -0.000989
# 4 0.007509 -0.017077 -0.000376 0.035796 -0.004051 0.000869
# 5 -0.001253 0.003670 -0.000447 -0.004051 0.031819 0.004475
# 6 0.003691 -0.001028 -0.000989 0.000869 0.004475 0.021434
#
#
# Mechanical properties :
#
#
# Convention : Reuss Voigt Hill
#
# Bulk Modulus (GPa) = 65.92304 88.62552 77.27428
# Shear Modulus (GPa) = 26.55132 37.80680 32.17906
#
# Velocity S-wave (km/s) = 3.39654 4.05302 3.73922
# Velocity P-wave (km/s) = 6.63517 7.77241 7.22619
#
# Compressibility (1/GPa) = 0.01516920
#
# Stress axis : x y z
#
# Youngs Moduli (GPa) = 84.96813 31.95122 86.04139
#
# Poissons Ratio (x) = 0.35624 0.09753
# Poissons Ratio (y) = 0.94734 0.64334
# Poissons Ratio (z) = 0.09631 0.23890
#
# Static dielectric constant tensor:
#      x y z
#    x 1.973200 0.020360 0.032200 
#    y 0.020360 1.900300 -0.066900 
#    z 0.032200 -0.066900 1.833470 
# 
# From -- ./inp_files/148255.got.cif
#   From: 2010.05.17/outbox.cif.g08.bks.cpg/sg2_75_cif.got.tgz:148255.got - 2010.06.03 11:33:40.
