data_PCOD9044243
_publ_section_title
;
Structure prediction by ZEFSAII (Michael W. Deem and Ramdas Pophale) SiO2 
 PCOD9044243
Probable space group: P -1
;
_chemical_formula_sum "Si O2"
_cell_formula_units_Z 16
_cell_length_a 12.299819
_cell_length_b 20.091910
_cell_length_c 9.433410
_cell_angle_alpha 115.945127
_cell_angle_beta 34.985944
_cell_angle_gamma 139.109095
_cell_volume 765.476816
_symmetry_space_group_name_H-M "P -1"
_symmetry_group_IT_number 2
_symmetry_cell_setting 'triclinic'
loop_
_space_group_symop_operation_xyz
x,y,z
-x,-y,-z
loop_
_atom_site_type_symbol
_atom_site_label
_atom_site_fract_x
_atom_site_fract_y
_atom_site_fract_z
Si Si1 0.840386 0.242859 0.145996
Si Si2 0.574442 0.726580 0.669863
Si Si3 0.355886 0.288642 0.738169
Si Si4 0.657829 0.225719 0.817828
Si Si5 0.358380 0.507183 0.781559
Si Si6 0.682476 0.867199 0.192524
Si Si7 0.774970 0.138429 0.827726
Si Si8 0.694738 0.534490 0.691427
O O1 0.561608 0.170432 0.477154
O O2 0.760827 0.189522 0.025327
O O3 0.061904 0.248956 0.984420
O O4 0.041554 0.377405 0.040685
O O5 0.579324 0.733589 0.500658
O O6 0.366285 0.593732 0.806216
O O7 0.907605 0.806273 0.440270
O O8 0.460885 0.761162 0.912655
O O9 0.312326 0.217088 0.843244
O O10 0.604032 0.424911 0.636370
O O11 0.422213 0.152605 0.875060
O O12 0.744947 0.173930 0.746310
O O13 0.955957 0.352406 0.554540
O O14 0.500000 0.500000 0.500000
O O15 0.588865 0.561003 0.711044
O O16 0.000000 0.000000 0.000000
O O17 0.500000 0.000000 0.000000
O O18 0.500000 0.500000 0.000000
#
# Coordination Sequence:
#
# PCOD9044243 Si02
#       8
#     2   2   2   2   2   2   2   2
#     4  10  23  46  71  97 134 178 221 278 337 396
#     4  11  24  42  75 104 134 170 224 285 339 400
#     4  10  24  45  69 100 134 179 217 274 343 397
#     4  12  27  43  69 106 131 176 226 282 335 395
#     4  11  18  42  72 104 133 170 220 275 344 406
#     4  12  30  47  63  95 140 183 230 269 328 410
#     4  11  25  45  73  97 133 178 228 281 332 391
#     4  11  23  42  69  98 142 173 219 273 336 408
#
# _framework density 20.902004000000002
#
# number of rings (size 3 to 8) (size 9 to 14) (size 15 to 20)
#    0.000    1.000    5.000    2.250    8.750    3.000 
#    0.000    0.000    0.000    0.000    0.000    0.000 
#    0.000    0.000    0.000    0.000    0.000    0.000 
#
# Total GULP energy -89513.871387 kJ/mol
# GULP energy per Si atom -5594.616962 kJ/mol
# Density = 2.085443 g / cm^3
# Si number density = 20.902004 Si / 1000 Ang^3
#
#
#
# Elastic Constant Matrix: (Units=GPa)
#
#
# Indices 1 2 3 4 5 6 
#
# 1 96.7705 27.9942 1.7645 -5.7526 -1.6144 10.4150
# 2 27.9942 70.3983 32.8224 -30.7412 -15.5671 15.9766
# 3 1.7645 32.8224 117.7381 -7.4085 -9.6668 11.6061
# 4 -5.7526 -30.7412 -7.4085 32.4367 4.6283 1.1597
# 5 -1.6144 -15.5671 -9.6668 4.6283 21.9425 -2.1155
# 6 10.4150 15.9766 11.6061 1.1597 -2.1155 31.2952
#
#
#
# Elastic Compliance Matrix: (Units=1/GPa)
#
#
# Indices 1 2 3 4 5 6 
#
# 1 0.012481 -0.008611 0.001654 -0.005065 -0.003434 -0.000415
# 2 -0.008611 0.045939 -0.006908 0.038360 0.019073 -0.018157
# 3 0.001654 -0.006908 0.010250 -0.003962 0.000510 -0.000644
# 4 -0.005065 0.038360 -0.003962 0.064645 0.009709 -0.018168
# 5 -0.003434 0.019073 0.000510 0.009709 0.056516 -0.005323
# 6 -0.000415 -0.018157 -0.000644 -0.018168 -0.005323 0.041914
#
#
# Mechanical properties :
#
#
# Convention : Reuss Voigt Hill
#
# Bulk Modulus (GPa) = 24.42582 45.56325 34.99453
# Shear Modulus (GPa) = 18.30681 31.95659 25.13170
#
# Velocity S-wave (km/s) = 2.96267 3.91433 3.47127
# Velocity P-wave (km/s) = 4.83885 6.50193 5.73104
#
# Compressibility (1/GPa) = 0.04094029
#
# Stress axis : x y z
#
# Youngs Moduli (GPa) = 80.12242 21.76797 97.55638
#
# Poissons Ratio (x) = 0.18744 -0.16133
# Poissons Ratio (y) = 0.68992 0.67392
# Poissons Ratio (z) = -0.13250 0.15037
#
# Static dielectric constant tensor:
#      x y z
#    x 1.749400 -0.018360 -0.016770 
#    y -0.018360 1.745910 0.010690 
#    z -0.016770 0.010690 1.725140 
# 
# From -- ./inp_files/283120.got.cif
#   From: 2010.05.17/outbox.cif.g08.bks.cpg/sg2_142_cif.got.tgz:283120.got - 2010.06.03 11:33:40.
