data_PCOD9044733
_publ_section_title
;
Structure prediction by ZEFSAII (Michael W. Deem and Ramdas Pophale) SiO2 
 PCOD9044733
Probable space group: P -1
;
_chemical_formula_sum "Si O2"
_cell_formula_units_Z 14
_cell_length_a 5.183499
_cell_length_b 15.648363
_cell_length_c 20.854056
_cell_angle_alpha 160.380210
_cell_angle_beta 87.751729
_cell_angle_gamma 94.062087
_cell_volume 564.641324
_symmetry_space_group_name_H-M "P -1"
_symmetry_group_IT_number 2
_symmetry_cell_setting 'triclinic'
loop_
_space_group_symop_operation_xyz
x,y,z
-x,-y,-z
loop_
_atom_site_type_symbol
_atom_site_label
_atom_site_fract_x
_atom_site_fract_y
_atom_site_fract_z
Si Si1 0.469930 0.123561 0.686409
Si Si2 0.630236 0.466076 0.776556
Si Si3 0.983274 0.732924 0.735913
Si Si4 0.000265 0.723737 0.273892
Si Si5 0.792681 0.803476 0.659421
Si Si6 0.342096 0.168273 0.073983
Si Si7 0.341960 0.074746 0.803689
O O1 0.458158 0.838050 0.450838
O O2 0.395008 0.106006 0.749304
O O3 0.755057 0.260970 0.765820
O O4 0.263078 0.291836 0.774093
O O5 0.927164 0.448496 0.787931
O O6 0.552914 0.593569 0.800974
O O7 0.557521 0.677921 0.979233
O O8 0.767911 0.795269 0.730966
O O9 0.875967 0.737572 0.811339
O O10 0.113865 0.474657 0.547767
O O11 0.198459 0.965358 0.883954
O O12 0.000000 0.000000 0.500000
O O13 0.523218 0.855824 0.668096
O O14 0.036369 0.991286 0.761964
O O15 0.500000 0.000000 0.000000
#
# Coordination Sequence:
#
# PCOD9044733 Si02
#       7
#     2   2   2   2   2   2   2
#     4  11  25  46  72 104 137 179 230 281 347 410
#     4  11  24  44  72  98 142 181 225 292 338 406
#     4  10  24  41  66  91 142 181 230 286 335 400
#     4  10  23  47  72 104 136 181 227 281 350 409
#     4  11  25  44  65  98 139 186 226 283 338 405
#     4  11  23  43  65 106 132 181 235 278 342 410
#     4  12  26  44  70 106 135 179 236 273 349 410
#
# _framework density 24.794502000000001
#
# number of rings (size 3 to 8) (size 9 to 14) (size 15 to 20)
#    0.000    1.143    1.429    4.286    4.000    6.857 
#   10.286    0.000    0.000    0.000    0.000    0.000 
#    0.000    0.000    0.000    0.000    0.000    0.000 
#
# Total GULP energy -78097.022730 kJ/mol
# GULP energy per Si atom -5578.358766 kJ/mol
# Density = 2.473807 g / cm^3
# Si number density = 24.794502 Si / 1000 Ang^3
#
#
#
# Elastic Constant Matrix: (Units=GPa)
#
#
# Indices 1 2 3 4 5 6 
#
# 1 81.6908 13.5323 13.8158 5.8193 -17.5182 2.1038
# 2 13.5323 109.6464 35.6635 8.1650 -14.5884 -4.7715
# 3 13.8158 35.6635 54.1296 7.6448 -2.1497 6.9462
# 4 5.8193 8.1650 7.6448 41.4131 -5.6688 -14.4183
# 5 -17.5182 -14.5884 -2.1497 -5.6688 23.8745 11.8738
# 6 2.1038 -4.7715 6.9462 -14.4183 11.8738 48.3533
#
#
#
# Elastic Compliance Matrix: (Units=1/GPa)
#
#
# Indices 1 2 3 4 5 6 
#
# 1 0.015715 0.000868 -0.003398 -0.001233 0.013327 -0.003751
# 2 0.000868 0.012758 -0.008444 0.000165 0.007377 0.000672
# 3 -0.003398 -0.008444 0.026071 -0.004932 -0.004034 -0.004911
# 4 -0.001233 0.000165 -0.004932 0.028479 0.001029 0.009018
# 5 0.013327 0.007377 -0.004034 0.001029 0.063266 -0.014501
# 6 -0.003751 0.000672 -0.004911 0.009018 -0.014501 0.027866
#
#
# Mechanical properties :
#
#
# Convention : Reuss Voigt Hill
#
# Bulk Modulus (GPa) = 30.67857 41.27667 35.97762
# Shear Modulus (GPa) = 24.15841 34.89186 29.52514
#
# Velocity S-wave (km/s) = 3.12484 3.75539 3.45453
# Velocity P-wave (km/s) = 5.04177 5.95715 5.51847
#
# Compressibility (1/GPa) = 0.03259605
#
# Stress axis : x y z
#
# Youngs Moduli (GPa) = 63.63482 78.38222 38.35655
#
# Poissons Ratio (x) = -0.06800 0.13033
# Poissons Ratio (y) = -0.05520 0.32387
# Poissons Ratio (z) = 0.21621 0.66183
#
# Static dielectric constant tensor:
#      x y z
#    x 2.007010 0.013470 0.051240 
#    y 0.013470 2.080250 -0.016320 
#    z 0.051240 -0.016320 2.021430 
# 
# From -- ./inp_files/131644.got.cif
#   From: 2010.05.17/outbox.cif.g08.bks.cpg/sg2_66_cif.got.tgz:131644.got - 2010.06.03 11:33:40.
