data_PCOD9044528
_publ_section_title
;
Structure prediction by ZEFSAII (Michael W. Deem and Ramdas Pophale) SiO2 
 PCOD9044528
Probable space group: P -1
;
_chemical_formula_sum "Si O2"
_cell_formula_units_Z 16
_cell_length_a 18.577715
_cell_length_b 27.810490
_cell_length_c 15.328995
_cell_angle_alpha 18.596901
_cell_angle_beta 19.173349
_cell_angle_gamma 20.308092
_cell_volume 757.693042
_symmetry_space_group_name_H-M "P -1"
_symmetry_group_IT_number 2
_symmetry_cell_setting 'triclinic'
loop_
_space_group_symop_operation_xyz
x,y,z
-x,-y,-z
loop_
_atom_site_type_symbol
_atom_site_label
_atom_site_fract_x
_atom_site_fract_y
_atom_site_fract_z
Si Si1 0.448684 0.775105 0.478654
Si Si2 0.488039 0.942452 0.515034
Si Si3 0.096523 0.139796 0.498007
Si Si4 0.881653 0.504569 0.534887
Si Si5 0.832855 0.853008 0.791501
Si Si6 0.250664 0.616107 0.834523
Si Si7 0.734957 0.322603 0.743977
Si Si8 0.971345 0.201638 0.859115
O O1 0.634568 0.662363 0.531527
O O2 0.310815 0.685899 0.735487
O O3 0.266513 0.949556 0.424381
O O4 0.627049 0.808116 0.148346
O O5 0.756112 0.856943 0.322305
O O6 0.500000 0.000000 0.500000
O O7 0.327997 0.087439 0.385074
O O8 0.372233 0.811650 0.881765
O O9 0.129958 0.197982 0.264307
O O10 0.878967 0.269045 0.581134
O O11 0.066627 0.966870 0.815502
O O12 0.831378 0.345394 0.840404
O O13 0.000000 0.500000 0.500000
O O14 0.081855 0.519475 0.214622
O O15 0.082630 0.763364 0.711277
O O16 0.508089 0.496959 0.705662
O O17 0.913329 0.292048 0.675197
#
# Coordination Sequence:
#
# PCOD9044528 Si02
#       8
#     2   2   2   2   2   2   2   2
#     4  10  23  47  64  82 126 164 204 263 307 364
#     4  11  19  37  60  89 129 165 191 244 312 366
#     4  11  24  37  63  98 123 162 211 248 296 380
#     4  11  25  38  64 103 122 155 208 255 314 367
#     4  10  25  44  62  88 117 166 219 249 302 361
#     4  11  23  42  66  84 126 168 202 254 313 358
#     4  11  21  38  62  94 126 163 202 246 317 366
#     4  11  21  38  60  92 134 159 193 253 315 368
#
# _framework density 21.116731000000001
#
# number of rings (size 3 to 8) (size 9 to 14) (size 15 to 20)
#    0.000    1.250    5.000    1.125    3.500    2.000 
#    0.000    0.625    0.000    0.000    0.000    0.000 
#    0.000    0.000    0.000    0.000    0.000    0.000 
#
# Total GULP energy -89378.643570 kJ/mol
# GULP energy per Si atom -5586.165223 kJ/mol
# Density = 2.106867 g / cm^3
# Si number density = 21.116731 Si / 1000 Ang^3
#
#
#
# Elastic Constant Matrix: (Units=GPa)
#
#
# Indices 1 2 3 4 5 6 
#
# 1 136.2794 55.1597 13.9475 6.9611 1.4516 -7.3761
# 2 55.1597 146.7728 19.6276 11.3272 10.1609 -11.9145
# 3 13.9475 19.6276 32.7598 9.7962 -9.4659 1.4083
# 4 6.9611 11.3272 9.7962 24.7722 7.5801 -6.5334
# 5 1.4516 10.1609 -9.4659 7.5801 31.1380 2.4441
# 6 -7.3761 -11.9145 1.4083 -6.5334 2.4441 38.2767
#
#
#
# Elastic Compliance Matrix: (Units=1/GPa)
#
#
# Indices 1 2 3 4 5 6 
#
# 1 0.008790 -0.002951 -0.002025 -0.000062 -0.000114 0.000846
# 2 -0.002951 0.009320 -0.006600 0.001739 -0.005587 0.003229
# 3 -0.002025 -0.006600 0.051234 -0.027200 0.025276 -0.010586
# 4 -0.000062 0.001739 -0.027200 0.061555 -0.024888 0.013626
# 5 -0.000114 -0.005587 0.025276 -0.024888 0.048473 -0.010034
# 6 0.000846 0.003229 -0.010586 0.013626 -0.010034 0.030650
#
#
# Mechanical properties :
#
#
# Convention : Reuss Voigt Hill
#
# Bulk Modulus (GPa) = 21.64955 54.80906 38.22931
# Shear Modulus (GPa) = 20.11491 33.97584 27.04538
#
# Velocity S-wave (km/s) = 3.08970 4.01553 3.58265
# Velocity P-wave (km/s) = 4.79614 6.89282 5.93775
#
# Compressibility (1/GPa) = 0.04619033
#
# Stress axis : x y z
#
# Youngs Moduli (GPa) = 113.76825 107.29962 19.51834
#
# Poissons Ratio (x) = 0.31667 0.03952
# Poissons Ratio (y) = 0.33576 0.12883
# Poissons Ratio (z) = 0.23036 0.70823
#
# Static dielectric constant tensor:
#      x y z
#    x 1.790970 0.031930 -0.009550 
#    y 0.031930 1.806650 -0.018150 
#    z -0.009550 -0.018150 1.822020 
# 
# From -- ./inp_files/66357.got.cif
#   From: 2010.05.17/outbox.cif.g08.bks.cpg/sg2_34_cif.got.tgz:66357.got - 2010.06.03 11:33:40.
