data_PCOD9044559
_publ_section_title
;
Structure prediction by ZEFSAII (Michael W. Deem and Ramdas Pophale) SiO2 
 PCOD9044559
Probable space group: P -1
;
_chemical_formula_sum "Si O2"
_cell_formula_units_Z 10
_cell_length_a 12.918851
_cell_length_b 8.912166
_cell_length_c 13.090453
_cell_angle_alpha 52.064430
_cell_angle_beta 156.352111
_cell_angle_gamma 136.959344
_cell_volume 404.287362
_symmetry_space_group_name_H-M "P -1"
_symmetry_group_IT_number 2
_symmetry_cell_setting 'triclinic'
loop_
_space_group_symop_operation_xyz
x,y,z
-x,-y,-z
loop_
_atom_site_type_symbol
_atom_site_label
_atom_site_fract_x
_atom_site_fract_y
_atom_site_fract_z
Si Si1 0.682533 0.263382 0.541774
Si Si2 0.316858 0.264194 0.491813
Si Si3 0.464751 0.469672 0.827094
Si Si4 0.808759 0.339904 0.066821
Si Si5 0.976343 0.790063 0.300741
O O1 0.523336 0.403021 0.319618
O O2 0.838318 0.293613 0.559080
O O3 0.500000 0.000000 0.500000
O O4 0.929398 0.392956 0.799426
O O5 0.500000 0.500000 0.500000
O O6 0.565822 0.258265 0.790789
O O7 0.173123 0.056632 0.370648
O O8 0.019198 0.236075 0.291765
O O9 0.613515 0.321943 0.997931
O O10 0.137564 0.303518 0.650064
O O11 0.668406 0.672031 0.004902
#
# Coordination Sequence:
#
# PCOD9044559 Si02
#       5
#     2   2   2   2   2
#     4  11  23  43  73 100 139 181 233 281 337 408
#     4  12  26  45  68 104 141 178 227 283 349 404
#     4  10  23  47  67 102 135 184 233 276 341 408
#     4  11  25  45  68 100 138 181 227 280 343 410
#     4  10  25  41  71 100 139 183 226 287 334 409
#
# _framework density 24.734881000000001
#
# number of rings (size 3 to 8) (size 9 to 14) (size 15 to 20)
#    0.000    1.200    2.000    2.400    5.600    3.200 
#    0.000    0.000    0.000    0.000    0.000    0.000 
#    0.000    0.000    0.000    0.000    0.000    0.000 
#
# Total GULP energy -55793.849228 kJ/mol
# GULP energy per Si atom -5579.384923 kJ/mol
# Density = 2.467858 g / cm^3
# Si number density = 24.734881 Si / 1000 Ang^3
#
#
#
# Elastic Constant Matrix: (Units=GPa)
#
#
# Indices 1 2 3 4 5 6 
#
# 1 69.8871 12.9182 19.9466 -2.9750 6.9950 -11.9955
# 2 12.9182 71.8098 30.0686 11.5823 1.7107 -5.1172
# 3 19.9466 30.0686 134.6295 -7.1928 -2.4910 -6.0367
# 4 -2.9750 11.5823 -7.1928 34.6353 -8.7837 -1.9035
# 5 6.9950 1.7107 -2.4910 -8.7837 30.5002 3.0613
# 6 -11.9955 -5.1172 -6.0367 -1.9035 3.0613 43.1182
#
#
#
# Elastic Compliance Matrix: (Units=1/GPa)
#
#
# Indices 1 2 3 4 5 6 
#
# 1 0.016376 -0.001919 -0.001826 0.000902 -0.003979 0.004395
# 2 -0.001919 0.017293 -0.003999 -0.007520 -0.003107 0.000847
# 3 -0.001826 -0.003999 0.008841 0.003636 0.002387 0.000246
# 4 0.000902 -0.007520 0.003636 0.034919 0.010502 0.000663
# 5 -0.003979 -0.003107 0.002387 0.010502 0.037427 -0.003335
# 6 0.004395 0.000847 0.000246 0.000663 -0.003335 0.024816
#
#
# Mechanical properties :
#
#
# Convention : Reuss Voigt Hill
#
# Bulk Modulus (GPa) = 37.00793 44.68814 40.84803
# Shear Modulus (GPa) = 30.45693 35.87693 33.16693
#
# Velocity S-wave (km/s) = 3.51285 3.81262 3.66580
# Velocity P-wave (km/s) = 5.60783 6.12270 5.87091
#
# Compressibility (1/GPa) = 0.02702124
#
# Stress axis : x y z
#
# Youngs Moduli (GPa) = 61.06681 57.82807 113.10971
#
# Poissons Ratio (x) = 0.11096 0.20654
# Poissons Ratio (y) = 0.11717 0.45234
# Poissons Ratio (z) = 0.11151 0.23126
#
# Static dielectric constant tensor:
#      x y z
#    x 2.108920 0.004310 0.020580 
#    y 0.004310 1.932070 -0.058240 
#    z 0.020580 -0.058240 2.016540 
# 
# From -- ./inp_files/15308.got.cif
#   From: 2010.05.17/outbox.cif.g08.bks.cpg/sg2_8_cif.got.tgz:15308.got - 2010.06.03 11:33:40.
