data_PCOD9044011
_publ_section_title
;
Structure prediction by ZEFSAII (Michael W. Deem and Ramdas Pophale) SiO2 
 PCOD9044011
Probable space group: P -1
;
_chemical_formula_sum "Si O2"
_cell_formula_units_Z 15
_cell_length_a 11.676503
_cell_length_b 12.606527
_cell_length_c 9.426421
_cell_angle_alpha 36.573174
_cell_angle_beta 89.054531
_cell_angle_gamma 71.613110
_cell_volume 712.442058
_symmetry_space_group_name_H-M "P -1"
_symmetry_group_IT_number 2
_symmetry_cell_setting 'triclinic'
loop_
_space_group_symop_operation_xyz
x,y,z
-x,-y,-z
loop_
_atom_site_type_symbol
_atom_site_label
_atom_site_fract_x
_atom_site_fract_y
_atom_site_fract_z
Si Si1 0.128549 0.336789 0.084166
Si Si2 0.149695 0.927983 0.621535
Si Si3 0.506844 0.607520 0.657737
Si Si4 0.738301 0.235141 0.899231
Si Si5 0.096088 0.296642 0.802320
Si Si6 0.374001 0.979791 0.055019
Si Si7 0.000000 0.000000 0.000000
Si Si8 0.340287 0.479030 0.969101
O O1 0.081978 0.342509 0.918956
O O2 0.243991 0.392822 0.027367
O O3 0.000000 0.500000 0.000000
O O4 0.177361 0.109942 0.387322
O O5 0.247884 0.716838 0.765649
O O6 0.173191 0.881721 0.838175
O O7 0.000000 0.000000 0.500000
O O8 0.628320 0.463192 0.705258
O O9 0.409005 0.821267 0.354887
O O10 0.431702 0.484847 0.835924
O O11 0.567769 0.634379 0.774360
O O12 0.663990 0.118180 0.969952
O O13 0.847012 0.201386 0.816888
O O14 0.000000 0.500000 0.500000
O O15 0.248694 0.200381 0.857949
O O16 0.063859 0.119862 0.951659
O O17 0.500000 0.000000 0.000000
#
# Coordination Sequence:
#
# PCOD9044011 Si02
#       8
#     2   2   2   2   2   2   1   2
#     4  12  26  40  73 107 137 188 239 302 359 429
#     4  11  22  43  66 104 145 176 240 296 371 422
#     4  10  23  46  68  97 141 186 236 291 366 427
#     4  10  24  42  70  98 133 193 229 300 358 426
#     4  11  28  46  71 106 140 189 240 296 366 422
#     4  11  26  43  69 104 142 186 238 295 360 436
#     4  10  24  46  70  94 140 182 236 288 356 420
#     4  10  24  44  70  99 138 186 231 299 357 429
#
# _framework density 21.054345999999999
#
# number of rings (size 3 to 8) (size 9 to 14) (size 15 to 20)
#    0.000    1.333    1.333    2.000   11.200    4.267 
#    0.000    2.667    0.000    0.000    0.000    0.000 
#    0.000    0.000    0.000    0.000    0.000    0.000 
#
# Total GULP energy -83636.250362 kJ/mol
# GULP energy per Si atom -5575.750024 kJ/mol
# Density = 2.100642 g / cm^3
# Si number density = 21.054346 Si / 1000 Ang^3
#
#
#
# Elastic Constant Matrix: (Units=GPa)
#
#
# Indices 1 2 3 4 5 6 
#
# 1 142.9971 29.8544 16.9053 -1.8127 6.1991 4.9411
# 2 29.8544 72.2188 32.6987 -5.3389 6.0354 1.9661
# 3 16.9053 32.6987 110.2629 -7.1646 20.4438 4.4120
# 4 -1.8127 -5.3389 -7.1646 16.3279 1.1470 5.5034
# 5 6.1991 6.0354 20.4438 1.1470 34.2531 -8.6161
# 6 4.9411 1.9661 4.4120 5.5034 -8.6161 35.2527
#
#
#
# Elastic Compliance Matrix: (Units=1/GPa)
#
#
# Indices 1 2 3 4 5 6 
#
# 1 0.007726 -0.003037 0.000015 0.000384 -0.001204 -0.001270
# 2 -0.003037 0.017394 -0.004403 0.003631 -0.000160 -0.000599
# 3 0.000015 -0.004403 0.012383 0.005949 -0.007863 -0.004157
# 4 0.000384 0.003631 0.005949 0.070714 -0.010289 -0.014555
# 5 -0.001204 -0.000160 -0.007863 -0.010289 0.037478 0.011928
# 6 -0.001270 -0.000599 -0.004157 -0.014555 0.011928 0.034286
#
#
# Mechanical properties :
#
#
# Convention : Reuss Voigt Hill
#
# Bulk Modulus (GPa) = 44.14318 53.82171 48.98245
# Shear Modulus (GPa) = 24.70555 33.56809 29.13682
#
# Velocity S-wave (km/s) = 3.42924 3.99727 3.72410
# Velocity P-wave (km/s) = 6.05734 6.85003 6.46584
#
# Compressibility (1/GPa) = 0.02265355
#
# Stress axis : x y z
#
# Youngs Moduli (GPa) = 129.42595 57.49077 80.75348
#
# Poissons Ratio (x) = 0.17462 -0.00123
# Poissons Ratio (y) = 0.39310 0.35556
# Poissons Ratio (z) = -0.00197 0.25314
#
# Static dielectric constant tensor:
#      x y z
#    x 1.763880 -0.037530 0.002810 
#    y -0.037530 1.764880 0.019620 
#    z 0.002810 0.019620 1.730540 
# 
# From -- ./inp_files/255883.got.cif
#   From: 2010.05.17/outbox.cif.g08.bks.cpg/sg2_128_cif.got.tgz:255883.got - 2010.06.03 11:33:40.
