data_PCOD9044830
_publ_section_title
;
Structure prediction by ZEFSAII (Michael W. Deem and Ramdas Pophale) SiO2 
 PCOD9044830
Probable space group: P -1
;
_chemical_formula_sum "Si O2"
_cell_formula_units_Z 12
_cell_length_a 12.647901
_cell_length_b 5.350073
_cell_length_c 16.287957
_cell_angle_alpha 123.097134
_cell_angle_beta 143.009991
_cell_angle_gamma 79.093741
_cell_volume 484.298662
_symmetry_space_group_name_H-M "P -1"
_symmetry_group_IT_number 2
_symmetry_cell_setting 'triclinic'
loop_
_space_group_symop_operation_xyz
x,y,z
-x,-y,-z
loop_
_atom_site_type_symbol
_atom_site_label
_atom_site_fract_x
_atom_site_fract_y
_atom_site_fract_z
Si Si1 0.807366 0.624297 0.156933
Si Si2 0.126917 0.403543 0.498340
Si Si3 0.457845 0.797614 0.352192
Si Si4 0.823600 0.414110 0.623194
Si Si5 0.230508 0.144284 0.196018
Si Si6 0.581268 0.399011 0.142595
O O1 0.747424 0.594430 0.210356
O O2 0.939228 0.444817 0.186215
O O3 0.599527 0.516053 0.963137
O O4 0.965407 0.015200 0.307465
O O5 0.189152 0.585121 0.482292
O O6 0.323449 0.509162 0.693306
O O7 0.000000 0.500000 0.500000
O O8 0.365900 0.407884 0.255372
O O9 0.500000 0.000000 0.500000
O O10 0.676911 0.023236 0.488576
O O11 0.302476 0.871947 0.216029
O O12 0.751321 0.641473 0.670270
O O13 0.000000 0.000000 0.000000
O O14 0.500000 0.000000 0.000000
#
# Coordination Sequence:
#
# PCOD9044830 Si02
#       6
#     2   2   2   2   2   2
#     4  11  24  42  69  98 140 189 244 288 351 423
#     4  12  24  44  67 100 144 190 233 291 357 424
#     4  10  23  47  75 102 140 188 236 298 369 434
#     4  11  25  43  71 101 136 191 238 287 364 434
#     4  11  25  50  75 106 147 180 240 312 366 428
#     4  11  23  45  66  96 142 188 239 296 345 417
#
# _framework density 24.778100999999999
#
# number of rings (size 3 to 8) (size 9 to 14) (size 15 to 20)
#    0.000    1.000    3.333    3.000    7.000    0.000 
#    9.000    0.000    0.000    0.000    0.000    0.000 
#    0.000    0.000    0.000    0.000    0.000    0.000 
#
# Total GULP energy -67153.345548 kJ/mol
# GULP energy per Si atom -5596.112129 kJ/mol
# Density = 2.472170 g / cm^3
# Si number density = 24.778101 Si / 1000 Ang^3
#
#
#
# Elastic Constant Matrix: (Units=GPa)
#
#
# Indices 1 2 3 4 5 6 
#
# 1 145.4014 50.9092 40.6843 -12.8288 18.6985 26.2234
# 2 50.9092 92.5361 22.5759 -19.2613 6.1674 36.6358
# 3 40.6843 22.5759 98.3316 -31.4973 15.1741 19.9599
# 4 -12.8288 -19.2613 -31.4973 46.1571 -5.9624 6.9045
# 5 18.6985 6.1674 15.1741 -5.9624 45.0895 1.1777
# 6 26.2234 36.6358 19.9599 6.9045 1.1777 60.4264
#
#
#
# Elastic Compliance Matrix: (Units=1/GPa)
#
#
# Indices 1 2 3 4 5 6 
#
# 1 0.009543 -0.004659 -0.003001 -0.001653 -0.002527 -0.000087
# 2 -0.004659 0.019755 0.003511 0.011179 -0.000150 -0.012389
# 3 -0.003001 0.003511 0.016755 0.012843 -0.002973 -0.007770
# 4 -0.001653 0.011179 0.012843 0.036816 0.000082 -0.014511
# 5 -0.002527 -0.000150 -0.002973 0.000082 0.024214 0.001688
# 6 -0.000087 -0.012389 -0.007770 -0.014511 0.001688 0.028290
#
#
# Mechanical properties :
#
#
# Convention : Reuss Voigt Hill
#
# Bulk Modulus (GPa) = 26.48606 62.73419 44.61012
# Shear Modulus (GPa) = 31.99869 45.14126 38.56997
#
# Velocity S-wave (km/s) = 3.59752 4.27291 3.94968
# Velocity P-wave (km/s) = 5.28854 7.05103 6.23240
#
# Compressibility (1/GPa) = 0.03775572
#
# Stress axis : x y z
#
# Youngs Moduli (GPa) = 104.78553 50.61950 59.68376
#
# Poissons Ratio (x) = 0.23585 0.17908
# Poissons Ratio (y) = 0.48822 -0.20954
# Poissons Ratio (z) = 0.31441 -0.17772
#
# Static dielectric constant tensor:
#      x y z
#    x 2.077900 -0.062550 0.030350 
#    y -0.062550 2.085670 -0.015840 
#    z 0.030350 -0.015840 1.954870 
# 
# From -- ./inp_files/35701.got.cif
#   From: 2010.05.17/outbox.cif.g08.bks.cpg/sg2_18_cif.got.tgz:35701.got - 2010.06.03 11:33:40.
