data_PCOD9044980
_publ_section_title
;
Structure prediction by ZEFSAII (Michael W. Deem and Ramdas Pophale) SiO2 
 PCOD9044980
Probable space group: P -1
;
_chemical_formula_sum "Si O2"
_cell_formula_units_Z 16
_cell_length_a 13.368418
_cell_length_b 12.030265
_cell_length_c 11.723229
_cell_angle_alpha 85.115030
_cell_angle_beta 66.753932
_cell_angle_gamma 143.148890
_cell_volume 712.651537
_symmetry_space_group_name_H-M "P -1"
_symmetry_group_IT_number 2
_symmetry_cell_setting 'triclinic'
loop_
_space_group_symop_operation_xyz
x,y,z
-x,-y,-z
loop_
_atom_site_type_symbol
_atom_site_label
_atom_site_fract_x
_atom_site_fract_y
_atom_site_fract_z
Si Si1 0.119818 0.858309 0.632128
Si Si2 0.415251 0.158799 0.712618
Si Si3 0.741446 0.085368 0.821735
Si Si4 0.071759 0.194151 0.936651
Si Si5 0.221202 0.236630 0.216222
Si Si6 0.438677 0.259565 0.253680
Si Si7 0.183099 0.328711 0.635115
Si Si8 0.716622 0.310498 0.751026
O O1 0.911442 0.766667 0.726047
O O2 0.958303 0.603673 0.674219
O O3 0.258482 0.973316 0.684336
O O4 0.345358 0.106571 0.420227
O O5 0.578760 0.420665 0.576605
O O6 0.616698 0.265137 0.678413
O O7 0.201219 0.995435 0.917341
O O8 0.778400 0.237064 0.728233
O O9 0.014528 0.285874 0.721339
O O10 0.632726 0.889924 0.803147
O O11 0.532036 0.907305 0.032129
O O12 0.257111 0.425327 0.924222
O O13 0.255949 0.372790 0.727631
O O14 0.000000 0.000000 0.000000
O O15 0.290552 0.239946 0.304159
O O16 0.500000 0.500000 0.000000
O O17 0.008524 0.952172 0.284295
#
# Coordination Sequence:
#
# PCOD9044980 Si02
#       8
#     2   2   2   2   2   2   2   2
#     4  12  25  43  67 104 140 180 234 282 350 416
#     4  12  26  44  70 105 139 183 235 284 347 417
#     4  10  23  48  71 100 136 181 237 287 347 415
#     4  12  25  41  67 101 143 182 227 284 346 410
#     4  11  23  41  67  97 136 184 230 285 344 416
#     4  11  24  43  67  97 141 180 230 291 342 416
#     4  11  23  44  67 100 141 177 232 282 346 411
#     4  11  24  46  76  99 137 186 231 292 349 406
#
# _framework density 22.451366
#
# number of rings (size 3 to 8) (size 9 to 14) (size 15 to 20)
#    0.000    0.750    2.500    6.375    3.500    3.000 
#    2.250    3.125    0.000    0.000    0.000    0.000 
#    0.000    0.000    0.000    0.000    0.000    0.000 
#
# Total GULP energy -89377.367280 kJ/mol
# GULP energy per Si atom -5586.085455 kJ/mol
# Density = 2.240027 g / cm^3
# Si number density = 22.451366 Si / 1000 Ang^3
#
#
#
# Elastic Constant Matrix: (Units=GPa)
#
#
# Indices 1 2 3 4 5 6 
#
# 1 99.2187 54.9158 18.6857 -9.8186 21.4909 -9.1724
# 2 54.9158 97.3354 20.2265 -26.9727 18.2302 -0.8340
# 3 18.6857 20.2265 74.4606 -11.1950 12.2478 1.7427
# 4 -9.8186 -26.9727 -11.1950 39.9701 3.0570 6.5784
# 5 21.4909 18.2302 12.2478 3.0570 37.9829 4.7408
# 6 -9.1724 -0.8340 1.7427 6.5784 4.7408 26.4722
#
#
#
# Elastic Compliance Matrix: (Units=1/GPa)
#
#
# Indices 1 2 3 4 5 6 
#
# 1 0.016909 -0.009021 -0.001555 -0.003180 -0.005408 0.007436
# 2 -0.009021 0.019585 -0.000393 0.012004 -0.004554 -0.004650
# 3 -0.001555 -0.000393 0.015260 0.004242 -0.003956 -0.001902
# 4 -0.003180 0.012004 0.004242 0.035477 -0.007119 -0.008544
# 5 -0.005408 -0.004554 -0.003956 -0.007119 0.034185 -0.006110
# 6 0.007436 -0.004650 -0.001902 -0.008544 -0.006110 0.043548
#
#
# Mechanical properties :
#
#
# Convention : Reuss Voigt Hill
#
# Bulk Modulus (GPa) = 33.54158 50.96342 42.25250
# Shear Modulus (GPa) = 25.40126 32.69748 29.04937
#
# Velocity S-wave (km/s) = 3.36726 3.82038 3.60096
# Velocity P-wave (km/s) = 5.48544 6.49686 6.01245
#
# Compressibility (1/GPa) = 0.02981374
#
# Stress axis : x y z
#
# Youngs Moduli (GPa) = 59.14080 51.06020 65.53038
#
# Poissons Ratio (x) = 0.46063 0.10192
# Poissons Ratio (y) = 0.53352 0.02578
# Poissons Ratio (z) = 0.09198 0.02009
#
# Static dielectric constant tensor:
#      x y z
#    x 1.808730 0.069840 0.000010 
#    y 0.069840 1.864070 0.029460 
#    z 0.000010 0.029460 1.856190 
# 
# From -- ./inp_files/427991.got.cif
#   From: 2010.05.17/outbox.cif.g08.bks.cpg/sg2_214_cif.got.tgz:427991.got - 2010.06.03 11:33:40.
