data_PCOD9044937
_publ_section_title
;
Structure prediction by ZEFSAII (Michael W. Deem and Ramdas Pophale) SiO2 
 PCOD9044937
Probable space group: P -1
;
_chemical_formula_sum "Si O2"
_cell_formula_units_Z 15
_cell_length_a 5.940476
_cell_length_b 17.123458
_cell_length_c 8.465216
_cell_angle_alpha 130.535278
_cell_angle_beta 73.883165
_cell_angle_gamma 94.933092
_cell_volume 623.436425
_symmetry_space_group_name_H-M "P -1"
_symmetry_group_IT_number 2
_symmetry_cell_setting 'triclinic'
loop_
_space_group_symop_operation_xyz
x,y,z
-x,-y,-z
loop_
_atom_site_type_symbol
_atom_site_label
_atom_site_fract_x
_atom_site_fract_y
_atom_site_fract_z
Si Si1 0.456342 0.332610 0.829763
Si Si2 0.233388 0.536871 0.265727
Si Si3 0.691576 0.001107 0.250733
Si Si4 0.500000 0.500000 0.500000
Si Si5 0.537695 0.814929 0.652508
Si Si6 0.207070 0.322932 0.331501
Si Si7 0.326352 0.856511 0.268990
Si Si8 0.926893 0.177006 0.047511
O O1 0.659055 0.393085 0.793434
O O2 0.388141 0.257328 0.606568
O O3 0.565908 0.256649 0.844343
O O4 0.252249 0.421483 0.040331
O O5 0.395422 0.531910 0.383801
O O6 0.973722 0.586854 0.432742
O O7 0.524669 0.068713 0.246742
O O8 0.767123 0.080505 0.473085
O O9 0.531713 0.920766 0.252893
O O10 0.923070 0.928084 0.057103
O O11 0.427997 0.382162 0.332914
O O12 0.727102 0.775212 0.695594
O O13 0.291664 0.795060 0.755224
O O14 0.074764 0.274040 0.150720
O O15 0.151975 0.847224 0.145693
#
# Coordination Sequence:
#
# PCOD9044937 Si02
#       8
#     2   2   2   1   2   2   2   2
#     4  10  23  48  69 102 147 184 239 292 353 426
#     4  11  25  46  74 103 138 191 236 297 359 422
#     4  10  24  46  74 106 144 188 236 296 368 407
#     4  12  26  50  70 104 146 174 248 298 346 434
#     4  11  24  47  70 104 148 181 244 301 341 440
#     4  12  26  46  73 107 141 189 236 298 365 415
#     4  10  24  47  70 107 148 182 235 304 347 439
#     4  12  24  43  75 104 138 196 239 291 362 423
#
# _framework density 24.060192000000001
#
# number of rings (size 3 to 8) (size 9 to 14) (size 15 to 20)
#    0.000    1.067    2.667    2.000    5.600    3.733 
#    7.200    0.000    0.000    0.000    0.000    0.000 
#    0.000    0.000    0.000    0.000    0.000    0.000 
#
# Total GULP energy -83690.526769 kJ/mol
# GULP energy per Si atom -5579.368451 kJ/mol
# Density = 2.400543 g / cm^3
# Si number density = 24.060192 Si / 1000 Ang^3
#
#
#
# Elastic Constant Matrix: (Units=GPa)
#
#
# Indices 1 2 3 4 5 6 
#
# 1 43.0760 24.8996 53.3435 3.3909 10.0637 -28.4020
# 2 24.8996 172.7166 26.6511 14.9237 3.6484 -29.1115
# 3 53.3435 26.6511 141.3170 11.8375 0.0297 -28.7251
# 4 3.3909 14.9237 11.8375 14.0104 -18.3297 -16.5367
# 5 10.0637 3.6484 0.0297 -18.3297 32.0794 -2.6352
# 6 -28.4020 -29.1115 -28.7251 -16.5367 -2.6352 9.7745
#
#
#
# Elastic Compliance Matrix: (Units=1/GPa)
#
#
# Indices 1 2 3 4 5 6 
#
# 1 0.079345 0.002848 -0.020736 -0.086262 -0.073470 0.012349
# 2 0.002848 0.007756 -0.000203 -0.013221 -0.008834 0.006029
# 3 -0.020736 -0.000203 0.014244 0.009631 0.012063 0.000550
# 4 -0.086262 -0.013221 0.009631 0.091342 0.073571 -0.087357
# 5 -0.073470 -0.008834 0.012063 0.073571 0.092745 -0.054871
# 6 0.012349 0.006029 0.000550 -0.087357 -0.054871 -0.004824
#
#
# Mechanical properties :
#
#
# Convention : Reuss Voigt Hill
#
# Bulk Modulus (GPa) = 15.34625 62.98866 39.16746
# Shear Modulus (GPa) = 14.77060 27.98722 21.37891
#
# Velocity S-wave (km/s) = 2.48039 3.41430 2.98411
# Velocity P-wave (km/s) = 3.82037 6.46372 5.30919
#
# Compressibility (1/GPa) = 0.06516249
#
# Stress axis : x y z
#
# Youngs Moduli (GPa) = 12.60325 128.93684 70.20288
#
# Poissons Ratio (x) = -0.36721 1.45574
# Poissons Ratio (y) = -0.03589 0.01424
# Poissons Ratio (z) = 0.26134 0.02616
#
# Static dielectric constant tensor:
#      x y z
#    x 1.919770 0.027730 -0.039050 
#    y 0.027730 1.885980 -0.006540 
#    z -0.039050 -0.006540 1.928170 
# 
# From -- ./inp_files/138180.got.cif
#   From: 2010.05.17/outbox.cif.g08.bks.cpg/sg2_70_cif.got.tgz:138180.got - 2010.06.03 11:33:40.
