data_PCOD9044858
_publ_section_title
;
Structure prediction by ZEFSAII (Michael W. Deem and Ramdas Pophale) SiO2 
 PCOD9044858
Probable space group: P -1
;
_chemical_formula_sum "Si O2"
_cell_formula_units_Z 14
_cell_length_a 14.514395
_cell_length_b 14.102966
_cell_length_c 5.253730
_cell_angle_alpha 77.632684
_cell_angle_beta 73.389379
_cell_angle_gamma 32.264545
_cell_volume 549.334070
_symmetry_space_group_name_H-M "P -1"
_symmetry_group_IT_number 2
_symmetry_cell_setting 'triclinic'
loop_
_space_group_symop_operation_xyz
x,y,z
-x,-y,-z
loop_
_atom_site_type_symbol
_atom_site_label
_atom_site_fract_x
_atom_site_fract_y
_atom_site_fract_z
Si Si1 0.727419 0.960923 0.488505
Si Si2 0.589924 0.818173 0.062624
Si Si3 0.536111 0.289542 0.174414
Si Si4 0.793836 0.680903 0.486786
Si Si5 0.381583 0.500925 0.658267
Si Si6 0.838366 0.140179 0.863298
Si Si7 0.979419 0.177318 0.391881
O O1 0.738153 0.841767 0.450860
O O2 0.913758 0.830804 0.542974
O O3 0.577948 0.096120 0.744585
O O4 0.662836 0.090077 0.247429
O O5 0.736099 0.695214 0.243327
O O6 0.681240 0.721137 0.773977
O O7 0.500000 0.000000 0.000000
O O8 0.405728 0.412979 0.440117
O O9 0.457783 0.378154 0.910257
O O10 0.670659 0.266532 0.091888
O O11 0.000000 0.500000 0.500000
O O12 0.500000 0.500000 0.500000
O O13 0.169735 0.678614 0.782292
O O14 0.852266 0.226624 0.653584
O O15 0.872212 0.024256 0.703930
O O16 0.000000 0.000000 0.000000
#
# Coordination Sequence:
#
# PCOD9044858 Si02
#       7
#     2   2   2   2   2   2   2
#     4  11  25  47  71 108 143 191 248 294 355 447
#     4  10  23  47  76 105 145 189 229 287 374 449
#     4  12  26  43  69  98 141 192 241 300 355 415
#     4  11  25  49  81 109 144 187 229 299 377 442
#     4  12  26  44  67  99 141 193 246 300 358 405
#     4  11  22  42  67  96 140 197 244 291 367 417
#     4  11  25  42  68 101 143 191 250 303 348 420
#
# _framework density 25.485403999999999
#
# number of rings (size 3 to 8) (size 9 to 14) (size 15 to 20)
#    0.000    0.857    2.857    4.286    2.000    8.000 
#    0.000    4.286    0.000    0.000    0.000    0.000 
#    0.000    0.000    0.000    0.000    0.000    0.000 
#
# Total GULP energy -78256.846944 kJ/mol
# GULP energy per Si atom -5589.774782 kJ/mol
# Density = 2.542740 g / cm^3
# Si number density = 25.485404 Si / 1000 Ang^3
#
#
#
# Elastic Constant Matrix: (Units=GPa)
#
#
# Indices 1 2 3 4 5 6 
#
# 1 90.1989 21.0824 23.7051 -10.0592 1.0950 -14.5356
# 2 21.0824 116.9900 39.6830 -15.2471 0.9524 -22.9586
# 3 23.7051 39.6830 142.8102 -14.1778 3.3085 1.0033
# 4 -10.0592 -15.2471 -14.1778 46.5601 -5.0172 4.8310
# 5 1.0950 0.9524 3.3085 -5.0172 45.8815 -1.3800
# 6 -14.5356 -22.9586 1.0033 4.8310 -1.3800 48.2130
#
#
#
# Elastic Compliance Matrix: (Units=1/GPa)
#
#
# Indices 1 2 3 4 5 6 
#
# 1 0.012421 -0.000822 -0.001703 0.001572 0.000113 0.003235
# 2 -0.000822 0.010816 -0.002704 0.002086 0.000361 0.004760
# 3 -0.001703 -0.002704 0.008202 0.001421 -0.000403 -0.002125
# 4 0.001572 0.002086 0.001421 0.023271 0.002337 -0.000827
# 5 0.000113 0.000361 -0.000403 0.002337 0.022088 0.000613
# 6 0.003235 0.004760 -0.002125 -0.000827 0.000613 0.024128
#
#
# Mechanical properties :
#
#
# Convention : Reuss Voigt Hill
#
# Bulk Modulus (GPa) = 47.65949 57.66002 52.65975
# Shear Modulus (GPa) = 42.23792 45.83282 44.03537
#
# Velocity S-wave (km/s) = 4.07546 4.24535 4.16127
# Velocity P-wave (km/s) = 6.39430 6.83407 6.61784
#
# Compressibility (1/GPa) = 0.02098218
#
# Stress axis : x y z
#
# Youngs Moduli (GPa) = 80.50569 92.45472 121.92756
#
# Poissons Ratio (x) = 0.07601 0.20760
# Poissons Ratio (y) = 0.06619 0.32966
# Poissons Ratio (z) = 0.13707 0.24997
#
# Static dielectric constant tensor:
#      x y z
#    x 2.165390 -0.027250 0.089620 
#    y -0.027250 2.070980 -0.046430 
#    z 0.089620 -0.046430 2.057630 
# 
# From -- ./inp_files/97679.got.cif
#   From: 2010.05.17/outbox.cif.g08.bks.cpg/sg2_49_cif.got.tgz:97679.got - 2010.06.03 11:33:40.
