data_PCOD9044037
_publ_section_title
;
Structure prediction by ZEFSAII (Michael W. Deem and Ramdas Pophale) SiO2 
 PCOD9044037
Probable space group: P -1
;
_chemical_formula_sum "Si O2"
_cell_formula_units_Z 16
_cell_length_a 19.914238
_cell_length_b 12.022576
_cell_length_c 9.039537
_cell_angle_alpha 74.699399
_cell_angle_beta 143.670234
_cell_angle_gamma 132.312468
_cell_volume 732.009729
_symmetry_space_group_name_H-M "P -1"
_symmetry_group_IT_number 2
_symmetry_cell_setting 'triclinic'
loop_
_space_group_symop_operation_xyz
x,y,z
-x,-y,-z
loop_
_atom_site_type_symbol
_atom_site_label
_atom_site_fract_x
_atom_site_fract_y
_atom_site_fract_z
Si Si1 0.783963 0.204436 0.812285
Si Si2 0.816973 0.891626 0.906501
Si Si3 0.161611 0.876774 0.344038
Si Si4 0.555187 0.212073 0.506167
Si Si5 0.250938 0.266946 0.588840
Si Si6 0.280885 0.416268 0.297124
Si Si7 0.980934 0.167851 0.343836
Si Si8 0.701883 0.943858 0.174859
O O1 0.749372 0.302260 0.780950
O O2 0.823369 0.219907 0.704216
O O3 0.581072 0.974436 0.565252
O O4 0.939442 0.255527 0.159620
O O5 0.764610 0.952187 0.681229
O O6 0.712192 0.686977 0.763305
O O7 0.829962 0.954886 0.072113
O O8 0.045265 0.058905 0.227706
O O9 0.276057 0.965828 0.668443
O O10 0.938949 0.721121 0.033913
O O11 0.596783 0.370605 0.592808
O O12 0.442545 0.128984 0.179394
O O13 0.337150 0.413935 0.560256
O O14 0.351751 0.230977 0.817502
O O15 0.183212 0.284048 0.606621
O O16 0.912158 0.114222 0.407942
#
# Coordination Sequence:
#
# PCOD9044037 Si02
#       8
#     2   2   2   2   2   2   2   2
#     4   9  19  42  52  71 102 155 175 207 252 334
#     4   8  15  30  52  79 103 137 165 211 255 315
#     4  10  17  33  63  72 102 137 188 207 253 308
#     4  10  24  34  55  75 113 135 178 212 272 302
#     4   9  16  29  54  80 110 129 172 212 260 311
#     4  11  17  33  55  87  99 139 175 222 248 314
#     4   8  17  30  57  78  98 141 182 207 245 314
#     4  11  18  32  52  85 105 143 164 214 271 318
#
# _framework density 21.857631000000001
#
# number of rings (size 3 to 8) (size 9 to 14) (size 15 to 20)
#    0.750    1.750    3.750    1.125    0.000    1.500 
#    0.000    5.625    2.750    6.750    0.000    0.000 
#    0.000    0.000    0.000    0.000    0.000    0.000 
#
# Total GULP energy -89217.752564 kJ/mol
# GULP energy per Si atom -5576.109535 kJ/mol
# Density = 2.180788 g / cm^3
# Si number density = 21.857631 Si / 1000 Ang^3
#
#
#
# Elastic Constant Matrix: (Units=GPa)
#
#
# Indices 1 2 3 4 5 6 
#
# 1 54.8851 -0.7358 0.9409 -5.0635 -8.8401 1.7541
# 2 -0.7358 48.1794 4.1946 6.8130 -2.0216 -3.0957
# 3 0.9409 4.1946 36.6574 0.7368 -5.7511 8.8611
# 4 -5.0635 6.8130 0.7368 21.6244 1.2844 -0.7157
# 5 -8.8401 -2.0216 -5.7511 1.2844 27.9302 -6.2581
# 6 1.7541 -3.0957 8.8611 -0.7157 -6.2581 16.8269
#
#
#
# Elastic Compliance Matrix: (Units=1/GPa)
#
#
# Indices 1 2 3 4 5 6 
#
# 1 0.019582 -0.000056 0.000322 0.004236 0.006118 0.000234
# 2 -0.000056 0.022607 -0.003667 -0.006947 0.002708 0.006808
# 3 0.000322 -0.003667 0.032158 -0.000580 0.002756 -0.016642
# 4 0.004236 -0.006947 -0.000580 0.049539 -0.001532 0.000123
# 5 0.006118 0.002708 0.002756 -0.001532 0.041676 0.013844
# 6 0.000234 0.006808 -0.016642 0.000123 0.013844 0.074574
#
#
# Mechanical properties :
#
#
# Convention : Reuss Voigt Hill
#
# Bulk Modulus (GPa) = 14.80479 16.50236 15.65358
# Shear Modulus (GPa) = 18.55602 22.29776 20.42689
#
# Velocity S-wave (km/s) = 2.91683 3.19742 3.06035
# Velocity P-wave (km/s) = 4.25815 4.60409 4.43450
#
# Compressibility (1/GPa) = 0.06754571
#
# Stress axis : x y z
#
# Youngs Moduli (GPa) = 51.06640 44.23314 31.09662
#
# Poissons Ratio (x) = 0.00249 -0.01001
# Poissons Ratio (y) = 0.00287 0.11402
# Poissons Ratio (z) = -0.01644 0.16218
#
# Static dielectric constant tensor:
#      x y z
#    x 1.858060 -0.000730 0.040690 
#    y -0.000730 1.814070 0.010260 
#    z 0.040690 0.010260 1.822210 
# 
# From -- ./inp_files/345300.got.cif
#   From: 2010.05.17/outbox.cif.g08.bks.cpg/sg2_173_cif.got.tgz:345300.got - 2010.06.03 11:33:40.
