data_PCOD9044646
_publ_section_title
;
Structure prediction by ZEFSAII (Michael W. Deem and Ramdas Pophale) SiO2 
 PCOD9044646
Probable space group: P -1
;
_chemical_formula_sum "Si O2"
_cell_formula_units_Z 10
_cell_length_a 16.426089
_cell_length_b 19.384087
_cell_length_c 6.847141
_cell_angle_alpha 139.191759
_cell_angle_beta 40.062646
_cell_angle_gamma 162.634628
_cell_volume 414.819663
_symmetry_space_group_name_H-M "P -1"
_symmetry_group_IT_number 2
_symmetry_cell_setting 'triclinic'
loop_
_space_group_symop_operation_xyz
x,y,z
-x,-y,-z
loop_
_atom_site_type_symbol
_atom_site_label
_atom_site_fract_x
_atom_site_fract_y
_atom_site_fract_z
Si Si1 0.673088 0.657851 0.214339
Si Si2 0.756177 0.490399 0.789152
Si Si3 0.719120 0.106245 0.084798
Si Si4 0.102082 0.697100 0.248195
Si Si5 0.310615 0.127419 0.111641
O O1 0.578579 0.690318 0.576938
O O2 0.500000 0.500000 0.000000
O O3 0.675680 0.552124 0.107990
O O4 0.005843 0.925855 0.149648
O O5 0.852721 0.561815 0.541195
O O6 0.503421 0.240814 0.816380
O O7 0.035522 0.656888 0.736304
O O8 0.835383 0.200483 0.852734
O O9 0.704689 0.979643 0.936047
O O10 0.409472 0.923077 0.265957
O O11 0.000000 0.500000 0.000000
#
# Coordination Sequence:
#
# PCOD9044646 Si02
#       5
#     2   2   2   2   2
#     4  10  24  44  70 103 137 182 230 278 349 414
#     4  11  24  44  69 100 138 178 226 286 342 400
#     4  10  24  44  68  96 143 175 230 274 345 410
#     4  11  25  43  68 102 135 184 226 280 341 413
#     4  10  23  47  70 102 140 179 225 293 337 408
#
# _framework density 24.106860000000001
#
# number of rings (size 3 to 8) (size 9 to 14) (size 15 to 20)
#    0.000    1.600    0.000    2.400    5.600   10.400 
#    0.000    0.000    0.000    0.000    0.000    0.000 
#    0.000    0.000    0.000    0.000    0.000    0.000 
#
# Total GULP energy -55847.789193 kJ/mol
# GULP energy per Si atom -5584.778919 kJ/mol
# Density = 2.405199 g / cm^3
# Si number density = 24.106860 Si / 1000 Ang^3
#
#
#
# Elastic Constant Matrix: (Units=GPa)
#
#
# Indices 1 2 3 4 5 6 
#
# 1 100.2014 61.2893 42.1349 -22.1302 10.8855 -10.7445
# 2 61.2893 121.3455 61.9554 -25.6524 23.4905 -4.4810
# 3 42.1349 61.9554 93.4864 -19.1171 3.4322 -15.2484
# 4 -22.1302 -25.6524 -19.1171 50.7573 -14.1442 16.9702
# 5 10.8855 23.4905 3.4322 -14.1442 38.4521 7.6091
# 6 -10.7445 -4.4810 -15.2484 16.9702 7.6091 43.6514
#
#
#
# Elastic Compliance Matrix: (Units=1/GPa)
#
#
# Indices 1 2 3 4 5 6 
#
# 1 0.015262 -0.006114 -0.002120 0.002328 0.000172 0.001453
# 2 -0.006114 0.017268 -0.008438 0.001609 -0.007063 -0.002074
# 3 -0.002120 -0.008438 0.017994 0.001483 0.003977 0.003628
# 4 0.002328 0.001609 0.001483 0.029326 0.011414 -0.012134
# 5 0.000172 -0.007063 0.003977 0.011414 0.036100 -0.010024
# 6 0.001453 -0.002074 0.003628 -0.012134 -0.010024 0.030785
#
#
# Mechanical properties :
#
#
# Convention : Reuss Voigt Hill
#
# Bulk Modulus (GPa) = 58.21033 71.75472 64.98253
# Shear Modulus (GPa) = 26.90976 36.54909 31.72942
#
# Velocity S-wave (km/s) = 3.34469 3.89797 3.63188
# Velocity P-wave (km/s) = 6.25421 7.07735 6.67847
#
# Compressibility (1/GPa) = 0.01717908
#
# Stress axis : x y z
#
# Youngs Moduli (GPa) = 65.52105 57.91073 55.57486
#
# Poissons Ratio (x) = 0.35404 0.11784
# Poissons Ratio (y) = 0.40057 0.46897
# Poissons Ratio (z) = 0.13893 0.48868
#
# Static dielectric constant tensor:
#      x y z
#    x 1.939430 -0.029770 0.057040 
#    y -0.029770 1.990290 -0.048670 
#    z 0.057040 -0.048670 2.129290 
# 
# From -- ./inp_files/1432.got.cif
#   From: 2010.05.17/outbox.cif.g08.bks.cpg/sg2_1_cif.got.tgz:1432.got - 2010.06.03 11:33:40.
