data_PCOD9044491
_publ_section_title
;
Structure prediction by ZEFSAII (Michael W. Deem and Ramdas Pophale) SiO2 
 PCOD9044491
Probable space group: P -1
;
_chemical_formula_sum "Si O2"
_cell_formula_units_Z 15
_cell_length_a 12.197756
_cell_length_b 15.652788
_cell_length_c 7.932063
_cell_angle_alpha 61.199131
_cell_angle_beta 53.207153
_cell_angle_gamma 27.385144
_cell_volume 552.674782
_symmetry_space_group_name_H-M "P -1"
_symmetry_group_IT_number 2
_symmetry_cell_setting 'triclinic'
loop_
_space_group_symop_operation_xyz
x,y,z
-x,-y,-z
loop_
_atom_site_type_symbol
_atom_site_label
_atom_site_fract_x
_atom_site_fract_y
_atom_site_fract_z
Si Si1 0.034026 0.788954 0.433761
Si Si2 0.259762 0.310539 0.543018
Si Si3 0.000000 0.000000 0.500000
Si Si4 0.069962 0.630716 0.019640
Si Si5 0.727078 0.816405 0.851639
Si Si6 0.520285 0.212480 0.078801
Si Si7 0.528692 0.635817 0.531466
Si Si8 0.909569 0.173928 0.035133
O O1 0.959391 0.920180 0.505999
O O2 0.296725 0.567454 0.447131
O O3 0.809576 0.841564 0.605549
O O4 0.070127 0.806956 0.194134
O O5 0.173290 0.261543 0.747214
O O6 0.488428 0.178914 0.321110
O O7 0.309601 0.363773 0.584559
O O8 0.000000 0.500000 0.500000
O O9 0.313626 0.781033 0.448112
O O10 0.096531 0.727797 0.934776
O O11 0.337936 0.417282 0.035206
O O12 0.982714 0.654805 0.890407
O O13 0.614511 0.783274 0.924395
O O14 0.500000 0.000000 0.000000
O O15 0.830691 0.039602 0.930996
O O16 0.347740 0.730483 0.776414
#
# Coordination Sequence:
#
# PCOD9044491 Si02
#       8
#     2   2   1   2   2   2   2   2
#     4  12  28  52  74 106 156 198 251 320 372 454
#     4  10  23  46  77 111 144 198 255 308 376 447
#     4  12  30  46  78 112 154 202 250 302 386 458
#     4  11  24  46  76 109 151 200 254 313 381 446
#     4  12  26  46  73 110 152 198 255 312 383 446
#     4  11  24  43  72 109 150 191 253 310 380 443
#     4  12  28  52  77 114 155 200 256 309 387 447
#     4  12  27  47  79 112 150 200 255 313 376 457
#
# _framework density 27.140733999999998
#
# number of rings (size 3 to 8) (size 9 to 14) (size 15 to 20)
#    0.000    0.533    1.333    6.800    3.733    5.333 
#    0.000    0.000    0.000    0.000    0.000    0.000 
#    0.000    0.000    0.000    0.000    0.000    0.000 
#
# Total GULP energy -84001.670121 kJ/mol
# GULP energy per Si atom -5600.111341 kJ/mol
# Density = 2.707896 g / cm^3
# Si number density = 27.140734 Si / 1000 Ang^3
#
#
#
# Elastic Constant Matrix: (Units=GPa)
#
#
# Indices 1 2 3 4 5 6 
#
# 1 100.0320 26.4675 12.1343 0.1695 -9.0383 -0.9715
# 2 26.4675 181.9255 19.7341 10.8946 -1.2492 -13.5488
# 3 12.1343 19.7341 99.1073 1.4985 -11.5507 -7.5500
# 4 0.1695 10.8946 1.4985 33.8270 -9.1457 8.8635
# 5 -9.0383 -1.2492 -11.5507 -9.1457 43.1016 0.1136
# 6 -0.9715 -13.5488 -7.5500 8.8635 0.1136 38.0967
#
#
#
# Elastic Compliance Matrix: (Units=1/GPa)
#
#
# Indices 1 2 3 4 5 6 
#
# 1 0.010710 -0.001590 -0.000809 0.001306 0.002262 -0.000763
# 2 -0.001590 0.006193 -0.000911 -0.002922 -0.001025 0.002664
# 3 -0.000809 -0.000911 0.010821 0.000089 0.002718 0.001771
# 4 0.001306 -0.002922 0.000089 0.034958 0.007655 -0.009144
# 5 0.002262 -0.001025 0.002718 0.007655 0.026003 -0.001627
# 6 -0.000763 0.002664 0.001771 -0.009144 -0.001627 0.029660
#
#
# Mechanical properties :
#
#
# Convention : Reuss Voigt Hill
#
# Bulk Modulus (GPa) = 47.38238 55.30408 51.34323
# Shear Modulus (GPa) = 37.87868 44.52031 41.19950
#
# Velocity S-wave (km/s) = 3.73988 4.05452 3.90037
# Velocity P-wave (km/s) = 6.01206 6.50691 6.26437
#
# Compressibility (1/GPa) = 0.02110489
#
# Stress axis : x y z
#
# Youngs Moduli (GPa) = 93.36728 161.46710 92.41424
#
# Poissons Ratio (x) = 0.25673 0.07476
# Poissons Ratio (y) = 0.14845 0.08417
# Poissons Ratio (z) = 0.07553 0.14707
#
# Static dielectric constant tensor:
#      x y z
#    x 2.133790 -0.056350 0.213650 
#    y -0.056350 2.084940 0.006960 
#    z 0.213650 0.006960 2.401340 
# 
# From -- ./inp_files/272091.got.cif
#   From: 2010.05.17/outbox.cif.g08.bks.cpg/sg2_137_cif.got.tgz:272091.got - 2010.06.03 11:33:40.
