data_PCOD9044503
_publ_section_title
;
Structure prediction by ZEFSAII (Michael W. Deem and Ramdas Pophale) SiO2 
 PCOD9044503
Probable space group: P -1
;
_chemical_formula_sum "Si O2"
_cell_formula_units_Z 15
_cell_length_a 8.896322
_cell_length_b 14.019602
_cell_length_c 8.777069
_cell_angle_alpha 113.104502
_cell_angle_beta 143.181578
_cell_angle_gamma 74.502824
_cell_volume 601.221109
_symmetry_space_group_name_H-M "P -1"
_symmetry_group_IT_number 2
_symmetry_cell_setting 'triclinic'
loop_
_space_group_symop_operation_xyz
x,y,z
-x,-y,-z
loop_
_atom_site_type_symbol
_atom_site_label
_atom_site_fract_x
_atom_site_fract_y
_atom_site_fract_z
Si Si1 0.303918 0.583972 0.426952
Si Si2 0.146896 0.043334 0.794984
Si Si3 0.728104 0.344217 0.881377
Si Si4 0.157993 0.444274 0.769650
Si Si5 0.158246 0.286947 0.406451
Si Si6 0.257851 0.867228 0.943418
Si Si7 0.000000 0.000000 0.000000
Si Si8 0.394699 0.261143 0.023669
O O1 0.500000 0.500000 0.500000
O O2 0.191582 0.612725 0.192263
O O3 0.427843 0.688912 0.668935
O O4 0.111024 0.536826 0.365758
O O5 0.323084 0.949077 0.914399
O O6 0.235154 0.161907 0.900853
O O7 0.000000 0.000000 0.500000
O O8 0.016923 0.037720 0.854436
O O9 0.450984 0.283033 0.602056
O O10 0.685799 0.445115 0.015795
O O11 0.960383 0.290896 0.109845
O O12 0.131832 0.388065 0.552011
O O13 0.253998 0.356002 0.903012
O O14 0.030862 0.186724 0.331806
O O15 0.439243 0.777524 0.006572
O O16 0.248136 0.934325 0.129020
#
# Coordination Sequence:
#
# PCOD9044503 Si02
#       8
#     2   2   2   2   2   2   1   2
#     4  12  27  48  72 110 157 205 264 323 388 477
#     4  10  23  46  78 112 153 205 264 333 409 478
#     4  12  28  44  76 110 159 205 267 328 394 470
#     4  12  26  48  72 107 154 206 267 328 385 483
#     4  12  26  47  75 110 153 209 263 326 407 468
#     4  10  23  49  70 109 149 201 265 330 396 482
#     4   8  24  44  72 104 158 188 264 338 386 480
#     4  12  25  46  82 105 156 216 264 326 413 477
#
# _framework density 24.949224000000001
#
# number of rings (size 3 to 8) (size 9 to 14) (size 15 to 20)
#    0.800    0.000    2.667    4.000    3.733    0.000 
#    0.000    0.667    0.000    0.000    0.000    0.000 
#    0.000    0.000    0.000    0.000    0.000    0.000 
#
# Total GULP energy -83563.808967 kJ/mol
# GULP energy per Si atom -5570.920598 kJ/mol
# Density = 2.489244 g / cm^3
# Si number density = 24.949224 Si / 1000 Ang^3
#
#
#
# Elastic Constant Matrix: (Units=GPa)
#
#
# Indices 1 2 3 4 5 6 
#
# 1 94.4913 15.1506 31.2852 -3.2540 0.6325 12.2360
# 2 15.1506 114.2045 31.8774 5.1970 8.6500 20.5034
# 3 31.2852 31.8774 102.0359 -1.7147 -0.3777 27.7032
# 4 -3.2540 5.1970 -1.7147 29.0571 14.6659 11.0381
# 5 0.6325 8.6500 -0.3777 14.6659 42.5573 -0.4718
# 6 12.2360 20.5034 27.7032 11.0381 -0.4718 46.3188
#
#
#
# Elastic Compliance Matrix: (Units=1/GPa)
#
#
# Indices 1 2 3 4 5 6 
#
# 1 0.011970 -0.000472 -0.003017 0.002381 -0.000948 -0.001725
# 2 -0.000472 0.010147 -0.002166 0.000332 -0.002224 -0.003173
# 3 -0.003017 -0.002166 0.013435 0.004033 -0.000866 -0.007250
# 4 0.002381 0.000332 0.004033 0.049293 -0.017222 -0.015111
# 5 -0.000948 -0.002224 -0.000866 -0.017222 0.029959 0.006162
# 6 -0.001725 -0.003173 -0.007250 -0.015111 0.006162 0.031450
#
#
# Mechanical properties :
#
#
# Convention : Reuss Voigt Hill
#
# Bulk Modulus (GPa) = 41.25589 51.92869 46.59229
# Shear Modulus (GPa) = 30.18507 39.08121 34.63314
#
# Velocity S-wave (km/s) = 3.48208 3.96211 3.72982
# Velocity P-wave (km/s) = 5.72174 6.46452 6.10444
#
# Compressibility (1/GPa) = 0.02423897
#
# Stress axis : x y z
#
# Youngs Moduli (GPa) = 83.54554 98.55578 74.43074
#
# Poissons Ratio (x) = 0.04656 0.22459
# Poissons Ratio (y) = 0.03947 0.16124
# Poissons Ratio (z) = 0.25210 0.21350
#
# Static dielectric constant tensor:
#      x y z
#    x 1.981660 -0.025380 0.031190 
#    y -0.025380 2.122580 -0.012750 
#    z 0.031190 -0.012750 2.035740 
# 
# From -- ./inp_files/208579.got.cif
#   From: 2010.05.17/outbox.cif.g08.bks.cpg/sg2_105_cif.got.tgz:208579.got - 2010.06.03 11:33:40.
