data_PCOD9044205
_publ_section_title
;
Structure prediction by ZEFSAII (Michael W. Deem and Ramdas Pophale) SiO2 
 PCOD9044205
Probable space group: P -1
;
_chemical_formula_sum "Si O2"
_cell_formula_units_Z 14
_cell_length_a 11.968862
_cell_length_b 8.909507
_cell_length_c 11.963117
_cell_angle_alpha 91.247054
_cell_angle_beta 130.914381
_cell_angle_gamma 50.689795
_cell_volume 552.111783
_symmetry_space_group_name_H-M "P -1"
_symmetry_group_IT_number 2
_symmetry_cell_setting 'triclinic'
loop_
_space_group_symop_operation_xyz
x,y,z
-x,-y,-z
loop_
_atom_site_type_symbol
_atom_site_label
_atom_site_fract_x
_atom_site_fract_y
_atom_site_fract_z
Si Si1 0.903041 0.876526 0.148463
Si Si2 0.231903 0.128406 0.324510
Si Si3 0.382423 0.441600 0.886443
Si Si4 0.726709 0.441044 0.415140
Si Si5 0.744623 0.678766 0.998134
Si Si6 0.296015 0.733078 0.281999
Si Si7 0.233208 0.251461 0.564596
O O1 0.884214 0.713522 0.132909
O O2 0.053693 0.796808 0.359179
O O3 0.047404 0.836292 0.139433
O O4 0.610667 0.168819 0.965864
O O5 0.154814 0.216697 0.406038
O O6 0.993225 0.392525 0.099176
O O7 0.500000 0.000000 0.500000
O O8 0.251222 0.940341 0.297235
O O9 0.190953 0.638036 0.660938
O O10 0.337271 0.370527 0.960330
O O11 0.500000 0.500000 0.000000
O O12 0.456364 0.585761 0.270109
O O13 0.681453 0.654246 0.419324
O O14 0.479340 0.958836 0.773142
O O15 0.500000 0.500000 0.500000
O O16 0.000000 0.500000 0.500000
#
# Coordination Sequence:
#
# PCOD9044205 Si02
#       7
#     2   2   2   2   2   2   2
#     4  11  23  43  71 100 140 189 236 302 364 436
#     4  12  24  46  74 110 149 190 252 306 361 446
#     4  12  27  44  67 105 140 185 247 304 359 442
#     4  11  23  44  71  98 142 193 236 298 374 421
#     4  12  26  45  75 108 145 192 252 299 371 443
#     4  10  23  46  71 103 149 194 240 304 371 437
#     4  12  25  44  77 110 147 199 247 304 374 440
#
# _framework density 25.357182000000002
#
# number of rings (size 3 to 8) (size 9 to 14) (size 15 to 20)
#    0.000    0.571    4.286    3.857    0.000    4.000 
#    0.000    0.000    0.000    0.000    0.000    0.000 
#    0.000    0.000    0.000    0.000    0.000    0.000 
#
# Total GULP energy -78154.281665 kJ/mol
# GULP energy per Si atom -5582.448690 kJ/mol
# Density = 2.529947 g / cm^3
# Si number density = 25.357182 Si / 1000 Ang^3
#
#
#
# Elastic Constant Matrix: (Units=GPa)
#
#
# Indices 1 2 3 4 5 6 
#
# 1 115.5765 3.0853 5.7860 0.8363 6.3195 17.5781
# 2 3.0853 94.6290 5.2880 0.9355 -3.8608 12.6294
# 3 5.7860 5.2880 139.0942 -23.7432 -12.3416 -3.6787
# 4 0.8363 0.9355 -23.7432 49.1965 -4.6103 1.0358
# 5 6.3195 -3.8608 -12.3416 -4.6103 39.1205 7.6006
# 6 17.5781 12.6294 -3.6787 1.0358 7.6006 28.5913
#
#
#
# Elastic Compliance Matrix: (Units=1/GPa)
#
#
# Indices 1 2 3 4 5 6 
#
# 1 0.009633 0.000515 -0.000710 -0.000445 -0.000604 -0.006064
# 2 0.000515 0.011459 -0.000455 -0.000128 0.002050 -0.005977
# 3 -0.000710 -0.000455 0.008254 0.004273 0.003034 0.000738
# 4 -0.000445 -0.000128 0.004273 0.022826 0.004310 -0.001092
# 5 -0.000604 0.002050 0.003034 0.004310 0.028877 -0.007977
# 6 -0.006064 -0.005977 0.000738 -0.001092 -0.007977 0.043599
#
#
# Mechanical properties :
#
#
# Convention : Reuss Voigt Hill
#
# Bulk Modulus (GPa) = 35.65722 41.95759 38.80741
# Shear Modulus (GPa) = 36.95567 45.72435 41.34001
#
# Velocity S-wave (km/s) = 3.82174 4.25103 4.04209
# Velocity P-wave (km/s) = 5.79368 6.37790 6.09280
#
# Compressibility (1/GPa) = 0.02804481
#
# Stress axis : x y z
#
# Youngs Moduli (GPa) = 103.81363 87.26871 121.14763
#
# Poissons Ratio (x) = -0.04492 0.08604
# Poissons Ratio (y) = -0.05344 0.05514
# Poissons Ratio (z) = 0.07373 0.03972
#
# Static dielectric constant tensor:
#      x y z
#    x 2.029270 -0.120920 0.010180 
#    y -0.120920 1.925800 -0.123000 
#    z 0.010180 -0.123000 2.140220 
# 
# From -- ./inp_files/514322.got.cif
#   From: 2010.05.17/outbox.cif.g08.bks.cpg/sg2_258_cif.got.tgz:514322.got - 2010.06.03 11:33:40.
