data_PCOD9044750
_publ_section_title
;
Structure prediction by ZEFSAII (Michael W. Deem and Ramdas Pophale) SiO2 
 PCOD9044750
Probable space group: P -1
;
_chemical_formula_sum "Si O2"
_cell_formula_units_Z 13
_cell_length_a 11.012514
_cell_length_b 7.916730
_cell_length_c 6.863347
_cell_angle_alpha 76.396966
_cell_angle_beta 118.249174
_cell_angle_gamma 99.857054
_cell_volume 511.060708
_symmetry_space_group_name_H-M "P -1"
_symmetry_group_IT_number 2
_symmetry_cell_setting 'triclinic'
loop_
_space_group_symop_operation_xyz
x,y,z
-x,-y,-z
loop_
_atom_site_type_symbol
_atom_site_label
_atom_site_fract_x
_atom_site_fract_y
_atom_site_fract_z
Si Si1 0.515447 0.886848 0.848713
Si Si2 0.500000 0.500000 0.500000
Si Si3 0.051953 0.757385 0.000596
Si Si4 0.069900 0.146203 0.744229
Si Si5 0.100538 0.627999 0.669066
Si Si6 0.343951 0.830503 0.372956
Si Si7 0.677470 0.607932 0.225657
O O1 0.382056 0.873162 0.612910
O O2 0.632100 0.990232 0.777949
O O3 0.562854 0.695967 0.985918
O O4 0.500000 0.000000 0.000000
O O5 0.454794 0.702315 0.411612
O O6 0.614061 0.545963 0.398330
O O7 0.051073 0.629286 0.853220
O O8 0.062015 0.946731 0.853532
O O9 0.193521 0.746746 0.230848
O O10 0.934097 0.757093 0.073563
O O11 0.203120 0.232400 0.710208
O O12 0.935331 0.189466 0.505058
O O13 0.248729 0.550026 0.779710
O O14 0.000000 0.500000 0.500000
#
# Coordination Sequence:
#
# PCOD9044750 Si02
#       7
#     2   1   2   2   2   2   2
#     4  11  24  50  71 105 149 198 244 309 369 446
#     4  12  26  46  70 112 146 196 250 304 366 448
#     4  11  23  46  77 110 148 191 251 304 370 458
#     4  10  23  47  72 110 145 198 243 309 375 436
#     4  10  24  45  72 112 148 195 242 305 378 441
#     4  11  26  44  74 110 143 194 251 300 378 447
#     4  11  24  47  72 107 154 195 246 308 377 433
#
# _framework density 25.437291999999999
#
# number of rings (size 3 to 8) (size 9 to 14) (size 15 to 20)
#    0.000    1.231    3.077    1.385    2.154    5.538 
#   16.615    0.000    0.000    0.000    0.000    0.000 
#    0.000    0.000    0.000    0.000    0.000    0.000 
#
# Total GULP energy -72531.992587 kJ/mol
# GULP energy per Si atom -5579.384045 kJ/mol
# Density = 2.537940 g / cm^3
# Si number density = 25.437292 Si / 1000 Ang^3
#
#
#
# Elastic Constant Matrix: (Units=GPa)
#
#
# Indices 1 2 3 4 5 6 
#
# 1 119.3004 23.7428 61.1436 2.1107 -30.8849 -2.9218
# 2 23.7428 88.2694 42.5938 -11.0764 -10.3947 -20.0628
# 3 61.1436 42.5938 154.5809 1.8242 -13.6540 -17.7496
# 4 2.1107 -11.0764 1.8242 61.4271 -1.8116 -7.2986
# 5 -30.8849 -10.3947 -13.6540 -1.8116 52.2446 -5.9287
# 6 -2.9218 -20.0628 -17.7496 -7.2986 -5.9287 45.9846
#
#
#
# Elastic Compliance Matrix: (Units=1/GPa)
#
#
# Indices 1 2 3 4 5 6 
#
# 1 0.012172 -0.000713 -0.004141 -0.000299 0.005914 -0.000421
# 2 -0.000713 0.015179 -0.002978 0.003684 0.002669 0.006357
# 3 -0.004141 -0.002978 0.009100 -0.000463 -0.000472 0.001815
# 4 -0.000299 0.003684 -0.000463 0.017535 0.001541 0.004391
# 5 0.005914 0.002669 -0.000472 0.001541 0.023625 0.004649
# 6 -0.000421 0.006357 0.001815 0.004391 0.004649 0.026490
#
#
# Mechanical properties :
#
#
# Convention : Reuss Voigt Hill
#
# Bulk Modulus (GPa) = 48.10604 68.56789 58.33697
# Shear Modulus (GPa) = 39.46493 47.57596 43.52045
#
# Velocity S-wave (km/s) = 3.94313 4.32942 4.14078
# Velocity P-wave (km/s) = 6.29950 7.21152 6.77088
#
# Compressibility (1/GPa) = 0.02078741
#
# Stress axis : x y z
#
# Youngs Moduli (GPa) = 82.15476 65.87899 109.89232
#
# Poissons Ratio (x) = 0.04697 0.45503
# Poissons Ratio (y) = 0.05857 0.32730
# Poissons Ratio (z) = 0.34018 0.19621
#
# Static dielectric constant tensor:
#      x y z
#    x 2.039240 -0.014020 0.044970 
#    y -0.014020 2.081560 -0.031620 
#    z 0.044970 -0.031620 2.031830 
# 
# From -- ./inp_files/59259.got.cif
#   From: 2010.05.17/outbox.cif.g08.bks.cpg/sg2_30_cif.got.tgz:59259.got - 2010.06.03 11:33:40.
