data_PCOD9044928
_publ_section_title
;
Structure prediction by ZEFSAII (Michael W. Deem and Ramdas Pophale) SiO2 
 PCOD9044928
Probable space group: P -1
;
_chemical_formula_sum "Si O2"
_cell_formula_units_Z 14
_cell_length_a 7.137083
_cell_length_b 12.414741
_cell_length_c 11.478051
_cell_angle_alpha 144.814917
_cell_angle_beta 83.003662
_cell_angle_gamma 110.430794
_cell_volume 523.381818
_symmetry_space_group_name_H-M "P -1"
_symmetry_group_IT_number 2
_symmetry_cell_setting 'triclinic'
loop_
_space_group_symop_operation_xyz
x,y,z
-x,-y,-z
loop_
_atom_site_type_symbol
_atom_site_label
_atom_site_fract_x
_atom_site_fract_y
_atom_site_fract_z
Si Si1 0.059471 0.974188 0.105797
Si Si2 0.472724 0.910514 0.769046
Si Si3 0.892186 0.199207 0.738007
Si Si4 0.659707 0.753224 0.301560
Si Si5 0.105814 0.767744 0.506137
Si Si6 0.409987 0.682308 0.024013
Si Si7 0.874559 0.375931 0.286823
O O1 0.305450 0.092913 0.225894
O O2 0.012034 0.734040 0.894544
O O3 0.930328 0.048050 0.267207
O O4 0.000000 0.000000 0.000000
O O5 0.515755 0.145003 0.930992
O O6 0.313502 0.774002 0.557815
O O7 0.669510 0.192961 0.196984
O O8 0.864268 0.217317 0.618878
O O9 0.820912 0.339333 0.945551
O O10 0.128908 0.235327 0.765212
O O11 0.738010 0.955080 0.555762
O O12 0.522399 0.765520 0.214858
O O13 0.569536 0.531950 0.178188
O O14 0.890298 0.564918 0.373746
O O15 0.000000 0.500000 0.500000
#
# Coordination Sequence:
#
# PCOD9044928 Si02
#       7
#     2   2   2   2   2   2   2
#     4  12  25  45  69  96 138 181 225 286 338 401
#     4  11  25  43  72 101 139 178 226 283 342 405
#     4  11  24  44  70 100 140 179 225 282 330 409
#     4  10  24  42  68  98 139 181 229 269 339 401
#     4  11  26  46  69 103 137 181 230 278 343 409
#     4  11  24  45  67 104 140 177 224 282 338 403
#     4  10  23  48  68 101 134 174 234 279 339 411
#
# _framework density 26.749112
#
# number of rings (size 3 to 8) (size 9 to 14) (size 15 to 20)
#    0.000    1.143    4.286    1.286    6.000    1.714 
#    0.000    1.429    0.000    0.000    0.000    0.000 
#    0.000    0.000    0.000    0.000    0.000    0.000 
#
# Total GULP energy -78328.240334 kJ/mol
# GULP energy per Si atom -5594.874310 kJ/mol
# Density = 2.668823 g / cm^3
# Si number density = 26.749112 Si / 1000 Ang^3
#
#
#
# Elastic Constant Matrix: (Units=GPa)
#
#
# Indices 1 2 3 4 5 6 
#
# 1 138.1981 40.2273 37.0062 -15.4309 13.5286 -10.2840
# 2 40.2273 205.5068 45.0900 -6.7651 12.1706 -3.7826
# 3 37.0062 45.0900 112.4849 4.1986 -11.7324 5.7655
# 4 -15.4309 -6.7651 4.1986 56.1508 -1.1275 11.8181
# 5 13.5286 12.1706 -11.7324 -1.1275 46.9935 -4.8563
# 6 -10.2840 -3.7826 5.7655 11.8181 -4.8563 42.4646
#
#
#
# Elastic Compliance Matrix: (Units=1/GPa)
#
#
# Indices 1 2 3 4 5 6 
#
# 1 0.008945 -0.000798 -0.003091 0.002205 -0.002925 0.001567
# 2 -0.000798 0.005633 -0.002210 0.000535 -0.001741 0.000261
# 3 -0.003091 -0.002210 0.011359 -0.001548 0.004097 -0.001588
# 4 0.002205 0.000535 -0.001548 0.019580 -0.001185 -0.004793
# 5 -0.002925 -0.001741 0.004097 -0.001185 0.023735 0.001624
# 6 0.001567 0.000261 -0.001588 -0.004793 0.001624 0.025687
#
#
# Mechanical properties :
#
#
# Convention : Reuss Voigt Hill
#
# Bulk Modulus (GPa) = 72.78479 77.87075 75.32777
# Shear Modulus (GPa) = 44.75611 51.37954 48.06782
#
# Velocity S-wave (km/s) = 4.09489 4.38744 4.24369
# Velocity P-wave (km/s) = 7.04463 7.40547 7.22730
#
# Compressibility (1/GPa) = 0.01373913
#
# Stress axis : x y z
#
# Youngs Moduli (GPa) = 111.79420 177.53432 88.03366
#
# Poissons Ratio (x) = 0.14171 0.27207
# Poissons Ratio (y) = 0.08924 0.19457
# Poissons Ratio (z) = 0.34550 0.39239
#
# Static dielectric constant tensor:
#      x y z
#    x 2.087750 0.004070 0.061700 
#    y 0.004070 2.152690 0.073340 
#    z 0.061700 0.073340 2.124040 
# 
# From -- ./inp_files/391675.got.cif
#   From: 2010.05.17/outbox.cif.g08.bks.cpg/sg2_196_cif.got.tgz:391675.got - 2010.06.03 11:33:40.
