data_PCOD9044924
_publ_section_title
;
Structure prediction by ZEFSAII (Michael W. Deem and Ramdas Pophale) SiO2 
 PCOD9044924
Probable space group: P -1
;
_chemical_formula_sum "Si O2"
_cell_formula_units_Z 14
_cell_length_a 11.678319
_cell_length_b 8.638878
_cell_length_c 11.022987
_cell_angle_alpha 42.974884
_cell_angle_beta 61.484457
_cell_angle_gamma 53.700686
_cell_volume 608.979359
_symmetry_space_group_name_H-M "P -1"
_symmetry_group_IT_number 2
_symmetry_cell_setting 'triclinic'
loop_
_space_group_symop_operation_xyz
x,y,z
-x,-y,-z
loop_
_atom_site_type_symbol
_atom_site_label
_atom_site_fract_x
_atom_site_fract_y
_atom_site_fract_z
Si Si1 0.753584 0.575976 0.118234
Si Si2 0.841546 0.691602 0.431392
Si Si3 0.693861 0.254918 0.130678
Si Si4 0.374047 0.490754 0.232849
Si Si5 0.085967 0.668621 0.600109
Si Si6 0.461876 0.715269 0.295672
Si Si7 0.169247 0.097853 0.259534
O O1 0.723838 0.456908 0.079837
O O2 0.838730 0.358701 0.292554
O O3 0.604231 0.738223 0.165446
O O4 0.843685 0.732047 0.947213
O O5 0.726315 0.644019 0.598908
O O6 0.835480 0.588855 0.358808
O O7 0.000000 0.500000 0.500000
O O8 0.802526 0.981888 0.272561
O O9 0.530852 0.299774 0.219446
O O10 0.694941 0.320102 0.951458
O O11 0.399559 0.631434 0.256921
O O12 0.921239 0.746160 0.670819
O O13 0.110718 0.884703 0.393053
O O14 0.500000 0.500000 0.500000
O O15 0.338334 0.958872 0.273204
#
# Coordination Sequence:
#
# PCOD9044924 Si02
#       7
#     2   2   2   2   2   2   2
#     4  11  24  44  72 101 127 178 227 276 338 393
#     4  12  27  44  70  99 139 183 223 278 341 402
#     4  10  26  45  71  99 137 177 227 280 337 405
#     4  10  23  48  67 100 136 179 226 278 342 395
#     4  11  26  44  67 100 134 179 222 275 335 397
#     4  11  21  43  71 104 132 171 227 284 334 397
#     4  11  24  43  68  96 142 169 224 277 336 397
#
# _framework density 22.989284999999999
#
# number of rings (size 3 to 8) (size 9 to 14) (size 15 to 20)
#    0.000    1.143    2.857    1.286    8.000    0.571 
#   10.286    0.000    0.000    0.000    0.000    0.000 
#    0.000    0.000    0.000    0.000    0.000    0.000 
#
# Total GULP energy -78306.724490 kJ/mol
# GULP energy per Si atom -5593.337464 kJ/mol
# Density = 2.293696 g / cm^3
# Si number density = 22.989285 Si / 1000 Ang^3
#
#
#
# Elastic Constant Matrix: (Units=GPa)
#
#
# Indices 1 2 3 4 5 6 
#
# 1 68.9076 16.3498 35.6862 9.1221 18.6595 -3.2950
# 2 16.3498 105.9979 53.0561 9.3781 -2.6335 -25.2476
# 3 35.6862 53.0561 121.9094 14.0786 1.6690 -15.1856
# 4 9.1221 9.3781 14.0786 36.7765 -6.8485 8.0612
# 5 18.6595 -2.6335 1.6690 -6.8485 36.7891 4.3283
# 6 -3.2950 -25.2476 -15.1856 8.0612 4.3283 31.7801
#
#
#
# Elastic Compliance Matrix: (Units=1/GPa)
#
#
# Indices 1 2 3 4 5 6 
#
# 1 0.021371 0.000295 -0.005061 -0.006435 -0.012178 0.003323
# 2 0.000295 0.014620 -0.004561 -0.004607 -0.001021 0.010774
# 3 -0.005061 -0.004561 0.012230 -0.002574 0.000945 0.002220
# 4 -0.006435 -0.004607 -0.002574 0.036767 0.011836 -0.016495
# 5 -0.012178 -0.001021 0.000945 0.011836 0.036576 -0.009606
# 6 0.003323 0.010774 0.002220 -0.016495 -0.009606 0.046923
#
#
# Mechanical properties :
#
#
# Convention : Reuss Voigt Hill
#
# Bulk Modulus (GPa) = 33.82057 56.33324 45.07690
# Shear Modulus (GPa) = 25.38106 33.85067 29.61586
#
# Velocity S-wave (km/s) = 3.32631 3.84142 3.59311
# Velocity P-wave (km/s) = 5.43101 6.65076 6.07159
#
# Compressibility (1/GPa) = 0.02956780
#
# Stress axis : x y z
#
# Youngs Moduli (GPa) = 46.79153 68.39919 81.76593
#
# Poissons Ratio (x) = -0.02016 0.41378
# Poissons Ratio (y) = -0.01379 0.37294
# Poissons Ratio (z) = 0.23679 0.31197
#
# Static dielectric constant tensor:
#      x y z
#    x 1.918110 0.004310 0.030120 
#    y 0.004310 1.882920 0.014440 
#    z 0.030120 0.014440 1.835000 
# 
# From -- ./inp_files/258735.got.cif
#   From: 2010.05.17/outbox.cif.g08.bks.cpg/sg2_130_cif.got.tgz:258735.got - 2010.06.03 11:33:40.
