data_PCOD9044448
_publ_section_title
;
Structure prediction by ZEFSAII (Michael W. Deem and Ramdas Pophale) SiO2 
 PCOD9044448
Probable space group: P -1
;
_chemical_formula_sum "Si O2"
_cell_formula_units_Z 16
_cell_length_a 9.300175
_cell_length_b 9.523647
_cell_length_c 15.141334
_cell_angle_alpha 128.441742
_cell_angle_beta 36.959874
_cell_angle_gamma 118.445532
_cell_volume 630.960885
_symmetry_space_group_name_H-M "P -1"
_symmetry_group_IT_number 2
_symmetry_cell_setting 'triclinic'
loop_
_space_group_symop_operation_xyz
x,y,z
-x,-y,-z
loop_
_atom_site_type_symbol
_atom_site_label
_atom_site_fract_x
_atom_site_fract_y
_atom_site_fract_z
Si Si1 0.806919 0.161768 0.248943
Si Si2 0.552743 0.127893 0.695974
Si Si3 0.381971 0.713629 0.101720
Si Si4 0.504262 0.326075 0.619565
Si Si5 0.611843 0.694807 0.800072
Si Si6 0.089352 0.845601 0.064459
Si Si7 0.948517 0.970996 0.667365
Si Si8 0.946715 0.469141 0.166004
O O1 0.698150 0.238726 0.423716
O O2 0.870514 0.327648 0.222089
O O3 0.596357 0.040842 0.268012
O O4 0.023447 0.015433 0.101610
O O5 0.526629 0.285676 0.842780
O O6 0.461645 0.190592 0.668161
O O7 0.828654 0.073965 0.521223
O O8 0.580645 0.690928 0.919506
O O9 0.260840 0.913280 0.232138
O O10 0.166168 0.583998 0.135002
O O11 0.605397 0.499100 0.685855
O O12 0.279143 0.402492 0.702209
O O13 0.837394 0.795903 0.694603
O O14 0.371033 0.804359 0.927085
O O15 0.987842 0.904803 0.232360
O O16 0.997551 0.662989 0.996183
#
# Coordination Sequence:
#
# PCOD9044448 Si02
#       8
#     2   2   2   2   2   2   2   2
#     4  12  26  46  78 112 154 194 254 314 379 447
#     4  12  28  44  78 113 155 196 251 311 381 450
#     4  11  26  47  74 113 150 200 250 312 378 444
#     4  11  26  47  74 111 149 200 250 310 377 445
#     4  10  26  45  80 107 156 200 251 309 382 448
#     4  10  23  46  75 106 146 199 255 296 378 441
#     4  11  24  47  77 108 156 204 250 304 385 454
#     4  11  27  46  78 111 154 193 256 314 376 445
#
# _framework density 25.358148
#
# number of rings (size 3 to 8) (size 9 to 14) (size 15 to 20)
#    0.000    1.000    1.250    3.750   12.250    4.500 
#    0.000    0.000    0.000    0.000    0.000    0.000 
#    0.000    0.000    0.000    0.000    0.000    0.000 
#
# Total GULP energy -89758.739517 kJ/mol
# GULP energy per Si atom -5609.921220 kJ/mol
# Density = 2.530043 g / cm^3
# Si number density = 25.358148 Si / 1000 Ang^3
#
#
#
# Elastic Constant Matrix: (Units=GPa)
#
#
# Indices 1 2 3 4 5 6 
#
# 1 93.6395 28.8422 24.8124 -2.8078 31.3711 9.1649
# 2 28.8422 152.6850 22.5937 -14.9855 4.2390 9.1734
# 3 24.8124 22.5937 115.9871 4.5578 21.1024 7.6983
# 4 -2.8078 -14.9855 4.5578 38.3155 -12.6640 -4.8972
# 5 31.3711 4.2390 21.1024 -12.6640 35.4161 11.5602
# 6 9.1649 9.1734 7.6983 -4.8972 11.5602 52.7259
#
#
#
# Elastic Compliance Matrix: (Units=1/GPa)
#
#
# Indices 1 2 3 4 5 6 
#
# 1 0.017210 -0.003429 0.000313 -0.005744 -0.017345 0.000829
# 2 -0.003429 0.007852 -0.001852 0.004620 0.005252 -0.001222
# 3 0.000313 -0.001852 0.010548 -0.004594 -0.008001 0.000055
# 4 -0.005744 0.004620 -0.004594 0.034509 0.019692 -0.000247
# 5 -0.017345 0.005252 -0.008001 0.019692 0.057210 -0.007445
# 6 0.000829 -0.001222 0.000055 -0.000247 -0.007445 0.020636
#
#
# Mechanical properties :
#
#
# Convention : Reuss Voigt Hill
#
# Bulk Modulus (GPa) = 38.95068 57.20091 48.07579
# Shear Modulus (GPa) = 30.03729 44.36238 37.19983
#
# Velocity S-wave (km/s) = 3.44542 4.18716 3.83427
# Velocity P-wave (km/s) = 5.58762 6.78105 6.21305
#
# Compressibility (1/GPa) = 0.02567349
#
# Stress axis : x y z
#
# Youngs Moduli (GPa) = 58.10507 127.35120 94.80471
#
# Poissons Ratio (x) = 0.43673 -0.02965
# Poissons Ratio (y) = 0.19926 0.17557
# Poissons Ratio (z) = -0.01817 0.23585
#
# Static dielectric constant tensor:
#      x y z
#    x 2.080390 -0.028370 -0.034810 
#    y -0.028370 1.974940 -0.005510 
#    z -0.034810 -0.005510 1.945720 
# 
# From -- ./inp_files/256718.got.cif
#   From: 2010.05.17/outbox.cif.g08.bks.cpg/sg2_129_cif.got.tgz:256718.got - 2010.06.03 11:33:40.
