data_PCOD9044981
_publ_section_title
;
Structure prediction by ZEFSAII (Michael W. Deem and Ramdas Pophale) SiO2 
 PCOD9044981
Probable space group: P -1
;
_chemical_formula_sum "Si O2"
_cell_formula_units_Z 16
_cell_length_a 21.706852
_cell_length_b 10.149259
_cell_length_c 5.207233
_cell_angle_alpha 74.365999
_cell_angle_beta 69.606627
_cell_angle_gamma 35.195371
_cell_volume 619.515478
_symmetry_space_group_name_H-M "P -1"
_symmetry_group_IT_number 2
_symmetry_cell_setting 'triclinic'
loop_
_space_group_symop_operation_xyz
x,y,z
-x,-y,-z
loop_
_atom_site_type_symbol
_atom_site_label
_atom_site_fract_x
_atom_site_fract_y
_atom_site_fract_z
Si Si1 0.525953 0.809387 0.437426
Si Si2 0.063195 0.837657 0.247774
Si Si3 0.218094 0.657609 0.737654
Si Si4 0.597137 0.234499 0.068944
Si Si5 0.647002 0.927874 0.818072
Si Si6 0.839848 0.834177 0.096830
Si Si7 0.780189 0.634852 0.269870
Si Si8 0.081176 0.153405 0.528469
O O1 0.652607 0.558746 0.381066
O O2 0.461037 0.794381 0.682067
O O3 0.500000 0.000000 0.500000
O O4 0.477434 0.893794 0.175607
O O5 0.183413 0.690030 0.070002
O O6 0.000000 0.000000 0.500000
O O7 0.039387 0.714937 0.345478
O O8 0.000000 0.000000 0.000000
O O9 0.164859 0.886832 0.597070
O O10 0.175630 0.591819 0.683691
O O11 0.102398 0.178709 0.206286
O O12 0.708257 0.090189 0.135972
O O13 0.500000 0.500000 0.000000
O O14 0.647549 0.086276 0.811847
O O15 0.699009 0.769699 0.071235
O O16 0.716385 0.769061 0.554899
O O17 0.850850 0.653657 0.123430
O O18 0.892150 0.785175 0.318166
#
# Coordination Sequence:
#
# PCOD9044981 Si02
#       8
#     2   2   2   2   2   2   2   2
#     4  12  23  44  65 100 140 185 225 275 335 414
#     4  10  23  48  71 101 139 171 225 303 355 395
#     4  11  25  45  72 105 130 184 236 283 343 412
#     4  11  25  40  66  96 142 182 234 278 331 411
#     4  11  22  44  60  92 141 184 217 274 333 387
#     4  11  22  43  65  98 137 184 216 278 352 400
#     4  11  24  44  69  93 142 185 224 274 342 410
#     4  11  24  43  72  99 133 174 234 289 342 402
#
# _framework density 25.826632
#
# number of rings (size 3 to 8) (size 9 to 14) (size 15 to 20)
#    0.000    1.000    3.750    3.750    1.750    5.500 
#    4.500    1.250    0.000    0.000    0.000    0.000 
#    0.000    0.000    0.000    0.000    0.000    0.000 
#
# Total GULP energy -89586.001101 kJ/mol
# GULP energy per Si atom -5599.125069 kJ/mol
# Density = 2.576785 g / cm^3
# Si number density = 25.826632 Si / 1000 Ang^3
#
#
#
# Elastic Constant Matrix: (Units=GPa)
#
#
# Indices 1 2 3 4 5 6 
#
# 1 78.0410 5.1917 17.3600 -4.6970 -3.6532 -7.4222
# 2 5.1917 126.3817 30.3156 -1.7997 0.5373 -4.4143
# 3 17.3600 30.3156 146.2566 14.9890 -6.9884 -0.2153
# 4 -4.6970 -1.7997 14.9890 38.2703 0.8798 -4.0874
# 5 -3.6532 0.5373 -6.9884 0.8798 63.7004 4.0717
# 6 -7.4222 -4.4143 -0.2153 -4.0874 4.0717 49.9336
#
#
#
# Elastic Compliance Matrix: (Units=1/GPa)
#
#
# Indices 1 2 3 4 5 6 
#
# 1 0.013614 0.000000 -0.001863 0.002626 0.000400 0.002198
# 2 0.000000 0.008414 -0.001886 0.001235 -0.000350 0.000865
# 3 -0.001863 -0.001886 0.007848 -0.003493 0.000867 -0.000766
# 4 0.002626 0.001235 -0.003493 0.028202 -0.000815 0.002859
# 5 0.000400 -0.000350 0.000867 -0.000815 0.015916 -0.001332
# 6 0.002198 0.000865 -0.000766 0.002859 -0.001332 0.020769
#
#
# Mechanical properties :
#
#
# Convention : Reuss Voigt Hill
#
# Bulk Modulus (GPa) = 44.68632 50.71266 47.69949
# Shear Modulus (GPa) = 45.57043 50.23499 47.90271
#
# Velocity S-wave (km/s) = 4.20512 4.41510 4.31139
# Velocity P-wave (km/s) = 6.39667 6.75790 6.57976
#
# Compressibility (1/GPa) = 0.02237821
#
# Stress axis : x y z
#
# Youngs Moduli (GPa) = 73.45418 118.84586 127.42757
#
# Poissons Ratio (x) = 0.00000 0.23736
# Poissons Ratio (y) = 0.00000 0.24034
# Poissons Ratio (z) = 0.13682 0.22416
#
# Static dielectric constant tensor:
#      x y z
#    x 2.111530 -0.056960 0.028050 
#    y -0.056960 2.096250 -0.032130 
#    z 0.028050 -0.032130 2.111870 
# 
# From -- ./inp_files/123654.got.cif
#   From: 2010.05.17/outbox.cif.g08.bks.cpg/sg2_62_cif.got.tgz:123654.got - 2010.06.03 11:33:40.
