data_PCOD9044010
_publ_section_title
;
Structure prediction by ZEFSAII (Michael W. Deem and Ramdas Pophale) SiO2 
 PCOD9044010
Probable space group: P -1
;
_chemical_formula_sum "Si O2"
_cell_formula_units_Z 11
_cell_length_a 5.114927
_cell_length_b 8.573680
_cell_length_c 14.361117
_cell_angle_alpha 56.919166
_cell_angle_beta 64.901256
_cell_angle_gamma 49.562280
_cell_volume 399.202078
_symmetry_space_group_name_H-M "P -1"
_symmetry_group_IT_number 2
_symmetry_cell_setting 'triclinic'
loop_
_space_group_symop_operation_xyz
x,y,z
-x,-y,-z
loop_
_atom_site_type_symbol
_atom_site_label
_atom_site_fract_x
_atom_site_fract_y
_atom_site_fract_z
Si Si1 0.267401 0.818895 0.637362
Si Si2 0.766269 0.646272 0.778374
Si Si3 0.894608 0.908572 0.256459
Si Si4 0.634546 0.654166 0.454835
Si Si5 0.639272 0.155869 0.948229
Si Si6 0.500000 0.500000 0.000000
O O1 0.628615 0.662050 0.689770
O O2 0.369596 0.831825 0.513158
O O3 0.036898 0.715858 0.713054
O O4 0.080771 0.043979 0.653600
O O5 0.833991 0.451682 0.897881
O O6 0.386422 0.838520 0.818337
O O7 0.704479 0.778718 0.323212
O O8 0.242031 0.802500 0.182831
O O9 0.500000 0.500000 0.500000
O O10 0.000000 0.500000 0.500000
O O11 0.411641 0.378639 0.970004
O O12 0.500000 0.000000 0.000000
O O13 0.000000 0.000000 0.000000
#
# Coordination Sequence:
#
# PCOD9044010 Si02
#       6
#     2   2   2   2   2   1
#     4  10  23  46  68  97 138 186 232 287 367 412
#     4  10  24  42  74 102 135 191 232 297 352 426
#     4  10  26  46  71  99 144 186 236 300 359 423
#     4  12  28  43  69 105 139 185 240 297 356 433
#     4  12  27  48  73 111 146 194 245 301 369 431
#     4  12  26  48  76 110 148 194 248 296 366 442
#
# _framework density 27.554970000000001
#
# number of rings (size 3 to 8) (size 9 to 14) (size 15 to 20)
#    1.091    0.000    1.818    2.727    7.636    3.636 
#    0.000    0.000    0.000    0.000    0.000    0.000 
#    0.000    0.000    0.000    0.000    0.000    0.000 
#
# Total GULP energy -61350.946779 kJ/mol
# GULP energy per Si atom -5577.358798 kJ/mol
# Density = 2.749225 g / cm^3
# Si number density = 27.554970 Si / 1000 Ang^3
#
#
#
# Elastic Constant Matrix: (Units=GPa)
#
#
# Indices 1 2 3 4 5 6 
#
# 1 176.8517 41.1855 33.3902 -9.6586 -43.1879 30.0451
# 2 41.1855 141.6766 43.0928 16.1370 -3.7008 22.0672
# 3 33.3902 43.0928 139.9295 41.3777 -35.6935 36.0639
# 4 -9.6586 16.1370 41.3777 42.4579 9.7841 -1.2566
# 5 -43.1879 -3.7008 -35.6935 9.7841 47.9484 -12.9268
# 6 30.0451 22.0672 36.0639 -1.2566 -12.9268 44.3698
#
#
#
# Elastic Compliance Matrix: (Units=1/GPa)
#
#
# Indices 1 2 3 4 5 6 
#
# 1 0.008337 -0.002085 0.002267 -0.001542 0.008247 -0.004092
# 2 -0.002085 0.008677 -0.002122 -0.001042 -0.003148 -0.002126
# 3 0.002267 -0.002122 0.026039 -0.029844 0.023103 -0.015758
# 4 -0.001542 -0.001042 -0.029844 0.060379 -0.031021 0.018492
# 5 0.008247 -0.003148 0.023103 -0.031021 0.049039 -0.009389
# 6 -0.004092 -0.002126 -0.015758 0.018492 -0.009389 0.036963
#
#
# Mechanical properties :
#
#
# Convention : Reuss Voigt Hill
#
# Bulk Modulus (GPa) = 25.52701 77.08830 51.30765
# Shear Modulus (GPa) = 24.22836 49.67450 36.95143
#
# Velocity S-wave (km/s) = 2.96847 4.25048 3.66595
# Velocity P-wave (km/s) = 4.58620 7.21981 6.04809
#
# Compressibility (1/GPa) = 0.03917419
#
# Stress axis : x y z
#
# Youngs Moduli (GPa) = 119.94800 115.24325 38.40459
#
# Poissons Ratio (x) = 0.24024 -0.08707
# Poissons Ratio (y) = 0.25005 0.08149
# Poissons Ratio (z) = -0.27194 0.24452
#
# Static dielectric constant tensor:
#      x y z
#    x 2.124660 0.141020 -0.028330 
#    y 0.141020 2.029150 0.094350 
#    z -0.028330 0.094350 2.123880 
# 
# From -- ./inp_files/546403.got.cif
#   From: 2010.05.17/outbox.cif.g08.bks.cpg/sg2_274_cif.got.tgz:546403.got - 2010.06.03 11:33:40.
