data_PCOD9044887
_publ_section_title
;
Structure prediction by ZEFSAII (Michael W. Deem and Ramdas Pophale) SiO2 
 PCOD9044887
Probable space group: P -1
;
_chemical_formula_sum "Si O2"
_cell_formula_units_Z 12
_cell_length_a 5.581600
_cell_length_b 6.599414
_cell_length_c 19.657698
_cell_angle_alpha 89.884205
_cell_angle_beta 71.043519
_cell_angle_gamma 44.819708
_cell_volume 453.502804
_symmetry_space_group_name_H-M "P -1"
_symmetry_group_IT_number 2
_symmetry_cell_setting 'triclinic'
loop_
_space_group_symop_operation_xyz
x,y,z
-x,-y,-z
loop_
_atom_site_type_symbol
_atom_site_label
_atom_site_fract_x
_atom_site_fract_y
_atom_site_fract_z
Si Si1 0.735232 0.207372 0.801381
Si Si2 0.442322 0.400222 0.073025
Si Si3 0.538131 0.798711 0.401471
Si Si4 0.731487 0.795707 0.073292
Si Si5 0.611173 0.439003 0.305737
Si Si6 0.315908 0.828881 0.570872
O O1 0.491535 0.524765 0.863974
O O2 0.643069 0.082413 0.864473
O O3 0.593808 0.329605 0.738044
O O4 0.168819 0.884295 0.746409
O O5 0.985340 0.654764 0.117562
O O6 0.649348 0.062463 0.048645
O O7 0.500000 0.500000 0.000000
O O8 0.816388 0.510663 0.323833
O O9 0.527055 0.717981 0.479216
O O10 0.669477 0.950846 0.400072
O O11 0.107522 0.013637 0.408643
O O12 0.000000 0.500000 0.000000
O O13 0.464558 0.428870 0.390645
#
# Coordination Sequence:
#
# PCOD9044887 Si02
#       6
#     2   2   2   2   2   2
#     4  12  28  46  71 106 144 194 244 308 389 444
#     4  12  26  46  75 103 140 190 249 312 372 453
#     4  10  23  47  78 110 150 203 256 311 378 457
#     4  12  26  46  75 103 140 190 249 312 372 453
#     4  12  25  48  68 110 152 192 246 318 384 456
#     4  10  23  47  78 110 150 203 256 311 378 457
#
# _framework density 26.460694
#
# number of rings (size 3 to 8) (size 9 to 14) (size 15 to 20)
#    0.000    0.667    3.333    3.500    2.333    5.333 
#    6.000    5.000    0.000    0.000    0.000    0.000 
#    0.000    0.000    0.000    0.000    0.000    0.000 
#
# Total GULP energy -66803.901602 kJ/mol
# GULP energy per Si atom -5566.991800 kJ/mol
# Density = 2.640047 g / cm^3
# Si number density = 26.460694 Si / 1000 Ang^3
#
#
#
# Elastic Constant Matrix: (Units=GPa)
#
#
# Indices 1 2 3 4 5 6 
#
# 1 82.6974 29.2455 24.0506 -7.6011 6.9670 7.5769
# 2 29.2455 171.1165 39.1464 -21.5649 12.6408 15.6141
# 3 24.0506 39.1464 147.7604 -22.4178 14.0675 15.4518
# 4 -7.6011 -21.5649 -22.4178 48.5143 -2.9826 5.3971
# 5 6.9670 12.6408 14.0675 -2.9826 24.9160 3.4488
# 6 7.5769 15.6141 15.4518 5.3971 3.4488 35.9738
#
#
#
# Elastic Compliance Matrix: (Units=1/GPa)
#
#
# Indices 1 2 3 4 5 6 
#
# 1 0.013414 -0.001613 -0.001290 0.000841 -0.001894 -0.001516
# 2 -0.001613 0.007011 -0.000722 0.002696 -0.002015 -0.002605
# 3 -0.001290 -0.000722 0.008332 0.003494 -0.003114 -0.003220
# 4 0.000841 0.002696 0.003494 0.024297 0.000235 -0.006516
# 5 -0.001894 -0.002015 -0.003114 0.000235 0.043696 -0.001613
# 6 -0.001516 -0.002605 -0.003220 -0.006516 -0.001613 0.031763
#
#
# Mechanical properties :
#
#
# Convention : Reuss Voigt Hill
#
# Bulk Modulus (GPa) = 46.49484 65.16214 55.82849
# Shear Modulus (GPa) = 34.98205 42.48960 38.73582
#
# Velocity S-wave (km/s) = 3.63993 4.01154 3.83025
# Velocity P-wave (km/s) = 5.93927 6.79236 6.38009
#
# Compressibility (1/GPa) = 0.02150776
#
# Stress axis : x y z
#
# Youngs Moduli (GPa) = 74.55156 142.63088 120.01892
#
# Poissons Ratio (x) = 0.23011 0.15477
# Poissons Ratio (y) = 0.12028 0.08660
# Poissons Ratio (z) = 0.09614 0.10292
#
# Static dielectric constant tensor:
#      x y z
#    x 2.149390 -0.003920 -0.065950 
#    y -0.003920 2.272270 0.097670 
#    z -0.065950 0.097670 1.973240 
# 
# From -- ./inp_files/580733.got.cif
#   From: 2010.05.17/outbox.cif.g08.bks.cpg/sg2_291_cif.got.tgz:580733.got - 2010.06.03 11:33:40.
