data_PCOD9044258
_publ_section_title
;
Structure prediction by ZEFSAII (Michael W. Deem and Ramdas Pophale) SiO2 
 PCOD9044258
Probable space group: P -1
;
_chemical_formula_sum "Si O2"
_cell_formula_units_Z 16
_cell_length_a 8.458254
_cell_length_b 12.584794
_cell_length_c 16.453410
_cell_angle_alpha 28.766274
_cell_angle_beta 106.514813
_cell_angle_gamma 94.845221
_cell_volume 754.814388
_symmetry_space_group_name_H-M "P -1"
_symmetry_group_IT_number 2
_symmetry_cell_setting 'triclinic'
loop_
_space_group_symop_operation_xyz
x,y,z
-x,-y,-z
loop_
_atom_site_type_symbol
_atom_site_label
_atom_site_fract_x
_atom_site_fract_y
_atom_site_fract_z
Si Si1 0.650253 0.793553 0.205330
Si Si2 0.464777 0.007859 0.776220
Si Si3 0.978200 0.246331 0.785909
Si Si4 0.310632 0.225722 0.322678
Si Si5 0.834422 0.709594 0.566359
Si Si6 0.829976 0.140002 0.501637
Si Si7 0.469325 0.515334 0.888771
Si Si8 0.714946 0.281248 0.576267
O O1 0.655050 0.885519 0.234893
O O2 0.602445 0.559494 0.365027
O O3 0.832524 0.742540 0.218847
O O4 0.500000 0.000000 0.000000
O O5 0.334981 0.082857 0.631650
O O6 0.608640 0.128768 0.701361
O O7 0.543917 0.728487 0.980605
O O8 0.882731 0.472331 0.678163
O O9 0.870225 0.262964 0.675128
O O10 0.000000 0.000000 0.000000
O O11 0.227490 0.323448 0.331289
O O12 0.359708 0.432886 0.151000
O O13 0.500000 0.000000 0.500000
O O14 0.173034 0.123214 0.330555
O O15 0.993305 0.807499 0.522190
O O16 0.696769 0.288040 0.311661
O O17 0.771108 0.209335 0.539815
O O18 0.500000 0.500000 0.000000
#
# Coordination Sequence:
#
# PCOD9044258 Si02
#       8
#     2   2   2   2   2   2   2   2
#     4  12  25  43  67 101 137 188 242 287 351 417
#     4  12  25  40  70 101 141 188 235 292 350 420
#     4  12  28  46  70 104 150 191 237 295 351 425
#     4  10  23  46  72 100 134 181 232 291 350 421
#     4  12  25  46  70 103 144 187 234 290 361 418
#     4  11  23  45  75  99 141 186 232 298 359 415
#     4  11  24  46  70 104 138 182 242 294 356 427
#     4  12  24  47  70 104 146 190 239 287 356 420
#
# _framework density 21.197263
#
# number of rings (size 3 to 8) (size 9 to 14) (size 15 to 20)
#    0.000    0.500    2.500    7.125    5.250    0.000 
#    0.000    1.250    0.000    0.000    0.000    0.000 
#    0.000    0.000    0.000    0.000    0.000    0.000 
#
# Total GULP energy -89399.733505 kJ/mol
# GULP energy per Si atom -5587.483344 kJ/mol
# Density = 2.114902 g / cm^3
# Si number density = 21.197263 Si / 1000 Ang^3
#
#
#
# Elastic Constant Matrix: (Units=GPa)
#
#
# Indices 1 2 3 4 5 6 
#
# 1 89.5339 37.1148 19.7084 -10.0624 -18.8988 7.0846
# 2 37.1148 99.5690 22.5564 16.0918 -10.3648 -3.8532
# 3 19.7084 22.5564 59.7929 -21.6019 -15.5653 25.6383
# 4 -10.0624 16.0918 -21.6019 31.3963 8.8258 -6.2997
# 5 -18.8988 -10.3648 -15.5653 8.8258 35.8453 0.9004
# 6 7.0846 -3.8532 25.6383 -6.2997 0.9004 38.8963
#
#
#
# Elastic Compliance Matrix: (Units=1/GPa)
#
#
# Indices 1 2 3 4 5 6 
#
# 1 0.016650 -0.009124 0.006528 0.011413 0.006329 -0.006537
# 2 -0.009124 0.022930 -0.021408 -0.026250 -0.001360 0.013824
# 3 0.006528 -0.021408 0.054516 0.040667 0.011739 -0.032929
# 4 0.011413 -0.026250 0.040667 0.073443 -0.001506 -0.019555
# 5 0.006329 -0.001360 0.011739 -0.001506 0.036563 -0.010115
# 6 -0.006537 0.013824 -0.032929 -0.019555 -0.010115 0.047042
#
#
# Mechanical properties :
#
#
# Convention : Reuss Voigt Hill
#
# Bulk Modulus (GPa) = 21.69768 45.29498 33.49633
# Shear Modulus (GPa) = 15.89749 32.52866 24.21307
#
# Velocity S-wave (km/s) = 2.74154 3.92161 3.38342
# Velocity P-wave (km/s) = 4.50330 6.47457 5.57673
#
# Compressibility (1/GPa) = 0.04608788
#
# Stress axis : x y z
#
# Youngs Moduli (GPa) = 60.05961 43.61127 18.34317
#
# Poissons Ratio (x) = 0.39791 -0.11974
# Poissons Ratio (y) = 0.54798 0.39269
# Poissons Ratio (z) = -0.39207 0.93364
#
# Static dielectric constant tensor:
#      x y z
#    x 1.752430 0.020070 0.016490 
#    y 0.020070 1.746650 -0.066410 
#    z 0.016490 -0.066410 1.682740 
# 
# From -- ./inp_files/382007.got.cif
#   From: 2010.05.17/outbox.cif.g08.bks.cpg/sg2_192_cif.got.tgz:382007.got - 2010.06.03 11:33:40.
