data_PCOD9044004
_publ_section_title
;
Structure prediction by ZEFSAII (Michael W. Deem and Ramdas Pophale) SiO2 
 PCOD9044004
Probable space group: P -1
;
_chemical_formula_sum "Si O2"
_cell_formula_units_Z 16
_cell_length_a 14.274419
_cell_length_b 11.590295
_cell_length_c 15.540719
_cell_angle_alpha 122.108193
_cell_angle_beta 28.229373
_cell_angle_gamma 137.642840
_cell_volume 759.544026
_symmetry_space_group_name_H-M "P -1"
_symmetry_group_IT_number 2
_symmetry_cell_setting 'triclinic'
loop_
_space_group_symop_operation_xyz
x,y,z
-x,-y,-z
loop_
_atom_site_type_symbol
_atom_site_label
_atom_site_fract_x
_atom_site_fract_y
_atom_site_fract_z
Si Si1 0.367745 0.037121 0.984057
Si Si2 0.645215 0.552279 0.517636
Si Si3 0.322307 0.298770 0.016644
Si Si4 0.272014 0.851708 0.558679
Si Si5 0.822155 0.162731 0.556174
Si Si6 0.909325 0.597866 0.157532
Si Si7 0.971048 0.021066 0.630323
Si Si8 0.288641 0.548478 0.392756
O O1 0.340750 0.162816 0.998538
O O2 0.652566 0.107499 0.757310
O O3 0.153830 0.818834 0.050232
O O4 0.308592 0.052275 0.136066
O O5 0.781858 0.512893 0.322623
O O6 0.333771 0.437313 0.707823
O O7 0.799782 0.762585 0.452252
O O8 0.690369 0.536062 0.573590
O O9 0.451237 0.336520 0.832985
O O10 0.500000 0.500000 0.000000
O O11 0.013915 0.205390 0.221916
O O12 0.354946 0.914874 0.416880
O O13 0.232178 0.671604 0.523082
O O14 0.500000 0.000000 0.500000
O O15 0.046976 0.382859 0.463084
O O16 0.967757 0.087071 0.410806
O O17 0.000000 0.500000 0.000000
O O18 0.000000 0.000000 0.500000
#
# Coordination Sequence:
#
# PCOD9044004 Si02
#       8
#     2   2   2   2   2   2   2   2
#     4  11  24  40  74  98 133 183 230 277 353 415
#     4  10  24  42  68 101 135 178 229 284 347 419
#     4  12  24  46  72 100 140 193 230 287 358 414
#     4  12  28  43  70 105 140 186 236 288 347 417
#     4  12  23  46  71 100 145 180 234 296 346 413
#     4  10  23  46  68  96 140 182 224 287 354 416
#     4  11  22  43  68 103 134 175 229 290 347 410
#     4  12  25  45  70 102 145 182 238 288 348 424
#
# _framework density 21.065270000000002
#
# number of rings (size 3 to 8) (size 9 to 14) (size 15 to 20)
#    0.000    0.750    5.000    1.875    1.750    5.000 
#    2.250    0.000    0.000    0.000    0.000    0.000 
#    0.000    0.000    0.000    0.000    0.000    0.000 
#
# Total GULP energy -89372.504075 kJ/mol
# GULP energy per Si atom -5585.781505 kJ/mol
# Density = 2.101732 g / cm^3
# Si number density = 21.065270 Si / 1000 Ang^3
#
#
#
# Elastic Constant Matrix: (Units=GPa)
#
#
# Indices 1 2 3 4 5 6 
#
# 1 76.0693 23.9310 15.7615 5.1074 16.6348 14.7133
# 2 23.9310 90.5543 24.5760 18.9867 12.7906 -5.4606
# 3 15.7615 24.5760 144.4886 21.9204 9.6320 7.1585
# 4 5.1074 18.9867 21.9204 29.5731 0.2810 3.7148
# 5 16.6348 12.7906 9.6320 0.2810 27.2862 1.5519
# 6 14.7133 -5.4606 7.1585 3.7148 1.5519 28.1471
#
#
#
# Elastic Compliance Matrix: (Units=1/GPa)
#
#
# Indices 1 2 3 4 5 6 
#
# 1 0.018308 -0.004428 -0.000385 0.001308 -0.008392 -0.010041
# 2 -0.004428 0.015469 -0.000757 -0.009442 -0.004586 0.007007
# 3 -0.000385 -0.000757 0.008094 -0.005277 -0.002145 -0.001189
# 4 0.001308 -0.009442 -0.005277 0.044432 0.005451 -0.007338
# 5 -0.008392 -0.004586 -0.002145 0.005451 0.044566 0.000866
# 6 -0.010041 0.007007 -0.001189 -0.007338 0.000866 0.043359
#
#
# Mechanical properties :
#
#
# Convention : Reuss Voigt Hill
#
# Bulk Modulus (GPa) = 32.54128 48.84991 40.69560
# Shear Modulus (GPa) = 25.56057 33.45752 29.50904
#
# Velocity S-wave (km/s) = 3.48717 3.98965 3.74684
# Velocity P-wave (km/s) = 5.62984 6.66807 6.17083
#
# Compressibility (1/GPa) = 0.03073019
#
# Stress axis : x y z
#
# Youngs Moduli (GPa) = 54.61973 64.64635 123.54302
#
# Poissons Ratio (x) = 0.28626 0.04762
# Poissons Ratio (y) = 0.24186 0.09353
# Poissons Ratio (z) = 0.02105 0.04894
#
# Static dielectric constant tensor:
#      x y z
#    x 1.796410 0.022780 0.033140 
#    y 0.022780 1.812740 0.002720 
#    z 0.033140 0.002720 1.774600 
# 
# From -- ./inp_files/308913.got.cif
#   From: 2010.05.17/outbox.cif.g08.bks.cpg/sg2_155_cif.got.tgz:308913.got - 2010.06.03 11:33:40.
