data_PCOD9044373
_publ_section_title
;
Structure prediction by ZEFSAII (Michael W. Deem and Ramdas Pophale) SiO2 
 PCOD9044373
Probable space group: P -1
;
_chemical_formula_sum "Si O2"
_cell_formula_units_Z 14
_cell_length_a 12.119707
_cell_length_b 5.306347
_cell_length_c 22.519199
_cell_angle_alpha 96.080982
_cell_angle_beta 32.377756
_cell_angle_gamma 74.423890
_cell_volume 570.888077
_symmetry_space_group_name_H-M "P -1"
_symmetry_group_IT_number 2
_symmetry_cell_setting 'triclinic'
loop_
_space_group_symop_operation_xyz
x,y,z
-x,-y,-z
loop_
_atom_site_type_symbol
_atom_site_label
_atom_site_fract_x
_atom_site_fract_y
_atom_site_fract_z
Si Si1 0.625344 0.266869 0.201073
Si Si2 0.942374 0.144137 0.905430
Si Si3 0.110698 0.241573 0.616677
Si Si4 0.914026 0.177321 0.477925
Si Si5 0.525584 0.824467 0.174772
Si Si6 0.584163 0.188009 0.415582
Si Si7 0.491079 0.269846 0.044723
O O1 0.362363 0.444955 0.369021
O O2 0.583984 0.567723 0.193730
O O3 0.612241 0.033027 0.159120
O O4 0.901781 0.041168 0.108912
O O5 0.719434 0.554142 0.027598
O O6 0.757449 0.076019 0.960488
O O7 0.186759 0.984793 0.743707
O O8 0.298554 0.328485 0.518199
O O9 0.783614 0.507828 0.784146
O O10 0.161484 0.984617 0.537831
O O11 0.245482 0.099329 0.617523
O O12 0.000000 0.000000 0.500000
O O13 0.190995 0.087555 0.324888
O O14 0.500000 0.500000 0.500000
O O15 0.500000 0.500000 0.000000
O O16 0.500000 0.000000 0.000000
#
# Coordination Sequence:
#
# PCOD9044373 Si02
#       7
#     2   2   2   2   2   2   2
#     4  11  26  46  74 108 154 189 252 301 374 446
#     4  12  25  47  77 109 148 199 247 313 373 441
#     4  11  24  48  72 106 151 194 251 304 371 454
#     4  10  23  46  73 108 147 197 246 302 376 442
#     4  11  25  49  71 113 146 197 241 314 369 440
#     4  11  25  46  74 108 146 198 249 308 374 440
#     4  12  27  49  74 109 148 192 246 307 374 440
#
# _framework density 24.523192999999999
#
# number of rings (size 3 to 8) (size 9 to 14) (size 15 to 20)
#    0.000    0.857    2.857    3.000    4.000    3.429 
#   10.286    0.000    0.000    0.000    0.000    0.000 
#    0.000    0.000    0.000    0.000    0.000    0.000 
#
# Total GULP energy -78316.751185 kJ/mol
# GULP energy per Si atom -5594.053656 kJ/mol
# Density = 2.446738 g / cm^3
# Si number density = 24.523193 Si / 1000 Ang^3
#
#
#
# Elastic Constant Matrix: (Units=GPa)
#
#
# Indices 1 2 3 4 5 6 
#
# 1 155.1982 37.0619 43.7829 -16.3815 -13.9959 28.2001
# 2 37.0619 74.0726 24.2019 -12.1607 5.3383 21.0873
# 3 43.7829 24.2019 192.0285 -0.1414 -0.1855 17.0013
# 4 -16.3815 -12.1607 -0.1414 29.1731 5.1799 4.7671
# 5 -13.9959 5.3383 -0.1855 5.1799 65.0831 -1.3630
# 6 28.2001 21.0873 17.0013 4.7671 -1.3630 53.5985
#
#
#
# Elastic Compliance Matrix: (Units=1/GPa)
#
#
# Indices 1 2 3 4 5 6 
#
# 1 0.008598 -0.002293 -0.001355 0.004151 0.001629 -0.003519
# 2 -0.002293 0.018366 -0.001222 0.007900 -0.002766 -0.006405
# 3 -0.001355 -0.001222 0.005716 -0.001141 -0.000095 -0.000520
# 4 0.004151 0.007900 -0.001141 0.041907 -0.003277 -0.008741
# 5 0.001629 -0.002766 -0.000095 -0.003277 0.016223 0.000965
# 6 -0.003519 -0.006405 -0.000520 -0.008741 0.000965 0.023996
#
#
# Mechanical properties :
#
#
# Convention : Reuss Voigt Hill
#
# Bulk Modulus (GPa) = 43.59171 70.15474 56.87323
# Shear Modulus (GPa) = 37.82364 50.65444 44.23904
#
# Velocity S-wave (km/s) = 3.93155 4.54979 4.25192
# Velocity P-wave (km/s) = 6.19869 7.50136 6.88092
#
# Compressibility (1/GPa) = 0.02294014
#
# Stress axis : x y z
#
# Youngs Moduli (GPa) = 116.30826 54.44696 174.95850
#
# Poissons Ratio (x) = 0.12485 0.23709
# Poissons Ratio (y) = 0.26670 0.21375
# Poissons Ratio (z) = 0.15761 0.06652
#
# Static dielectric constant tensor:
#      x y z
#    x 2.159610 -0.336230 0.092810 
#    y -0.336230 2.370660 -0.186560 
#    z 0.092810 -0.186560 1.980800 
# 
# From -- ./inp_files/609199.got.cif
#   From: 2010.05.17/outbox.cif.g08.bks.cpg/sg2_305_cif.got.tgz:609199.got - 2010.06.03 11:33:40.
