data_PCOD9044541
_publ_section_title
;
Structure prediction by ZEFSAII (Michael W. Deem and Ramdas Pophale) SiO2 
 PCOD9044541
Probable space group: P -1
;
_chemical_formula_sum "Si O2"
_cell_formula_units_Z 14
_cell_length_a 9.285670
_cell_length_b 13.949570
_cell_length_c 9.226624
_cell_angle_alpha 66.471990
_cell_angle_beta 105.701609
_cell_angle_gamma 50.792316
_cell_volume 574.692543
_symmetry_space_group_name_H-M "P -1"
_symmetry_group_IT_number 2
_symmetry_cell_setting 'triclinic'
loop_
_space_group_symop_operation_xyz
x,y,z
-x,-y,-z
loop_
_atom_site_type_symbol
_atom_site_label
_atom_site_fract_x
_atom_site_fract_y
_atom_site_fract_z
Si Si1 0.905170 0.743482 0.570003
Si Si2 0.346764 0.197070 0.795132
Si Si3 0.637505 0.099030 0.191837
Si Si4 0.224785 0.777760 0.176854
Si Si5 0.535642 0.378345 0.980234
Si Si6 0.883411 0.678540 0.911837
Si Si7 0.821313 0.428952 0.667271
O O1 0.705697 0.782173 0.402833
O O2 0.838406 0.776522 0.701061
O O3 0.222397 0.527353 0.771428
O O4 0.878535 0.875568 0.417854
O O5 0.040603 0.368099 0.673911
O O6 0.532935 0.167951 0.954186
O O7 0.500000 0.000000 0.000000
O O8 0.391659 0.184782 0.157771
O O9 0.672298 0.195681 0.199817
O O10 0.300774 0.703651 0.075775
O O11 0.511807 0.637614 0.416983
O O12 0.132256 0.721683 0.256499
O O13 0.000000 0.000000 0.000000
O O14 0.500000 0.500000 0.000000
O O15 0.000000 0.500000 0.000000
O O16 0.103937 0.595562 0.131656
#
# Coordination Sequence:
#
# PCOD9044541 Si02
#       7
#     2   2   2   2   2   2   2
#     4  11  22  43  69 100 140 180 229 293 359 411
#     4   9  20  40  72 102 133 178 232 293 353 420
#     4  10  24  42  70 101 140 179 234 286 359 426
#     4  11  26  45  74 101 138 192 244 285 349 419
#     4  12  26  45  68 103 140 185 239 293 349 415
#     4  11  22  43  67 104 142 181 225 292 360 421
#     4  10  23  47  66 100 143 180 236 294 342 420
#
# _framework density 24.360852999999999
#
# number of rings (size 3 to 8) (size 9 to 14) (size 15 to 20)
#    0.000    1.429    2.857    1.286    4.000    2.286 
#   10.286    0.000    0.000    0.000    0.000    0.000 
#    0.000    0.000    0.000    0.000    0.000    0.000 
#
# Total GULP energy -78331.403280 kJ/mol
# GULP energy per Si atom -5595.100234 kJ/mol
# Density = 2.430541 g / cm^3
# Si number density = 24.360853 Si / 1000 Ang^3
#
#
#
# Elastic Constant Matrix: (Units=GPa)
#
#
# Indices 1 2 3 4 5 6 
#
# 1 73.0540 33.5474 33.7498 1.3163 -13.7273 2.4233
# 2 33.5474 126.6964 57.7370 8.5439 -4.0665 7.0257
# 3 33.7498 57.7370 138.9405 14.9739 -7.5919 4.7504
# 4 1.3163 8.5439 14.9739 52.2576 -0.7601 -4.5664
# 5 -13.7273 -4.0665 -7.5919 -0.7601 29.8445 -2.3996
# 6 2.4233 7.0257 4.7504 -4.5664 -2.3996 45.5098
#
#
#
# Elastic Compliance Matrix: (Units=1/GPa)
#
#
# Indices 1 2 3 4 5 6 
#
# 1 0.017755 -0.003350 -0.002651 0.000991 0.007087 0.000322
# 2 -0.003350 0.010440 -0.003463 -0.000752 -0.001116 -0.001206
# 3 -0.002651 -0.003463 0.009564 -0.002142 0.000647 -0.000503
# 4 0.000991 -0.000752 -0.002142 0.020058 0.000507 0.002326
# 5 0.007087 -0.001116 0.000647 0.000507 0.036931 0.001725
# 6 0.000322 -0.001206 -0.000503 0.002326 0.001725 0.022519
#
#
# Mechanical properties :
#
#
# Convention : Reuss Voigt Hill
#
# Bulk Modulus (GPa) = 53.10874 65.41770 59.26322
# Shear Modulus (GPa) = 35.09434 39.76615 37.43025
#
# Velocity S-wave (km/s) = 3.79965 4.04465 3.92406
# Velocity P-wave (km/s) = 6.41077 6.98027 6.70157
#
# Compressibility (1/GPa) = 0.01882929
#
# Stress axis : x y z
#
# Youngs Moduli (GPa) = 56.32241 95.78533 104.56010
#
# Poissons Ratio (x) = 0.32091 0.27721
# Poissons Ratio (y) = 0.18870 0.36212
# Poissons Ratio (z) = 0.14932 0.33173
#
# Static dielectric constant tensor:
#      x y z
#    x 2.002020 0.026200 -0.032030 
#    y 0.026200 2.012920 0.016870 
#    z -0.032030 0.016870 1.948490 
# 
# From -- ./inp_files/272577.got.cif
#   From: 2010.05.17/outbox.cif.g08.bks.cpg/sg2_137_cif.got.tgz:272577.got - 2010.06.03 11:33:40.
