data_PCOD9044850
_publ_section_title
;
Structure prediction by ZEFSAII (Michael W. Deem and Ramdas Pophale) SiO2 
 PCOD9044850
Probable space group: P -1
;
_chemical_formula_sum "Si O2"
_cell_formula_units_Z 14
_cell_length_a 10.776337
_cell_length_b 10.060958
_cell_length_c 9.003782
_cell_angle_alpha 63.509450
_cell_angle_beta 49.953921
_cell_angle_gamma 42.073133
_cell_volume 499.803514
_symmetry_space_group_name_H-M "P -1"
_symmetry_group_IT_number 2
_symmetry_cell_setting 'triclinic'
loop_
_space_group_symop_operation_xyz
x,y,z
-x,-y,-z
loop_
_atom_site_type_symbol
_atom_site_label
_atom_site_fract_x
_atom_site_fract_y
_atom_site_fract_z
Si Si1 0.042113 0.641678 0.458904
Si Si2 0.727798 0.292684 0.978334
Si Si3 0.261421 0.921485 0.413802
Si Si4 0.106327 0.588046 0.019302
Si Si5 0.398436 0.126900 0.670211
Si Si6 0.531899 0.168446 0.019399
Si Si7 0.743300 0.402008 0.400346
O O1 0.102121 0.720716 0.244354
O O2 0.231383 0.539098 0.486110
O O3 0.000000 0.500000 0.500000
O O4 0.714395 0.623309 0.926905
O O5 0.804384 0.297962 0.075943
O O6 0.500000 0.500000 0.000000
O O7 0.676797 0.157786 0.043494
O O8 0.461416 0.813330 0.430261
O O9 0.146545 0.831281 0.567369
O O10 0.139775 0.150860 0.422680
O O11 0.351982 0.863761 0.206165
O O12 0.863440 0.711078 0.203801
O O13 0.138269 0.565215 0.828852
O O14 0.500000 0.000000 0.500000
O O15 0.451473 0.004600 0.843452
O O16 0.500000 0.500000 0.500000
#
# Coordination Sequence:
#
# PCOD9044850 Si02
#       7
#     2   2   2   2   2   2   2
#     4  12  28  50  83 121 166 231 280 356 443 509
#     4  10  23  47  75 113 160 218 276 339 429 503
#     4  12  27  52  81 120 169 219 284 355 428 517
#     4  11  26  50  82 121 168 225 279 353 433 508
#     4  12  30  50  76 124 170 219 291 360 416 511
#     4  11  25  52  82 117 170 223 282 351 435 509
#     4  12  25  52  86 125 168 218 293 349 432 529
#
# _framework density 28.011006999999999
#
# number of rings (size 3 to 8) (size 9 to 14) (size 15 to 20)
#    0.000    0.571    2.857    3.429    8.000    4.000 
#    0.000    0.000    0.000    0.000    0.000    0.000 
#    0.000    0.000    0.000    0.000    0.000    0.000 
#
# Total GULP energy -78283.003662 kJ/mol
# GULP energy per Si atom -5591.643119 kJ/mol
# Density = 2.794725 g / cm^3
# Si number density = 28.011007 Si / 1000 Ang^3
#
#
#
# Elastic Constant Matrix: (Units=GPa)
#
#
# Indices 1 2 3 4 5 6 
#
# 1 162.0547 50.6373 10.5219 -4.0975 -13.9170 7.9023
# 2 50.6373 118.4706 25.8953 -0.0422 -22.4949 -15.8877
# 3 10.5219 25.8953 102.7607 8.6886 3.5048 -12.8959
# 4 -4.0975 -0.0422 8.6886 57.9586 -1.1879 -6.3504
# 5 -13.9170 -22.4949 3.5048 -1.1879 56.4216 -7.3921
# 6 7.9023 -15.8877 -12.8959 -6.3504 -7.3921 57.9642
#
#
#
# Elastic Compliance Matrix: (Units=1/GPa)
#
#
# Indices 1 2 3 4 5 6 
#
# 1 0.007336 -0.003293 -0.000195 0.000346 0.000271 -0.001874
# 2 -0.003293 0.011728 -0.002351 0.000636 0.004519 0.003786
# 3 -0.000195 -0.002351 0.010698 -0.001496 -0.001497 0.001407
# 4 0.000346 0.000636 -0.001496 0.017729 0.001050 0.001871
# 5 0.000271 0.004519 -0.001497 0.001050 0.020173 0.003556
# 6 -0.001874 0.003786 0.001407 0.001871 0.003556 0.019517
#
#
# Mechanical properties :
#
#
# Convention : Reuss Voigt Hill
#
# Bulk Modulus (GPa) = 55.29561 61.93277 58.61419
# Shear Modulus (GPa) = 47.67049 54.21764 50.94406
#
# Velocity S-wave (km/s) = 4.12982 4.40430 4.26927
# Velocity P-wave (km/s) = 6.52105 6.92979 6.72852
#
# Compressibility (1/GPa) = 0.01808462
#
# Stress axis : x y z
#
# Youngs Moduli (GPa) = 136.32198 85.26413 93.47611
#
# Poissons Ratio (x) = 0.28074 0.01823
# Poissons Ratio (y) = 0.44884 0.21977
# Poissons Ratio (z) = 0.02658 0.20046
#
# Static dielectric constant tensor:
#      x y z
#    x 2.286550 -0.030560 -0.108280 
#    y -0.030560 2.641180 -0.006480 
#    z -0.108280 -0.006480 1.843790 
# 
# From -- ./inp_files/256550.got.cif
#   From: 2010.05.17/outbox.cif.g08.bks.cpg/sg2_129_cif.got.tgz:256550.got - 2010.06.03 11:33:40.
