data_PCOD9044095
_publ_section_title
;
Structure prediction by ZEFSAII (Michael W. Deem and Ramdas Pophale) SiO2 
 PCOD9044095
Probable space group: P -1
;
_chemical_formula_sum "Si O2"
_cell_formula_units_Z 14
_cell_length_a 15.924720
_cell_length_b 13.058908
_cell_length_c 14.131915
_cell_angle_alpha 121.454222
_cell_angle_beta 40.669451
_cell_angle_gamma 153.793758
_cell_volume 705.557028
_symmetry_space_group_name_H-M "P -1"
_symmetry_group_IT_number 2
_symmetry_cell_setting 'triclinic'
loop_
_space_group_symop_operation_xyz
x,y,z
-x,-y,-z
loop_
_atom_site_type_symbol
_atom_site_label
_atom_site_fract_x
_atom_site_fract_y
_atom_site_fract_z
Si Si1 0.323106 0.387656 0.813350
Si Si2 0.295975 0.032891 0.112723
Si Si3 0.196792 0.578427 0.767097
Si Si4 0.359639 0.485031 0.047117
Si Si5 0.773461 0.941059 0.372015
Si Si6 0.222491 0.214151 0.537256
Si Si7 0.183710 0.523689 0.964507
O O1 0.240138 0.188707 0.746383
O O2 0.635385 0.683312 0.637237
O O3 0.115748 0.324248 0.927080
O O4 0.341269 0.413173 0.922474
O O5 0.114077 0.757316 0.125345
O O6 0.033404 0.903537 0.303529
O O7 0.558725 0.240090 0.064496
O O8 0.450576 0.233715 0.990550
O O9 0.451530 0.732376 0.559386
O O10 0.302273 0.658697 0.824429
O O11 0.100190 0.631102 0.848051
O O12 0.500000 0.500000 0.000000
O O13 0.032160 0.237439 0.248182
O O14 0.869234 0.975963 0.412175
O O15 0.500000 0.500000 0.500000
#
# Coordination Sequence:
#
# PCOD9044095 Si02
#       7
#     2   2   2   2   2   2   2
#     4  10  20  38  58  90 117 156 203 245 301 360
#     4  11  21  39  61  88 124 158 203 252 300 361
#     4  11  21  42  63  87 126 158 208 251 303 360
#     4  11  24  34  56  94 128 153 197 255 313 357
#     4  11  20  39  61  91 121 161 194 257 308 359
#     4  10  17  33  63  87 114 152 200 248 301 342
#     4  10  23  35  64  96 113 162 209 253 297 363
#
# _framework density 19.842478
#
# number of rings (size 3 to 8) (size 9 to 14) (size 15 to 20)
#    0.000    1.429    5.714    1.714    0.000    3.429 
#    0.000    2.857    0.000    3.429    0.000    0.000 
#    0.000    0.000    0.000    0.000    0.000    0.000 
#
# Total GULP energy -78087.427463 kJ/mol
# GULP energy per Si atom -5577.673390 kJ/mol
# Density = 1.979732 g / cm^3
# Si number density = 19.842478 Si / 1000 Ang^3
#
#
#
# Elastic Constant Matrix: (Units=GPa)
#
#
# Indices 1 2 3 4 5 6 
#
# 1 102.0139 13.5220 56.2930 -0.6025 -7.2613 2.7775
# 2 13.5220 60.7849 42.1606 -8.1172 -2.4573 -11.3444
# 3 56.2930 42.1606 119.2328 -0.0896 -0.7476 -17.2615
# 4 -0.6025 -8.1172 -0.0896 27.9737 -12.7475 -3.1388
# 5 -7.2613 -2.4573 -0.7476 -12.7475 42.3798 2.4980
# 6 2.7775 -11.3444 -17.2615 -3.1388 2.4980 21.7140
#
#
#
# Elastic Compliance Matrix: (Units=1/GPa)
#
#
# Indices 1 2 3 4 5 6 
#
# 1 0.014901 0.001530 -0.008749 0.001351 0.003381 -0.008255
# 2 0.001530 0.024736 -0.008425 0.009833 0.004094 0.006980
# 3 -0.008749 -0.008425 0.016942 -0.002878 -0.003152 0.010132
# 4 0.001351 0.009833 -0.002878 0.045913 0.014108 0.007690
# 5 0.003381 0.004094 -0.003152 0.014108 0.028722 -0.002064
# 6 -0.008255 0.006980 0.010132 0.007690 -0.002064 0.060159
#
#
# Mechanical properties :
#
#
# Convention : Reuss Voigt Hill
#
# Bulk Modulus (GPa) = 39.54165 56.22032 47.88099
# Shear Modulus (GPa) = 21.63636 29.75057 25.69346
#
# Velocity S-wave (km/s) = 3.30571 3.87633 3.60234
# Velocity P-wave (km/s) = 5.87719 6.95912 6.44091
#
# Compressibility (1/GPa) = 0.02528979
#
# Stress axis : x y z
#
# Youngs Moduli (GPa) = 67.10919 40.42638 59.02575
#
# Poissons Ratio (x) = -0.06185 0.51642
# Poissons Ratio (y) = -0.10267 0.49732
# Poissons Ratio (z) = 0.58715 0.34061
#
# Static dielectric constant tensor:
#      x y z
#    x 1.733710 0.000460 -0.000040 
#    y 0.000460 1.787560 0.004640 
#    z -0.000040 0.004640 1.720250 
# 
# From -- ./inp_files/532587.got.cif
#   From: 2010.05.17/outbox.cif.g08.bks.cpg/sg2_267_cif.got.tgz:532587.got - 2010.06.03 11:33:40.
