data_PCOD9044982
_publ_section_title
;
Structure prediction by ZEFSAII (Michael W. Deem and Ramdas Pophale) SiO2 
 PCOD9044982
Probable space group: P -1
;
_chemical_formula_sum "Si O2"
_cell_formula_units_Z 12
_cell_length_a 18.583019
_cell_length_b 16.180750
_cell_length_c 10.921279
_cell_angle_alpha 22.032169
_cell_angle_beta 148.496673
_cell_angle_gamma 157.221606
_cell_volume 476.894381
_symmetry_space_group_name_H-M "P -1"
_symmetry_group_IT_number 2
_symmetry_cell_setting 'triclinic'
loop_
_space_group_symop_operation_xyz
x,y,z
-x,-y,-z
loop_
_atom_site_type_symbol
_atom_site_label
_atom_site_fract_x
_atom_site_fract_y
_atom_site_fract_z
Si Si1 0.724359 0.215325 0.110168
Si Si2 0.646944 0.923126 0.173192
Si Si3 0.336209 0.167149 0.266075
Si Si4 0.134406 0.265006 0.238056
Si Si5 0.032707 0.287112 0.793781
Si Si6 0.387547 0.851074 0.416404
O O1 0.776470 0.225766 0.029618
O O2 0.703087 0.936714 0.508340
O O3 0.853409 0.479478 0.033158
O O4 0.549604 0.200513 0.885587
O O5 0.688118 0.709346 0.543029
O O6 0.675783 0.015641 0.944170
O O7 0.444174 0.057037 0.545930
O O8 0.500000 0.500000 0.000000
O O9 0.147789 0.987584 0.163431
O O10 0.065225 0.199522 0.088580
O O11 0.000000 0.000000 0.500000
O O12 0.216870 0.505503 0.676495
O O13 0.000000 0.500000 0.500000
O O14 0.500000 0.000000 0.500000
#
# Coordination Sequence:
#
# PCOD9044982 Si02
#       6
#     2   2   2   2   2   2
#     4  10  23  48  71 101 149 189 245 308 363 439
#     4  10  24  45  72 105 146 191 241 301 374 436
#     4  11  26  46  72 106 145 190 248 304 368 436
#     4  12  26  43  73 110 142 195 241 301 375 444
#     4  12  23  46  74 103 149 192 244 304 365 440
#     4  11  23  45  75 105 141 194 241 301 362 439
#
# _framework density 25.162804999999999
#
# number of rings (size 3 to 8) (size 9 to 14) (size 15 to 20)
#    0.000    1.000    3.333    2.500    2.333    5.333 
#    0.000    0.000    0.000    0.000    0.000    0.000 
#    0.000    0.000    0.000    0.000    0.000    0.000 
#
# Total GULP energy -66857.127452 kJ/mol
# GULP energy per Si atom -5571.427288 kJ/mol
# Density = 2.510553 g / cm^3
# Si number density = 25.162805 Si / 1000 Ang^3
#
#
#
# Elastic Constant Matrix: (Units=GPa)
#
#
# Indices 1 2 3 4 5 6 
#
# 1 94.2718 26.8307 32.0661 5.4112 3.7158 -1.5843
# 2 26.8307 155.4554 47.6698 4.0947 -13.4568 -1.2726
# 3 32.0661 47.6698 123.7757 11.3209 -26.0495 -17.7066
# 4 5.4112 4.0947 11.3209 52.1267 -5.5926 -9.3658
# 5 3.7158 -13.4568 -26.0495 -5.5926 40.6633 -5.4889
# 6 -1.5843 -1.2726 -17.7066 -9.3658 -5.4889 32.8243
#
#
#
# Elastic Compliance Matrix: (Units=1/GPa)
#
#
# Indices 1 2 3 4 5 6 
#
# 1 0.012567 -0.001335 -0.004010 -0.001334 -0.004717 -0.002778
# 2 -0.001335 0.007496 -0.002497 0.000011 0.000873 -0.000972
# 3 -0.004010 -0.002497 0.013191 0.000245 0.009161 0.008427
# 4 -0.001334 0.000011 0.000245 0.020911 0.004065 0.006714
# 5 -0.004717 0.000873 0.009161 0.004065 0.033289 0.011475
# 6 -0.002778 -0.000972 0.008427 0.006714 0.011475 0.038674
#
#
# Mechanical properties :
#
#
# Convention : Reuss Voigt Hill
#
# Bulk Modulus (GPa) = 56.91567 65.18181 61.04874
# Shear Modulus (GPa) = 33.85926 42.91860 38.38893
#
# Velocity S-wave (km/s) = 3.67223 4.13442 3.91016
# Velocity P-wave (km/s) = 6.37561 6.98222 6.68580
#
# Compressibility (1/GPa) = 0.01756985
#
# Stress axis : x y z
#
# Youngs Moduli (GPa) = 79.57093 133.39808 75.80981
#
# Poissons Ratio (x) = 0.17815 0.30397
# Poissons Ratio (y) = 0.10627 0.18932
# Poissons Ratio (z) = 0.31905 0.33314
#
# Static dielectric constant tensor:
#      x y z
#    x 2.260780 -0.112630 0.028030 
#    y -0.112630 2.220700 0.065950 
#    z 0.028030 0.065950 2.179980 
# 
# From -- ./inp_files/472311.got.cif
#   From: 2010.05.17/outbox.cif.g08.bks.cpg/sg2_237_cif.got.tgz:472311.got - 2010.06.03 11:33:40.
