data_PCOD9044099
_publ_section_title
;
Structure prediction by ZEFSAII (Michael W. Deem and Ramdas Pophale) SiO2 
 PCOD9044099
Probable space group: P -1
;
_chemical_formula_sum "Si O2"
_cell_formula_units_Z 15
_cell_length_a 9.725647
_cell_length_b 9.426179
_cell_length_c 6.607129
_cell_angle_alpha 99.094941
_cell_angle_beta 87.964035
_cell_angle_gamma 82.686589
_cell_volume 592.273833
_symmetry_space_group_name_H-M "P -1"
_symmetry_group_IT_number 2
_symmetry_cell_setting 'triclinic'
loop_
_space_group_symop_operation_xyz
x,y,z
-x,-y,-z
loop_
_atom_site_type_symbol
_atom_site_label
_atom_site_fract_x
_atom_site_fract_y
_atom_site_fract_z
Si Si1 0.479833 0.836513 0.386885
Si Si2 0.793652 0.268499 0.030841
Si Si3 0.757685 0.770621 0.097994
Si Si4 0.348139 0.960897 0.048425
Si Si5 0.329256 0.485198 0.198322
Si Si6 0.872460 0.412499 0.445683
Si Si7 0.987661 0.149563 0.657979
Si Si8 0.500000 0.500000 0.500000
O O1 0.612695 0.789334 0.227084
O O2 0.352146 0.890479 0.253847
O O3 0.474858 0.688628 0.481751
O O4 0.500000 0.000000 0.500000
O O5 0.860916 0.368539 0.206651
O O6 0.698563 0.163090 0.119542
O O7 0.711526 0.374998 0.899156
O O8 0.908810 0.160654 0.879659
O O9 0.870092 0.791110 0.267636
O O10 0.754240 0.628846 0.930927
O O11 0.755376 0.896267 0.959119
O O12 0.500000 0.000000 0.000000
O O13 0.275883 0.505109 0.444182
O O14 0.488499 0.459956 0.247494
O O15 0.905654 0.268454 0.542511
O O16 0.000000 0.500000 0.500000
O O17 0.000000 0.000000 0.500000
#
# Coordination Sequence:
#
# PCOD9044099 Si02
#       8
#     2   2   2   2   2   2   2   1
#     4  11  26  46  72 108 152 196 250 319 380 451
#     4  11  24  47  71 103 153 190 238 319 375 442
#     4  11  25  46  72 104 147 194 249 315 377 456
#     4  10  23  46  69  99 143 191 240 306 379 435
#     4  11  26  44  70 108 145 187 249 305 374 457
#     4  11  25  44  72 100 147 190 238 308 373 436
#     4  11  26  44  71 109 141 189 258 303 375 458
#     4  12  26  46  76 112 144 202 264 298 382 470
#
# _framework density 25.326122999999999
#
# number of rings (size 3 to 8) (size 9 to 14) (size 15 to 20)
#    0.000    1.067    1.333    3.200    5.600   10.133 
#    0.000    0.000    0.000    0.000    0.000    0.000 
#    0.000    0.000    0.000    0.000    0.000    0.000 
#
# Total GULP energy -83525.907664 kJ/mol
# GULP energy per Si atom -5568.393844 kJ/mol
# Density = 2.526848 g / cm^3
# Si number density = 25.326123 Si / 1000 Ang^3
#
#
#
# Elastic Constant Matrix: (Units=GPa)
#
#
# Indices 1 2 3 4 5 6 
#
# 1 26.4244 13.9487 26.5409 3.5523 8.6159 15.5981
# 2 13.9487 182.9889 53.6885 -0.9534 14.4439 19.1682
# 3 26.5409 53.6885 126.6206 23.1737 19.8353 9.3786
# 4 3.5523 -0.9534 23.1737 44.6797 -5.9443 15.7433
# 5 8.6159 14.4439 19.8353 -5.9443 53.9628 4.2574
# 6 15.5981 19.1682 9.3786 15.7433 4.2574 40.0469
#
#
#
# Elastic Compliance Matrix: (Units=1/GPa)
#
#
# Indices 1 2 3 4 5 6 
#
# 1 0.067516 0.002476 -0.014948 0.012172 -0.002357 -0.028516
# 2 0.002476 0.006895 -0.003722 0.003550 -0.000105 -0.004778
# 3 -0.014948 -0.003722 0.014345 -0.009806 -0.003640 0.008486
# 4 0.012172 0.003550 -0.009806 0.033700 0.005844 -0.018014
# 5 -0.002357 -0.000105 -0.003640 0.005844 0.021132 -0.002723
# 6 -0.028516 -0.004778 0.008486 -0.018014 -0.002723 0.043748
#
#
# Mechanical properties :
#
#
# Convention : Reuss Voigt Hill
#
# Bulk Modulus (GPa) = 17.74058 58.26557 38.00308
# Shear Modulus (GPa) = 20.96299 43.86158 32.41229
#
# Velocity S-wave (km/s) = 2.88014 4.16609 3.58131
# Velocity P-wave (km/s) = 4.25210 6.79690 5.66913
#
# Compressibility (1/GPa) = 0.05636793
#
# Stress axis : x y z
#
# Youngs Moduli (GPa) = 14.81127 145.02444 69.70917
#
# Poissons Ratio (x) = -0.35905 1.04202
# Poissons Ratio (y) = -0.03667 0.25947
# Poissons Ratio (z) = 0.22140 0.53980
#
# Static dielectric constant tensor:
#      x y z
#    x 1.917820 0.061840 -0.008820 
#    y 0.061840 2.064650 0.051580 
#    z -0.008820 0.051580 2.099570 
# 
# From -- ./inp_files/60977.got.cif
#   From: 2010.05.17/outbox.cif.g08.bks.cpg/sg2_31_cif.got.tgz:60977.got - 2010.06.03 11:33:40.
