data_PCOD9044315
_publ_section_title
;
Structure prediction by ZEFSAII (Michael W. Deem and Ramdas Pophale) SiO2 
 PCOD9044315
Probable space group: P -1
;
_chemical_formula_sum "Si O2"
_cell_formula_units_Z 16
_cell_length_a 9.086777
_cell_length_b 9.065175
_cell_length_c 11.785262
_cell_angle_alpha 98.192599
_cell_angle_beta 88.731734
_cell_angle_gamma 50.069375
_cell_volume 728.526573
_symmetry_space_group_name_H-M "P -1"
_symmetry_group_IT_number 2
_symmetry_cell_setting 'triclinic'
loop_
_space_group_symop_operation_xyz
x,y,z
-x,-y,-z
loop_
_atom_site_type_symbol
_atom_site_label
_atom_site_fract_x
_atom_site_fract_y
_atom_site_fract_z
Si Si1 0.431724 0.199182 0.971060
Si Si2 0.895124 0.049288 0.130869
Si Si3 0.444345 0.532394 0.720730
Si Si4 0.210583 0.224259 0.369118
Si Si5 0.705359 0.592692 0.780752
Si Si6 0.149779 0.254325 0.810840
Si Si7 0.723902 0.116444 0.771807
Si Si8 0.757879 0.614632 0.393729
O O1 0.232208 0.305655 0.915721
O O2 0.606504 0.130513 0.880982
O O3 0.399981 0.333628 0.088698
O O4 0.500000 0.000000 0.000000
O O5 0.729270 0.281020 0.183217
O O6 0.821579 0.932049 0.157912
O O7 0.062274 0.979451 0.208975
O O8 0.000000 0.000000 0.000000
O O9 0.584489 0.576599 0.688953
O O10 0.600231 0.340561 0.769397
O O11 0.361827 0.458464 0.632195
O O12 0.292187 0.245484 0.256122
O O13 0.288449 0.257987 0.481072
O O14 0.980021 0.409960 0.383805
O O15 0.261261 0.017610 0.340812
O O16 0.926473 0.405317 0.788374
O O17 0.254821 0.262398 0.700163
#
# Coordination Sequence:
#
# PCOD9044315 Si02
#       8
#     2   2   2   2   2   2   2   2
#     4  12  23  40  66  99 135 178 222 275 336 416
#     4  12  27  43  67 100 144 180 221 281 338 401
#     4  12  25  44  67 102 135 178 227 276 339 406
#     4  10  23  46  72  99 131 178 230 283 337 398
#     4  11  24  41  69 102 138 175 224 276 344 408
#     4  11  24  44  66  97 137 183 224 275 339 396
#     4  12  24  44  67 101 136 177 225 276 342 401
#     4  10  23  47  73  95 133 179 233 282 331 404
#
# _framework density 21.962136999999998
#
# number of rings (size 3 to 8) (size 9 to 14) (size 15 to 20)
#    0.000    0.750    5.000    2.625    1.750    2.000 
#    0.000    1.875    0.000    0.000    0.000    0.000 
#    0.000    0.000    0.000    0.000    0.000    0.000 
#
# Total GULP energy -89225.427743 kJ/mol
# GULP energy per Si atom -5576.589234 kJ/mol
# Density = 2.191215 g / cm^3
# Si number density = 21.962137 Si / 1000 Ang^3
#
#
#
# Elastic Constant Matrix: (Units=GPa)
#
#
# Indices 1 2 3 4 5 6 
#
# 1 125.7111 17.9681 30.6890 7.1910 39.8908 -10.4514
# 2 17.9681 113.4547 26.2907 -3.2120 6.7657 5.8784
# 3 30.6890 26.2907 87.3798 9.4474 28.6760 -3.8327
# 4 7.1910 -3.2120 9.4474 57.8979 1.5578 -7.1721
# 5 39.8908 6.7657 28.6760 1.5578 31.7042 -1.0976
# 6 -10.4514 5.8784 -3.8327 -7.1721 -1.0976 36.5590
#
#
#
# Elastic Compliance Matrix: (Units=1/GPa)
#
#
# Indices 1 2 3 4 5 6 
#
# 1 0.014163 -0.001832 0.002179 -0.001234 -0.019209 0.003753
# 2 -0.001832 0.009890 -0.003641 0.001008 0.003362 -0.002197
# 3 0.002179 -0.003641 0.018107 -0.002687 -0.018140 0.002035
# 4 -0.001234 0.001008 -0.002687 0.018194 0.002974 0.002862
# 5 -0.019209 0.003362 -0.018140 0.002974 0.071075 -0.005217
# 6 0.003753 -0.002197 0.002035 0.002862 -0.005217 0.029397
#
#
# Mechanical properties :
#
#
# Convention : Reuss Voigt Hill
#
# Bulk Modulus (GPa) = 28.11140 52.93793 40.52466
# Shear Modulus (GPa) = 27.89082 42.00542 34.94812
#
# Velocity S-wave (km/s) = 3.56750 4.37811 3.99342
# Velocity P-wave (km/s) = 5.45868 7.05079 6.30519
#
# Compressibility (1/GPa) = 0.03557276
#
# Stress axis : x y z
#
# Youngs Moduli (GPa) = 70.60770 101.11460 55.22609
#
# Poissons Ratio (x) = 0.18523 -0.12034
# Poissons Ratio (y) = 0.12934 0.20107
# Poissons Ratio (z) = -0.15386 0.36814
#
# Static dielectric constant tensor:
#      x y z
#    x 1.842310 -0.025030 0.024720 
#    y -0.025030 1.772490 0.007520 
#    z 0.024720 0.007520 1.787870 
# 
# From -- ./inp_files/272555.got.cif
#   From: 2010.05.17/outbox.cif.g08.bks.cpg/sg2_137_cif.got.tgz:272555.got - 2010.06.03 11:33:40.
