data_PCOD9044526
_publ_section_title
;
Structure prediction by ZEFSAII (Michael W. Deem and Ramdas Pophale) SiO2 
 PCOD9044526
Probable space group: P -1
;
_chemical_formula_sum "Si O2"
_cell_formula_units_Z 16
_cell_length_a 9.525414
_cell_length_b 12.036742
_cell_length_c 15.107558
_cell_angle_alpha 149.958231
_cell_angle_beta 116.581738
_cell_angle_gamma 50.134118
_cell_volume 639.064018
_symmetry_space_group_name_H-M "P -1"
_symmetry_group_IT_number 2
_symmetry_cell_setting 'triclinic'
loop_
_space_group_symop_operation_xyz
x,y,z
-x,-y,-z
loop_
_atom_site_type_symbol
_atom_site_label
_atom_site_fract_x
_atom_site_fract_y
_atom_site_fract_z
Si Si1 0.948356 0.633807 0.841152
Si Si2 0.687664 0.116482 0.357494
Si Si3 0.337504 0.261012 0.032478
Si Si4 0.661154 0.130598 0.811793
Si Si5 0.736363 0.182996 0.063153
Si Si6 0.231502 0.411649 0.918428
Si Si7 0.989358 0.816656 0.568445
Si Si8 0.286088 0.440833 0.542206
O O1 0.890878 0.889214 0.942773
O O2 0.052922 0.362343 0.627303
O O3 0.059678 0.613094 0.946633
O O4 0.760533 0.665627 0.850370
O O5 0.862927 0.138093 0.406596
O O6 0.484925 0.370342 0.507740
O O7 0.642919 0.008875 0.181905
O O8 0.749476 0.872852 0.275092
O O9 0.216223 0.463013 0.055374
O O10 0.535842 0.226813 0.061656
O O11 0.736032 0.187138 0.960537
O O12 0.691487 0.840913 0.636685
O O13 0.792261 0.077937 0.728301
O O14 0.433151 0.338800 0.888827
O O15 0.256256 0.590406 0.728829
O O16 0.111183 0.635845 0.562948
#
# Coordination Sequence:
#
# PCOD9044526 Si02
#       8
#     2   2   2   2   2   2   2   2
#     4  12  21  35  64  99 124 176 210 258 335 374
#     4   9  20  40  63  93 130 163 209 272 316 371
#     4   9  19  40  62  96 130 160 213 271 315 376
#     4  10  23  47  61  95 131 169 216 266 320 378
#     4  11  22  39  70  94 129 171 211 267 328 375
#     4   8  21  41  66  86 132 173 207 271 314 384
#     4  12  23  36  64  95 135 163 215 272 312 389
#     4  11  21  41  66  95 130 162 218 270 316 380
#
# _framework density 25.036615000000001
#
# number of rings (size 3 to 8) (size 9 to 14) (size 15 to 20)
#    0.750    1.000    2.500    3.000    0.000    1.500 
#    2.250    0.000    5.500    3.000    0.000    0.000 
#    0.000    0.000    0.000    0.000    0.000    0.000 
#
# Total GULP energy -89635.146833 kJ/mol
# GULP energy per Si atom -5602.196677 kJ/mol
# Density = 2.497963 g / cm^3
# Si number density = 25.036615 Si / 1000 Ang^3
#
#
#
# Elastic Constant Matrix: (Units=GPa)
#
#
# Indices 1 2 3 4 5 6 
#
# 1 124.1019 5.8012 11.7047 2.6802 -20.8836 3.8321
# 2 5.8012 93.5120 7.3265 -0.6899 0.2261 0.9308
# 3 11.7047 7.3265 125.3756 -15.5375 -17.8511 2.9582
# 4 2.6802 -0.6899 -15.5375 28.6646 -9.5854 -4.3876
# 5 -20.8836 0.2261 -17.8511 -9.5854 45.9138 4.8081
# 6 3.8321 0.9308 2.9582 -4.3876 4.8081 28.3432
#
#
#
# Elastic Compliance Matrix: (Units=1/GPa)
#
#
# Indices 1 2 3 4 5 6 
#
# 1 0.008857 -0.000530 -0.000124 0.000221 0.004223 -0.001849
# 2 -0.000530 0.010782 -0.000702 -0.000300 -0.000614 -0.000152
# 3 -0.000124 -0.000702 0.009635 0.006837 0.005203 -0.000790
# 4 0.000221 -0.000300 0.006837 0.042958 0.011310 0.003998
# 5 0.004223 -0.000614 0.005203 0.011310 0.028526 -0.004182
# 6 -0.001849 -0.000152 -0.000790 0.003998 -0.004182 0.036948
#
#
# Mechanical properties :
#
#
# Convention : Reuss Voigt Hill
#
# Bulk Modulus (GPa) = 37.64364 43.62826 40.63595
# Shear Modulus (GPa) = 33.49592 41.79477 37.64535
#
# Velocity S-wave (km/s) = 3.66167 4.09020 3.88185
# Velocity P-wave (km/s) = 5.73979 6.30634 6.02972
#
# Compressibility (1/GPa) = 0.02656491
#
# Stress axis : x y z
#
# Youngs Moduli (GPa) = 112.90115 92.74338 103.78479
#
# Poissons Ratio (x) = 0.04915 0.01283
# Poissons Ratio (y) = 0.05983 0.07281
# Poissons Ratio (z) = 0.01395 0.06506
#
# Static dielectric constant tensor:
#      x y z
#    x 2.046920 0.021920 -0.009910 
#    y 0.021920 1.938950 0.031740 
#    z -0.009910 0.031740 1.936070 
# 
# From -- ./inp_files/500844.got.cif
#   From: 2010.05.17/outbox.cif.g08.bks.cpg/sg2_251_cif.got.tgz:500844.got - 2010.06.03 11:33:40.
