data_PCOD9044668
_publ_section_title
;
Structure prediction by ZEFSAII (Michael W. Deem and Ramdas Pophale) SiO2 
 PCOD9044668
Probable space group: P -1
;
_chemical_formula_sum "Si O2"
_cell_formula_units_Z 12
_cell_length_a 12.670165
_cell_length_b 7.302788
_cell_length_c 19.666328
_cell_angle_alpha 134.556956
_cell_angle_beta 22.194483
_cell_angle_gamma 134.450591
_cell_volume 481.045501
_symmetry_space_group_name_H-M "P -1"
_symmetry_group_IT_number 2
_symmetry_cell_setting 'triclinic'
loop_
_space_group_symop_operation_xyz
x,y,z
-x,-y,-z
loop_
_atom_site_type_symbol
_atom_site_label
_atom_site_fract_x
_atom_site_fract_y
_atom_site_fract_z
Si Si1 0.251755 0.808801 0.233237
Si Si2 0.470488 0.161802 0.784639
Si Si3 0.349516 0.137653 0.524229
Si Si4 0.157260 0.574311 0.092934
Si Si5 0.748781 0.362141 0.466365
Si Si6 0.390662 0.352721 0.254666
O O1 0.461307 0.891576 0.192566
O O2 0.339139 0.669376 0.077288
O O3 0.999480 0.596301 0.358585
O O4 0.174662 0.082793 0.324972
O O5 0.673477 0.430949 0.704539
O O6 0.519842 0.942659 0.645130
O O7 0.175763 0.273095 0.989836
O O8 0.594332 0.245605 0.460206
O O9 0.141914 0.343780 0.696065
O O10 0.176689 0.876383 0.596213
O O11 0.325589 0.720657 0.966440
O O12 0.550407 0.490671 0.669506
#
# Coordination Sequence:
#
# PCOD9044668 Si02
#       6
#     2   2   2   2   2   2
#     4  12  23  41  73 104 132 179 227 278 338 403
#     4   9  24  44  69 101 135 173 225 283 332 395
#     4  10  23  47  70  97 139 183 221 277 342 396
#     4  10  24  42  70 101 136 175 224 283 334 399
#     4  10  24  43  70 101 136 181 227 273 339 406
#     4   9  23  43  65 106 133 173 224 281 339 389
#
# _framework density 24.945665000000002
#
# number of rings (size 3 to 8) (size 9 to 14) (size 15 to 20)
#    1.000    1.000    0.000    1.500    7.000    4.000 
#    0.000    0.833    0.000    0.000    0.000    0.000 
#    0.000    0.000    0.000    0.000    0.000    0.000 
#
# Total GULP energy -67028.727877 kJ/mol
# GULP energy per Si atom -5585.727323 kJ/mol
# Density = 2.488889 g / cm^3
# Si number density = 24.945665 Si / 1000 Ang^3
#
#
#
# Elastic Constant Matrix: (Units=GPa)
#
#
# Indices 1 2 3 4 5 6 
#
# 1 99.9912 29.0886 53.8116 31.4830 17.6516 -1.1222
# 2 29.0886 110.8843 38.4787 15.9423 6.4167 -15.0527
# 3 53.8116 38.4787 139.5593 54.5510 16.5696 3.9946
# 4 31.4830 15.9423 54.5510 37.2587 5.8832 12.3554
# 5 17.6516 6.4167 16.5696 5.8832 39.3204 11.2093
# 6 -1.1222 -15.0527 3.9946 12.3554 11.2093 34.8232
#
#
#
# Elastic Compliance Matrix: (Units=1/GPa)
#
#
# Indices 1 2 3 4 5 6 
#
# 1 0.016299 -0.000662 0.001071 -0.016670 -0.007581 0.008471
# 2 -0.000662 0.011435 -0.000595 -0.005642 -0.002716 0.007866
# 3 0.001071 -0.000595 0.020488 -0.033342 -0.007341 0.011620
# 4 -0.016670 -0.005642 -0.033342 0.103025 0.018957 -0.041807
# 5 -0.007581 -0.002716 -0.007341 0.018957 0.034812 -0.018508
# 6 0.008471 0.007866 0.011620 -0.041807 -0.018508 0.051847
#
#
# Mechanical properties :
#
#
# Convention : Reuss Voigt Hill
#
# Bulk Modulus (GPa) = 20.89855 65.91028 43.40441
# Shear Modulus (GPa) = 19.66746 37.55084 28.60915
#
# Velocity S-wave (km/s) = 2.81091 3.88404 3.39020
# Velocity P-wave (km/s) = 4.35095 6.82592 5.72381
#
# Compressibility (1/GPa) = 0.04785021
#
# Stress axis : x y z
#
# Youngs Moduli (GPa) = 61.35432 87.45360 48.80933
#
# Poissons Ratio (x) = 0.05792 -0.05230
# Poissons Ratio (y) = 0.04063 0.02903
# Poissons Ratio (z) = -0.06574 0.05201
#
# Static dielectric constant tensor:
#      x y z
#    x 1.971070 -0.018210 -0.027790 
#    y -0.018210 2.014740 -0.015040 
#    z -0.027790 -0.015040 2.021280 
# 
# From -- ./inp_files/596890.got.cif
#   From: 2010.05.17/outbox.cif.g08.bks.cpg/sg2_299_cif.got.tgz:596890.got - 2010.06.03 11:33:40.
