data_PCOD9044972
_publ_section_title
;
Structure prediction by ZEFSAII (Michael W. Deem and Ramdas Pophale) SiO2 
 PCOD9044972
Probable space group: P -1
;
_chemical_formula_sum "Si O2"
_cell_formula_units_Z 14
_cell_length_a 8.588258
_cell_length_b 4.880907
_cell_length_c 25.851123
_cell_angle_alpha 74.304150
_cell_angle_beta 142.975566
_cell_angle_gamma 85.321868
_cell_volume 539.127935
_symmetry_space_group_name_H-M "P -1"
_symmetry_group_IT_number 2
_symmetry_cell_setting 'triclinic'
loop_
_space_group_symop_operation_xyz
x,y,z
-x,-y,-z
loop_
_atom_site_type_symbol
_atom_site_label
_atom_site_fract_x
_atom_site_fract_y
_atom_site_fract_z
Si Si1 0.302991 0.799391 0.495491
Si Si2 0.276763 0.216620 0.557210
Si Si3 0.693710 0.404600 0.272179
Si Si4 0.706544 0.880305 0.010202
Si Si5 0.288373 0.446404 0.247241
Si Si6 0.505069 0.419876 0.117700
Si Si7 0.045315 0.479032 0.287378
O O1 0.361789 0.429064 0.531023
O O2 0.641028 0.736415 0.587484
O O3 0.203249 0.986908 0.514602
O O4 0.002145 0.044806 0.371981
O O5 0.000000 0.500000 0.500000
O O6 0.540024 0.947601 0.676802
O O7 0.535531 0.502566 0.280576
O O8 0.469900 0.393612 0.170947
O O9 0.806201 0.637466 0.263452
O O10 0.555823 0.785406 0.929488
O O11 0.714130 0.197973 0.975929
O O12 0.016365 0.581470 0.128409
O O13 0.500000 0.000000 0.000000
O O14 0.154494 0.604355 0.260525
O O15 0.853238 0.341106 0.212986
#
# Coordination Sequence:
#
# PCOD9044972 Si02
#       7
#     2   2   2   2   2   2   2
#     4  11  23  45  73 103 150 193 232 299 368 422
#     4  11  24  43  70 110 144 184 251 291 350 452
#     4  10  23  48  70 112 146 191 238 303 359 437
#     4  12  24  48  76 106 140 195 242 303 361 422
#     4  11  24  44  79 103 144 198 234 302 369 415
#     4  10  26  45  71 106 147 179 252 297 348 439
#     4   9  23  45  69 111 142 187 246 292 353 441
#
# _framework density 25.967862
#
# number of rings (size 3 to 8) (size 9 to 14) (size 15 to 20)
#    0.857    0.571    2.857    1.286    2.000    6.857 
#    0.000    3.571    0.000    0.000    0.000    0.000 
#    0.000    0.000    0.000    0.000    0.000    0.000 
#
# Total GULP energy -78025.251663 kJ/mol
# GULP energy per Si atom -5573.232262 kJ/mol
# Density = 2.590876 g / cm^3
# Si number density = 25.967862 Si / 1000 Ang^3
#
#
#
# Elastic Constant Matrix: (Units=GPa)
#
#
# Indices 1 2 3 4 5 6 
#
# 1 156.5592 21.0297 24.5168 4.0076 -14.6189 2.4471
# 2 21.0297 104.0656 29.1493 -2.5897 -17.1688 -7.8757
# 3 24.5168 29.1493 197.2073 -24.9654 -25.4092 5.6513
# 4 4.0076 -2.5897 -24.9654 36.1348 -0.0946 -2.7398
# 5 -14.6189 -17.1688 -25.4092 -0.0946 27.9794 -1.5997
# 6 2.4471 -7.8757 5.6513 -2.7398 -1.5997 17.0175
#
#
#
# Elastic Compliance Matrix: (Units=1/GPa)
#
#
# Indices 1 2 3 4 5 6 
#
# 1 0.006880 -0.000965 -0.000524 -0.001281 0.002452 -0.001238
# 2 -0.000965 0.011583 -0.000875 0.000842 0.006184 0.006507
# 3 -0.000524 -0.000875 0.006510 0.004407 0.005042 -0.001308
# 4 -0.001281 0.000842 0.004407 0.031277 0.004215 0.004542
# 5 0.002452 0.006184 0.005042 0.004215 0.045741 0.005813
# 6 -0.001238 0.006507 -0.001308 0.004542 0.005813 0.063665
#
#
# Mechanical properties :
#
#
# Convention : Reuss Voigt Hill
#
# Bulk Modulus (GPa) = 49.39166 67.46932 58.43049
# Shear Modulus (GPa) = 28.22752 41.76876 34.99814
#
# Velocity S-wave (km/s) = 3.30057 4.01494 3.67515
# Velocity P-wave (km/s) = 5.79540 6.89429 6.36859
#
# Compressibility (1/GPa) = 0.02024633
#
# Stress axis : x y z
#
# Youngs Moduli (GPa) = 145.34779 86.33338 153.60273
#
# Poissons Ratio (x) = 0.08328 0.08041
# Poissons Ratio (y) = 0.14021 0.13445
# Poissons Ratio (z) = 0.07609 0.07557
#
# Static dielectric constant tensor:
#      x y z
#    x 2.161540 0.056530 -0.018500 
#    y 0.056530 2.008090 -0.054210 
#    z -0.018500 -0.054210 2.089870 
# 
# From -- ./inp_files/616170.got.cif
#   From: 2010.05.17/outbox.cif.g08.bks.cpg/sg2_309_cif.got.tgz:616170.got - 2010.06.03 11:33:40.
