data_PCOD9044128
_publ_section_title
;
Structure prediction by ZEFSAII (Michael W. Deem and Ramdas Pophale) SiO2 
 PCOD9044128
Probable space group: P -1
;
_chemical_formula_sum "Si O2"
_cell_formula_units_Z 14
_cell_length_a 19.341160
_cell_length_b 14.184190
_cell_length_c 11.393837
_cell_angle_alpha 42.245302
_cell_angle_beta 32.207228
_cell_angle_gamma 20.672767
_cell_volume 565.796669
_symmetry_space_group_name_H-M "P -1"
_symmetry_group_IT_number 2
_symmetry_cell_setting 'triclinic'
loop_
_space_group_symop_operation_xyz
x,y,z
-x,-y,-z
loop_
_atom_site_type_symbol
_atom_site_label
_atom_site_fract_x
_atom_site_fract_y
_atom_site_fract_z
Si Si1 0.223481 0.689458 0.704161
Si Si2 0.550307 0.754500 0.380734
Si Si3 0.235890 0.215618 0.100622
Si Si4 0.566273 0.574966 0.982116
Si Si5 0.717233 0.117075 0.131601
Si Si6 0.854355 0.019773 0.611104
Si Si7 0.020116 0.366002 0.495423
O O1 0.500000 0.500000 0.500000
O O2 0.285892 0.520715 0.665279
O O3 0.081112 0.966501 0.616166
O O4 0.026662 0.805678 0.972946
O O5 0.459385 0.808377 0.594282
O O6 0.712055 0.742075 0.128452
O O7 0.278928 0.032651 0.447950
O O8 0.026427 0.441974 0.292512
O O9 0.134769 0.156763 0.258311
O O10 0.500000 0.000000 0.000000
O O11 0.367970 0.809917 0.949147
O O12 0.791724 0.472987 0.740055
O O13 0.652019 0.336034 0.061943
O O14 0.433204 0.702680 0.181753
O O15 0.000000 0.000000 0.500000
O O16 0.000000 0.500000 0.500000
#
# Coordination Sequence:
#
# PCOD9044128 Si02
#       7
#     2   2   2   2   2   2   2
#     4  12  25  42  71 106 147 185 245 308 359 429
#     4  11  25  45  71 108 141 184 247 305 358 429
#     4  10  23  46  70 104 145 189 243 291 366 436
#     4  11  23  44  71 103 147 189 241 294 366 441
#     4  11  25  43  70 109 146 187 241 300 367 425
#     4  12  24  46  74 104 147 198 241 294 370 439
#     4  11  25  45  76 102 141 196 242 297 367 437
#
# _framework density 24.743872
#
# number of rings (size 3 to 8) (size 9 to 14) (size 15 to 20)
#    0.000    0.857    2.857    5.143    6.000    1.143 
#    0.000    5.714    0.000    0.000    0.000    0.000 
#    0.000    0.000    0.000    0.000    0.000    0.000 
#
# Total GULP energy -78015.707796 kJ/mol
# GULP energy per Si atom -5572.550557 kJ/mol
# Density = 2.468755 g / cm^3
# Si number density = 24.743872 Si / 1000 Ang^3
#
#
#
# Elastic Constant Matrix: (Units=GPa)
#
#
# Indices 1 2 3 4 5 6 
#
# 1 75.5018 20.0839 47.6141 -8.4419 -13.5162 19.3284
# 2 20.0839 52.8992 44.7942 3.7202 -1.5268 10.6039
# 3 47.6141 44.7942 238.5129 -10.2778 6.4305 5.9795
# 4 -8.4419 3.7202 -10.2778 41.3271 12.3491 -0.9411
# 5 -13.5162 -1.5268 6.4305 12.3491 57.3474 6.0233
# 6 19.3284 10.6039 5.9795 -0.9411 6.0233 27.8320
#
#
#
# Elastic Compliance Matrix: (Units=1/GPa)
#
#
# Indices 1 2 3 4 5 6 
#
# 1 0.021057 -0.001948 -0.003596 0.001293 0.006557 -0.014484
# 2 -0.001948 0.025459 -0.004464 -0.004760 0.002596 -0.008111
# 3 -0.003596 -0.004464 0.005807 0.001909 -0.002400 0.003534
# 4 0.001293 -0.004760 0.001909 0.027281 -0.006202 0.002770
# 5 0.006557 0.002596 -0.002400 -0.006202 0.021700 -0.009933
# 6 -0.014484 -0.008111 0.003534 0.002770 -0.009933 0.050563
#
#
# Mechanical properties :
#
#
# Convention : Reuss Voigt Hill
#
# Bulk Modulus (GPa) = 30.95287 65.76647 48.35967
# Shear Modulus (GPa) = 27.37450 42.26275 34.81862
#
# Velocity S-wave (km/s) = 3.32974 4.13729 3.75528
# Velocity P-wave (km/s) = 5.22679 7.03274 6.19592
#
# Compressibility (1/GPa) = 0.03230719
#
# Stress axis : x y z
#
# Youngs Moduli (GPa) = 47.49091 39.27831 172.19926
#
# Poissons Ratio (x) = 0.07652 0.61916
# Poissons Ratio (y) = 0.09252 0.76875
# Poissons Ratio (z) = 0.17076 0.17535
#
# Static dielectric constant tensor:
#      x y z
#    x 1.959170 -0.000770 0.002560 
#    y -0.000770 1.622440 0.089540 
#    z 0.002560 0.089540 1.909040 
# 
# From -- ./inp_files/471903.got.cif
#   From: 2010.05.17/outbox.cif.g08.bks.cpg/sg2_236_cif.got.tgz:471903.got - 2010.06.03 11:33:40.
