data_PCOD9044826
_publ_section_title
;
Structure prediction by ZEFSAII (Michael W. Deem and Ramdas Pophale) SiO2 
 PCOD9044826
Probable space group: P -1
;
_chemical_formula_sum "Si O2"
_cell_formula_units_Z 14
_cell_length_a 5.373056
_cell_length_b 16.033468
_cell_length_c 8.709498
_cell_angle_alpha 101.106926
_cell_angle_beta 63.428807
_cell_angle_gamma 71.061901
_cell_volume 581.935198
_symmetry_space_group_name_H-M "P -1"
_symmetry_group_IT_number 2
_symmetry_cell_setting 'triclinic'
loop_
_space_group_symop_operation_xyz
x,y,z
-x,-y,-z
loop_
_atom_site_type_symbol
_atom_site_label
_atom_site_fract_x
_atom_site_fract_y
_atom_site_fract_z
Si Si1 0.533568 0.860462 0.367786
Si Si2 0.988544 0.703211 0.682170
Si Si3 0.172128 0.022869 0.760432
Si Si4 0.310896 0.409337 0.121089
Si Si5 0.199393 0.733755 0.313082
Si Si6 0.346111 0.545211 0.721778
Si Si7 0.456691 0.910232 0.933396
O O1 0.674464 0.907545 0.224519
O O2 0.362455 0.799690 0.340693
O O3 0.844248 0.795873 0.364583
O O4 0.286101 0.958433 0.554907
O O5 0.767542 0.652018 0.749523
O O6 0.777704 0.815607 0.796591
O O7 0.163065 0.685513 0.464888
O O8 0.204776 0.658607 0.756326
O O9 0.283876 0.939735 0.827282
O O10 0.802802 0.092617 0.885867
O O11 0.432817 0.473302 0.201739
O O12 0.959834 0.468916 0.169430
O O13 0.568626 0.340737 0.903975
O O14 0.500000 0.500000 0.500000
O O15 0.500000 0.000000 0.000000
#
# Coordination Sequence:
#
# PCOD9044826 Si02
#       7
#     2   2   2   2   2   2   2
#     4  11  25  40  60  88 132 176 229 279 328 378
#     4  10  25  40  70  96 136 177 222 277 330 391
#     4  10  24  37  59  84 129 177 231 280 327 378
#     4  10  24  42  72 100 133 171 217 270 339 398
#     4  12  24  43  66  98 132 174 227 272 329 401
#     4  10  23  47  75 101 136 170 214 275 342 402
#     4  11  22  39  60  92 129 178 228 273 325 388
#
# _framework density 24.057662000000001
#
# number of rings (size 3 to 8) (size 9 to 14) (size 15 to 20)
#    0.857    0.571    1.429    3.000    6.000    3.429 
#    0.000    1.429    0.000    0.000    0.000    0.000 
#    0.000    0.000    0.000    0.000    0.000    0.000 
#
# Total GULP energy -78159.263592 kJ/mol
# GULP energy per Si atom -5582.804542 kJ/mol
# Density = 2.400291 g / cm^3
# Si number density = 24.057662 Si / 1000 Ang^3
#
#
#
# Elastic Constant Matrix: (Units=GPa)
#
#
# Indices 1 2 3 4 5 6 
#
# 1 136.8443 31.8194 55.7986 -7.3947 10.6307 30.3175
# 2 31.8194 54.6176 11.5379 -3.9535 -0.2255 6.7519
# 3 55.7986 11.5379 129.8192 3.9814 -20.7583 23.2882
# 4 -7.3947 -3.9535 3.9814 35.0340 4.9112 11.2239
# 5 10.6307 -0.2255 -20.7583 4.9112 23.1207 5.2387
# 6 30.3175 6.7519 23.2882 11.2239 5.2387 12.6690
#
#
#
# Elastic Compliance Matrix: (Units=1/GPa)
#
#
# Indices 1 2 3 4 5 6 
#
# 1 -0.349246 -0.058129 -0.289067 -0.686805 -0.450487 2.192855
# 2 -0.058129 0.013864 -0.039640 -0.099536 -0.059493 0.317366
# 3 -0.289067 -0.039640 -0.205348 -0.543142 -0.322793 1.705017
# 4 -0.686805 -0.099536 -0.543142 -1.288527 -0.847852 4.187160
# 5 -0.450487 -0.059493 -0.322793 -0.847852 -0.459002 2.644050
# 6 2.192855 0.317366 1.705017 4.187160 2.644050-13.274886
#
#
# Mechanical properties :
#
#
# Convention : Reuss Voigt Hill
#
# Bulk Modulus (GPa) = -0.76080 57.73255 28.48587
# Shear Modulus (GPa) = -0.32835 28.97308 14.32236
#
# Velocity S-wave (km/s) = -0.36984 3.47409 2.44260
# Velocity P-wave (km/s) = 0.70661 6.33578 4.45212
#
# Compressibility (1/GPa) = -1.31440260
#
# Stress axis : x y z
#
# Youngs Moduli (GPa) = -2.86331 72.12884 -4.86978
#
# Poissons Ratio (x) = 4.19277 -1.40769
# Poissons Ratio (y) = -0.16644 -0.19304
# Poissons Ratio (z) = -0.82769 2.85919
#
# Static dielectric constant tensor:
#      x y z
#    x 1.970260 -0.035050 -0.011340 
#    y -0.035050 1.961800 -0.090130 
#    z -0.011340 -0.090130 2.027860 
# 
# From -- ./inp_files/137898.got.cif
#   From: 2010.05.17/outbox.cif.g08.bks.cpg/sg2_69_cif.got.tgz:137898.got - 2010.06.03 11:33:40.
