data_PCOD9044406
_publ_section_title
;
Structure prediction by ZEFSAII (Michael W. Deem and Ramdas Pophale) SiO2 
 PCOD9044406
Probable space group: P -1
;
_chemical_formula_sum "Si O2"
_cell_formula_units_Z 14
_cell_length_a 19.754527
_cell_length_b 5.160987
_cell_length_c 7.863975
_cell_angle_alpha 108.069513
_cell_angle_beta 130.254400
_cell_angle_gamma 64.573396
_cell_volume 551.992427
_symmetry_space_group_name_H-M "P -1"
_symmetry_group_IT_number 2
_symmetry_cell_setting 'triclinic'
loop_
_space_group_symop_operation_xyz
x,y,z
-x,-y,-z
loop_
_atom_site_type_symbol
_atom_site_label
_atom_site_fract_x
_atom_site_fract_y
_atom_site_fract_z
Si Si1 0.789033 0.635500 0.079381
Si Si2 0.035119 0.440050 0.849190
Si Si3 0.424245 0.369382 0.946900
Si Si4 0.585094 0.205957 0.365615
Si Si5 0.040962 0.983987 0.255761
Si Si6 0.391983 0.197589 0.393872
Si Si7 0.785949 0.250938 0.312175
O O1 0.862670 0.548801 0.026580
O O2 0.807970 0.408022 0.214591
O O3 0.799299 0.925460 0.226719
O O4 0.683491 0.718308 0.858730
O O5 0.024418 0.127436 0.748201
O O6 0.967825 0.683587 0.670484
O O7 0.000000 0.500000 0.000000
O O8 0.409733 0.061659 0.811163
O O9 0.323563 0.594979 0.804912
O O10 0.500000 0.500000 0.000000
O O11 0.471208 0.337327 0.204005
O O12 0.612830 0.497066 0.465735
O O13 0.637311 0.018257 0.570123
O O14 0.144084 0.770839 0.420274
O O15 0.000000 0.000000 0.000000
O O16 0.500000 0.000000 0.500000
#
# Coordination Sequence:
#
# PCOD9044406 Si02
#       7
#     2   2   2   2   2   2   2
#     4  12  27  45  73 108 151 200 250 304 394 454
#     4  10  23  47  71 103 144 186 245 316 370 454
#     4  11  25  47  70 106 150 198 254 316 372 456
#     4  11  24  42  70  99 141 200 246 303 374 430
#     4  10  23  46  74 103 143 187 247 317 379 446
#     4  12  24  44  68 104 149 197 247 307 365 458
#     4  12  27  45  73 108 150 197 251 312 388 454
#
# _framework density 25.362663999999999
#
# number of rings (size 3 to 8) (size 9 to 14) (size 15 to 20)
#    0.000    0.857    1.429    4.714    4.000    5.714 
#    5.143    0.000    0.000    0.000    0.000    0.000 
#    0.000    0.000    0.000    0.000    0.000    0.000 
#
# Total GULP energy -78038.506552 kJ/mol
# GULP energy per Si atom -5574.179039 kJ/mol
# Density = 2.530494 g / cm^3
# Si number density = 25.362664 Si / 1000 Ang^3
#
#
#
# Elastic Constant Matrix: (Units=GPa)
#
#
# Indices 1 2 3 4 5 6 
#
# 1 141.0480 56.5680 53.2837 -18.6853 18.6479 16.6044
# 2 56.5680 155.7045 49.9508 -22.9343 -11.2892 33.6222
# 3 53.2837 49.9508 200.6137 -29.1333 8.4068 6.6384
# 4 -18.6853 -22.9343 -29.1333 49.4087 -1.1116 -7.9542
# 5 18.6479 -11.2892 8.4068 -1.1116 24.1468 -11.7480
# 6 16.6044 33.6222 6.6384 -7.9542 -11.7480 42.3014
#
#
#
# Elastic Compliance Matrix: (Units=1/GPa)
#
#
# Indices 1 2 3 4 5 6 
#
# 1 0.011201 -0.003369 -0.001356 0.000850 -0.011989 -0.004676
# 2 -0.003369 0.009675 -0.001337 0.001871 0.005610 -0.004248
# 3 -0.001356 -0.001337 0.006071 0.002547 -0.001190 0.000790
# 4 0.000850 0.001871 0.002547 0.023396 0.001698 0.002650
# 5 -0.011989 0.005610 -0.001190 0.001698 0.062614 0.018143
# 6 -0.004676 -0.004248 0.000790 0.002650 0.018143 0.034265
#
#
# Mechanical properties :
#
#
# Convention : Reuss Voigt Hill
#
# Bulk Modulus (GPa) = 67.45617 90.77458 79.11537
# Shear Modulus (GPa) = 30.43458 45.67564 38.05511
#
# Velocity S-wave (km/s) = 3.46782 4.24831 3.87775
# Velocity P-wave (km/s) = 6.53367 7.74161 7.16314
#
# Compressibility (1/GPa) = 0.01482444
#
# Stress axis : x y z
#
# Youngs Moduli (GPa) = 89.27574 103.36138 164.71041
#
# Poissons Ratio (x) = 0.34820 0.22329
# Poissons Ratio (y) = 0.30075 0.22022
# Poissons Ratio (z) = 0.12102 0.13819
#
# Static dielectric constant tensor:
#      x y z
#    x 2.155730 -0.054520 -0.087950 
#    y -0.054520 2.422540 0.165280 
#    z -0.087950 0.165280 2.132660 
# 
# From -- ./inp_files/339387.got.cif
#   From: 2010.05.17/outbox.cif.g08.bks.cpg/sg2_170_cif.got.tgz:339387.got - 2010.06.03 11:33:40.
