data_PCOD9044640
_publ_section_title
;
Structure prediction by ZEFSAII (Michael W. Deem and Ramdas Pophale) SiO2 
 PCOD9044640
Probable space group: P -1
;
_chemical_formula_sum "Si O2"
_cell_formula_units_Z 14
_cell_length_a 16.633748
_cell_length_b 7.077149
_cell_length_c 5.061643
_cell_angle_alpha 115.016206
_cell_angle_beta 65.517344
_cell_angle_gamma 111.100374
_cell_volume 478.916851
_symmetry_space_group_name_H-M "P -1"
_symmetry_group_IT_number 2
_symmetry_cell_setting 'triclinic'
loop_
_space_group_symop_operation_xyz
x,y,z
-x,-y,-z
loop_
_atom_site_type_symbol
_atom_site_label
_atom_site_fract_x
_atom_site_fract_y
_atom_site_fract_z
Si Si1 0.993948 0.700967 0.807977
Si Si2 0.519497 0.281161 0.470986
Si Si3 0.761471 0.093536 0.750615
Si Si4 0.144843 0.148935 0.232207
Si Si5 0.365834 0.678173 0.130918
Si Si6 0.846476 0.425636 0.237865
Si Si7 0.322328 0.202756 0.690345
O O1 0.949852 0.862932 0.792797
O O2 0.000000 0.500000 0.500000
O O3 0.092507 0.731707 0.823063
O O4 0.916561 0.594633 0.057695
O O5 0.500000 0.500000 0.500000
O O6 0.577690 0.330516 0.686413
O O7 0.418386 0.144995 0.594302
O O8 0.572385 0.190989 0.111784
O O9 0.719731 0.214599 0.646252
O O10 0.854489 0.015339 0.623191
O O11 0.696764 0.859235 0.629503
O O12 0.771797 0.281287 0.066147
O O13 0.174725 0.396964 0.430158
O O14 0.228839 0.110083 0.917777
O O15 0.336454 0.447896 0.899739
#
# Coordination Sequence:
#
# PCOD9044640 Si02
#       7
#     2   2   2   2   2   2   2
#     4   9  20  44  74  95 134 186 234 284 349 431
#     4  10  24  48  76 101 138 200 245 297 360 425
#     4  12  27  40  68 107 143 181 234 297 361 424
#     4  11  24  42  69 103 140 184 229 296 356 427
#     4  11  26  47  75 101 145 195 246 297 361 425
#     4  10  23  47  70 100 138 184 234 289 357 424
#     4  11  26  44  70  99 141 184 237 296 356 424
#
# _framework density 29.232628999999999
#
# number of rings (size 3 to 8) (size 9 to 14) (size 15 to 20)
#    0.000    1.429    0.000    4.286   10.000    4.000 
#    0.000   10.000    0.000    0.000    0.000    0.000 
#    0.000    0.000    0.000    0.000    0.000    0.000 
#
# Total GULP energy -78215.663951 kJ/mol
# GULP energy per Si atom -5586.833139 kJ/mol
# Density = 2.916609 g / cm^3
# Si number density = 29.232629 Si / 1000 Ang^3
#
#
#
# Elastic Constant Matrix: (Units=GPa)
#
#
# Indices 1 2 3 4 5 6 
#
# 1 257.4697 69.9270 100.2255 16.5319 35.9241 -28.5381
# 2 69.9270 84.7380 36.8817 3.3646 4.6581 -5.6383
# 3 100.2255 36.8817 182.8448 9.2705 2.5118 12.6190
# 4 16.5319 3.3646 9.2705 45.1767 12.2666 0.6001
# 5 35.9241 4.6581 2.5118 12.2666 79.5394 4.3097
# 6 -28.5381 -5.6383 12.6190 0.6001 4.3097 67.5262
#
#
#
# Elastic Compliance Matrix: (Units=1/GPa)
#
#
# Indices 1 2 3 4 5 6 
#
# 1 0.007071 -0.004009 -0.003221 -0.000884 -0.002908 0.003449
# 2 -0.004009 0.015430 -0.000920 0.000263 0.000912 -0.000295
# 3 -0.003221 -0.000920 0.007639 -0.000698 0.001535 -0.002957
# 4 -0.000884 0.000263 -0.000698 0.023454 -0.003199 -0.000226
# 5 -0.002908 0.000912 0.001535 -0.003199 0.014403 -0.002330
# 6 0.003449 -0.000295 -0.002957 -0.000226 -0.002330 0.016946
#
#
# Mechanical properties :
#
#
# Convention : Reuss Voigt Hill
#
# Bulk Modulus (GPa) = 72.25699 104.34677 88.30188
# Shear Modulus (GPa) = 47.23391 59.64967 53.44179
#
# Velocity S-wave (km/s) = 4.02405 4.52211 4.28033
# Velocity P-wave (km/s) = 6.80898 7.93969 7.39598
#
# Compressibility (1/GPa) = 0.01383949
#
# Stress axis : x y z
#
# Youngs Moduli (GPa) = 141.41650 64.80935 130.91498
#
# Poissons Ratio (x) = 0.25983 0.42163
# Poissons Ratio (y) = 0.56695 0.12049
# Poissons Ratio (z) = 0.45546 0.05965
#
# Static dielectric constant tensor:
#      x y z
#    x 2.407590 0.091220 0.051100 
#    y 0.091220 2.675410 -0.287730 
#    z 0.051100 -0.287730 2.521940 
# 
# From -- ./inp_files/105908.got.cif
#   From: 2010.05.17/outbox.cif.g08.bks.cpg/sg2_53_cif.got.tgz:105908.got - 2010.06.03 11:33:40.
