data_PCOD9044265
_publ_section_title
;
Structure prediction by ZEFSAII (Michael W. Deem and Ramdas Pophale) SiO2 
 PCOD9044265
Probable space group: P -1
;
_chemical_formula_sum "Si O2"
_cell_formula_units_Z 16
_cell_length_a 15.221403
_cell_length_b 9.131488
_cell_length_c 15.595233
_cell_angle_alpha 112.615164
_cell_angle_beta 151.341651
_cell_angle_gamma 86.784840
_cell_volume 740.929686
_symmetry_space_group_name_H-M "P -1"
_symmetry_group_IT_number 2
_symmetry_cell_setting 'triclinic'
loop_
_space_group_symop_operation_xyz
x,y,z
-x,-y,-z
loop_
_atom_site_type_symbol
_atom_site_label
_atom_site_fract_x
_atom_site_fract_y
_atom_site_fract_z
Si Si1 0.174053 0.499376 0.340786
Si Si2 0.408203 0.121556 0.548920
Si Si3 0.031905 0.947345 0.919949
Si Si4 0.240267 0.304512 0.763909
Si Si5 0.781211 0.532446 0.038176
Si Si6 0.730788 0.313859 0.699826
Si Si7 0.645490 0.773620 0.889039
Si Si8 0.732483 0.011438 0.190870
O O1 0.999613 0.256181 0.141479
O O2 0.307934 0.576579 0.381753
O O3 0.363405 0.602326 0.601289
O O4 0.017892 0.569606 0.227443
O O5 0.177801 0.098214 0.328138
O O6 0.569849 0.233137 0.627736
O O7 0.329972 0.895256 0.435946
O O8 0.564269 0.287262 0.794117
O O9 0.000000 0.000000 0.000000
O O10 0.257847 0.109840 0.092319
O O11 0.196427 0.371535 0.830274
O O12 0.009084 0.218671 0.487874
O O13 0.270272 0.134079 0.774587
O O14 0.500000 0.500000 0.000000
O O15 0.739789 0.649627 0.961030
O O16 0.000000 0.500000 0.000000
O O17 0.712350 0.923573 0.059121
O O18 0.500000 0.000000 0.000000
#
# Coordination Sequence:
#
# PCOD9044265 Si02
#       8
#     2   2   2   2   2   2   2   2
#     4  12  25  42  66  96 132 175 227 270 330 390
#     4  11  24  41  65  92 132 174 223 272 331 389
#     4  12  27  41  63  99 134 177 228 271 329 394
#     4  10  24  44  71 102 135 173 220 279 342 408
#     4  11  24  45  66  99 135 173 221 275 333 400
#     4  11  23  41  65  94 128 177 225 275 326 386
#     4  11  26  45  67  99 138 176 219 278 331 398
#     4  10  23  46  72 102 136 175 223 277 344 407
#
# _framework density 21.594491000000001
#
# number of rings (size 3 to 8) (size 9 to 14) (size 15 to 20)
#    0.000    1.000    2.500    3.000    7.000    2.500 
#    2.250    0.000    0.000    0.000    0.000    0.000 
#    0.000    0.000    0.000    0.000    0.000    0.000 
#
# Total GULP energy -89357.931197 kJ/mol
# GULP energy per Si atom -5584.870700 kJ/mol
# Density = 2.154534 g / cm^3
# Si number density = 21.594491 Si / 1000 Ang^3
#
#
#
# Elastic Constant Matrix: (Units=GPa)
#
#
# Indices 1 2 3 4 5 6 
#
# 1 61.9239 36.7021 40.3670 5.2797 -0.3125 -6.8520
# 2 36.7021 96.6110 41.4236 6.2083 4.6115 -10.7206
# 3 40.3670 41.4236 132.8233 -3.2647 4.9501 -10.9914
# 4 5.2797 6.2083 -3.2647 39.4207 -0.2300 7.6705
# 5 -0.3125 4.6115 4.9501 -0.2300 37.1230 2.5589
# 6 -6.8520 -10.7206 -10.9914 7.6705 2.5589 33.3669
#
#
#
# Elastic Compliance Matrix: (Units=1/GPa)
#
#
# Indices 1 2 3 4 5 6 
#
# 1 0.023853 -0.006537 -0.005206 -0.002904 0.001577 0.001630
# 2 -0.006537 0.014365 -0.002217 -0.002200 -0.001777 0.003184
# 3 -0.005206 -0.002217 0.009988 0.001629 -0.001174 0.001224
# 4 -0.002904 -0.002200 0.001629 0.027638 0.000697 -0.007174
# 5 0.001577 -0.001777 -0.001174 0.000697 0.027533 -0.002906
# 6 0.001630 0.003184 0.001224 -0.007174 -0.002906 0.033603
#
#
# Mechanical properties :
#
#
# Convention : Reuss Voigt Hill
#
# Bulk Modulus (GPa) = 49.29979 58.70486 54.00232
# Shear Modulus (GPa) = 29.12719 33.50649 31.31684
#
# Velocity S-wave (km/s) = 3.67662 3.94334 3.81231
# Velocity P-wave (km/s) = 6.39552 6.92657 6.66634
#
# Compressibility (1/GPa) = 0.02028406
#
# Stress axis : x y z
#
# Youngs Moduli (GPa) = 41.92354 69.61531 100.12459
#
# Poissons Ratio (x) = 0.45510 0.52122
# Poissons Ratio (y) = 0.27407 0.22202
# Poissons Ratio (z) = 0.21824 0.15437
#
# Static dielectric constant tensor:
#      x y z
#    x 1.828900 0.022800 0.022920 
#    y 0.022800 1.786260 0.016920 
#    z 0.022920 0.016920 1.873220 
# 
# From -- ./inp_files/314919.got.cif
#   From: 2010.05.17/outbox.cif.g08.bks.cpg/sg2_158_cif.got.tgz:314919.got - 2010.06.03 11:33:40.
