data_PCOD9044420
_publ_section_title
;
Structure prediction by ZEFSAII (Michael W. Deem and Ramdas Pophale) SiO2 
 PCOD9044420
Probable space group: P -1
;
_chemical_formula_sum "Si O2"
_cell_formula_units_Z 14
_cell_length_a 7.870543
_cell_length_b 11.589080
_cell_length_c 10.620874
_cell_angle_alpha 115.258767
_cell_angle_beta 42.520747
_cell_angle_gamma 122.486762
_cell_volume 551.474437
_symmetry_space_group_name_H-M "P -1"
_symmetry_group_IT_number 2
_symmetry_cell_setting 'triclinic'
loop_
_space_group_symop_operation_xyz
x,y,z
-x,-y,-z
loop_
_atom_site_type_symbol
_atom_site_label
_atom_site_fract_x
_atom_site_fract_y
_atom_site_fract_z
Si Si1 0.907476 0.344222 0.024392
Si Si2 0.611283 0.187575 0.541905
Si Si3 0.514686 0.126779 0.966713
Si Si4 0.508367 0.563516 0.168441
Si Si5 0.088592 0.942359 0.793574
Si Si6 0.905552 0.119565 0.558147
Si Si7 0.414493 0.383446 0.388033
O O1 0.772471 0.249550 0.936861
O O2 0.645696 0.320172 0.238838
O O3 0.000000 0.500000 0.000000
O O4 0.177204 0.342680 0.938224
O O5 0.644995 0.333439 0.655314
O O6 0.734431 0.158079 0.327855
O O7 0.822026 0.128077 0.465124
O O8 0.304125 0.087719 0.684368
O O9 0.223069 0.134681 0.124032
O O10 0.620711 0.103024 0.764889
O O11 0.500000 0.000000 0.000000
O O12 0.419616 0.447453 0.274302
O O13 0.500000 0.500000 0.000000
O O14 0.000000 0.000000 0.000000
O O15 0.139128 0.265079 0.520100
O O16 0.000000 0.000000 0.500000
O O17 0.500000 0.500000 0.500000
#
# Coordination Sequence:
#
# PCOD9044420 Si02
#       7
#     2   2   2   2   2   2   2
#     4  10  23  46  74 107 154 210 264 322 402 489
#     4  11  26  46  78 117 163 206 279 339 425 491
#     4  12  24  46  76 106 149 206 267 330 409 484
#     4  11  27  50  83 117 168 223 273 342 415 500
#     4  11  24  47  74 111 157 207 262 345 409 485
#     4  12  26  46  76 113 155 210 272 343 408 490
#     4  11  26  48  78 117 163 211 277 336 412 494
#
# _framework density 25.386489999999998
#
# number of rings (size 3 to 8) (size 9 to 14) (size 15 to 20)
#    0.000    0.857    1.429    5.143    6.000    5.143 
#    5.143    0.000    0.000    0.000    0.000    0.000 
#    0.000    0.000    0.000    0.000    0.000    0.000 
#
# Total GULP energy -77990.167828 kJ/mol
# GULP energy per Si atom -5570.726273 kJ/mol
# Density = 2.532871 g / cm^3
# Si number density = 25.386490 Si / 1000 Ang^3
#
#
#
# Elastic Constant Matrix: (Units=GPa)
#
#
# Indices 1 2 3 4 5 6 
#
# 1 116.1390 70.6692 48.2742 1.4108 -12.3787 8.8095
# 2 70.6692 157.8350 46.3042 4.2404 3.4719 8.5789
# 3 48.2742 46.3042 195.6247 -4.0705 -30.6596 -3.3706
# 4 1.4108 4.2404 -4.0705 51.7133 6.4878 -1.6843
# 5 -12.3787 3.4719 -30.6596 6.4878 40.3884 -3.1299
# 6 8.8095 8.5789 -3.3706 -1.6843 -3.1299 45.4183
#
#
#
# Elastic Compliance Matrix: (Units=1/GPa)
#
#
# Indices 1 2 3 4 5 6 
#
# 1 0.012927 -0.005349 -0.001441 -0.000487 0.003298 -0.001395
# 2 -0.005349 0.009309 -0.001472 -0.000318 -0.003590 -0.001089
# 3 -0.001441 -0.001472 0.006591 0.000125 0.004775 0.001380
# 4 -0.000487 -0.000318 0.000125 0.019805 -0.003156 0.000681
# 5 0.003298 -0.003590 0.004775 -0.003156 0.030394 0.002370
# 6 -0.001395 -0.001089 0.001380 0.000681 0.002370 0.022785
#
#
# Mechanical properties :
#
#
# Convention : Reuss Voigt Hill
#
# Bulk Modulus (GPa) = 81.27780 88.89931 85.08856
# Shear Modulus (GPa) = 40.83782 47.79409 44.31595
#
# Velocity S-wave (km/s) = 4.01514 4.34367 4.18263
# Velocity P-wave (km/s) = 7.31989 7.76215 7.54426
#
# Compressibility (1/GPa) = 0.01230348
#
# Stress axis : x y z
#
# Youngs Moduli (GPa) = 77.35458 107.42144 151.73346
#
# Poissons Ratio (x) = 0.57460 0.21869
# Poissons Ratio (y) = 0.41377 0.22328
# Poissons Ratio (z) = 0.11149 0.15808
#
# Static dielectric constant tensor:
#      x y z
#    x 1.952090 -0.112520 0.070600 
#    y -0.112520 1.959500 0.118890 
#    z 0.070600 0.118890 2.342620 
# 
# From -- ./inp_files/392766.got.cif
#   From: 2010.05.17/outbox.cif.g08.bks.cpg/sg2_197_cif.got.tgz:392766.got - 2010.06.03 11:33:40.
