data_PCOD9044839
_publ_section_title
;
Structure prediction by ZEFSAII (Michael W. Deem and Ramdas Pophale) SiO2 
 PCOD9044839
Probable space group: P -1
;
_chemical_formula_sum "Si O2"
_cell_formula_units_Z 16
_cell_length_a 11.547277
_cell_length_b 11.231981
_cell_length_c 7.872938
_cell_angle_alpha 89.465130
_cell_angle_beta 138.087878
_cell_angle_gamma 98.327058
_cell_volume 667.373551
_symmetry_space_group_name_H-M "P -1"
_symmetry_group_IT_number 2
_symmetry_cell_setting 'triclinic'
loop_
_space_group_symop_operation_xyz
x,y,z
-x,-y,-z
loop_
_atom_site_type_symbol
_atom_site_label
_atom_site_fract_x
_atom_site_fract_y
_atom_site_fract_z
Si Si1 0.657220 0.085142 0.266718
Si Si2 0.176639 0.657684 0.662645
Si Si3 0.536919 0.328166 0.760679
Si Si4 0.222795 0.152307 0.575042
Si Si5 0.843451 0.723560 0.168010
Si Si6 0.998334 0.856230 0.988259
Si Si7 0.593737 0.138225 0.556673
Si Si8 0.538678 0.441325 0.222977
O O1 0.769514 0.195099 0.285367
O O2 0.575460 0.142264 0.335706
O O3 0.771632 0.987850 0.448931
O O4 0.500000 0.000000 0.000000
O O5 0.283868 0.606377 0.628056
O O6 0.968882 0.636546 0.388464
O O7 0.267948 0.630037 0.940350
O O8 0.417337 0.238111 0.766802
O O9 0.531147 0.242338 0.592802
O O10 0.448566 0.444356 0.638745
O O11 0.157866 0.174368 0.690696
O O12 0.110581 0.191847 0.298937
O O13 0.920694 0.783926 0.074482
O O14 0.641433 0.652835 0.927833
O O15 0.198812 0.844142 0.182441
O O16 0.000000 0.000000 0.000000
O O17 0.500000 0.000000 0.500000
O O18 0.500000 0.500000 0.000000
#
# Coordination Sequence:
#
# PCOD9044839 Si02
#       8
#     2   2   2   2   2   2   2   2
#     4  12  22  41  69 105 143 185 241 287 365 451
#     4  11  22  43  71 105 141 189 248 292 366 438
#     4  11  23  45  70 108 140 194 243 305 366 430
#     4  12  24  44  72 109 150 191 239 303 374 431
#     4  12  25  47  78 106 149 196 244 311 364 438
#     4  12  26  46  67 112 150 190 242 298 372 443
#     4  12  23  44  68 100 149 185 234 300 363 433
#     4  10  23  47  75 106 143 191 259 296 364 440
#
# _framework density 23.97458
#
# number of rings (size 3 to 8) (size 9 to 14) (size 15 to 20)
#    0.000    0.500    7.500    0.750    0.000    9.000 
#    2.250    3.125    0.000    0.000    0.000    0.000 
#    0.000    0.000    0.000    0.000    0.000    0.000 
#
# Total GULP energy -89491.135377 kJ/mol
# GULP energy per Si atom -5593.195961 kJ/mol
# Density = 2.392001 g / cm^3
# Si number density = 23.974580 Si / 1000 Ang^3
#
#
#
# Elastic Constant Matrix: (Units=GPa)
#
#
# Indices 1 2 3 4 5 6 
#
# 1 97.3094 32.0903 28.9249 5.4058 4.0399 -20.3596
# 2 32.0903 98.0273 16.8112 11.1404 5.0192 -35.1803
# 3 28.9249 16.8112 101.2139 2.5618 1.4856 -9.0591
# 4 5.4058 11.1404 2.5618 32.1757 -2.6258 -1.1910
# 5 4.0399 5.0192 1.4856 -2.6258 41.3249 3.0547
# 6 -20.3596 -35.1803 -9.0591 -1.1910 3.0547 49.4267
#
#
#
# Elastic Compliance Matrix: (Units=1/GPa)
#
#
# Indices 1 2 3 4 5 6 
#
# 1 0.012667 -0.002381 -0.002910 -0.001053 -0.001136 0.003035
# 2 -0.002381 0.015312 -0.000827 -0.004686 -0.002621 0.009815
# 3 -0.002910 -0.000827 0.010870 -0.000085 -0.000026 0.000205
# 4 -0.001053 -0.004686 -0.000085 0.033013 0.003007 -0.003175
# 5 -0.001136 -0.002621 -0.000026 0.003007 0.025102 -0.003817
# 6 0.003035 0.009815 0.000205 -0.003175 -0.003817 0.028665
#
#
# Mechanical properties :
#
#
# Convention : Reuss Voigt Hill
#
# Bulk Modulus (GPa) = 37.57535 50.24484 43.91009
# Shear Modulus (GPa) = 34.07493 39.16706 36.62099
#
# Velocity S-wave (km/s) = 3.77410 4.04628 3.91256
# Velocity P-wave (km/s) = 5.89056 6.54468 6.22622
#
# Compressibility (1/GPa) = 0.02661319
#
# Stress axis : x y z
#
# Youngs Moduli (GPa) = 78.94476 65.30946 91.99786
#
# Poissons Ratio (x) = 0.15549 0.26768
# Poissons Ratio (y) = 0.18796 0.07610
# Poissons Ratio (z) = 0.22970 0.05403
#
# Static dielectric constant tensor:
#      x y z
#    x 1.948610 0.002680 0.001240 
#    y 0.002680 2.037670 -0.035970 
#    z 0.001240 -0.035970 2.004290 
# 
# From -- ./inp_files/258702.got.cif
#   From: 2010.05.17/outbox.cif.g08.bks.cpg/sg2_130_cif.got.tgz:258702.got - 2010.06.03 11:33:40.
