data_PCOD9044247
_publ_section_title
;
Structure prediction by ZEFSAII (Michael W. Deem and Ramdas Pophale) SiO2 
 PCOD9044247
Probable space group: P -1
;
_chemical_formula_sum "Si O2"
_cell_formula_units_Z 16
_cell_length_a 21.238449
_cell_length_b 8.115359
_cell_length_c 10.974781
_cell_angle_alpha 102.876842
_cell_angle_beta 39.536384
_cell_angle_gamma 133.055517
_cell_volume 666.474983
_symmetry_space_group_name_H-M "P -1"
_symmetry_group_IT_number 2
_symmetry_cell_setting 'triclinic'
loop_
_space_group_symop_operation_xyz
x,y,z
-x,-y,-z
loop_
_atom_site_type_symbol
_atom_site_label
_atom_site_fract_x
_atom_site_fract_y
_atom_site_fract_z
Si Si1 0.136182 0.982200 0.161849
Si Si2 0.688514 0.778082 0.700582
Si Si3 0.267100 0.906734 0.114040
Si Si4 0.227756 0.587830 0.334352
Si Si5 0.701830 0.790991 0.296440
Si Si6 0.706797 0.163863 0.458527
Si Si7 0.329217 0.519322 0.491467
Si Si8 0.445861 0.649850 0.897918
O O1 0.160361 0.819174 0.140915
O O2 0.948402 0.765311 0.454471
O O3 0.291943 0.307202 0.043173
O O4 0.168698 0.056284 0.983798
O O5 0.760586 0.709342 0.524264
O O6 0.787605 0.025056 0.692989
O O7 0.500000 0.500000 0.000000
O O8 0.620567 0.792714 0.690524
O O9 0.233708 0.699744 0.216779
O O10 0.467077 0.190934 0.811292
O O11 0.231444 0.696989 0.473241
O O12 0.391797 0.692871 0.096725
O O13 0.500000 0.500000 0.500000
O O14 0.703079 0.642946 0.369735
O O15 0.758461 0.059750 0.302304
O O16 0.731072 0.372909 0.384544
O O17 0.499388 0.838470 0.734930
#
# Coordination Sequence:
#
# PCOD9044247 Si02
#       8
#     2   2   2   2   2   2   2   2
#     4  12  26  42  62  92 141 181 200 265 343 384
#     4  10  17  33  64  95 126 159 211 270 326 369
#     4  11  19  37  65  95 129 169 207 271 335 383
#     4  12  25  40  63 104 134 160 218 273 333 396
#     4  12  23  47  67  92 135 175 223 263 314 388
#     4  12  24  41  73 100 121 173 228 273 309 381
#     4  11  21  38  70 100 121 166 228 274 306 373
#     4  12  20  40  65  95 132 166 211 274 325 380
#
# _framework density 24.006902
#
# number of rings (size 3 to 8) (size 9 to 14) (size 15 to 20)
#    0.000    0.500    8.750    2.625    0.000    1.000 
#    2.250    0.625    0.000    0.000    0.000    0.000 
#    0.000    0.000    0.000    0.000    0.000    0.000 
#
# Total GULP energy -89154.324011 kJ/mol
# GULP energy per Si atom -5572.145251 kJ/mol
# Density = 2.395226 g / cm^3
# Si number density = 24.006902 Si / 1000 Ang^3
#
#
#
# Elastic Constant Matrix: (Units=GPa)
#
#
# Indices 1 2 3 4 5 6 
#
# 1 122.3907 40.9542 35.2841 -6.3505 37.1302 -34.0228
# 2 40.9542 113.7210 20.1675 5.5550 13.6840 -23.2354
# 3 35.2841 20.1675 69.9816 -3.9665 27.8236 -11.9057
# 4 -6.3505 5.5550 -3.9665 21.0793 -0.9491 4.5703
# 5 37.1302 13.6840 27.8236 -0.9491 38.7052 -9.6207
# 6 -34.0228 -23.2354 -11.9057 4.5703 -9.6207 31.3474
#
#
#
# Elastic Compliance Matrix: (Units=1/GPa)
#
#
# Indices 1 2 3 4 5 6 
#
# 1 0.015692 -0.001901 -0.001008 0.002029 -0.010710 0.011656
# 2 -0.001901 0.011325 -0.001700 -0.005289 0.000560 0.006628
# 3 -0.001008 -0.001700 0.020854 0.003245 -0.013075 0.001081
# 4 0.002029 -0.005289 0.003245 0.051874 -0.003398 -0.009091
# 5 -0.010710 0.000560 -0.013075 -0.003398 0.044744 -0.001947
# 6 0.011656 0.006628 0.001081 -0.009091 -0.001947 0.050603
#
#
# Mechanical properties :
#
#
# Convention : Reuss Voigt Hill
#
# Bulk Modulus (GPa) = 25.87134 55.43387 40.65260
# Shear Modulus (GPa) = 23.02105 32.20555 27.61330
#
# Velocity S-wave (km/s) = 3.10003 3.66664 3.39517
# Velocity P-wave (km/s) = 4.85938 6.40832 5.68683
#
# Compressibility (1/GPa) = 0.03865282
#
# Stress axis : x y z
#
# Youngs Moduli (GPa) = 63.72712 88.30184 47.95346
#
# Poissons Ratio (x) = 0.16788 0.04833
# Poissons Ratio (y) = 0.12116 0.08151
# Poissons Ratio (z) = 0.06422 0.15009
#
# Static dielectric constant tensor:
#      x y z
#    x 2.131960 -0.044330 0.045750 
#    y -0.044330 2.037070 -0.035410 
#    z 0.045750 -0.035410 1.928420 
# 
# From -- ./inp_files/474224.got.cif
#   From: 2010.05.17/outbox.cif.g08.bks.cpg/sg2_238_cif.got.tgz:474224.got - 2010.06.03 11:33:40.
