data_PCOD9044330
_publ_section_title
;
Structure prediction by ZEFSAII (Michael W. Deem and Ramdas Pophale) SiO2 
 PCOD9044330
Probable space group: P -1
;
_chemical_formula_sum "Si O2"
_cell_formula_units_Z 16
_cell_length_a 21.585719
_cell_length_b 6.555086
_cell_length_c 17.766522
_cell_angle_alpha 117.095052
_cell_angle_beta 18.852776
_cell_angle_gamma 116.432799
_cell_volume 722.311238
_symmetry_space_group_name_H-M "P -1"
_symmetry_group_IT_number 2
_symmetry_cell_setting 'triclinic'
loop_
_space_group_symop_operation_xyz
x,y,z
-x,-y,-z
loop_
_atom_site_type_symbol
_atom_site_label
_atom_site_fract_x
_atom_site_fract_y
_atom_site_fract_z
Si Si1 0.192199 0.027705 0.829733
Si Si2 0.873092 0.831350 0.674188
Si Si3 0.605996 0.489948 0.295830
Si Si4 0.177770 0.949546 0.999544
Si Si5 0.385850 0.234891 0.176668
Si Si6 0.536317 0.261579 0.629744
Si Si7 0.157670 0.922801 0.489009
Si Si8 0.508356 0.275442 0.832785
O O1 0.163904 0.892873 0.917558
O O2 0.360810 0.928709 0.569202
O O3 0.246809 0.289775 0.830998
O O4 0.000000 0.000000 0.000000
O O5 0.741251 0.705858 0.740069
O O6 0.036046 0.778416 0.540142
O O7 0.689636 0.875107 0.948271
O O8 0.000000 0.000000 0.500000
O O9 0.500000 0.500000 0.500000
O O10 0.716460 0.259971 0.120808
O O11 0.470426 0.526842 0.385006
O O12 0.317945 0.174736 0.880516
O O13 0.982573 0.008652 0.272158
O O14 0.523335 0.453361 0.074926
O O15 0.235522 0.161371 0.402050
O O16 0.500000 0.000000 0.000000
O O17 0.605849 0.270192 0.636901
O O18 0.335771 0.799792 0.298940
#
# Coordination Sequence:
#
# PCOD9044330 Si02
#       8
#     2   2   2   2   2   2   2   2
#     4  11  23  40  64  99 138 177 231 281 339 410
#     4  10  23  46  73 102 134 183 229 282 353 418
#     4  11  21  42  69  92 131 190 230 275 341 403
#     4  11  22  43  68  99 138 181 233 282 339 412
#     4  11  25  47  72 104 138 178 235 284 350 427
#     4  11  23  41  68 100 135 180 233 282 345 406
#     4  11  25  44  69 103 140 180 233 289 345 417
#     4  12  25  46  73 102 144 179 227 298 349 405
#
# _framework density 22.151115999999998
#
# number of rings (size 3 to 8) (size 9 to 14) (size 15 to 20)
#    0.000    1.000    5.000    1.875    0.000    6.000 
#    6.750    0.000    0.000    0.000    0.000    0.000 
#    0.000    0.000    0.000    0.000    0.000    0.000 
#
# Total GULP energy -89118.896081 kJ/mol
# GULP energy per Si atom -5569.931005 kJ/mol
# Density = 2.210070 g / cm^3
# Si number density = 22.151116 Si / 1000 Ang^3
#
#
#
# Elastic Constant Matrix: (Units=GPa)
#
#
# Indices 1 2 3 4 5 6 
#
# 1 142.6315 18.7120 19.2313 -3.9825 0.5686 -28.0306
# 2 18.7120 62.7097 14.7675 1.9481 7.2287 -12.9718
# 3 19.2313 14.7675 105.8633 -13.4209 12.1556 -12.4864
# 4 -3.9825 1.9481 -13.4209 20.5186 -7.4454 -1.7697
# 5 0.5686 7.2287 12.1556 -7.4454 47.9396 1.0850
# 6 -28.0306 -12.9718 -12.4864 -1.7697 1.0850 27.2181
#
#
#
# Elastic Compliance Matrix: (Units=1/GPa)
#
#
# Indices 1 2 3 4 5 6 
#
# 1 0.008970 -0.000913 -0.000157 0.002591 0.000272 0.008888
# 2 -0.000913 0.018530 -0.001691 -0.003550 -0.003064 0.007007
# 3 -0.000157 -0.001691 0.011402 0.007426 -0.001590 0.004810
# 4 0.002591 -0.003550 0.007426 0.057803 0.007421 0.007845
# 5 0.000272 -0.003064 -0.001590 0.007421 0.022927 -0.002341
# 6 0.008888 0.007007 0.004810 0.007845 -0.002341 0.052043
#
#
# Mechanical properties :
#
#
# Convention : Reuss Voigt Hill
#
# Bulk Modulus (GPa) = 29.95713 46.29177 38.12445
# Shear Modulus (GPa) = 26.55022 36.36816 31.45919
#
# Velocity S-wave (km/s) = 3.46583 4.05633 3.77265
# Velocity P-wave (km/s) = 5.43777 6.54844 6.01878
#
# Compressibility (1/GPa) = 0.03338103
#
# Stress axis : x y z
#
# Youngs Moduli (GPa) = 111.48265 53.96666 87.70634
#
# Poissons Ratio (x) = 0.04927 0.01373
# Poissons Ratio (y) = 0.10178 0.14829
# Poissons Ratio (z) = 0.01746 0.09125
#
# Static dielectric constant tensor:
#      x y z
#    x 1.956770 0.002710 0.033190 
#    y 0.002710 1.822260 -0.021380 
#    z 0.033190 -0.021380 1.806290 
# 
# From -- ./inp_files/576826.got.cif
#   From: 2010.05.17/outbox.cif.g08.bks.cpg/sg2_289_cif.got.tgz:576826.got - 2010.06.03 11:33:40.
