data_PCOD9044610
_publ_section_title
;
Structure prediction by ZEFSAII (Michael W. Deem and Ramdas Pophale) SiO2 
 PCOD9044610
Probable space group: P -1
;
_chemical_formula_sum "Si O2"
_cell_formula_units_Z 11
_cell_length_a 9.504678
_cell_length_b 9.182856
_cell_length_c 8.220854
_cell_angle_alpha 140.622744
_cell_angle_beta 110.993162
_cell_angle_gamma 69.356451
_cell_volume 421.516003
_symmetry_space_group_name_H-M "P -1"
_symmetry_group_IT_number 2
_symmetry_cell_setting 'triclinic'
loop_
_space_group_symop_operation_xyz
x,y,z
-x,-y,-z
loop_
_atom_site_type_symbol
_atom_site_label
_atom_site_fract_x
_atom_site_fract_y
_atom_site_fract_z
Si Si1 0.614514 0.464432 0.666076
Si Si2 0.587327 0.770363 0.419988
Si Si3 0.100248 0.767992 0.388782
Si Si4 0.678141 0.907160 0.940024
Si Si5 0.882895 0.463236 0.157037
Si Si6 0.000000 0.000000 0.000000
O O1 0.500000 0.500000 0.500000
O O2 0.523325 0.421748 0.751904
O O3 0.727465 0.228216 0.480644
O O4 0.705377 0.682836 0.876137
O O5 0.646928 0.843539 0.682970
O O6 0.732085 0.638408 0.277815
O O7 0.500000 0.000000 0.500000
O O8 0.014098 0.629032 0.362892
O O9 0.122311 0.633001 0.110197
O O10 0.000000 0.000000 0.500000
O O11 0.846033 0.987075 0.048139
O O12 0.500000 0.000000 0.000000
O O13 0.917020 0.245304 0.100597
#
# Coordination Sequence:
#
# PCOD9044610 Si02
#       6
#     2   2   2   2   2   1
#     4  10  23  47  69 101 149 195 246 309 388 456
#     4  11  26  46  75 110 149 197 262 323 385 464
#     4  11  25  47  75 106 153 197 250 323 394 456
#     4  11  26  47  74 109 153 206 248 316 391 462
#     4  11  27  45  73 112 148 197 258 323 384 464
#     4  12  26  48  76 112 152 198 270 314 380 474
#
# _framework density 26.096281000000001
#
# number of rings (size 3 to 8) (size 9 to 14) (size 15 to 20)
#    0.000    1.091    1.818    2.182    7.636    7.273 
#    0.000    0.000    0.000    0.000    0.000    0.000 
#    0.000    0.000    0.000    0.000    0.000    0.000 
#
# Total GULP energy -61235.067601 kJ/mol
# GULP energy per Si atom -5566.824327 kJ/mol
# Density = 2.603688 g / cm^3
# Si number density = 26.096281 Si / 1000 Ang^3
#
#
#
# Elastic Constant Matrix: (Units=GPa)
#
#
# Indices 1 2 3 4 5 6 
#
# 1 211.0328 58.6205 58.6983 24.0283 -41.6387 4.0169
# 2 58.6205 206.1596 37.1492 50.4863 -14.1166 1.6031
# 3 58.6983 37.1492 71.6711 9.7284 -48.8024 -8.1733
# 4 24.0283 50.4863 9.7284 44.6645 -2.2060 -1.8238
# 5 -41.6387 -14.1166 -48.8024 -2.2060 52.8313 11.7780
# 6 4.0169 1.6031 -8.1733 -1.8238 11.7780 68.7259
#
#
#
# Elastic Compliance Matrix: (Units=1/GPa)
#
#
# Indices 1 2 3 4 5 6 
#
# 1 0.006526 -0.000557 -0.003757 -0.002026 0.001698 -0.001160
# 2 -0.000557 0.007362 -0.004109 -0.007265 -0.002483 -0.000395
# 3 -0.003757 -0.004109 0.044635 -0.001246 0.037298 -0.000801
# 4 -0.002026 -0.007265 -0.001246 0.031845 -0.003722 0.001623
# 5 0.001698 -0.002483 0.037298 -0.003722 0.055047 -0.005138
# 6 -0.001160 -0.000395 -0.000801 0.001623 -0.005138 0.015456
#
#
# Mechanical properties :
#
#
# Convention : Reuss Voigt Hill
#
# Bulk Modulus (GPa) = 23.99491 88.64438 56.31964
# Shear Modulus (GPa) = 26.09470 55.53738 40.81604
#
# Velocity S-wave (km/s) = 3.16561 4.61822 3.95910
# Velocity P-wave (km/s) = 4.75144 7.90438 6.52133
#
# Compressibility (1/GPa) = 0.04167551
#
# Stress axis : x y z
#
# Youngs Moduli (GPa) = 153.22688 135.83734 22.40417
#
# Poissons Ratio (x) = 0.07568 0.08417
# Poissons Ratio (y) = 0.08537 0.09206
# Poissons Ratio (z) = 0.57569 0.55819
#
# Static dielectric constant tensor:
#      x y z
#    x 4.133220 -1.225700 -0.630030 
#    y -1.225700 2.675710 0.413170 
#    z -0.630030 0.413170 2.616040 
# 
# From -- ./inp_files/17780.got.cif
#   From: 2010.05.17/outbox.cif.g08.bks.cpg/sg2_9_cif.got.tgz:17780.got - 2010.06.03 11:33:40.
