data_PCOD9044049
_publ_section_title
;
Structure prediction by ZEFSAII (Michael W. Deem and Ramdas Pophale) SiO2 
 PCOD9044049
Probable space group: P -1
;
_chemical_formula_sum "Si O2"
_cell_formula_units_Z 14
_cell_length_a 10.349563
_cell_length_b 5.215215
_cell_length_c 21.661306
_cell_angle_alpha 106.420045
_cell_angle_beta 147.172230
_cell_angle_gamma 90.776880
_cell_volume 532.401227
_symmetry_space_group_name_H-M "P -1"
_symmetry_group_IT_number 2
_symmetry_cell_setting 'triclinic'
loop_
_space_group_symop_operation_xyz
x,y,z
-x,-y,-z
loop_
_atom_site_type_symbol
_atom_site_label
_atom_site_fract_x
_atom_site_fract_y
_atom_site_fract_z
Si Si1 0.632254 0.253150 0.281333
Si Si2 0.678412 0.343125 0.078276
Si Si3 0.224613 0.342674 0.521138
Si Si4 0.235729 0.775112 0.180968
Si Si5 0.114162 0.880483 0.965307
Si Si6 0.891911 0.175246 0.642530
Si Si7 0.596964 0.834164 0.610254
O O1 0.665530 0.529600 0.358182
O O2 0.945216 0.357969 0.397975
O O3 0.492616 0.958074 0.251275
O O4 0.406691 0.122954 0.127869
O O5 0.849557 0.310732 0.088763
O O6 0.843990 0.519426 0.216309
O O7 0.500000 0.500000 0.000000
O O8 0.500000 0.000000 0.000000
O O9 0.471025 0.553298 0.588048
O O10 0.118643 0.996847 0.435625
O O11 0.071563 0.408158 0.084164
O O12 0.343274 0.884501 0.301185
O O13 0.043223 0.934746 0.104043
O O14 0.648365 0.250465 0.541575
O O15 0.848031 0.965944 0.672067
#
# Coordination Sequence:
#
# PCOD9044049 Si02
#       7
#     2   2   2   2   2   2   2
#     4  10  24  45  70 103 141 190 244 296 356 422
#     4  12  28  47  75 112 147 186 235 297 367 431
#     4  10  23  46  69 103 144 188 242 300 356 422
#     4  11  25  47  74 105 143 190 245 294 353 426
#     4  12  25  48  73 106 144 191 239 295 359 428
#     4  11  24  44  74 103 142 193 235 300 359 433
#     4  10  24  43  71 107 138 190 243 295 357 432
#
# _framework density 26.295957000000001
#
# number of rings (size 3 to 8) (size 9 to 14) (size 15 to 20)
#    0.000    1.143    1.429    3.000    8.000    0.000 
#    5.143    2.143    0.000    0.000    0.000    0.000 
#    0.000    0.000    0.000    0.000    0.000    0.000 
#
# Total GULP energy -78292.860696 kJ/mol
# GULP energy per Si atom -5592.347193 kJ/mol
# Density = 2.623611 g / cm^3
# Si number density = 26.295957 Si / 1000 Ang^3
#
#
#
# Elastic Constant Matrix: (Units=GPa)
#
#
# Indices 1 2 3 4 5 6 
#
# 1 78.1900 32.3559 18.5316 11.2767 -1.7292 -7.2106
# 2 32.3559 121.1576 63.1941 4.7104 4.2497 -5.3114
# 3 18.5316 63.1941 206.8477 27.0537 -20.6228 -6.8345
# 4 11.2767 4.7104 27.0537 46.3199 -5.2988 -5.9157
# 5 -1.7292 4.2497 -20.6228 -5.2988 33.7610 11.1299
# 6 -7.2106 -5.3114 -6.8345 -5.9157 11.1299 33.9371
#
#
#
# Elastic Compliance Matrix: (Units=1/GPa)
#
#
# Indices 1 2 3 4 5 6 
#
# 1 0.015007 -0.004021 0.000403 -0.003186 0.000374 0.001962
# 2 -0.004021 0.011435 -0.003725 0.001744 -0.004270 0.001890
# 3 0.000403 -0.003725 0.006780 -0.003316 0.004501 -0.001186
# 4 -0.003186 0.001744 -0.003316 0.024565 0.000436 0.003067
# 5 0.000374 -0.004270 0.004501 0.000436 0.036849 -0.011691
# 6 0.001962 0.001890 -0.001186 0.003067 -0.011691 0.034309
#
#
# Mechanical properties :
#
#
# Convention : Reuss Voigt Hill
#
# Bulk Modulus (GPa) = 53.95019 70.48429 62.21724
# Shear Modulus (GPa) = 33.37590 42.27782 37.82686
#
# Velocity S-wave (km/s) = 3.56651 4.01405 3.79688
# Velocity P-wave (km/s) = 6.12544 6.95312 6.55236
#
# Compressibility (1/GPa) = 0.01853562
#
# Stress axis : x y z
#
# Youngs Moduli (GPa) = 66.63753 87.45027 147.50205
#
# Poissons Ratio (x) = 0.35163 -0.05942
# Poissons Ratio (y) = 0.26794 0.54940
# Poissons Ratio (z) = -0.02684 0.32573
#
# Static dielectric constant tensor:
#      x y z
#    x 2.268720 0.043480 0.036810 
#    y 0.043480 2.124200 -0.030610 
#    z 0.036810 -0.030610 2.043780 
# 
# From -- ./inp_files/609229.got.cif
#   From: 2010.05.17/outbox.cif.g08.bks.cpg/sg2_305_cif.got.tgz:609229.got - 2010.06.03 11:33:40.
