data_PCOD9044683
_publ_section_title
;
Structure prediction by ZEFSAII (Michael W. Deem and Ramdas Pophale) SiO2 
 PCOD9044683
Probable space group: P -1
;
_chemical_formula_sum "Si O2"
_cell_formula_units_Z 11
_cell_length_a 8.765940
_cell_length_b 9.982753
_cell_length_c 4.623109
_cell_angle_alpha 73.599897
_cell_angle_beta 84.734888
_cell_angle_gamma 81.642722
_cell_volume 383.429823
_symmetry_space_group_name_H-M "P -1"
_symmetry_group_IT_number 2
_symmetry_cell_setting 'triclinic'
loop_
_space_group_symop_operation_xyz
x,y,z
-x,-y,-z
loop_
_atom_site_type_symbol
_atom_site_label
_atom_site_fract_x
_atom_site_fract_y
_atom_site_fract_z
Si Si1 0.775955 0.523621 0.278136
Si Si2 0.500000 0.500000 0.500000
Si Si3 0.251841 0.897766 0.103883
Si Si4 0.526270 0.719448 0.843660
Si Si5 0.021939 0.718800 0.964139
Si Si6 0.785206 0.906724 0.508696
O O1 0.688702 0.481938 0.603875
O O2 0.870757 0.399496 0.162883
O O3 0.608435 0.603767 0.133066
O O4 0.893913 0.639090 0.202518
O O5 0.454904 0.638974 0.647206
O O6 0.410374 0.823899 0.989492
O O7 0.122560 0.801193 0.106818
O O8 0.207576 0.044850 0.849471
O O9 0.260133 0.947093 0.399522
O O10 0.654671 0.806455 0.639758
O O11 0.935753 0.826340 0.680763
#
# Coordination Sequence:
#
# PCOD9044683 Si02
#       6
#     2   1   2   2   2   2
#     4  10  24  47  69 107 139 189 236 312 356 426
#     4  12  24  44  76 104 140 190 242 306 360 424
#     4  12  25  47  74 107 146 196 236 299 355 438
#     4  11  26  43  74 105 143 184 249 297 362 425
#     4  10  23  47  71 103 149 184 244 293 371 426
#     4  11  27  46  72 107 148 194 239 293 360 434
#
# _framework density 28.688431000000001
#
# number of rings (size 3 to 8) (size 9 to 14) (size 15 to 20)
#    0.000    1.091    1.818    2.727    7.636    0.000 
#    6.545    2.727    0.000    0.000    0.000    0.000 
#    0.000    0.000    0.000    0.000    0.000    0.000 
#
# Total GULP energy -61715.058726 kJ/mol
# GULP energy per Si atom -5610.459884 kJ/mol
# Density = 2.862313 g / cm^3
# Si number density = 28.688431 Si / 1000 Ang^3
#
#
#
# Elastic Constant Matrix: (Units=GPa)
#
#
# Indices 1 2 3 4 5 6 
#
# 1 126.1002 58.2239 32.4608 -9.2716 -38.6110 -7.8476
# 2 58.2239 163.0301 27.6791 0.7275 -4.8942 -1.6292
# 3 32.4608 27.6791 114.1754 -0.8819 -2.3268 -16.0513
# 4 -9.2716 0.7275 -0.8819 47.7518 -4.3229 -12.2186
# 5 -38.6110 -4.8942 -2.3268 -4.3229 57.7862 -6.7314
# 6 -7.8476 -1.6292 -16.0513 -12.2186 -6.7314 59.9910
#
#
#
# Elastic Compliance Matrix: (Units=1/GPa)
#
#
# Indices 1 2 3 4 5 6 
#
# 1 0.013925 -0.004292 -0.002260 0.004374 0.009533 0.003061
# 2 -0.004292 0.007737 -0.000882 -0.001493 -0.002496 -0.001172
# 3 -0.002260 -0.000882 0.009920 0.000262 -0.000899 0.002287
# 4 0.004374 -0.001493 0.000262 0.023846 0.005295 0.006053
# 5 0.009533 -0.002496 -0.000899 0.005295 0.024377 0.004752
# 6 0.003061 -0.001172 0.002287 0.006053 0.004752 0.019416
#
#
# Mechanical properties :
#
#
# Convention : Reuss Voigt Hill
#
# Bulk Modulus (GPa) = 59.83571 71.11482 65.47527
# Shear Modulus (GPa) = 41.78482 52.10194 46.94338
#
# Velocity S-wave (km/s) = 3.82056 4.26623 4.04953
# Velocity P-wave (km/s) = 6.35331 7.00786 6.68860
#
# Compressibility (1/GPa) = 0.01671243
#
# Stress axis : x y z
#
# Youngs Moduli (GPa) = 71.81398 129.25697 100.80519
#
# Poissons Ratio (x) = 0.55478 0.22782
# Poissons Ratio (y) = 0.30823 0.08895
# Poissons Ratio (z) = 0.16230 0.11406
#
# Static dielectric constant tensor:
#      x y z
#    x 2.273720 -0.014390 -0.144440 
#    y -0.014390 2.192970 -0.215310 
#    z -0.144440 -0.215310 2.642930 
# 
# From -- ./inp_files/17166.got.cif
#   From: 2010.05.17/outbox.cif.g08.bks.cpg/sg2_9_cif.got.tgz:17166.got - 2010.06.03 11:33:40.
