data_PCOD9044516
_publ_section_title
;
Structure prediction by ZEFSAII (Michael W. Deem and Ramdas Pophale) SiO2 
 PCOD9044516
Probable space group: P -1
;
_chemical_formula_sum "Si O2"
_cell_formula_units_Z 12
_cell_length_a 11.354636
_cell_length_b 8.886236
_cell_length_c 4.841541
_cell_angle_alpha 99.825354
_cell_angle_beta 67.631064
_cell_angle_gamma 107.657150
_cell_volume 429.623652
_symmetry_space_group_name_H-M "P -1"
_symmetry_group_IT_number 2
_symmetry_cell_setting 'triclinic'
loop_
_space_group_symop_operation_xyz
x,y,z
-x,-y,-z
loop_
_atom_site_type_symbol
_atom_site_label
_atom_site_fract_x
_atom_site_fract_y
_atom_site_fract_z
Si Si1 0.679066 0.376727 0.194540
Si Si2 0.894610 0.561228 0.426127
Si Si3 0.219438 0.848333 0.343292
Si Si4 0.641407 0.624153 0.975319
Si Si5 0.435207 0.124042 0.243742
Si Si6 0.949263 0.151209 0.011574
O O1 0.808992 0.414598 0.271969
O O2 0.544736 0.249156 0.363987
O O3 0.713246 0.290603 0.856930
O O4 0.656694 0.552088 0.241009
O O5 0.781314 0.611833 0.719224
O O6 0.042885 0.298239 0.804795
O O7 0.000000 0.500000 0.500000
O O8 0.094490 0.803309 0.636876
O O9 0.314114 0.000949 0.456876
O O10 0.171633 0.901035 0.111307
O O11 0.617410 0.780519 0.916909
O O12 0.500000 0.500000 0.000000
O O13 0.500000 0.000000 0.000000
O O14 0.000000 0.000000 0.000000
#
# Coordination Sequence:
#
# PCOD9044516 Si02
#       6
#     2   2   2   2   2   2
#     4  10  25  48  80 117 166 216 287 356 426 506
#     4  12  29  50  85 124 174 226 288 354 434 514
#     4  11  26  49  78 118 164 223 282 344 430 509
#     4  10  23  46  79 118 165 212 286 347 430 500
#     4   9  21  49  79 118 162 218 283 354 428 509
#     4  12  29  49  80 117 174 225 284 346 430 514
#
# _framework density 27.931424
#
# number of rings (size 3 to 8) (size 9 to 14) (size 15 to 20)
#    0.000    1.333    0.000    2.500    9.333    4.667 
#    6.000    2.500    3.667    0.000    0.000    0.000 
#    0.000    0.000    0.000    0.000    0.000    0.000 
#
# Total GULP energy -67048.362729 kJ/mol
# GULP energy per Si atom -5587.363561 kJ/mol
# Density = 2.786785 g / cm^3
# Si number density = 27.931424 Si / 1000 Ang^3
#
#
#
# Elastic Constant Matrix: (Units=GPa)
#
#
# Indices 1 2 3 4 5 6 
#
# 1 180.3455 91.0666 38.1409 0.5064 -4.9683 -17.9082
# 2 91.0666 208.6225 59.7425 -0.5247 -6.4425 -7.7859
# 3 38.1409 59.7425 126.6587 -22.1202 -9.8645 -2.6087
# 4 0.5064 -0.5247 -22.1202 28.1888 -1.5630 -4.9768
# 5 -4.9683 -6.4425 -9.8645 -1.5630 47.1676 5.7264
# 6 -17.9082 -7.7859 -2.6087 -4.9768 5.7264 82.7146
#
#
#
# Elastic Compliance Matrix: (Units=1/GPa)
#
#
# Indices 1 2 3 4 5 6 
#
# 1 0.007326 -0.002883 -0.000943 -0.000706 0.000006 0.001242
# 2 -0.002883 0.006811 -0.002689 -0.001964 0.000022 -0.000188
# 3 -0.000943 -0.002689 0.011175 0.008904 0.002131 0.000283
# 4 -0.000706 -0.001964 0.008904 0.043000 0.002660 0.002346
# 5 0.000006 0.000022 0.002131 0.002660 0.021894 -0.001285
# 6 0.001242 -0.000188 0.000283 0.002346 -0.001285 0.012580
#
#
# Mechanical properties :
#
#
# Convention : Reuss Voigt Hill
#
# Bulk Modulus (GPa) = 81.43587 99.28077 90.35832
# Shear Modulus (GPa) = 41.69784 53.39264 47.54524
#
# Velocity S-wave (km/s) = 3.86795 4.37688 4.13026
# Velocity P-wave (km/s) = 7.01192 7.82077 7.42736
#
# Compressibility (1/GPa) = 0.01227960
#
# Stress axis : x y z
#
# Youngs Moduli (GPa) = 136.50749 146.82911 89.48740
#
# Poissons Ratio (x) = 0.42328 0.08442
# Poissons Ratio (y) = 0.39352 0.24068
# Poissons Ratio (z) = 0.12878 0.39490
#
# Static dielectric constant tensor:
#      x y z
#    x 2.327840 0.083600 -0.060810 
#    y 0.083600 2.352290 -0.044540 
#    z -0.060810 -0.044540 2.242420 
# 
# From -- ./inp_files/61165.got.cif
#   From: 2010.05.17/outbox.cif.g08.bks.cpg/sg2_31_cif.got.tgz:61165.got - 2010.06.03 11:33:40.
