data_PCOD9044248
_publ_section_title
;
Structure prediction by ZEFSAII (Michael W. Deem and Ramdas Pophale) SiO2 
 PCOD9044248
Probable space group: P -1
;
_chemical_formula_sum "Si O2"
_cell_formula_units_Z 16
_cell_length_a 8.480267
_cell_length_b 11.295038
_cell_length_c 10.980010
_cell_angle_alpha 81.871948
_cell_angle_beta 134.638466
_cell_angle_gamma 102.087368
_cell_volume 731.739347
_symmetry_space_group_name_H-M "P -1"
_symmetry_group_IT_number 2
_symmetry_cell_setting 'triclinic'
loop_
_space_group_symop_operation_xyz
x,y,z
-x,-y,-z
loop_
_atom_site_type_symbol
_atom_site_label
_atom_site_fract_x
_atom_site_fract_y
_atom_site_fract_z
Si Si1 0.281095 0.456302 0.308369
Si Si2 0.062644 0.232971 0.373380
Si Si3 0.524577 0.572527 0.836702
Si Si4 0.851712 0.010099 0.542875
Si Si5 0.990363 0.649011 0.168512
Si Si6 0.079739 0.088220 0.917311
Si Si7 0.106468 0.384254 0.615134
Si Si8 0.599608 0.167451 0.218620
O O1 0.500000 0.500000 0.500000
O O2 0.120516 0.350686 0.305497
O O3 0.364710 0.406311 0.237949
O O4 0.155958 0.571400 0.206199
O O5 0.222852 0.133391 0.450899
O O6 0.091836 0.282110 0.520286
O O7 0.802503 0.171164 0.231007
O O8 0.363455 0.444911 0.765456
O O9 0.409109 0.689908 0.784387
O O10 0.740232 0.573576 0.037545
O O11 0.672280 0.092466 0.385712
O O12 0.000000 0.000000 0.500000
O O13 0.973769 0.055785 0.729692
O O14 0.984555 0.781996 0.097631
O O15 0.029183 0.661798 0.331847
O O16 0.351170 0.108774 0.051415
O O17 0.000000 0.000000 0.000000
O O18 0.000000 0.500000 0.500000
#
# Coordination Sequence:
#
# PCOD9044248 Si02
#       8
#     2   2   2   2   2   2   2   2
#     4  12  24  40  64 100 135 171 215 279 339 401
#     4  11  23  40  69  99 132 173 226 274 330 411
#     4  11  23  40  65  99 138 172 219 279 343 397
#     4  10  24  44  71 100 136 182 238 283 341 407
#     4  11  24  42  66  94 137 175 222 276 342 409
#     4  11  27  47  70 103 138 180 235 290 342 407
#     4  12  20  41  69  99 129 176 226 268 334 414
#     4  10  23  46  71  98 134 186 228 280 338 413
#
# _framework density 21.865711999999998
#
# number of rings (size 3 to 8) (size 9 to 14) (size 15 to 20)
#    0.000    1.000    3.750    2.250    5.250    4.500 
#    0.000    0.000    0.000    0.000    0.000    0.000 
#    0.000    0.000    0.000    0.000    0.000    0.000 
#
# Total GULP energy -89306.269369 kJ/mol
# GULP energy per Si atom -5581.641836 kJ/mol
# Density = 2.181594 g / cm^3
# Si number density = 21.865712 Si / 1000 Ang^3
#
#
#
# Elastic Constant Matrix: (Units=GPa)
#
#
# Indices 1 2 3 4 5 6 
#
# 1 43.2102 -9.1797 1.8922 -3.2832 -2.8779 11.0581
# 2 -9.1797 77.9234 16.9241 -3.6461 18.9701 4.1627
# 3 1.8922 16.9241 91.1716 0.5977 6.8558 -1.3162
# 4 -3.2832 -3.6461 0.5977 34.2343 -7.4111 -2.1666
# 5 -2.8779 18.9701 6.8558 -7.4111 33.9280 -4.6522
# 6 11.0581 4.1627 -1.3162 -2.1666 -4.6522 35.8211
#
#
#
# Elastic Compliance Matrix: (Units=1/GPa)
#
#
# Indices 1 2 3 4 5 6 
#
# 1 0.026426 0.004094 -0.001416 0.002359 -0.000425 -0.008598
# 2 0.004094 0.016243 -0.002499 -0.000025 -0.008838 -0.004392
# 3 -0.001416 -0.002499 0.011563 -0.000781 -0.001098 0.000963
# 4 0.002359 -0.000025 -0.000781 0.031199 0.007475 0.002104
# 5 -0.000425 -0.008838 -0.001098 0.007475 0.037110 0.006390
# 6 -0.008598 -0.004392 0.000963 0.002104 0.006390 0.032074
#
#
# Mechanical properties :
#
#
# Convention : Reuss Voigt Hill
#
# Bulk Modulus (GPa) = 18.31850 25.73092 22.02471
# Shear Modulus (GPa) = 28.99330 34.30791 31.65061
#
# Velocity S-wave (km/s) = 3.64534 3.96539 3.80873
# Velocity P-wave (km/s) = 5.11018 5.72355 5.42554
#
# Compressibility (1/GPa) = 0.05458961
#
# Stress axis : x y z
#
# Youngs Moduli (GPa) = 37.84208 61.56487 86.48158
#
# Poissons Ratio (x) = -0.25203 0.12246
# Poissons Ratio (y) = -0.15492 0.21610
# Poissons Ratio (z) = 0.05358 0.15384
#
# Static dielectric constant tensor:
#      x y z
#    x 1.856830 -0.005630 -0.074240 
#    y -0.005630 1.824460 0.075470 
#    z -0.074240 0.075470 1.940330 
# 
# From -- ./inp_files/390131.got.cif
#   From: 2010.05.17/outbox.cif.g08.bks.cpg/sg2_196_cif.got.tgz:390131.got - 2010.06.03 11:33:40.
