data_PCOD9044718
_publ_section_title
;
Structure prediction by ZEFSAII (Michael W. Deem and Ramdas Pophale) SiO2 
 PCOD9044718
Probable space group: P -1
;
_chemical_formula_sum "Si O2"
_cell_formula_units_Z 16
_cell_length_a 17.686325
_cell_length_b 8.475364
_cell_length_c 6.551140
_cell_angle_alpha 116.594411
_cell_angle_beta 91.893103
_cell_angle_gamma 51.485942
_cell_volume 643.308090
_symmetry_space_group_name_H-M "P -1"
_symmetry_group_IT_number 2
_symmetry_cell_setting 'triclinic'
loop_
_space_group_symop_operation_xyz
x,y,z
-x,-y,-z
loop_
_atom_site_type_symbol
_atom_site_label
_atom_site_fract_x
_atom_site_fract_y
_atom_site_fract_z
Si Si1 0.182086 0.149114 0.003276
Si Si2 0.432494 0.324250 0.392517
Si Si3 0.480501 0.721790 0.224986
Si Si4 0.915509 0.126510 0.247620
Si Si5 0.188963 0.805366 0.076838
Si Si6 0.310473 0.804967 0.441210
Si Si7 0.069992 0.683158 0.247454
Si Si8 0.380220 0.064477 0.064642
O O1 0.104786 0.426835 0.088851
O O2 0.280739 0.100077 0.073730
O O3 0.145837 0.063093 0.121491
O O4 0.228030 0.983560 0.709135
O O5 0.433830 0.352961 0.651279
O O6 0.400915 0.557309 0.422775
O O7 0.358835 0.298561 0.261295
O O8 0.550370 0.082915 0.211705
O O9 0.366641 0.887000 0.407017
O O10 0.464799 0.879436 0.134209
O O11 0.500000 0.500000 0.000000
O O12 0.958290 0.899802 0.263611
O O13 0.925289 0.272803 0.488081
O O14 0.809123 0.288512 0.204177
O O15 0.000000 0.000000 0.000000
O O16 0.269568 0.756333 0.217837
O O17 0.139094 0.723915 0.161299
#
# Coordination Sequence:
#
# PCOD9044718 Si02
#       8
#     2   2   2   2   2   2   2   2
#     4  12  25  43  65  98 139 172 217 278 332 390
#     4  11  24  41  65  86 127 178 230 281 326 384
#     4  12  22  41  63  87 124 176 226 276 330 388
#     4   9  21  47  76  99 135 173 211 265 326 396
#     4  11  24  42  69 101 133 174 214 268 332 389
#     4  12  24  41  61  93 133 171 222 276 329 391
#     4  10  23  47  72 102 133 171 218 263 325 401
#     4  11  23  42  61  92 124 174 228 277 332 387
#
# _framework density 24.871444
#
# number of rings (size 3 to 8) (size 9 to 14) (size 15 to 20)
#    0.000    1.000    3.750    3.000    0.000    2.500 
#    2.250    6.250    0.000    0.000    0.000    0.000 
#    0.000    0.000    0.000    0.000    0.000    0.000 
#
# Total GULP energy -89161.720385 kJ/mol
# GULP energy per Si atom -5572.607524 kJ/mol
# Density = 2.481484 g / cm^3
# Si number density = 24.871444 Si / 1000 Ang^3
#
#
#
# Elastic Constant Matrix: (Units=GPa)
#
#
# Indices 1 2 3 4 5 6 
#
# 1 111.2343 14.3410 29.8434 -3.7799 12.9382 2.7461
# 2 14.3410 76.2062 37.3338 -8.0084 9.5138 -0.0555
# 3 29.8434 37.3338 147.0890 -23.2191 17.5909 -11.6094
# 4 -3.7799 -8.0084 -23.2191 46.6115 -17.2174 16.5219
# 5 12.9382 9.5138 17.5909 -17.2174 27.7370 -16.0907
# 6 2.7461 -0.0555 -11.6094 16.5219 -16.0907 42.2148
#
#
#
# Elastic Compliance Matrix: (Units=1/GPa)
#
#
# Indices 1 2 3 4 5 6 
#
# 1 0.010230 -0.000494 -0.001660 -0.001276 -0.006039 -0.002925
# 2 -0.000494 0.015477 -0.003490 0.000245 -0.004230 -0.002616
# 3 -0.001660 -0.003490 0.008687 0.002801 -0.001270 0.000912
# 4 -0.001276 0.000245 0.002801 0.029957 0.014154 -0.005476
# 5 -0.006039 -0.004230 -0.001270 0.014154 0.059984 0.017362
# 6 -0.002925 -0.002616 0.000912 -0.005476 0.017362 0.032887
#
#
# Mechanical properties :
#
#
# Convention : Reuss Voigt Hill
#
# Bulk Modulus (GPa) = 43.27927 55.28508 49.28217
# Shear Modulus (GPa) = 28.37468 40.18008 34.27738
#
# Velocity S-wave (km/s) = 3.38132 4.02370 3.71642
# Velocity P-wave (km/s) = 5.71694 6.62295 6.18655
#
# Compressibility (1/GPa) = 0.02310575
#
# Stress axis : x y z
#
# Youngs Moduli (GPa) = 97.74748 64.61216 115.11021
#
# Poissons Ratio (x) = 0.03193 0.19113
# Poissons Ratio (y) = 0.04830 0.40173
# Poissons Ratio (z) = 0.16230 0.22549
#
# Static dielectric constant tensor:
#      x y z
#    x 2.090690 -0.038450 0.014680 
#    y -0.038450 1.970050 0.089450 
#    z 0.014680 0.089450 2.136170 
# 
# From -- ./inp_files/117407.got.cif
#   From: 2010.05.17/outbox.cif.g08.bks.cpg/sg2_59_cif.got.tgz:117407.got - 2010.06.03 11:33:40.
