data_PCOD9044115
_publ_section_title
;
Structure prediction by ZEFSAII (Michael W. Deem and Ramdas Pophale) SiO2 
 PCOD9044115
Probable space group: P -1
;
_chemical_formula_sum "Si O2"
_cell_formula_units_Z 16
_cell_length_a 22.376897
_cell_length_b 13.952076
_cell_length_c 6.099991
_cell_angle_alpha 107.975518
_cell_angle_beta 72.539091
_cell_angle_gamma 158.428928
_cell_volume 665.536720
_symmetry_space_group_name_H-M "P -1"
_symmetry_group_IT_number 2
_symmetry_cell_setting 'triclinic'
loop_
_space_group_symop_operation_xyz
x,y,z
-x,-y,-z
loop_
_atom_site_type_symbol
_atom_site_label
_atom_site_fract_x
_atom_site_fract_y
_atom_site_fract_z
Si Si1 0.388292 0.377712 0.836500
Si Si2 0.365332 0.153828 0.389485
Si Si3 0.681458 0.420135 0.695343
Si Si4 0.995853 0.416893 0.654467
Si Si5 0.096773 0.070944 0.115918
Si Si6 0.886654 0.604146 0.288334
Si Si7 0.682152 0.254674 0.887831
Si Si8 0.340629 0.946990 0.608965
O O1 0.355229 0.244756 0.593718
O O2 0.494879 0.625144 0.786089
O O3 0.500000 0.500000 0.000000
O O4 0.213596 0.161153 0.941928
O O5 0.401122 0.129746 0.527093
O O6 0.193623 0.863815 0.272470
O O7 0.774753 0.661739 0.727808
O O8 0.728239 0.418451 0.440425
O O9 0.740596 0.448621 0.863357
O O10 0.489477 0.141380 0.734975
O O11 0.026372 0.340492 0.594028
O O12 0.000000 0.500000 0.500000
O O13 0.172444 0.715472 0.757637
O O14 0.993431 0.854328 0.253487
O O15 0.000000 0.000000 0.000000
O O16 0.818952 0.435757 0.045419
O O17 0.683467 0.175911 0.634861
O O18 0.500000 0.000000 0.000000
#
# Coordination Sequence:
#
# PCOD9044115 Si02
#       8
#     2   2   2   2   2   2   2   2
#     4  11  25  49  71 103 143 193 249 304 370 439
#     4  10  25  46  74  96 144 192 240 304 365 438
#     4  12  25  46  71 107 153 192 239 298 378 442
#     4  10  23  46  70 102 135 189 244 290 363 431
#     4  12  28  45  76 114 146 193 255 315 366 440
#     4  12  25  46  72 103 150 193 238 308 372 427
#     4  12  24  41  69 108 146 189 240 291 367 450
#     4  11  23  44  71 105 142 190 238 298 362 444
#
# _framework density 24.040748000000001
#
# number of rings (size 3 to 8) (size 9 to 14) (size 15 to 20)
#    0.000    0.750    3.750    3.000    7.000    1.000 
#    4.500    1.250    0.000    0.000    0.000    0.000 
#    0.000    0.000    0.000    0.000    0.000    0.000 
#
# Total GULP energy -89239.444328 kJ/mol
# GULP energy per Si atom -5577.465270 kJ/mol
# Density = 2.398603 g / cm^3
# Si number density = 24.040748 Si / 1000 Ang^3
#
#
#
# Elastic Constant Matrix: (Units=GPa)
#
#
# Indices 1 2 3 4 5 6 
#
# 1 106.4892 29.3295 15.0053 -2.0268 29.8706 -13.6951
# 2 29.3295 124.9558 25.4798 -11.2158 22.7486 -12.5767
# 3 15.0053 25.4798 50.7385 8.6469 -1.1684 -3.0780
# 4 -2.0268 -11.2158 8.6469 37.1659 -12.6816 8.3128
# 5 29.8706 22.7486 -1.1684 -12.6816 34.7233 -3.6962
# 6 -13.6951 -12.5767 -3.0780 8.3128 -3.6962 55.0144
#
#
#
# Elastic Compliance Matrix: (Units=1/GPa)
#
#
# Indices 1 2 3 4 5 6 
#
# 1 0.013861 -0.000221 -0.003509 -0.003532 -0.012882 0.002872
# 2 -0.000221 0.010648 -0.005710 0.002171 -0.006044 0.001326
# 3 -0.003509 -0.005710 0.024777 -0.005913 0.005484 0.000469
# 4 -0.003532 0.002171 -0.005913 0.034463 0.013470 -0.005016
# 5 -0.012882 -0.006044 0.005484 0.013470 0.048620 -0.003050
# 6 0.002872 0.001326 0.000469 -0.005016 -0.003050 0.019774
#
#
# Mechanical properties :
#
#
# Convention : Reuss Voigt Hill
#
# Bulk Modulus (GPa) = 32.88883 46.86809 39.87846
# Shear Modulus (GPa) = 27.60021 39.53865 33.56943
#
# Velocity S-wave (km/s) = 3.39198 4.05983 3.74084
# Velocity P-wave (km/s) = 5.38988 6.44313 5.93990
#
# Compressibility (1/GPa) = 0.03040546
#
# Stress axis : x y z
#
# Youngs Moduli (GPa) = 72.14235 93.91726 40.36049
#
# Poissons Ratio (x) = 0.02074 0.14162
# Poissons Ratio (y) = 0.01593 0.23048
# Poissons Ratio (z) = 0.25314 0.53631
#
# Static dielectric constant tensor:
#      x y z
#    x 1.977470 0.002710 -0.047980 
#    y 0.002710 1.915320 -0.006310 
#    z -0.047980 -0.006310 2.024340 
# 
# From -- ./inp_files/124316.got.cif
#   From: 2010.05.17/outbox.cif.g08.bks.cpg/sg2_63_cif.got.tgz:124316.got - 2010.06.03 11:33:40.
