data_PCOD9044705
_publ_section_title
;
Structure prediction by ZEFSAII (Michael W. Deem and Ramdas Pophale) SiO2 
 PCOD9044705
Probable space group: P -1
;
_chemical_formula_sum "Si O2"
_cell_formula_units_Z 14
_cell_length_a 6.968020
_cell_length_b 9.831209
_cell_length_c 16.899317
_cell_angle_alpha 52.572915
_cell_angle_beta 137.350786
_cell_angle_gamma 109.970588
_cell_volume 610.773960
_symmetry_space_group_name_H-M "P -1"
_symmetry_group_IT_number 2
_symmetry_cell_setting 'triclinic'
loop_
_space_group_symop_operation_xyz
x,y,z
-x,-y,-z
loop_
_atom_site_type_symbol
_atom_site_label
_atom_site_fract_x
_atom_site_fract_y
_atom_site_fract_z
Si Si1 0.722932 0.752875 0.294427
Si Si2 0.814583 0.117506 0.132835
Si Si3 0.781400 0.349849 0.627205
Si Si4 0.120522 0.799618 0.704823
Si Si5 0.920599 0.179591 0.965097
Si Si6 0.765052 0.609790 0.114359
Si Si7 0.364767 0.107655 0.608167
O O1 0.405156 0.718484 0.191393
O O2 0.740309 0.785985 0.381033
O O3 0.015361 0.635776 0.391205
O O4 0.711190 0.935358 0.178883
O O5 0.976451 0.139636 0.256788
O O6 0.940692 0.131052 0.079979
O O7 0.538149 0.274482 0.995587
O O8 0.500000 0.500000 0.500000
O O9 0.655468 0.172113 0.649268
O O10 0.994468 0.356716 0.762042
O O11 0.236620 0.593565 0.815945
O O12 0.855657 0.841103 0.548768
O O13 0.348771 0.912018 0.700320
O O14 0.134060 0.308361 0.963411
O O15 0.000000 0.000000 0.000000
#
# Coordination Sequence:
#
# PCOD9044705 Si02
#       7
#     2   2   2   2   2   2   2
#     4  11  23  42  72 106 136 178 240 294 350 412
#     4  11  24  43  69 103 143 185 227 285 360 423
#     4  12  24  43  73 104 139 180 241 300 338 406
#     4  10  24  47  68  99 150 187 227 285 348 435
#     4  12  23  40  72 108 138 181 230 295 358 400
#     4  12  23  43  71 108 144 176 235 296 347 415
#     4  10  23  47  71  98 140 192 231 284 352 411
#
# _framework density 22.921738999999999
#
# number of rings (size 3 to 8) (size 9 to 14) (size 15 to 20)
#    0.000    0.857    5.714    1.714    0.000    1.143 
#    2.571   10.714    0.000    0.000    0.000    0.000 
#    0.000    0.000    0.000    0.000    0.000    0.000 
#
# Total GULP energy -78322.869720 kJ/mol
# GULP energy per Si atom -5594.490694 kJ/mol
# Density = 2.286957 g / cm^3
# Si number density = 22.921739 Si / 1000 Ang^3
#
#
#
# Elastic Constant Matrix: (Units=GPa)
#
#
# Indices 1 2 3 4 5 6 
#
# 1 142.9764 37.9585 68.0413 -4.5354 -14.9515 7.2359
# 2 37.9585 108.8715 46.6688 -23.0484 -4.6117 21.6452
# 3 68.0413 46.6688 134.9140 12.7951 -15.9608 -9.7032
# 4 -4.5354 -23.0484 12.7951 45.3586 -1.6340 -4.9364
# 5 -14.9515 -4.6117 -15.9608 -1.6340 49.0858 -2.5830
# 6 7.2359 21.6452 -9.7032 -4.9364 -2.5830 25.7537
#
#
#
# Elastic Compliance Matrix: (Units=1/GPa)
#
#
# Indices 1 2 3 4 5 6 
#
# 1 0.009976 0.000380 -0.005588 0.002297 0.001088 -0.004678
# 2 0.000380 0.018284 -0.008877 0.009916 -0.001622 -0.017081
# 3 -0.005588 -0.008877 0.015367 -0.007818 0.002917 0.013615
# 4 0.002297 0.009916 -0.007818 0.028810 -0.000290 -0.006432
# 5 0.001088 -0.001622 0.002917 -0.000290 0.021715 0.004279
# 6 -0.004678 -0.017081 0.013615 -0.006432 0.004279 0.058826
#
#
# Mechanical properties :
#
#
# Convention : Reuss Voigt Hill
#
# Bulk Modulus (GPa) = 64.69951 76.89992 70.79972
# Shear Modulus (GPa) = 26.83827 39.64583 33.24205
#
# Velocity S-wave (km/s) = 3.42550 4.16338 3.81233
# Velocity P-wave (km/s) = 6.62820 7.53216 7.09459
#
# Compressibility (1/GPa) = 0.01545607
#
# Stress axis : x y z
#
# Youngs Moduli (GPa) = 100.23956 54.69140 65.07535
#
# Poissons Ratio (x) = -0.02076 0.36365
# Poissons Ratio (y) = -0.03805 0.57768
# Poissons Ratio (z) = 0.56016 0.48550
#
# Static dielectric constant tensor:
#      x y z
#    x 1.886140 -0.008130 0.012380 
#    y -0.008130 1.878010 -0.020820 
#    z 0.012380 -0.020820 1.879500 
# 
# From -- ./inp_files/482694.got.cif
#   From: 2010.05.17/outbox.cif.g08.bks.cpg/sg2_242_cif.got.tgz:482694.got - 2010.06.03 11:33:40.
