data_PCOD9044725
_publ_section_title
;
Structure prediction by ZEFSAII (Michael W. Deem and Ramdas Pophale) SiO2 
 PCOD9044725
Probable space group: P -1
;
_chemical_formula_sum "Si O2"
_cell_formula_units_Z 12
_cell_length_a 5.095144
_cell_length_b 11.373146
_cell_length_c 11.305546
_cell_angle_alpha 124.628714
_cell_angle_beta 60.996570
_cell_angle_gamma 122.529623
_cell_volume 439.062544
_symmetry_space_group_name_H-M "P -1"
_symmetry_group_IT_number 2
_symmetry_cell_setting 'triclinic'
loop_
_space_group_symop_operation_xyz
x,y,z
-x,-y,-z
loop_
_atom_site_type_symbol
_atom_site_label
_atom_site_fract_x
_atom_site_fract_y
_atom_site_fract_z
Si Si1 0.867126 0.774982 0.155433
Si Si2 0.196363 0.439599 0.688620
Si Si3 0.732097 0.915368 0.850715
Si Si4 0.634096 0.181255 0.556070
Si Si5 0.678573 0.320176 0.386123
Si Si6 0.524192 0.321986 0.037291
O O1 0.668224 0.772282 0.315143
O O2 0.649313 0.667283 0.039314
O O3 0.196958 0.747045 0.084984
O O4 0.953340 0.945235 0.177486
O O5 0.507147 0.419011 0.551244
O O6 0.109381 0.561028 0.690493
O O7 0.906564 0.279871 0.642954
O O8 0.294895 0.524094 0.840232
O O9 0.567837 0.814728 0.715460
O O10 0.735942 0.796748 0.884661
O O11 0.500000 0.000000 0.000000
O O12 0.777703 0.236768 0.425999
O O13 0.500000 0.000000 0.500000
#
# Coordination Sequence:
#
# PCOD9044725 Si02
#       6
#     2   2   2   2   2   2
#     4  11  25  43  70 106 148 186 239 294 363 428
#     4  10  24  47  73 102 139 192 244 298 352 431
#     4   9  20  42  71 101 140 185 242 296 348 426
#     4  12  28  42  72 105 149 190 231 303 364 432
#     4  10  23  47  72 102 141 189 247 291 361 427
#     4  10  24  45  72 104 140 195 238 297 353 428
#
# _framework density 27.330960000000001
#
# number of rings (size 3 to 8) (size 9 to 14) (size 15 to 20)
#    0.000    1.667    0.000    2.000    9.333    2.667 
#   21.000    0.000    0.000    0.000    0.000    0.000 
#    0.000    0.000    0.000    0.000    0.000    0.000 
#
# Total GULP energy -67292.141650 kJ/mol
# GULP energy per Si atom -5607.678471 kJ/mol
# Density = 2.726875 g / cm^3
# Si number density = 27.330960 Si / 1000 Ang^3
#
#
#
# Elastic Constant Matrix: (Units=GPa)
#
#
# Indices 1 2 3 4 5 6 
#
# 1 97.3498 30.5046 31.8578 -3.9418 30.1346 1.0596
# 2 30.5046 162.5579 34.2462 22.4461 36.7825 -3.7117
# 3 31.8578 34.2462 141.4493 -2.3233 30.0693 -4.2411
# 4 -3.9418 22.4461 -2.3233 52.3673 2.6017 1.3250
# 5 30.1346 36.7825 30.0693 2.6017 55.9634 3.0001
# 6 1.0596 -3.7117 -4.2411 1.3250 3.0001 36.2002
#
#
#
# Elastic Compliance Matrix: (Units=1/GPa)
#
#
# Indices 1 2 3 4 5 6 
#
# 1 0.012858 -0.001102 -0.001444 0.001655 -0.005487 -0.000264
# 2 -0.001102 0.007950 -0.000824 -0.003354 -0.004098 0.001213
# 3 -0.001444 -0.000824 0.008334 0.000746 -0.003257 0.001177
# 4 0.001655 -0.003354 0.000746 0.020718 0.000006 -0.001064
# 5 -0.005487 -0.004098 -0.003257 0.000006 0.025414 -0.002748
# 6 -0.000264 0.001213 0.001177 -0.001064 -0.002748 0.028161
#
#
# Mechanical properties :
#
#
# Convention : Reuss Voigt Hill
#
# Bulk Modulus (GPa) = 44.63604 66.06379 55.34991
# Shear Modulus (GPa) = 42.50172 49.22274 45.86223
#
# Velocity S-wave (km/s) = 3.94772 4.24841 4.10082
# Velocity P-wave (km/s) = 6.09479 6.94907 6.53590
#
# Compressibility (1/GPa) = 0.02240342
#
# Stress axis : x y z
#
# Youngs Moduli (GPa) = 77.77117 125.78201 119.98750
#
# Poissons Ratio (x) = 0.13860 0.17321
# Poissons Ratio (y) = 0.08570 0.09889
# Poissons Ratio (z) = 0.11227 0.10366
#
# Static dielectric constant tensor:
#      x y z
#    x 2.169920 -0.108600 -0.038710 
#    y -0.108600 2.197610 -0.072470 
#    z -0.038710 -0.072470 2.092490 
# 
# From -- ./inp_files/63298.got.cif
#   From: 2010.05.17/outbox.cif.g08.bks.cpg/sg2_32_cif.got.tgz:63298.got - 2010.06.03 11:33:40.
