data_PCOD9044802
_publ_section_title
;
Structure prediction by ZEFSAII (Michael W. Deem and Ramdas Pophale) SiO2 
 PCOD9044802
Probable space group: P -1
;
_chemical_formula_sum "Si O2"
_cell_formula_units_Z 14
_cell_length_a 8.787205
_cell_length_b 12.610046
_cell_length_c 9.321469
_cell_angle_alpha 58.610546
_cell_angle_beta 130.945836
_cell_angle_gamma 96.852844
_cell_volume 625.261941
_symmetry_space_group_name_H-M "P -1"
_symmetry_group_IT_number 2
_symmetry_cell_setting 'triclinic'
loop_
_space_group_symop_operation_xyz
x,y,z
-x,-y,-z
loop_
_atom_site_type_symbol
_atom_site_label
_atom_site_fract_x
_atom_site_fract_y
_atom_site_fract_z
Si Si1 0.664795 0.020420 0.205072
Si Si2 0.326518 0.101936 0.169267
Si Si3 0.572715 0.403866 0.477798
Si Si4 0.133316 0.801743 0.641122
Si Si5 0.161595 0.520158 0.964201
Si Si6 0.949311 0.618503 0.271957
Si Si7 0.635262 0.158113 0.531070
O O1 0.897425 0.910949 0.407581
O O2 0.538879 0.015939 0.275769
O O3 0.725502 0.153013 0.183248
O O4 0.500000 0.000000 0.000000
O O5 0.416604 0.154827 0.325625
O O6 0.226365 0.993062 0.234384
O O7 0.192295 0.226931 0.901180
O O8 0.500000 0.500000 0.500000
O O9 0.578464 0.253541 0.566844
O O10 0.817654 0.384542 0.622855
O O11 0.402892 0.478830 0.199718
O O12 0.100499 0.668493 0.765062
O O13 0.248019 0.792233 0.562579
O O14 0.156167 0.428976 0.892527
O O15 0.000000 0.500000 0.000000
O O16 0.000000 0.500000 0.500000
#
# Coordination Sequence:
#
# PCOD9044802 Si02
#       7
#     2   2   2   2   2   2   2
#     4  10  24  44  71 106 141 182 243 306 366 446
#     4  10  24  46  74 104 146 194 237 311 376 437
#     4  12  27  47  73 111 139 202 250 304 377 451
#     4  10  25  46  72 105 140 199 242 302 379 438
#     4  12  27  48  73 103 157 195 250 315 366 448
#     4  12  28  46  75 111 148 196 252 302 378 448
#     4  10  23  47  74 103 147 190 250 305 374 440
#
# _framework density 22.390616999999999
#
# number of rings (size 3 to 8) (size 9 to 14) (size 15 to 20)
#    0.000    1.143    2.857    0.857   10.000    5.143 
#    0.000    0.000    0.000    0.000    0.000    0.000 
#    0.000    0.000    0.000    0.000    0.000    0.000 
#
# Total GULP energy -78074.252271 kJ/mol
# GULP energy per Si atom -5576.732305 kJ/mol
# Density = 2.233965 g / cm^3
# Si number density = 22.390617 Si / 1000 Ang^3
#
#
#
# Elastic Constant Matrix: (Units=GPa)
#
#
# Indices 1 2 3 4 5 6 
#
# 1 55.9001 33.6229 13.2679 -16.8500 -2.5068 -4.8404
# 2 33.6229 160.1301 47.0160 0.0901 -15.1888 -5.5352
# 3 13.2679 47.0160 84.2626 -2.8425 -2.7074 -5.7515
# 4 -16.8500 0.0901 -2.8425 62.3432 12.3263 -5.8805
# 5 -2.5068 -15.1888 -2.7074 12.3263 34.5647 -5.4170
# 6 -4.8404 -5.5352 -5.7515 -5.8805 -5.4170 28.2348
#
#
#
# Elastic Compliance Matrix: (Units=1/GPa)
#
#
# Indices 1 2 3 4 5 6 
#
# 1 0.023307 -0.004829 -0.000541 0.007129 -0.002395 0.003964
# 2 -0.004829 0.008868 -0.004107 -0.002279 0.004098 0.000386
# 3 -0.000541 -0.004107 0.014392 0.000849 -0.000694 0.002078
# 4 0.007129 -0.002279 0.000849 0.019719 -0.006864 0.003738
# 5 -0.002395 0.004098 -0.000694 -0.006864 0.033783 0.005303
# 6 0.003964 0.000386 0.002078 0.003738 0.005303 0.038392
#
#
# Mechanical properties :
#
#
# Convention : Reuss Voigt Hill
#
# Bulk Modulus (GPa) = 36.21433 54.23404 45.22419
# Shear Modulus (GPa) = 30.00853 38.78760 34.39806
#
# Velocity S-wave (km/s) = 3.66488 4.16662 3.92378
# Velocity P-wave (km/s) = 5.84102 6.88637 6.38512
#
# Compressibility (1/GPa) = 0.02761338
#
# Stress axis : x y z
#
# Youngs Moduli (GPa) = 42.90577 112.76540 69.48115
#
# Poissons Ratio (x) = 0.54455 0.03761
# Poissons Ratio (y) = 0.20719 0.28533
# Poissons Ratio (z) = 0.02323 0.46308
#
# Static dielectric constant tensor:
#      x y z
#    x 1.854340 0.102310 -0.082380 
#    y 0.102310 2.208560 -0.140990 
#    z -0.082380 -0.140990 1.926820 
# 
# From -- ./inp_files/185477.got.cif
#   From: 2010.05.17/outbox.cif.g08.bks.cpg/sg2_93_cif.got.tgz:185477.got - 2010.06.03 11:33:40.
