data_PCOD9044209
_publ_section_title
;
Structure prediction by ZEFSAII (Michael W. Deem and Ramdas Pophale) SiO2 
 PCOD9044209
Probable space group: P -1
;
_chemical_formula_sum "Si O2"
_cell_formula_units_Z 14
_cell_length_a 12.002457
_cell_length_b 18.313573
_cell_length_c 8.718880
_cell_angle_alpha 68.480852
_cell_angle_beta 141.724921
_cell_angle_gamma 140.040223
_cell_volume 615.315685
_symmetry_space_group_name_H-M "P -1"
_symmetry_group_IT_number 2
_symmetry_cell_setting 'triclinic'
loop_
_space_group_symop_operation_xyz
x,y,z
-x,-y,-z
loop_
_atom_site_type_symbol
_atom_site_label
_atom_site_fract_x
_atom_site_fract_y
_atom_site_fract_z
Si Si1 0.354299 0.031128 0.258417
Si Si2 0.759337 0.850178 0.280097
Si Si3 0.326557 0.193205 0.136945
Si Si4 0.850646 0.646596 0.847524
Si Si5 0.909329 0.387696 0.078608
Si Si6 0.476951 0.556890 0.797562
Si Si7 0.229093 0.921505 0.891227
O O1 0.500000 0.000000 0.500000
O O2 0.489501 0.165462 0.361260
O O3 0.369084 0.031345 0.087863
O O4 0.981193 0.905032 0.008768
O O5 0.926598 0.831720 0.527254
O O6 0.772077 0.854622 0.109012
O O7 0.420368 0.730086 0.092725
O O8 0.000000 0.000000 0.500000
O O9 0.496595 0.340716 0.208414
O O10 0.500000 0.500000 0.500000
O O11 0.763202 0.631522 0.938716
O O12 0.085409 0.666024 0.021014
O O13 0.057510 0.795778 0.906868
O O14 0.162637 0.446273 0.432931
O O15 0.000000 0.500000 0.000000
O O16 0.500000 0.500000 0.000000
O O17 0.500000 0.000000 0.000000
#
# Coordination Sequence:
#
# PCOD9044209 Si02
#       7
#     2   2   2   2   2   2   2
#     4  11  25  47  72 109 147 202 251 324 398 459
#     4  12  25  46  73 107 147 189 255 313 380 458
#     4  11  26  46  74 106 157 193 260 322 390 460
#     4  10  23  46  71 104 145 196 252 310 378 467
#     4  11  27  46  77 109 148 202 257 318 389 456
#     4  11  26  49  76 111 156 209 259 319 392 472
#     4  12  24  45  75 105 145 197 254 313 385 467
#
# _framework density 22.752548000000001
#
# number of rings (size 3 to 8) (size 9 to 14) (size 15 to 20)
#    0.000    0.857    2.857    3.429    6.000    2.857 
#    0.000    0.000    0.000    0.000    0.000    0.000 
#    0.000    0.000    0.000    0.000    0.000    0.000 
#
# Total GULP energy -77936.427004 kJ/mol
# GULP energy per Si atom -5566.887643 kJ/mol
# Density = 2.270076 g / cm^3
# Si number density = 22.752548 Si / 1000 Ang^3
#
#
#
# Elastic Constant Matrix: (Units=GPa)
#
#
# Indices 1 2 3 4 5 6 
#
# 1 199.7389 53.3103 61.2948 -3.2299 2.2130 30.3929
# 2 53.3103 109.5668 40.9308 -13.4919 -9.3357 20.3371
# 3 61.2948 40.9308 100.3667 -14.8134 6.8023 10.9625
# 4 -3.2299 -13.4919 -14.8134 38.7261 -1.0158 4.6390
# 5 2.2130 -9.3357 6.8023 -1.0158 39.4103 9.7587
# 6 30.3929 20.3371 10.9625 4.6390 9.7587 49.8823
#
#
#
# Elastic Compliance Matrix: (Units=1/GPa)
#
#
# Indices 1 2 3 4 5 6 
#
# 1 0.006894 -0.001640 -0.003410 -0.000954 0.000479 -0.002787
# 2 -0.001640 0.013072 -0.003586 0.003766 0.005117 -0.004894
# 3 -0.003410 -0.003586 0.014199 0.003731 -0.003185 0.000696
# 4 -0.000954 0.003766 0.003731 0.029132 0.002273 -0.004928
# 5 0.000479 0.005117 -0.003185 0.002273 0.029042 -0.007571
# 6 -0.002787 -0.004894 0.000696 -0.004928 -0.007571 0.025527
#
#
# Mechanical properties :
#
#
# Convention : Reuss Voigt Hill
#
# Bulk Modulus (GPa) = 59.19528 80.08270 69.63899
# Shear Modulus (GPa) = 35.51875 42.54618 39.03247
#
# Velocity S-wave (km/s) = 3.95535 4.32899 4.14638
# Velocity P-wave (km/s) = 6.85078 7.76276 7.32099
#
# Compressibility (1/GPa) = 0.01689324
#
# Stress axis : x y z
#
# Youngs Moduli (GPa) = 145.05011 76.49731 70.42629
#
# Poissons Ratio (x) = 0.12543 0.24019
# Poissons Ratio (y) = 0.23783 0.25256
# Poissons Ratio (z) = 0.49469 0.27433
#
# Static dielectric constant tensor:
#      x y z
#    x 1.884980 -0.111730 0.039430 
#    y -0.111730 1.811480 0.045680 
#    z 0.039430 0.045680 1.755160 
# 
# From -- ./inp_files/279335.got.cif
#   From: 2010.05.17/outbox.cif.g08.bks.cpg/sg2_140_cif.got.tgz:279335.got - 2010.06.03 11:33:40.
