data_PCOD9044143
_publ_section_title
;
Structure prediction by ZEFSAII (Michael W. Deem and Ramdas Pophale) SiO2 
 PCOD9044143
Probable space group: P -1
;
_chemical_formula_sum "Si O2"
_cell_formula_units_Z 16
_cell_length_a 10.932059
_cell_length_b 15.958116
_cell_length_c 9.437816
_cell_angle_alpha 116.746201
_cell_angle_beta 93.942329
_cell_angle_gamma 34.071006
_cell_volume 654.137888
_symmetry_space_group_name_H-M "P -1"
_symmetry_group_IT_number 2
_symmetry_cell_setting 'triclinic'
loop_
_space_group_symop_operation_xyz
x,y,z
-x,-y,-z
loop_
_atom_site_type_symbol
_atom_site_label
_atom_site_fract_x
_atom_site_fract_y
_atom_site_fract_z
Si Si1 0.760461 0.049385 0.706541
Si Si2 0.199557 0.168757 0.632629
Si Si3 0.674166 0.010158 0.222254
Si Si4 0.788023 0.059347 0.038967
Si Si5 0.109501 0.326362 0.314249
Si Si6 0.370921 0.373795 0.679085
Si Si7 0.782487 0.469911 0.641100
Si Si8 0.620835 0.382131 0.572358
O O1 0.518597 0.263765 0.760526
O O2 0.799796 0.923232 0.537386
O O3 0.714006 0.073863 0.888294
O O4 0.074779 0.874048 0.597151
O O5 0.963990 0.394810 0.719264
O O6 0.500000 0.000000 0.500000
O O7 0.164826 0.165135 0.788372
O O8 0.867388 0.927240 0.058926
O O9 0.435268 0.115577 0.201785
O O10 0.531585 0.185295 0.450375
O O11 0.492972 0.293197 0.251835
O O12 0.000000 0.000000 0.000000
O O13 0.000000 0.500000 0.500000
O O14 0.951286 0.423480 0.226605
O O15 0.981007 0.335737 0.417240
O O16 0.436642 0.432654 0.671851
O O17 0.666221 0.454644 0.694385
O O18 0.500000 0.500000 0.500000
#
# Coordination Sequence:
#
# PCOD9044143 Si02
#       8
#     2   2   2   2   2   2   2   2
#     4  10  24  37  58  91 123 162 207 253 303 371
#     4  10  21  40  68  93 122 156 212 265 302 354
#     4  10  20  38  65  88 119 166 207 248 310 372
#     4  12  24  42  60  88 132 169 200 246 317 380
#     4  10  17  33  63  91 111 153 217 250 296 358
#     4  10  19  36  59  88 117 160 210 255 292 364
#     4  11  21  36  63  92 118 159 207 256 306 357
#     4  11  19  35  59  89 115 153 213 260 296 351
#
# _framework density 24.459672999999999
#
# number of rings (size 3 to 8) (size 9 to 14) (size 15 to 20)
#    0.000    1.500    5.000    1.875    0.000    2.000 
#    0.000    6.875    0.000    0.000    0.000    0.000 
#    0.000    0.000    0.000    0.000    0.000    0.000 
#
# Total GULP energy -89224.666726 kJ/mol
# GULP energy per Si atom -5576.541670 kJ/mol
# Density = 2.440400 g / cm^3
# Si number density = 24.459673 Si / 1000 Ang^3
#
#
#
# Elastic Constant Matrix: (Units=GPa)
#
#
# Indices 1 2 3 4 5 6 
#
# 1 94.5480 32.2401 25.0422 -15.3545 -14.2847 -11.2568
# 2 32.2401 166.4082 28.8998 -40.8007 -13.8922 -11.5690
# 3 25.0422 28.8998 75.7565 -33.8068 -3.3336 0.8292
# 4 -15.3545 -40.8007 -33.8068 43.4410 6.1121 -5.4294
# 5 -14.2847 -13.8922 -3.3336 6.1121 26.3506 -2.9016
# 6 -11.2568 -11.5690 0.8292 -5.4294 -2.9016 41.2211
#
#
#
# Elastic Compliance Matrix: (Units=1/GPa)
#
#
# Indices 1 2 3 4 5 6 
#
# 1 0.013430 -0.001006 -0.003529 0.000628 0.006599 0.004003
# 2 -0.001006 0.008570 0.000923 0.008486 0.002496 0.003405
# 3 -0.003529 0.000923 0.021344 0.016693 -0.002500 0.000889
# 4 0.000628 0.008486 0.016693 0.045595 -0.002766 0.008028
# 5 0.006599 0.002496 -0.002500 -0.002766 0.043748 0.005268
# 6 0.004003 0.003405 0.000889 0.008028 0.005268 0.027719
#
#
# Mechanical properties :
#
#
# Convention : Reuss Voigt Hill
#
# Bulk Modulus (GPa) = 27.68609 56.56410 42.12510
# Shear Modulus (GPa) = 27.82882 38.90457 33.36670
#
# Velocity S-wave (km/s) = 3.37670 3.99251 3.69745
# Velocity P-wave (km/s) = 5.15233 6.66552 5.95717
#
# Compressibility (1/GPa) = 0.03611922
#
# Stress axis : x y z
#
# Youngs Moduli (GPa) = 74.46070 116.69096 46.85109
#
# Poissons Ratio (x) = 0.11739 0.16534
# Poissons Ratio (y) = 0.07490 -0.04323
# Poissons Ratio (z) = 0.26277 -0.10767
#
# Static dielectric constant tensor:
#      x y z
#    x 2.012590 0.022160 0.011010 
#    y 0.022160 2.218210 0.064970 
#    z 0.011010 0.064970 2.010540 
# 
# From -- ./inp_files/279637.got.cif
#   From: 2010.05.17/outbox.cif.g08.bks.cpg/sg2_140_cif.got.tgz:279637.got - 2010.06.03 11:33:40.
