data_PCOD9044985
_publ_section_title
;
Structure prediction by ZEFSAII (Michael W. Deem and Ramdas Pophale) SiO2 
 PCOD9044985
Probable space group: P -1
;
_chemical_formula_sum "Si O2"
_cell_formula_units_Z 14
_cell_length_a 10.159830
_cell_length_b 4.927257
_cell_length_c 12.073944
_cell_angle_alpha 90.327666
_cell_angle_beta 122.570187
_cell_angle_gamma 89.621621
_cell_volume 509.353997
_symmetry_space_group_name_H-M "P -1"
_symmetry_group_IT_number 2
_symmetry_cell_setting 'triclinic'
loop_
_space_group_symop_operation_xyz
x,y,z
-x,-y,-z
loop_
_atom_site_type_symbol
_atom_site_label
_atom_site_fract_x
_atom_site_fract_y
_atom_site_fract_z
Si Si1 0.795023 0.134015 0.530072
Si Si2 0.476878 0.773372 0.122156
Si Si3 0.949812 0.248970 0.370950
Si Si4 0.523982 0.739621 0.722374
Si Si5 0.838624 0.035296 0.794470
Si Si6 0.802594 0.741948 0.171791
Si Si7 0.862827 0.335130 0.033375
O O1 0.616139 0.203409 0.425631
O O2 0.865601 0.825313 0.551249
O O3 0.889203 0.261980 0.469588
O O4 0.826225 0.190962 0.672869
O O5 0.475802 0.557489 0.223220
O O6 0.617214 0.714176 0.103027
O O7 0.301638 0.782397 0.995584
O O8 0.511488 0.063002 0.190700
O O9 0.865363 0.997808 0.269277
O O10 0.886577 0.501173 0.276626
O O11 0.685680 0.851009 0.746084
O O12 0.852720 0.254657 0.899837
O O13 0.984374 0.826442 0.859292
O O14 0.849161 0.648892 0.067060
#
# Coordination Sequence:
#
# PCOD9044985 Si02
#       7
#     2   2   2   2   2   2   2
#     4  11  22  47  72 105 141 179 234 290 347 413
#     4  11  23  45  72 104 139 180 230 291 345 405
#     4  11  26  41  76 102 141 178 231 291 352 403
#     4  11  24  45  71 104 140 181 231 284 349 413
#     4  10  23  48  71 103 142 191 227 284 344 418
#     4  12  22  48  69 107 138 180 231 292 345 407
#     4  10  24  45  73 100 145 183 239 274 349 416
#
# _framework density 27.485797999999999
#
# number of rings (size 3 to 8) (size 9 to 14) (size 15 to 20)
#    0.000    1.143    4.286    0.857    0.000    6.286 
#    5.143    8.571    0.000    0.000    0.000    0.000 
#    0.000    0.000    0.000    0.000    0.000    0.000 
#
# Total GULP energy -78510.678493 kJ/mol
# GULP energy per Si atom -5607.905607 kJ/mol
# Density = 2.742324 g / cm^3
# Si number density = 27.485798 Si / 1000 Ang^3
#
#
#
# Elastic Constant Matrix: (Units=GPa)
#
#
# Indices 1 2 3 4 5 6 
#
# 1 201.1131 36.3406 71.5686 -14.7581 8.6761 -31.4800
# 2 36.3406 127.4023 42.3507 0.2987 10.3566 -12.6028
# 3 71.5686 42.3507 181.7176 -15.8301 5.1268 -17.2208
# 4 -14.7581 0.2987 -15.8301 49.5223 -9.9031 -1.5422
# 5 8.6761 10.3566 5.1268 -9.9031 54.1314 -10.0293
# 6 -31.4800 -12.6028 -17.2208 -1.5422 -10.0293 49.9929
#
#
#
# Elastic Compliance Matrix: (Units=1/GPa)
#
#
# Indices 1 2 3 4 5 6 
#
# 1 0.006413 -0.000900 -0.001887 0.001452 0.000190 0.003244
# 2 -0.000900 0.008866 -0.001698 -0.001132 -0.001458 0.000756
# 3 -0.001887 -0.001698 0.006868 0.001764 0.000466 0.000897
# 4 0.001452 -0.001132 0.001764 0.022162 0.004390 0.002801
# 5 0.000190 -0.001458 0.000466 0.004390 0.020242 0.004109
# 6 0.003244 0.000756 0.000897 0.002801 0.004109 0.023456
#
#
# Mechanical properties :
#
#
# Convention : Reuss Voigt Hill
#
# Bulk Modulus (GPa) = 75.89162 90.08365 82.98764
# Shear Modulus (GPa) = 49.32506 54.72753 52.02629
#
# Velocity S-wave (km/s) = 4.24083 4.46704 4.35540
# Velocity P-wave (km/s) = 7.18684 7.71049 7.45326
#
# Compressibility (1/GPa) = 0.01317669
#
# Stress axis : x y z
#
# Youngs Moduli (GPa) = 155.94099 112.78810 145.61098
#
# Poissons Ratio (x) = 0.10148 0.27482
# Poissons Ratio (y) = 0.14030 0.24722
# Poissons Ratio (z) = 0.29432 0.19149
#
# Static dielectric constant tensor:
#      x y z
#    x 2.171680 0.075030 0.025060 
#    y 0.075030 2.188670 0.024120 
#    z 0.025060 0.024120 2.169020 
# 
# From -- ./inp_files/411167.got.cif
#   From: 2010.05.17/outbox.cif.g08.bks.cpg/sg2_206_cif.got.tgz:411167.got - 2010.06.03 11:33:40.
