data_PCOD9044703
_publ_section_title
;
Structure prediction by ZEFSAII (Michael W. Deem and Ramdas Pophale) SiO2 
 PCOD9044703
Probable space group: P -1
;
_chemical_formula_sum "Si O2"
_cell_formula_units_Z 16
_cell_length_a 9.464973
_cell_length_b 21.838491
_cell_length_c 24.463689
_cell_angle_alpha 161.709379
_cell_angle_beta 144.237816
_cell_angle_gamma 29.086995
_cell_volume 765.925278
_symmetry_space_group_name_H-M "P -1"
_symmetry_group_IT_number 2
_symmetry_cell_setting 'triclinic'
loop_
_space_group_symop_operation_xyz
x,y,z
-x,-y,-z
loop_
_atom_site_type_symbol
_atom_site_label
_atom_site_fract_x
_atom_site_fract_y
_atom_site_fract_z
Si Si1 0.800694 0.202884 0.380001
Si Si2 0.293817 0.460971 0.223808
Si Si3 0.452632 0.497319 0.112149
Si Si4 0.359931 0.028682 0.263675
Si Si5 0.333782 0.778874 0.423946
Si Si6 0.179679 0.177673 0.863031
Si Si7 0.714761 0.318314 0.330209
Si Si8 0.234618 0.268742 0.634894
O O1 0.788432 0.169790 0.283477
O O2 0.481759 0.415274 0.481928
O O3 0.026153 0.274274 0.526511
O O4 0.885793 0.978978 0.252812
O O5 0.373790 0.630339 0.364821
O O6 0.509840 0.312345 0.215502
O O7 0.972168 0.629917 0.291339
O O8 0.289913 0.299818 0.039897
O O9 0.420315 0.602630 0.251566
O O10 0.638253 0.575765 0.205103
O O11 0.123750 0.627263 0.095904
O O12 0.599384 0.219208 0.922300
O O13 0.571173 0.975797 0.233819
O O14 0.477516 0.111773 0.419494
O O15 0.018394 0.230991 0.322396
O O16 0.000000 0.000000 0.500000
O O17 0.500000 0.000000 0.500000
#
# Coordination Sequence:
#
# PCOD9044703 Si02
#       8
#     2   2   2   2   2   2   2   2
#     4  10  23  47  71  98 135 183 230 288 338 405
#     4  11  26  44  66 102 138 184 229 287 338 405
#     4  12  25  44  68 110 139 172 228 289 347 416
#     4  12  25  45  71 103 139 186 225 279 344 415
#     4  12  23  44  74  99 142 178 221 285 356 401
#     4  12  24  44  69 101 141 175 230 288 347 405
#     4  10  25  47  66  99 134 186 237 272 341 403
#     4  11  22  44  71 102 136 177 231 284 353 408
#
# _framework density 20.889765000000001
#
# number of rings (size 3 to 8) (size 9 to 14) (size 15 to 20)
#    0.000    0.750    3.750    4.125    1.750    4.500 
#    6.750    0.000    0.000    0.000    0.000    0.000 
#    0.000    0.000    0.000    0.000    0.000    0.000 
#
# Total GULP energy -89471.278721 kJ/mol
# GULP energy per Si atom -5591.954920 kJ/mol
# Density = 2.084222 g / cm^3
# Si number density = 20.889765 Si / 1000 Ang^3
#
#
#
# Elastic Constant Matrix: (Units=GPa)
#
#
# Indices 1 2 3 4 5 6 
#
# 1 -730.7245 -103.0102 538.5939 183.3832 43.3171 109.1903
# 2 -103.0102 82.5288 119.2527 21.2930 -11.5859 8.1447
# 3 538.5939 119.2527 -255.4064 -158.1937 -32.2137 -69.4409
# 4 183.3832 21.2930 -158.1937 -23.4551 -17.5633 -31.1869
# 5 43.3171 -11.5859 -32.2137 -17.5633 31.7401 -5.0557
# 6 109.1903 8.1447 -69.4409 -31.1869 -5.0557 22.5070
#
#
#
# Elastic Compliance Matrix: (Units=1/GPa)
#
#
# Indices 1 2 3 4 5 6 
#
# 1 0.012469 -0.003894 0.009785 0.021888 0.003975 0.002328
# 2 -0.003894 0.013877 -0.004335 0.001127 0.007188 0.003671
# 3 0.009785 -0.004335 0.010040 0.008806 -0.000319 -0.002794
# 4 0.021888 0.001127 0.008806 0.057494 0.011751 0.002882
# 5 0.003975 0.007188 -0.000319 0.011751 0.035091 0.001297
# 6 0.002328 0.003671 -0.002794 0.002882 0.001297 0.027471
#
#
# Mechanical properties :
#
#
# Convention : Reuss Voigt Hill
#
# Bulk Modulus (GPa) = 25.31912 22.89674 24.10793
# Shear Modulus (GPa) = 30.03052 -91.07085 -30.52016
#
# Velocity S-wave (km/s) = 3.79564 -6.60988 -3.82646
# Velocity P-wave (km/s) = 5.59963 6.87528 2.82078
#
# Compressibility (1/GPa) = 0.03949584
#
# Stress axis : x y z
#
# Youngs Moduli (GPa) = 80.19908 72.06216 99.60329
#
# Poissons Ratio (x) = 0.28063 -0.97459
# Poissons Ratio (y) = 0.31232 0.43182
# Poissons Ratio (z) = -0.78473 0.31242
#
# Static dielectric constant tensor:
#      x y z
#    x 1.776310 0.011760 0.004580 
#    y 0.011760 1.743440 -0.010380 
#    z 0.004580 -0.010380 1.733130 
# 
# From -- ./inp_files/532691.got.cif
#   From: 2010.05.17/outbox.cif.g08.bks.cpg/sg2_267_cif.got.tgz:532691.got - 2010.06.03 11:33:40.
