data_PCOD9044793
_publ_section_title
;
Structure prediction by ZEFSAII (Michael W. Deem and Ramdas Pophale) SiO2 
 PCOD9044793
Probable space group: P -1
;
_chemical_formula_sum "Si O2"
_cell_formula_units_Z 12
_cell_length_a 7.203975
_cell_length_b 23.467917
_cell_length_c 4.935515
_cell_angle_alpha 67.474949
_cell_angle_beta 79.738713
_cell_angle_gamma 44.228966
_cell_volume 531.574931
_symmetry_space_group_name_H-M "P -1"
_symmetry_group_IT_number 2
_symmetry_cell_setting 'triclinic'
loop_
_space_group_symop_operation_xyz
x,y,z
-x,-y,-z
loop_
_atom_site_type_symbol
_atom_site_label
_atom_site_fract_x
_atom_site_fract_y
_atom_site_fract_z
Si Si1 0.741096 0.483132 0.601145
Si Si2 0.304243 0.311322 0.605161
Si Si3 0.654546 0.907147 0.755896
Si Si4 0.197551 0.752697 0.082994
Si Si5 0.384025 0.409641 0.042878
Si Si6 0.707267 0.819575 0.391046
O O1 0.500000 0.500000 0.500000
O O2 0.019881 0.381072 0.708498
O O3 0.347582 0.469817 0.171759
O O4 0.769591 0.534064 0.291504
O O5 0.294266 0.366728 0.278421
O O6 0.349786 0.235764 0.586383
O O7 0.553948 0.269838 0.809133
O O8 0.644132 0.852041 0.652996
O O9 0.973141 0.846665 0.823237
O O10 0.500000 0.000000 0.500000
O O11 0.560459 0.903447 0.077618
O O12 0.317488 0.674229 0.990711
O O13 0.020396 0.760147 0.344901
#
# Coordination Sequence:
#
# PCOD9044793 Si02
#       6
#     2   2   2   2   2   2
#     4  12  28  43  67  97 138 187 233 277 326 396
#     4  12  26  44  70 103 138 179 235 277 338 394
#     4  10  23  47  74 101 135 176 222 277 346 415
#     4  10  25  43  72  97 141 173 228 279 341 391
#     4  12  25  45  64  96 139 183 226 282 328 388
#     4  10  25  44  73 101 134 181 222 277 345 404
#
# _framework density 22.574428999999999
#
# number of rings (size 3 to 8) (size 9 to 14) (size 15 to 20)
#    1.000    0.000    1.667    4.000    7.000    0.000 
#    0.000    1.667    0.000    0.000    0.000    0.000 
#    0.000    0.000    0.000    0.000    0.000    0.000 
#
# Total GULP energy -67090.939393 kJ/mol
# GULP energy per Si atom -5590.911616 kJ/mol
# Density = 2.252305 g / cm^3
# Si number density = 22.574429 Si / 1000 Ang^3
#
#
#
# Elastic Constant Matrix: (Units=GPa)
#
#
# Indices 1 2 3 4 5 6 
#
# 1 122.7634 30.7584 29.2588 -12.5132 13.9901 8.1888
# 2 30.7584 71.9534 25.9178 -18.0246 14.4667 0.8125
# 3 29.2588 25.9178 74.0727 -6.0051 23.4389 -9.2453
# 4 -12.5132 -18.0246 -6.0051 44.9862 6.0699 11.0045
# 5 13.9901 14.4667 23.4389 6.0699 34.2254 -0.5546
# 6 8.1888 0.8125 -9.2453 11.0045 -0.5546 26.3572
#
#
#
# Elastic Compliance Matrix: (Units=1/GPa)
#
#
# Indices 1 2 3 4 5 6 
#
# 1 0.010345 -0.001994 -0.003255 0.003287 -0.001833 -0.005705
# 2 -0.001994 0.019828 -0.004025 0.009028 -0.006496 -0.005310
# 3 -0.003255 -0.004025 0.020661 -0.000312 -0.010928 0.008283
# 4 0.003287 0.009028 -0.000312 0.031832 -0.010834 -0.014927
# 5 -0.001833 -0.006496 -0.010928 -0.010834 0.042156 0.002347
# 6 -0.005705 -0.005310 0.008283 -0.014927 0.002347 0.049064
#
#
# Mechanical properties :
#
#
# Convention : Reuss Voigt Hill
#
# Bulk Modulus (GPa) = 30.97252 48.96217 39.96735
# Shear Modulus (GPa) = 24.60684 33.30407 28.95546
#
# Velocity S-wave (km/s) = 3.30514 3.84513 3.58532
# Velocity P-wave (km/s) = 5.32121 6.43814 5.90614
#
# Compressibility (1/GPa) = 0.03228668
#
# Stress axis : x y z
#
# Youngs Moduli (GPa) = 96.66077 50.43451 48.40111
#
# Poissons Ratio (x) = 0.10055 0.15752
# Poissons Ratio (y) = 0.19272 0.19483
# Poissons Ratio (z) = 0.31459 0.20301
#
# Static dielectric constant tensor:
#      x y z
#    x 1.857220 -0.031650 -0.020760 
#    y -0.031650 1.839340 -0.004010 
#    z -0.020760 -0.004010 1.880820 
# 
# From -- ./inp_files/13865.got.cif
#   From: 2010.05.17/outbox.cif.g08.bks.cpg/sg2_7_cif.got.tgz:13865.got - 2010.06.03 11:33:40.
