data_PCOD9044032
_publ_section_title
;
Structure prediction by ZEFSAII (Michael W. Deem and Ramdas Pophale) SiO2 
 PCOD9044032
Probable space group: P -1
;
_chemical_formula_sum "Si O2"
_cell_formula_units_Z 14
_cell_length_a 11.530824
_cell_length_b 5.515620
_cell_length_c 12.381314
_cell_angle_alpha 71.221322
_cell_angle_beta 62.613810
_cell_angle_gamma 109.950512
_cell_volume 538.300879
_symmetry_space_group_name_H-M "P -1"
_symmetry_group_IT_number 2
_symmetry_cell_setting 'triclinic'
loop_
_space_group_symop_operation_xyz
x,y,z
-x,-y,-z
loop_
_atom_site_type_symbol
_atom_site_label
_atom_site_fract_x
_atom_site_fract_y
_atom_site_fract_z
Si Si1 0.109081 0.537026 0.847233
Si Si2 0.882009 0.123921 0.614716
Si Si3 0.471629 0.130710 0.661659
Si Si4 0.705217 0.583022 0.344550
Si Si5 0.599981 0.087581 0.055442
Si Si6 0.325349 0.274671 0.051752
Si Si7 0.114225 0.935717 0.608540
O O1 0.148402 0.299982 0.817485
O O2 0.294992 0.819892 0.754790
O O3 0.059856 0.627737 0.744511
O O4 0.000000 0.500000 0.000000
O O5 0.000000 0.500000 0.500000
O O6 0.973157 0.961936 0.626141
O O7 0.771985 0.008925 0.782125
O O8 0.798090 0.013727 0.549900
O O9 0.603726 0.243807 0.496470
O O10 0.428854 0.383864 0.652207
O O11 0.513452 0.069266 0.769274
O O12 0.783318 0.798881 0.385538
O O13 0.712729 0.464285 0.975439
O O14 0.500000 0.000000 0.000000
O O15 0.680262 0.899169 0.029716
O O16 0.500000 0.500000 0.000000
#
# Coordination Sequence:
#
# PCOD9044032 Si02
#       7
#     2   2   2   2   2   2   2
#     4  11  25  43  68 100 142 184 239 299 368 439
#     4  11  25  43  72 101 144 189 238 303 366 451
#     4  10  24  42  71 100 140 188 248 295 372 431
#     4  10  23  46  69 100 138 190 243 306 355 447
#     4  10  24  42  66 108 142 189 231 307 368 439
#     4  10  25  43  69 104 147 186 240 296 373 438
#     4  10  25  42  69 100 134 186 237 289 372 434
#
# _framework density 26.007762
#
# number of rings (size 3 to 8) (size 9 to 14) (size 15 to 20)
#    0.000    1.714    0.000    1.286   12.000    6.857 
#    0.000    0.000    0.000    0.000    0.000    0.000 
#    0.000    0.000    0.000    0.000    0.000    0.000 
#
# Total GULP energy -78094.008543 kJ/mol
# GULP energy per Si atom -5578.143467 kJ/mol
# Density = 2.594857 g / cm^3
# Si number density = 26.007762 Si / 1000 Ang^3
#
#
#
# Elastic Constant Matrix: (Units=GPa)
#
#
# Indices 1 2 3 4 5 6 
#
# 1 84.7558 -6.0328 20.3748 11.0374 24.7168 -17.1896
# 2 -6.0328 118.1245 29.8347 15.4635 0.8485 -9.8894
# 3 20.3748 29.8347 192.0037 25.0204 9.2811 -3.9119
# 4 11.0374 15.4635 25.0204 41.7598 -4.4440 0.2044
# 5 24.7168 0.8485 9.2811 -4.4440 48.5973 -0.6702
# 6 -17.1896 -9.8894 -3.9119 0.2044 -0.6702 27.4375
#
#
#
# Elastic Compliance Matrix: (Units=1/GPa)
#
#
# Indices 1 2 3 4 5 6 
#
# 1 0.018421 0.003127 -0.000860 -0.006603 -0.009693 0.012357
# 2 0.003127 0.009904 -0.001148 -0.004028 -0.001838 0.005350
# 3 -0.000860 -0.001148 0.005911 -0.002989 -0.000946 -0.000111
# 4 -0.006603 -0.004028 -0.002989 0.029710 0.006633 -0.006074
# 5 -0.009693 -0.001838 -0.000946 0.006633 0.026240 -0.006278
# 6 0.012357 0.005350 -0.000111 -0.006074 -0.006278 0.045993
#
#
# Mechanical properties :
#
#
# Convention : Reuss Voigt Hill
#
# Bulk Modulus (GPa) = 27.41787 53.69308 40.55548
# Shear Modulus (GPa) = 34.22381 46.93942 40.58162
#
# Velocity S-wave (km/s) = 3.63148 4.25293 3.95443
# Velocity P-wave (km/s) = 5.30553 6.69376 6.03966
#
# Compressibility (1/GPa) = 0.03647256
#
# Stress axis : x y z
#
# Youngs Moduli (GPa) = 54.28729 100.97344 169.17924
#
# Poissons Ratio (x) = -0.31569 0.14546
# Poissons Ratio (y) = -0.16973 0.19421
# Poissons Ratio (z) = 0.04668 0.11591
#
# Static dielectric constant tensor:
#      x y z
#    x 3.176500 -0.867360 -0.621580 
#    y -0.867360 2.784610 0.388140 
#    z -0.621580 0.388140 2.364710 
# 
# From -- ./inp_files/409990.got.cif
#   From: 2010.05.17/outbox.cif.g08.bks.cpg/sg2_205_cif.got.tgz:409990.got - 2010.06.03 11:33:40.
