data_PCOD9044494
_publ_section_title
;
Structure prediction by ZEFSAII (Michael W. Deem and Ramdas Pophale) SiO2 
 PCOD9044494
Probable space group: P -1
;
_chemical_formula_sum "Si O2"
_cell_formula_units_Z 12
_cell_length_a 11.541124
_cell_length_b 10.691685
_cell_length_c 10.033730
_cell_angle_alpha 42.460608
_cell_angle_beta 36.920279
_cell_angle_gamma 66.551001
_cell_volume 442.326196
_symmetry_space_group_name_H-M "P -1"
_symmetry_group_IT_number 2
_symmetry_cell_setting 'triclinic'
loop_
_space_group_symop_operation_xyz
x,y,z
-x,-y,-z
loop_
_atom_site_type_symbol
_atom_site_label
_atom_site_fract_x
_atom_site_fract_y
_atom_site_fract_z
Si Si1 0.805814 0.248284 0.800248
Si Si2 0.215418 0.871325 0.795276
Si Si3 0.028106 0.167591 0.448869
Si Si4 0.271309 0.476446 0.557097
Si Si5 0.273027 0.298574 0.356015
Si Si6 0.677368 0.390385 0.291487
O O1 0.718263 0.374103 0.691728
O O2 0.929306 0.648522 0.494847
O O3 0.717136 0.189464 0.076871
O O4 0.817593 0.090515 0.800099
O O5 0.291675 0.586398 0.595973
O O6 0.332199 0.811410 0.615204
O O7 0.244841 0.101249 0.620655
O O8 0.961964 0.727932 0.095898
O O9 0.230645 0.194966 0.330953
O O10 0.113760 0.400832 0.126392
O O11 0.000000 0.000000 0.500000
O O12 0.465037 0.414656 0.429766
O O13 0.500000 0.500000 0.000000
#
# Coordination Sequence:
#
# PCOD9044494 Si02
#       6
#     2   2   2   2   2   2
#     4  10  25  45  80 117 164 206 262 332 406 469
#     4  12  23  48  85 115 161 213 261 338 404 475
#     4  10  23  46  77 113 157 215 261 324 403 468
#     4  11  25  47  78 121 164 206 274 328 400 486
#     4  10  25  47  81 118 164 207 270 331 401 482
#     4  11  26  46  81 118 160 216 270 329 396 487
#
# _framework density 27.129297999999999
#
# number of rings (size 3 to 8) (size 9 to 14) (size 15 to 20)
#    1.000    0.333    1.667    2.500    4.667    0.667 
#    0.000    5.833   14.667    0.000    0.000    0.000 
#    0.000    0.000    0.000    0.000    0.000    0.000 
#
# Total GULP energy -67111.717075 kJ/mol
# GULP energy per Si atom -5592.643090 kJ/mol
# Density = 2.706755 g / cm^3
# Si number density = 27.129298 Si / 1000 Ang^3
#
#
#
# Elastic Constant Matrix: (Units=GPa)
#
#
# Indices 1 2 3 4 5 6 
#
# 1 194.4038 84.4179 35.2589 12.4942 4.5811 1.8277
# 2 84.4179 185.2299 57.0655 15.9111 -7.6749 17.8060
# 3 35.2589 57.0655 57.8132 4.7478 -13.1900 -9.9453
# 4 12.4942 15.9111 4.7478 47.8657 -7.0074 -4.0081
# 5 4.5811 -7.6749 -13.1900 -7.0074 46.1647 1.5850
# 6 1.8277 17.8060 -9.9453 -4.0081 1.5850 75.2025
#
#
#
# Elastic Compliance Matrix: (Units=1/GPa)
#
#
# Indices 1 2 3 4 5 6 
#
# 1 0.006660 -0.002434 -0.001960 -0.000984 -0.001780 0.000140
# 2 -0.002434 0.009658 -0.008660 -0.002128 -0.000831 -0.003469
# 3 -0.001960 -0.008660 0.029567 0.002026 0.007305 0.005962
# 4 -0.000984 -0.002128 0.002026 0.022349 0.003650 0.001910
# 5 -0.001780 -0.000831 0.007305 0.003650 0.024311 0.000888
# 6 0.000140 -0.003469 0.005962 0.001910 0.000888 0.014987
#
#
# Mechanical properties :
#
#
# Convention : Reuss Voigt Hill
#
# Bulk Modulus (GPa) = 50.56718 87.88128 69.22423
# Shear Modulus (GPa) = 35.65507 51.22689 43.44098
#
# Velocity S-wave (km/s) = 3.62921 4.35011 4.00591
# Velocity P-wave (km/s) = 6.02008 7.59573 6.85334
#
# Compressibility (1/GPa) = 0.01977567
#
# Stress axis : x y z
#
# Youngs Moduli (GPa) = 150.14172 103.54302 33.82204
#
# Poissons Ratio (x) = 0.25205 0.06631
# Poissons Ratio (y) = 0.36548 0.29289
# Poissons Ratio (z) = 0.29434 0.89667
#
# Static dielectric constant tensor:
#      x y z
#    x 2.115620 0.020300 0.082030 
#    y 0.020300 2.237660 0.036670 
#    z 0.082030 0.036670 2.284500 
# 
# From -- ./inp_files/165853.got.cif
#   From: 2010.05.17/outbox.cif.g08.bks.cpg/sg2_83_cif.got.tgz:165853.got - 2010.06.03 11:33:40.
