data_PCOD9044324
_publ_section_title
;
Structure prediction by ZEFSAII (Michael W. Deem and Ramdas Pophale) SiO2 
 PCOD9044324
Probable space group: P -1
;
_chemical_formula_sum "Si O2"
_cell_formula_units_Z 15
_cell_length_a 5.575290
_cell_length_b 8.883183
_cell_length_c 11.589174
_cell_angle_alpha 87.921922
_cell_angle_beta 97.739757
_cell_angle_gamma 76.966475
_cell_volume 552.767061
_symmetry_space_group_name_H-M "P -1"
_symmetry_group_IT_number 2
_symmetry_cell_setting 'triclinic'
loop_
_space_group_symop_operation_xyz
x,y,z
-x,-y,-z
loop_
_atom_site_type_symbol
_atom_site_label
_atom_site_fract_x
_atom_site_fract_y
_atom_site_fract_z
Si Si1 0.059510 0.985619 0.742939
Si Si2 0.891000 0.716487 0.397024
Si Si3 0.149656 0.333550 0.060690
Si Si4 0.213994 0.699825 0.611851
Si Si5 0.000000 0.000000 0.000000
Si Si6 0.594315 0.119585 0.582826
Si Si7 0.653927 0.248602 0.948285
Si Si8 0.702776 0.486008 0.740409
O O1 0.173230 0.811068 0.715892
O O2 0.136653 0.106869 0.656735
O O3 0.114514 0.023589 0.874064
O O4 0.769414 0.019702 0.690623
O O5 0.595976 0.734755 0.378084
O O6 0.969297 0.665896 0.536222
O O7 0.073248 0.611186 0.320317
O O8 0.204598 0.372928 0.194098
O O9 0.411900 0.294842 0.010693
O O10 0.000000 0.500000 0.000000
O O11 0.947460 0.226809 0.025559
O O12 0.264311 0.798724 0.502958
O O13 0.450623 0.565150 0.656919
O O14 0.711342 0.070561 0.926448
O O15 0.500000 0.000000 0.500000
O O16 0.648505 0.373185 0.843895
#
# Coordination Sequence:
#
# PCOD9044324 Si02
#       8
#     2   2   2   2   1   2   2   2
#     4  11  23  43  69  99 142 182 240 299 360 440
#     4  11  22  45  67  99 141 179 240 303 354 430
#     4  10  23  46  72  99 148 200 239 291 379 443
#     4  11  23  42  68 101 136 188 238 293 365 444
#     4  12  26  46  74 112 140 196 252 304 374 442
#     4  11  21  42  72  97 134 191 238 293 369 426
#     4  11  25  49  71 106 150 199 243 305 369 451
#     4  11  23  43  68 104 142 186 238 303 363 432
#
# _framework density 27.136205
#
# number of rings (size 3 to 8) (size 9 to 14) (size 15 to 20)
#    0.000    1.067    4.000    3.600    0.000    4.267 
#   14.400    0.000    0.000    0.000    0.000    0.000 
#    0.000    0.000    0.000    0.000    0.000    0.000 
#
# Total GULP energy -83647.617050 kJ/mol
# GULP energy per Si atom -5576.507803 kJ/mol
# Density = 2.707444 g / cm^3
# Si number density = 27.136205 Si / 1000 Ang^3
#
#
#
# Elastic Constant Matrix: (Units=GPa)
#
#
# Indices 1 2 3 4 5 6 
#
# 1 66.0043 46.8957 21.4138 11.1692 -6.2106 -13.1765
# 2 46.8957 131.7286 38.6478 11.7501 -13.0353 -30.0399
# 3 21.4138 38.6478 127.8550 15.3691 -5.5201 7.8172
# 4 11.1692 11.7501 15.3691 59.2906 -4.6641 -12.5976
# 5 -6.2106 -13.0353 -5.5201 -4.6641 31.3032 12.4346
# 6 -13.1765 -30.0399 7.8172 -12.5976 12.4346 53.1382
#
#
#
# Elastic Compliance Matrix: (Units=1/GPa)
#
#
# Indices 1 2 3 4 5 6 
#
# 1 0.020837 -0.006568 -0.001307 -0.002024 0.000445 0.001062
# 2 -0.006568 0.012107 -0.002959 0.000883 0.001125 0.005597
# 3 -0.001307 -0.002959 0.009562 -0.002447 0.001557 -0.004348
# 4 -0.002024 0.000883 -0.002447 0.018740 0.000463 0.004692
# 5 0.000445 0.001125 0.001557 0.000463 0.035937 -0.007783
# 6 0.001062 0.005597 -0.004348 0.004692 -0.007783 0.025819
#
#
# Mechanical properties :
#
#
# Convention : Reuss Voigt Hill
#
# Bulk Modulus (GPa) = 47.98971 59.94473 53.96722
# Shear Modulus (GPa) = 32.97770 43.32177 38.14974
#
# Velocity S-wave (km/s) = 3.48985 3.99990 3.75355
# Velocity P-wave (km/s) = 5.82768 6.59322 6.22224
#
# Compressibility (1/GPa) = 0.02083780
#
# Stress axis : x y z
#
# Youngs Moduli (GPa) = 47.99043 82.59906 104.57960
#
# Poissons Ratio (x) = 0.54250 0.13669
# Poissons Ratio (y) = 0.31519 0.30948
# Poissons Ratio (z) = 0.06273 0.24444
#
# Static dielectric constant tensor:
#      x y z
#    x 11.318850 4.635280 5.338650 
#    y 4.635280 5.138070 2.790240 
#    z 5.338650 2.790240 5.202810 
# 
# From -- ./inp_files/362922.got.cif
#   From: 2010.05.17/outbox.cif.g08.bks.cpg/sg2_182_cif.got.tgz:362922.got - 2010.06.03 11:33:40.
