data_PCOD9044551
_publ_section_title
;
Structure prediction by ZEFSAII (Michael W. Deem and Ramdas Pophale) SiO2 
 PCOD9044551
Probable space group: P -1
;
_chemical_formula_sum "Si O2"
_cell_formula_units_Z 16
_cell_length_a 15.325628
_cell_length_b 11.267186
_cell_length_c 9.067629
_cell_angle_alpha 83.348761
_cell_angle_beta 152.532424
_cell_angle_gamma 88.029503
_cell_volume 684.445228
_symmetry_space_group_name_H-M "P -1"
_symmetry_group_IT_number 2
_symmetry_cell_setting 'triclinic'
loop_
_space_group_symop_operation_xyz
x,y,z
-x,-y,-z
loop_
_atom_site_type_symbol
_atom_site_label
_atom_site_fract_x
_atom_site_fract_y
_atom_site_fract_z
Si Si1 0.224410 0.812930 0.737790
Si Si2 0.274220 0.579865 0.651814
Si Si3 0.784652 0.275953 0.767281
Si Si4 0.844508 0.944422 0.592467
Si Si5 0.943382 0.482762 0.089186
Si Si6 0.816578 0.847020 0.257648
Si Si7 0.657467 0.711350 0.806562
Si Si8 0.525883 0.909153 0.338589
O O1 0.238495 0.678028 0.715638
O O2 0.041005 0.847410 0.569787
O O3 0.171788 0.920171 0.517660
O O4 0.429873 0.817296 0.116079
O O5 0.220612 0.664071 0.411254
O O6 0.138684 0.488215 0.466632
O O7 0.500000 0.500000 0.000000
O O8 0.561507 0.288565 0.476272
O O9 0.872961 0.360117 0.997253
O O10 0.935611 0.136535 0.019116
O O11 0.777134 0.868083 0.369068
O O12 0.688091 0.951620 0.485165
O O13 0.772811 0.594608 0.894215
O O14 0.000000 0.500000 0.000000
O O15 0.774699 0.732766 0.124668
O O16 0.663820 0.971235 0.939986
O O17 0.628104 0.832640 0.642854
#
# Coordination Sequence:
#
# PCOD9044551 Si02
#       8
#     2   2   2   2   2   2   2   2
#     4  11  23  43  71 102 142 183 228 280 356 404
#     4  11  26  45  72 105 137 180 230 292 338 415
#     4  11  26  44  72 100 140 183 230 285 347 407
#     4  11  25  45  71 103 143 182 229 281 351 420
#     4  10  23  47  66  97 134 181 228 275 343 403
#     4  11  23  43  66 104 140 179 233 282 341 408
#     4  12  24  44  70 103 140 181 235 285 343 406
#     4  11  24  41  71 100 145 186 221 289 346 418
#
# _framework density 23.376598000000001
#
# number of rings (size 3 to 8) (size 9 to 14) (size 15 to 20)
#    0.000    1.000    1.250    6.750    8.750    0.500 
#    2.250    1.250    0.000    0.000    0.000    0.000 
#    0.000    0.000    0.000    0.000    0.000    0.000 
#
# Total GULP energy -89563.836919 kJ/mol
# GULP energy per Si atom -5597.739807 kJ/mol
# Density = 2.332339 g / cm^3
# Si number density = 23.376598 Si / 1000 Ang^3
#
#
#
# Elastic Constant Matrix: (Units=GPa)
#
#
# Indices 1 2 3 4 5 6 
#
# 1 48.2671 0.7448 -0.2263 9.9027 13.3955 12.6525
# 2 0.7448 59.2342 16.7313 21.4939 -3.9405 -16.3608
# 3 -0.2263 16.7313 88.6423 5.0619 17.4215 4.1694
# 4 9.9027 21.4939 5.0619 37.8143 7.7423 4.4925
# 5 13.3955 -3.9405 17.4215 7.7423 43.8921 -1.6623
# 6 12.6525 -16.3608 4.1694 4.4925 -1.6623 31.8356
#
#
#
# Elastic Compliance Matrix: (Units=1/GPa)
#
#
# Indices 1 2 3 4 5 6 
#
# 1 0.028195 -0.006816 0.004374 0.000167 -0.011585 -0.015910
# 2 -0.006816 0.036921 -0.009743 -0.024096 0.014539 0.027119
# 3 0.004374 -0.009743 0.015171 0.005513 -0.009583 -0.010011
# 4 0.000167 -0.024096 0.005513 0.044411 -0.012998 -0.020117
# 5 -0.011585 0.014539 -0.009583 -0.012998 0.034363 0.016960
# 6 -0.015910 0.027119 -0.010011 -0.020117 0.016960 0.056707
#
#
# Mechanical properties :
#
#
# Convention : Reuss Voigt Hill
#
# Bulk Modulus (GPa) = 17.88357 25.62700 21.75529
# Shear Modulus (GPa) = 19.32175 34.63465 26.97820
#
# Velocity S-wave (km/s) = 2.87808 3.85332 3.40084
# Velocity P-wave (km/s) = 4.32566 5.54833 4.97470
#
# Compressibility (1/GPa) = 0.05591725
#
# Stress axis : x y z
#
# Youngs Moduli (GPa) = 35.46721 27.08494 65.91542
#
# Poissons Ratio (x) = 0.18460 -0.28832
# Poissons Ratio (y) = 0.24173 0.64224
# Poissons Ratio (z) = -0.15514 0.26390
#
# Static dielectric constant tensor:
#      x y z
#    x 1.877980 -0.030400 -0.048140 
#    y -0.030400 1.892850 0.026780 
#    z -0.048140 0.026780 1.870570 
# 
# From -- ./inp_files/271392.got.cif
#   From: 2010.05.17/outbox.cif.g08.bks.cpg/sg2_136_cif.got.tgz:271392.got - 2010.06.03 11:33:40.
