data_PCOD9044554
_publ_section_title
;
Structure prediction by ZEFSAII (Michael W. Deem and Ramdas Pophale) SiO2 
 PCOD9044554
Probable space group: P -1
;
_chemical_formula_sum "Si O2"
_cell_formula_units_Z 12
_cell_length_a 9.621567
_cell_length_b 10.367533
_cell_length_c 7.014467
_cell_angle_alpha 76.838300
_cell_angle_beta 56.932993
_cell_angle_gamma 65.360366
_cell_volume 532.986294
_symmetry_space_group_name_H-M "P -1"
_symmetry_group_IT_number 2
_symmetry_cell_setting 'triclinic'
loop_
_space_group_symop_operation_xyz
x,y,z
-x,-y,-z
loop_
_atom_site_type_symbol
_atom_site_label
_atom_site_fract_x
_atom_site_fract_y
_atom_site_fract_z
Si Si1 0.411452 0.720678 0.444474
Si Si2 0.016736 0.379566 0.872440
Si Si3 0.778623 0.973949 0.538358
Si Si4 0.343604 0.265010 0.409292
Si Si5 0.976467 0.165146 0.245158
Si Si6 0.366334 0.449907 0.998272
O O1 0.492749 0.731660 0.585885
O O2 0.215764 0.712194 0.605983
O O3 0.364084 0.876938 0.332504
O O4 0.549916 0.602423 0.252940
O O5 0.060517 0.229460 0.996749
O O6 0.823665 0.426342 0.908341
O O7 0.000000 0.500000 0.000000
O O8 0.167161 0.367919 0.611606
O O9 0.681285 0.885341 0.531597
O O10 0.896760 0.880713 0.651693
O O11 0.911693 0.032392 0.298679
O O12 0.350200 0.319589 0.173697
O O13 0.500000 0.500000 0.000000
#
# Coordination Sequence:
#
# PCOD9044554 Si02
#       6
#     2   2   2   2   2   2
#     4  10  23  47  66  98 135 169 218 283 323 389
#     4  12  25  43  67  97 138 176 218 273 329 394
#     4   9  22  44  70 100 129 173 227 271 331 393
#     4  12  25  43  69 101 131 177 223 271 333 393
#     4   9  22  44  69  95 132 177 215 276 330 382
#     4  12  28  43  69 100 133 180 219 272 331 398
#
# _framework density 22.514648000000001
#
# number of rings (size 3 to 8) (size 9 to 14) (size 15 to 20)
#    1.000    0.333    1.667    3.000    4.667    2.667 
#    3.000    0.000    0.000    0.000    0.000    0.000 
#    0.000    0.000    0.000    0.000    0.000    0.000 
#
# Total GULP energy -67025.273521 kJ/mol
# GULP energy per Si atom -5585.439460 kJ/mol
# Density = 2.246340 g / cm^3
# Si number density = 22.514648 Si / 1000 Ang^3
#
#
#
# Elastic Constant Matrix: (Units=GPa)
#
#
# Indices 1 2 3 4 5 6 
#
# 1 72.9870 16.9364 -12.9966 -7.1711 4.2133 -19.4213
# 2 16.9364 56.9613 0.9781 -13.4312 4.2842 5.0101
# 3 -12.9966 0.9781 49.0039 -12.2879 -0.8621 -4.5699
# 4 -7.1711 -13.4312 -12.2879 36.0205 -6.3275 -1.9397
# 5 4.2133 4.2842 -0.8621 -6.3275 20.9544 3.5806
# 6 -19.4213 5.0101 -4.5699 -1.9397 3.5806 48.7657
#
#
#
# Elastic Compliance Matrix: (Units=1/GPa)
#
#
# Indices 1 2 3 4 5 6 
#
# 1 0.019277 -0.005462 0.007100 0.004235 -0.002773 0.009276
# 2 -0.005462 0.021062 -0.000714 0.006184 -0.000667 -0.004111
# 3 0.007100 -0.000714 0.025488 0.010490 0.001984 0.005561
# 4 0.004235 0.006184 0.010490 0.036180 0.008757 0.002831
# 5 -0.002773 -0.000667 0.001984 0.008757 0.051879 -0.004311
# 6 0.009276 -0.004111 0.005561 0.002831 -0.004311 0.025573
#
#
# Mechanical properties :
#
#
# Convention : Reuss Voigt Hill
#
# Bulk Modulus (GPa) = 14.77636 20.97644 17.87640
# Shear Modulus (GPa) = 24.97874 32.75043 28.86459
#
# Velocity S-wave (km/s) = 3.33445 3.81810 3.58444
# Velocity P-wave (km/s) = 4.62622 5.36416 5.00880
#
# Compressibility (1/GPa) = 0.06767568
#
# Stress axis : x y z
#
# Youngs Moduli (GPa) = 51.87435 47.47863 39.23443
#
# Poissons Ratio (x) = 0.25934 -0.27856
# Poissons Ratio (y) = 0.28335 0.02799
# Poissons Ratio (z) = -0.36831 0.03388
#
# Static dielectric constant tensor:
#      x y z
#    x 1.842580 -0.014810 -0.007590 
#    y -0.014810 1.869490 -0.015060 
#    z -0.007590 -0.015060 1.834630 
# 
# From -- ./inp_files/27408.got.cif
#   From: 2010.05.17/outbox.cif.g08.bks.cpg/sg2_14_cif.got.tgz:27408.got - 2010.06.03 11:33:40.
