data_PCOD9044571
_publ_section_title
;
Structure prediction by ZEFSAII (Michael W. Deem and Ramdas Pophale) SiO2 
 PCOD9044571
Probable space group: P -1
;
_chemical_formula_sum "Si O2"
_cell_formula_units_Z 14
_cell_length_a 15.771962
_cell_length_b 6.372231
_cell_length_c 8.023770
_cell_angle_alpha 58.379913
_cell_angle_beta 49.372061
_cell_angle_gamma 76.202571
_cell_volume 514.520336
_symmetry_space_group_name_H-M "P -1"
_symmetry_group_IT_number 2
_symmetry_cell_setting 'triclinic'
loop_
_space_group_symop_operation_xyz
x,y,z
-x,-y,-z
loop_
_atom_site_type_symbol
_atom_site_label
_atom_site_fract_x
_atom_site_fract_y
_atom_site_fract_z
Si Si1 0.410317 0.779615 0.625892
Si Si2 0.878135 0.591515 0.590258
Si Si3 0.094132 0.351657 0.100185
Si Si4 0.456988 0.593003 0.280063
Si Si5 0.305147 0.824984 0.178942
Si Si6 0.726983 0.875436 0.216186
Si Si7 0.870544 0.130627 0.344566
O O1 0.440673 0.722285 0.423351
O O2 0.430388 0.532759 0.804846
O O3 0.500000 0.000000 0.500000
O O4 0.293220 0.887375 0.747269
O O5 0.847340 0.648890 0.796260
O O6 0.783824 0.391927 0.705873
O O7 0.000000 0.500000 0.500000
O O8 0.884991 0.856954 0.377784
O O9 0.966384 0.211681 0.329621
O O10 0.153776 0.203128 0.946236
O O11 0.101627 0.636042 0.912130
O O12 0.427535 0.755457 0.095822
O O13 0.352430 0.362934 0.509469
O O14 0.247938 0.877847 0.405276
O O15 0.314796 0.049453 0.943589
#
# Coordination Sequence:
#
# PCOD9044571 Si02
#       7
#     2   2   2   2   2   2   2
#     4   9  22  46  73  94 130 172 212 277 340 394
#     4  12  25  42  66  95 138 183 220 273 325 380
#     4  11  23  44  64  93 139 176 226 272 324 386
#     4  10  23  47  67  98 135 166 218 278 332 397
#     4  12  25  40  67 103 131 177 222 266 331 390
#     4  11  23  41  69  99 131 174 217 271 333 390
#     4  11  24  44  62  93 137 180 223 277 319 385
#
# _framework density 27.209807000000001
#
# number of rings (size 3 to 8) (size 9 to 14) (size 15 to 20)
#    0.000    1.143    4.286    1.286    2.000    4.571 
#    0.000    6.429    0.000    0.000    0.000    0.000 
#    0.000    0.000    0.000    0.000    0.000    0.000 
#
# Total GULP energy -78440.275470 kJ/mol
# GULP energy per Si atom -5602.876819 kJ/mol
# Density = 2.714788 g / cm^3
# Si number density = 27.209807 Si / 1000 Ang^3
#
#
#
# Elastic Constant Matrix: (Units=GPa)
#
#
# Indices 1 2 3 4 5 6 
#
# 1 110.8872 47.1318 -0.2684 -5.1851 0.8579 -2.6433
# 2 47.1318 149.3257 20.0698 23.3362 -4.2210 -30.0783
# 3 -0.2684 20.0698 57.3904 -1.6324 6.4076 -12.8045
# 4 -5.1851 23.3362 -1.6324 41.5114 -6.5956 13.0875
# 5 0.8579 -4.2210 6.4076 -6.5956 45.8348 -5.6718
# 6 -2.6433 -30.0783 -12.8045 13.0875 -5.6718 44.3471
#
#
#
# Elastic Compliance Matrix: (Units=1/GPa)
#
#
# Indices 1 2 3 4 5 6 
#
# 1 0.011663 -0.005793 0.001262 0.006167 -0.000631 -0.004770
# 2 -0.005793 0.012964 -0.002528 -0.011442 0.001404 0.011274
# 3 0.001262 -0.002528 0.019364 0.000890 -0.002417 0.003380
# 4 0.006167 -0.011442 0.000890 0.037264 0.001854 -0.017896
# 5 -0.000631 0.001404 -0.002417 0.001854 0.022885 0.002597
# 6 -0.004770 0.011274 0.003380 -0.017896 0.002597 0.036501
#
#
# Mechanical properties :
#
#
# Convention : Reuss Voigt Hill
#
# Bulk Modulus (GPa) = 33.47521 50.16332 41.81926
# Shear Modulus (GPa) = 30.35537 43.04999 36.70268
#
# Velocity S-wave (km/s) = 3.34369 3.98194 3.67669
# Velocity P-wave (km/s) = 5.21885 6.29420 5.78158
#
# Compressibility (1/GPa) = 0.02987285
#
# Stress axis : x y z
#
# Youngs Moduli (GPa) = 85.73975 77.13834 51.64324
#
# Poissons Ratio (x) = 0.44689 -0.06518
# Poissons Ratio (y) = 0.49672 0.13053
# Poissons Ratio (z) = -0.10821 0.19497
#
# Static dielectric constant tensor:
#      x y z
#    x 2.131960 -0.041100 0.013640 
#    y -0.041100 2.163980 0.041650 
#    z 0.013640 0.041650 2.070810 
# 
# From -- ./inp_files/48531.got.cif
#   From: 2010.05.17/outbox.cif.g08.bks.cpg/sg2_25_cif.got.tgz:48531.got - 2010.06.03 11:33:40.
