data_PCOD9044955
_publ_section_title
;
Structure prediction by ZEFSAII (Michael W. Deem and Ramdas Pophale) SiO2 
 PCOD9044955
Probable space group: P -1
;
_chemical_formula_sum "Si O2"
_cell_formula_units_Z 14
_cell_length_a 11.888549
_cell_length_b 23.484797
_cell_length_c 7.993579
_cell_angle_alpha 41.842025
_cell_angle_beta 37.161598
_cell_angle_gamma 26.763692
_cell_volume 602.490250
_symmetry_space_group_name_H-M "P -1"
_symmetry_group_IT_number 2
_symmetry_cell_setting 'triclinic'
loop_
_space_group_symop_operation_xyz
x,y,z
-x,-y,-z
loop_
_atom_site_type_symbol
_atom_site_label
_atom_site_fract_x
_atom_site_fract_y
_atom_site_fract_z
Si Si1 0.816605 0.234342 0.610720
Si Si2 0.059246 0.998346 0.629879
Si Si3 0.243203 0.521775 0.284882
Si Si4 0.223948 0.073995 0.767866
Si Si5 0.702437 0.808322 0.316164
Si Si6 0.987863 0.668405 0.963702
Si Si7 0.741639 0.622240 0.138668
O O1 0.520270 0.293122 0.854850
O O2 0.971357 0.119666 0.545481
O O3 0.976606 0.191245 0.687301
O O4 0.790905 0.337675 0.341083
O O5 0.389007 0.879061 0.543280
O O6 0.000000 0.000000 0.500000
O O7 0.862878 0.994492 0.957276
O O8 0.318059 0.415940 0.541867
O O9 0.965775 0.660956 0.387929
O O10 0.500000 0.500000 0.000000
O O11 0.134457 0.545029 0.171812
O O12 0.259528 0.114159 0.808645
O O13 0.500000 0.000000 0.500000
O O14 0.774331 0.788011 0.078938
O O15 0.817338 0.688757 0.970305
O O16 0.000000 0.500000 0.000000
#
# Coordination Sequence:
#
# PCOD9044955 Si02
#       7
#     2   2   2   2   2   2   2
#     4  12  27  44  71 105 143 179 233 286 356 404
#     4  12  27  46  75 103 138 185 238 283 349 416
#     4  10  23  48  70 100 144 182 233 278 348 412
#     4  12  28  45  71 103 148 180 227 295 349 411
#     4  10  25  45  74  99 138 186 233 277 347 412
#     4  10  25  45  74  99 143 181 233 283 342 416
#     4  12  27  44  73 106 141 180 233 292 345 413
#
# _framework density 23.236892000000001
#
# number of rings (size 3 to 8) (size 9 to 14) (size 15 to 20)
#    0.857    0.000    2.857    2.571    8.000    4.000 
#    0.000    0.000    0.000    0.000    0.000    0.000 
#    0.000    0.000    0.000    0.000    0.000    0.000 
#
# Total GULP energy -78167.172386 kJ/mol
# GULP energy per Si atom -5583.369456 kJ/mol
# Density = 2.318400 g / cm^3
# Si number density = 23.236892 Si / 1000 Ang^3
#
#
#
# Elastic Constant Matrix: (Units=GPa)
#
#
# Indices 1 2 3 4 5 6 
#
# 1 133.9562 29.6486 44.9562 19.1004 -38.1997 -0.8935
# 2 29.6486 54.7563 3.4335 22.8245 -15.2078 -12.1493
# 3 44.9562 3.4335 81.0324 1.1002 -21.1864 -7.9027
# 4 19.1004 22.8245 1.1002 43.9361 -10.4167 -7.8789
# 5 -38.1997 -15.2078 -21.1864 -10.4167 41.3948 5.6555
# 6 -0.8935 -12.1493 -7.9027 -7.8789 5.6555 40.5132
#
#
#
# Elastic Compliance Matrix: (Units=1/GPa)
#
#
# Indices 1 2 3 4 5 6 
#
# 1 0.012485 -0.004383 -0.005151 -0.001915 0.007261 -0.003430
# 2 -0.004383 0.027207 0.003091 -0.010234 0.004124 0.006099
# 3 -0.005151 0.003091 0.016697 0.002063 0.004931 0.003783
# 4 -0.001915 -0.010234 0.002063 0.029991 0.002700 0.002747
# 5 0.007261 0.004124 0.004931 0.002700 0.035867 -0.002123
# 6 -0.003430 0.006099 0.003783 0.002747 -0.002123 0.028005
#
#
# Mechanical properties :
#
#
# Convention : Reuss Voigt Hill
#
# Bulk Modulus (GPa) = 22.98680 47.31349 35.15014
# Shear Modulus (GPa) = 28.14710 37.94925 33.04818
#
# Velocity S-wave (km/s) = 3.48416 4.04561 3.77534
# Velocity P-wave (km/s) = 5.10879 6.49832 5.84499
#
# Compressibility (1/GPa) = 0.04350324
#
# Stress axis : x y z
#
# Youngs Moduli (GPa) = 80.09822 36.75540 59.88948
#
# Poissons Ratio (x) = 0.16110 0.30847
# Poissons Ratio (y) = 0.35108 -0.18511
# Poissons Ratio (z) = 0.41256 -0.11361
#
# Static dielectric constant tensor:
#      x y z
#    x 1.840850 -0.034860 0.063710 
#    y -0.034860 1.864660 -0.037690 
#    z 0.063710 -0.037690 1.856950 
# 
# From -- ./inp_files/285131.got.cif
#   From: 2010.05.17/outbox.cif.g08.bks.cpg/sg2_143_cif.got.tgz:285131.got - 2010.06.03 11:33:40.
