data_PCOD9044154
_publ_section_title
;
Structure prediction by ZEFSAII (Michael W. Deem and Ramdas Pophale) SiO2 
 PCOD9044154
Probable space group: P -1
;
_chemical_formula_sum "Si O2"
_cell_formula_units_Z 10
_cell_length_a 16.643252
_cell_length_b 6.808121
_cell_length_c 9.951046
_cell_angle_alpha 62.534171
_cell_angle_beta 29.611192
_cell_angle_gamma 81.852458
_cell_volume 398.638906
_symmetry_space_group_name_H-M "P -1"
_symmetry_group_IT_number 2
_symmetry_cell_setting 'triclinic'
loop_
_space_group_symop_operation_xyz
x,y,z
-x,-y,-z
loop_
_atom_site_type_symbol
_atom_site_label
_atom_site_fract_x
_atom_site_fract_y
_atom_site_fract_z
Si Si1 0.698133 0.313676 0.600927
Si Si2 0.914826 0.098964 0.433423
Si Si3 0.987850 0.811775 0.194625
Si Si4 0.541578 0.557562 0.264776
Si Si5 0.830264 0.427961 0.880584
O O1 0.862193 0.253460 0.356982
O O2 0.791465 0.504769 0.538393
O O3 0.646460 0.474300 0.525831
O O4 0.500000 0.000000 0.000000
O O5 0.075910 0.316955 0.234454
O O6 0.966123 0.928043 0.326544
O O7 0.719151 0.875191 0.874736
O O8 0.176206 0.798827 0.947538
O O9 0.000000 0.000000 0.000000
O O10 0.500000 0.500000 0.500000
O O11 0.626417 0.386849 0.143865
O O12 0.000000 0.500000 0.500000
#
# Coordination Sequence:
#
# PCOD9044154 Si02
#       5
#     2   2   2   2   2
#     4   9  23  45  67  96 139 181 230 281 348 404
#     4  10  23  46  70  93 143 186 232 277 348 420
#     4  11  25  42  73 102 135 189 236 276 342 423
#     4  11  24  41  69 101 137 177 230 293 345 398
#     4  11  24  45  70  98 139 186 229 284 349 413
#
# _framework density 25.085357999999999
#
# number of rings (size 3 to 8) (size 9 to 14) (size 15 to 20)
#    0.000    1.600    2.000    0.600    5.600    4.800 
#    3.600    2.000    0.000    0.000    0.000    0.000 
#    0.000    0.000    0.000    0.000    0.000    0.000 
#
# Total GULP energy -55828.387164 kJ/mol
# GULP energy per Si atom -5582.838716 kJ/mol
# Density = 2.502826 g / cm^3
# Si number density = 25.085358 Si / 1000 Ang^3
#
#
#
# Elastic Constant Matrix: (Units=GPa)
#
#
# Indices 1 2 3 4 5 6 
#
# 1 178.0301 77.7919 26.4831 10.4367 -4.3275 -60.1490
# 2 77.7919 178.2832 35.6218 7.8710 -12.5197 -14.1032
# 3 26.4831 35.6218 85.1301 -13.9310 7.8021 -1.8634
# 4 10.4367 7.8710 -13.9310 34.8315 1.2721 -10.2594
# 5 -4.3275 -12.5197 7.8021 1.2721 40.2834 -2.5997
# 6 -60.1490 -14.1032 -1.8634 -10.2594 -2.5997 72.7768
#
#
#
# Elastic Compliance Matrix: (Units=1/GPa)
#
#
# Indices 1 2 3 4 5 6 
#
# 1 0.009879 -0.003280 -0.001745 -0.000767 0.000882 0.007408
# 2 -0.003280 0.007797 -0.002924 -0.002496 0.002617 -0.001533
# 3 -0.001745 -0.002924 0.015057 0.007135 -0.004287 -0.000771
# 4 -0.000767 -0.002496 0.007135 0.033555 -0.003062 0.003686
# 5 0.000882 0.002617 -0.004287 -0.003062 0.026766 0.001651
# 6 0.007408 -0.001533 -0.000771 0.003686 0.001651 0.020125
#
#
# Mechanical properties :
#
#
# Convention : Reuss Voigt Hill
#
# Bulk Modulus (GPa) = 59.40079 80.13744 69.76912
# Shear Modulus (GPa) = 37.12255 49.68145 43.40200
#
# Velocity S-wave (km/s) = 3.85105 4.45510 4.16405
# Velocity P-wave (km/s) = 6.59583 7.64717 7.14088
#
# Compressibility (1/GPa) = 0.01683479
#
# Stress axis : x y z
#
# Youngs Moduli (GPa) = 101.22277 128.25023 66.41507
#
# Poissons Ratio (x) = 0.42069 0.11589
# Poissons Ratio (y) = 0.33203 0.19420
# Poissons Ratio (z) = 0.17663 0.37501
#
# Static dielectric constant tensor:
#      x y z
#    x 2.072820 -0.079830 0.001000 
#    y -0.079830 1.966490 -0.016870 
#    z 0.001000 -0.016870 2.048180 
# 
# From -- ./inp_files/16246.got.cif
#   From: 2010.05.17/outbox.cif.g08.bks.cpg/sg2_9_cif.got.tgz:16246.got - 2010.06.03 11:33:40.
