data_PCOD9044495
_publ_section_title
;
Structure prediction by ZEFSAII (Michael W. Deem and Ramdas Pophale) SiO2 
 PCOD9044495
Probable space group: P -1
;
_chemical_formula_sum "Si O2"
_cell_formula_units_Z 16
_cell_length_a 12.119276
_cell_length_b 14.765301
_cell_length_c 5.195062
_cell_angle_alpha 69.940331
_cell_angle_beta 83.527970
_cell_angle_gamma 47.456941
_cell_volume 633.757663
_symmetry_space_group_name_H-M "P -1"
_symmetry_group_IT_number 2
_symmetry_cell_setting 'triclinic'
loop_
_space_group_symop_operation_xyz
x,y,z
-x,-y,-z
loop_
_atom_site_type_symbol
_atom_site_label
_atom_site_fract_x
_atom_site_fract_y
_atom_site_fract_z
Si Si1 0.616449 0.845314 0.561702
Si Si2 0.161667 0.911292 0.793987
Si Si3 0.245073 0.587234 0.723761
Si Si4 0.400278 0.360808 0.256090
Si Si5 0.955211 0.870567 0.740224
Si Si6 0.913876 0.451819 0.594306
Si Si7 0.783555 0.811212 0.037300
Si Si8 0.335848 0.737023 0.400278
O O1 0.546538 0.779927 0.678273
O O2 0.675992 0.834052 0.268550
O O3 0.500000 0.000000 0.500000
O O4 0.745971 0.779955 0.810448
O O5 0.251260 0.823375 0.598562
O O6 0.020475 0.920516 0.840993
O O7 0.096731 0.053694 0.594341
O O8 0.273111 0.829628 0.080568
O O9 0.166073 0.547964 0.628439
O O10 0.301001 0.643886 0.480925
O O11 0.105178 0.716333 0.799186
O O12 0.387653 0.457139 0.967449
O O13 0.222739 0.450793 0.270670
O O14 0.490896 0.342704 0.498753
O O15 0.803889 0.910987 0.856837
O O16 0.000000 0.500000 0.500000
O O17 0.047899 0.304381 0.791509
#
# Coordination Sequence:
#
# PCOD9044495 Si02
#       8
#     2   2   2   2   2   2   2   2
#     4  12  30  52  75 110 155 207 256 312 385 464
#     4  10  25  48  74 112 157 196 260 305 393 451
#     4  11  25  47  75 112 155 200 260 316 387 452
#     4  12  28  48  75 110 158 198 261 315 381 461
#     4  10  23  46  77 114 149 203 250 329 374 462
#     4  12  25  45  76 112 150 199 252 320 383 448
#     4  12  25  48  79 111 149 196 263 313 383 449
#     4  11  27  47  76 111 154 208 249 315 382 464
#
# _framework density 25.246243
#
# number of rings (size 3 to 8) (size 9 to 14) (size 15 to 20)
#    0.000    0.750    2.500    3.000    5.250    9.000 
#    0.000    0.000    0.000    0.000    0.000    0.000 
#    0.000    0.000    0.000    0.000    0.000    0.000 
#
# Total GULP energy -89517.151634 kJ/mol
# GULP energy per Si atom -5594.821977 kJ/mol
# Density = 2.518878 g / cm^3
# Si number density = 25.246243 Si / 1000 Ang^3
#
#
#
# Elastic Constant Matrix: (Units=GPa)
#
#
# Indices 1 2 3 4 5 6 
#
# 1 109.4476 6.5147 50.2242 -2.0012 3.3281 17.7250
# 2 6.5147 83.6004 34.1323 -17.8564 -4.6642 12.5227
# 3 50.2242 34.1323 190.3765 -14.9292 17.5746 17.3260
# 4 -2.0012 -17.8564 -14.9292 37.0515 -0.6648 2.7009
# 5 3.3281 -4.6642 17.5746 -0.6648 52.0801 -0.1538
# 6 17.7250 12.5227 17.3260 2.7009 -0.1538 31.0423
#
#
#
# Elastic Compliance Matrix: (Units=1/GPa)
#
#
# Indices 1 2 3 4 5 6 
#
# 1 0.011156 0.001136 -0.002643 0.000483 0.000271 -0.005394
# 2 0.001136 0.015298 -0.002111 0.007076 0.002082 -0.006247
# 3 -0.002643 -0.002111 0.006817 0.001662 -0.002304 -0.001600
# 4 0.000483 0.007076 0.001662 0.031599 0.000425 -0.006805
# 5 0.000271 0.002082 -0.002304 0.000425 0.020154 0.000354
# 6 -0.005394 -0.006247 -0.001600 -0.006805 0.000354 0.039301
#
#
# Mechanical properties :
#
#
# Convention : Reuss Voigt Hill
#
# Bulk Modulus (GPa) = 38.40945 62.79632 50.60288
# Shear Modulus (GPa) = 35.65273 43.53832 39.59553
#
# Velocity S-wave (km/s) = 3.76200 4.15727 3.96457
# Velocity P-wave (km/s) = 5.84099 6.92614 6.40658
#
# Compressibility (1/GPa) = 0.02603526
#
# Stress axis : x y z
#
# Youngs Moduli (GPa) = 89.63644 65.36591 146.68743
#
# Poissons Ratio (x) = -0.07426 0.38771
# Poissons Ratio (y) = -0.10183 0.30969
# Poissons Ratio (z) = 0.23692 0.13800
#
# Static dielectric constant tensor:
#      x y z
#    x 1.968180 -0.076960 -0.032450 
#    y -0.076960 2.021130 0.064410 
#    z -0.032450 0.064410 2.003350 
# 
# From -- ./inp_files/77159.got.cif
#   From: 2010.05.17/outbox.cif.g08.bks.cpg/sg2_39_cif.got.tgz:77159.got - 2010.06.03 11:33:40.
