data_PCOD9044047
_publ_section_title
;
Structure prediction by ZEFSAII (Michael W. Deem and Ramdas Pophale) SiO2 
 PCOD9044047
Probable space group: P -1
;
_chemical_formula_sum "Si O2"
_cell_formula_units_Z 16
_cell_length_a 11.895552
_cell_length_b 5.385390
_cell_length_c 20.365691
_cell_angle_alpha 115.866411
_cell_angle_beta 147.572054
_cell_angle_gamma 65.129731
_cell_volume 625.811094
_symmetry_space_group_name_H-M "P -1"
_symmetry_group_IT_number 2
_symmetry_cell_setting 'triclinic'
loop_
_space_group_symop_operation_xyz
x,y,z
-x,-y,-z
loop_
_atom_site_type_symbol
_atom_site_label
_atom_site_fract_x
_atom_site_fract_y
_atom_site_fract_z
Si Si1 0.788763 0.344426 0.279758
Si Si2 0.913403 0.999068 0.529826
Si Si3 0.737145 0.263217 0.768730
Si Si4 0.085269 0.466789 0.757976
Si Si5 0.674394 0.613159 0.648491
Si Si6 0.150766 0.058224 0.015592
Si Si7 0.520677 0.864158 0.260395
Si Si8 0.505242 0.100522 0.938394
O O1 0.890915 0.282768 0.251383
O O2 0.669811 0.650918 0.264685
O O3 0.982805 0.278521 0.416404
O O4 0.615155 0.139163 0.183282
O O5 0.666830 0.014134 0.398899
O O6 0.000000 0.000000 0.500000
O O7 0.983181 0.244174 0.636046
O O8 0.662174 0.464470 0.695739
O O9 0.608987 0.326132 0.779806
O O10 0.688245 0.946249 0.691601
O O11 0.983052 0.253349 0.911337
O O12 0.325741 0.360907 0.879783
O O13 0.916726 0.512286 0.736306
O O14 0.500000 0.500000 0.500000
O O15 0.359313 0.069520 0.163713
O O16 0.280444 0.883527 0.997306
O O17 0.000000 0.000000 0.000000
O O18 0.500000 0.000000 0.000000
#
# Coordination Sequence:
#
# PCOD9044047 Si02
#       8
#     2   2   2   2   2   2   2   2
#     4  11  24  40  69 104 137 179 240 302 366 437
#     4  11  22  39  64 103 140 173 233 297 370 430
#     4  11  28  48  74 105 144 197 244 300 365 444
#     4  11  25  42  69 101 140 184 237 303 361 437
#     4  12  28  49  75 107 148 193 247 300 374 440
#     4  10  23  46  69 102 144 189 243 300 366 438
#     4  11  22  44  70 103 137 189 237 300 366 441
#     4  11  24  43  70 104 142 189 244 304 369 440
#
# _framework density 25.566818999999999
#
# number of rings (size 3 to 8) (size 9 to 14) (size 15 to 20)
#    0.000    1.000    2.500    3.000    7.000    5.500 
#    0.000    4.375    0.000    0.000    0.000    0.000 
#    0.000    0.000    0.000    0.000    0.000    0.000 
#
# Total GULP energy -89173.054001 kJ/mol
# GULP energy per Si atom -5573.315875 kJ/mol
# Density = 2.550863 g / cm^3
# Si number density = 25.566819 Si / 1000 Ang^3
#
#
#
# Elastic Constant Matrix: (Units=GPa)
#
#
# Indices 1 2 3 4 5 6 
#
# 1 163.9733 21.7436 26.7373 -19.7596 9.0823 13.8196
# 2 21.7436 88.8671 46.1853 -4.2475 -11.0514 9.7266
# 3 26.7373 46.1853 193.9692 -26.8003 4.4222 8.4506
# 4 -19.7596 -4.2475 -26.8003 43.7294 10.2463 -17.4347
# 5 9.0823 -11.0514 4.4222 10.2463 46.9478 -10.3234
# 6 13.8196 9.7266 8.4506 -17.4347 -10.3234 36.0924
#
#
#
# Elastic Compliance Matrix: (Units=1/GPa)
#
#
# Indices 1 2 3 4 5 6 
#
# 1 0.006974 -0.001736 -0.000002 0.003015 -0.002753 -0.001533
# 2 -0.001736 0.014235 -0.003642 -0.003796 0.004210 -0.002948
# 3 -0.000002 -0.003642 0.006677 0.004682 -0.002282 0.001028
# 4 0.003015 -0.003796 0.004682 0.033445 -0.006333 0.013116
# 5 -0.002753 0.004210 -0.002282 -0.006333 0.025449 0.004674
# 6 -0.001533 -0.002948 0.001028 0.013116 0.004674 0.036520
#
#
# Mechanical properties :
#
#
# Convention : Reuss Voigt Hill
#
# Bulk Modulus (GPa) = 58.38886 70.68245 64.53566
# Shear Modulus (GPa) = 35.77353 48.83015 42.30184
#
# Velocity S-wave (km/s) = 3.74467 4.37499 4.07204
# Velocity P-wave (km/s) = 6.44857 7.29567 6.88516
#
# Compressibility (1/GPa) = 0.01712655
#
# Stress axis : x y z
#
# Youngs Moduli (GPa) = 143.38812 70.24851 149.76596
#
# Poissons Ratio (x) = 0.12194 0.00027
# Poissons Ratio (y) = 0.24890 0.54548
# Poissons Ratio (z) = 0.00026 0.25586
#
# Static dielectric constant tensor:
#      x y z
#    x 2.060420 -0.063870 -0.034840 
#    y -0.063870 2.126280 0.027840 
#    z -0.034840 0.027840 1.979050 
# 
# From -- ./inp_files/592804.got.cif
#   From: 2010.05.17/outbox.cif.g08.bks.cpg/sg2_297_cif.got.tgz:592804.got - 2010.06.03 11:33:40.
