data_PCOD9044861
_publ_section_title
;
Structure prediction by ZEFSAII (Michael W. Deem and Ramdas Pophale) SiO2 
 PCOD9044861
Probable space group: P -1
;
_chemical_formula_sum "Si O2"
_cell_formula_units_Z 16
_cell_length_a 9.678858
_cell_length_b 14.305871
_cell_length_c 11.206129
_cell_angle_alpha 57.039259
_cell_angle_beta 109.985750
_cell_angle_gamma 150.002717
_cell_volume 619.155927
_symmetry_space_group_name_H-M "P -1"
_symmetry_group_IT_number 2
_symmetry_cell_setting 'triclinic'
loop_
_space_group_symop_operation_xyz
x,y,z
-x,-y,-z
loop_
_atom_site_type_symbol
_atom_site_label
_atom_site_fract_x
_atom_site_fract_y
_atom_site_fract_z
Si Si1 0.859028 0.459537 0.170310
Si Si2 0.558592 0.861938 0.348345
Si Si3 0.388809 0.684269 0.061587
Si Si4 0.281064 0.879595 0.129690
Si Si5 0.363103 0.379363 0.845759
Si Si6 0.260612 0.012330 0.415689
Si Si7 0.883485 0.839177 0.821799
Si Si8 0.267166 0.432122 0.540576
O O1 0.970309 0.637950 0.154416
O O2 0.760722 0.435313 0.027565
O O3 0.585852 0.221573 0.314478
O O4 0.136566 0.562762 0.158520
O O5 0.369405 0.847839 0.278414
O O6 0.381986 0.632454 0.444095
O O7 0.710481 0.964555 0.450201
O O8 0.814137 0.020957 0.216315
O O9 0.625759 0.935593 0.935544
O O10 0.525915 0.659719 0.159954
O O11 0.500000 0.000000 0.000000
O O12 0.634010 0.620402 0.818522
O O13 0.224734 0.360675 0.712793
O O14 0.185205 0.219723 0.018490
O O15 0.037965 0.773534 0.474386
O O16 0.121906 0.036007 0.306554
O O17 0.500000 0.500000 0.500000
#
# Coordination Sequence:
#
# PCOD9044861 Si02
#       8
#     2   2   2   2   2   2   2   2
#     4  10  24  46  71 107 147 194 249 301 360 435
#     4  12  27  51  76 105 156 195 244 310 380 437
#     4  10  23  47  76 107 147 196 247 306 362 433
#     4  10  26  47  77 104 142 205 251 301 362 442
#     4  11  25  46  81 115 150 192 251 309 370 451
#     4  12  25  49  75 108 153 195 247 307 374 446
#     4  11  24  47  78 116 148 198 241 316 378 434
#     4  12  27  47  76 115 149 197 246 304 385 446
#
# _framework density 25.841632000000001
#
# number of rings (size 3 to 8) (size 9 to 14) (size 15 to 20)
#    0.000    1.000    3.750    1.125    8.750    3.000 
#    6.750    1.250    2.750    0.000    0.000    0.000 
#    0.000    0.000    0.000    0.000    0.000    0.000 
#
# Total GULP energy -89873.183006 kJ/mol
# GULP energy per Si atom -5617.073938 kJ/mol
# Density = 2.578282 g / cm^3
# Si number density = 25.841632 Si / 1000 Ang^3
#
#
#
# Elastic Constant Matrix: (Units=GPa)
#
#
# Indices 1 2 3 4 5 6 
#
# 1 88.4153 41.1240 27.2230 -4.8415 -3.5999 0.2156
# 2 41.1240 190.7585 49.4342 -1.8685 5.6536 0.2005
# 3 27.2230 49.4342 108.1124 14.5443 10.1845 -4.3361
# 4 -4.8415 -1.8685 14.5443 30.3760 2.8503 -14.2300
# 5 -3.5999 5.6536 10.1845 2.8503 45.4834 0.5804
# 6 0.2156 0.2005 -4.3361 -14.2300 0.5804 31.3239
#
#
#
# Elastic Compliance Matrix: (Units=1/GPa)
#
#
# Indices 1 2 3 4 5 6 
#
# 1 0.013533 -0.002136 -0.003074 0.003913 0.001764 0.001240
# 2 -0.002136 0.006383 -0.002516 0.001438 -0.000493 0.000288
# 3 -0.003074 -0.002516 0.012264 -0.006957 -0.002223 -0.001384
# 4 0.003913 0.001438 -0.006957 0.046556 -0.001486 0.020178
# 5 0.001764 -0.000493 -0.002223 -0.001486 0.022796 -0.001414
# 6 0.001240 0.000288 -0.001384 0.020178 -0.001414 0.040915
#
#
# Mechanical properties :
#
#
# Convention : Reuss Voigt Hill
#
# Bulk Modulus (GPa) = 59.78025 69.20543 64.49284
# Shear Modulus (GPa) = 30.58546 39.40364 34.99455
#
# Velocity S-wave (km/s) = 3.44404 3.90912 3.68393
# Velocity P-wave (km/s) = 6.24490 6.87122 6.56553
#
# Compressibility (1/GPa) = 0.01672793
#
# Stress axis : x y z
#
# Youngs Moduli (GPa) = 73.89167 156.66005 81.53971
#
# Poissons Ratio (x) = 0.33466 0.25063
# Poissons Ratio (y) = 0.15785 0.20518
# Poissons Ratio (z) = 0.22712 0.39421
#
# Static dielectric constant tensor:
#      x y z
#    x 2.138870 0.029580 -0.008350 
#    y 0.029580 1.989350 -0.017150 
#    z -0.008350 -0.017150 1.979120 
# 
# From -- ./inp_files/432618.got.cif
#   From: 2010.05.17/outbox.cif.g08.bks.cpg/sg2_217_cif.got.tgz:432618.got - 2010.06.03 11:33:40.
