data_PCOD9044409
_publ_section_title
;
Structure prediction by ZEFSAII (Michael W. Deem and Ramdas Pophale) SiO2 
 PCOD9044409
Probable space group: P -1
;
_chemical_formula_sum "Si O2"
_cell_formula_units_Z 16
_cell_length_a 11.149952
_cell_length_b 6.155616
_cell_length_c 23.092349
_cell_angle_alpha 123.323286
_cell_angle_beta 31.138566
_cell_angle_gamma 122.129404
_cell_volume 677.833687
_symmetry_space_group_name_H-M "P -1"
_symmetry_group_IT_number 2
_symmetry_cell_setting 'triclinic'
loop_
_space_group_symop_operation_xyz
x,y,z
-x,-y,-z
loop_
_atom_site_type_symbol
_atom_site_label
_atom_site_fract_x
_atom_site_fract_y
_atom_site_fract_z
Si Si1 0.607450 0.791253 0.885014
Si Si2 0.851819 0.587807 0.021469
Si Si3 0.194715 0.063381 0.299888
Si Si4 0.425369 0.956970 0.591272
Si Si5 0.802436 0.529894 0.237977
Si Si6 0.831631 0.107458 0.535607
Si Si7 0.452368 0.002594 0.761284
Si Si8 0.010184 0.502920 0.719124
O O1 0.391345 0.593494 0.919975
O O2 0.785013 0.652630 0.830198
O O3 0.756767 0.894376 0.781474
O O4 0.500000 0.000000 0.000000
O O5 0.772812 0.862628 0.112290
O O6 0.000000 0.500000 0.000000
O O7 0.015593 0.560449 0.895320
O O8 0.063900 0.768830 0.322738
O O9 0.436326 0.069861 0.234881
O O10 0.029076 0.241985 0.427919
O O11 0.298999 0.206666 0.698667
O O12 0.646487 0.958683 0.542607
O O13 0.500000 0.000000 0.500000
O O14 0.237537 0.695144 0.632325
O O15 0.604530 0.276996 0.287929
O O16 0.930666 0.574100 0.252116
O O17 0.636707 0.193619 0.673421
O O18 0.000000 0.000000 0.500000
#
# Coordination Sequence:
#
# PCOD9044409 Si02
#       8
#     2   2   2   2   2   2   2   2
#     4  12  27  45  71 107 146 188 246 305 365 441
#     4  12  26  46  74 106 148 190 247 304 365 442
#     4  11  25  47  71 109 140 195 237 302 374 434
#     4  12  26  47  77 112 145 196 249 309 373 439
#     4  12  27  45  76 106 145 196 245 300 371 440
#     4  10  23  46  74 104 149 184 244 301 368 439
#     4  11  24  48  72 104 148 194 240 299 371 440
#     4  12  25  46  73 103 150 184 249 296 371 441
#
# _framework density 23.604610000000001
#
# number of rings (size 3 to 8) (size 9 to 14) (size 15 to 20)
#    0.000    0.500    2.500    5.625    5.250    2.000 
#    0.000    1.875    0.000    0.000    0.000    0.000 
#    0.000    0.000    0.000    0.000    0.000    0.000 
#
# Total GULP energy -89369.751694 kJ/mol
# GULP energy per Si atom -5585.609481 kJ/mol
# Density = 2.355088 g / cm^3
# Si number density = 23.604610 Si / 1000 Ang^3
#
#
#
# Elastic Constant Matrix: (Units=GPa)
#
#
# Indices 1 2 3 4 5 6 
#
# 1 141.7186 16.1782 7.7344 -5.3357 -20.6156 21.4484
# 2 16.1782 71.5376 25.3877 8.7145 -8.2870 10.5200
# 3 7.7344 25.3877 132.2433 1.3923 3.0739 -15.0720
# 4 -5.3357 8.7145 1.3923 37.0750 -6.5059 10.5409
# 5 -20.6156 -8.2870 3.0739 -6.5059 54.5834 -1.0154
# 6 21.4484 10.5200 -15.0720 10.5409 -1.0154 15.3248
#
#
#
# Elastic Compliance Matrix: (Units=1/GPa)
#
#
# Indices 1 2 3 4 5 6 
#
# 1 0.013960 0.003497 -0.005910 0.012923 0.007004 -0.036176
# 2 0.003497 0.020152 -0.007610 0.005310 0.004892 -0.029541
# 3 -0.005910 -0.007610 0.013345 -0.009778 -0.004690 0.033036
# 4 0.012923 0.005310 -0.009778 0.047923 0.010767 -0.063599
# 5 0.007004 0.004892 -0.004690 0.010767 0.022816 -0.023667
# 6 -0.036176 -0.029541 0.033036 -0.063599 -0.023667 0.210832
#
#
# Mechanical properties :
#
#
# Convention : Reuss Voigt Hill
#
# Bulk Modulus (GPa) = 36.47884 49.34447 42.91165
# Shear Modulus (GPa) = 13.95827 41.14326 27.55076
#
# Velocity S-wave (km/s) = 2.43438 4.17948 3.42010
# Velocity P-wave (km/s) = 4.83625 6.65137 5.81506
#
# Compressibility (1/GPa) = 0.02741316
#
# Stress axis : x y z
#
# Youngs Moduli (GPa) = 71.63307 49.62183 74.93194
#
# Poissons Ratio (x) = -0.17354 0.44283
# Poissons Ratio (y) = -0.25051 0.57021
# Poissons Ratio (z) = 0.42334 0.37761
#
# Static dielectric constant tensor:
#      x y z
#    x 1.814520 0.012250 0.001730 
#    y 0.012250 1.995420 -0.019140 
#    z 0.001730 -0.019140 1.910920 
# 
# From -- ./inp_files/462250.got.cif
#   From: 2010.05.17/outbox.cif.g08.bks.cpg/sg2_232_cif.got.tgz:462250.got - 2010.06.03 11:33:40.
