data_PCOD9044759
_publ_section_title
;
Structure prediction by ZEFSAII (Michael W. Deem and Ramdas Pophale) SiO2 
 PCOD9044759
Probable space group: P -1
;
_chemical_formula_sum "Si O2"
_cell_formula_units_Z 15
_cell_length_a 11.726555
_cell_length_b 15.474656
_cell_length_c 6.780965
_cell_angle_alpha 112.281480
_cell_angle_beta 102.494150
_cell_angle_gamma 34.254759
_cell_volume 629.677765
_symmetry_space_group_name_H-M "P -1"
_symmetry_group_IT_number 2
_symmetry_cell_setting 'triclinic'
loop_
_space_group_symop_operation_xyz
x,y,z
-x,-y,-z
loop_
_atom_site_type_symbol
_atom_site_label
_atom_site_fract_x
_atom_site_fract_y
_atom_site_fract_z
Si Si1 0.340497 0.025904 0.713017
Si Si2 0.301534 0.251832 0.095407
Si Si3 0.191740 0.845318 0.299672
Si Si4 0.664923 0.427557 0.656678
Si Si5 0.922931 0.769295 0.574626
Si Si6 0.473542 0.736267 0.023593
Si Si7 0.884868 0.945293 0.056117
Si Si8 0.000000 0.500000 0.500000
O O1 0.278705 0.086640 0.516937
O O2 0.167389 0.070347 0.772120
O O3 0.552502 0.844555 0.732069
O O4 0.315063 0.141445 0.912665
O O5 0.081327 0.426188 0.243293
O O6 0.380408 0.273282 0.980790
O O7 0.299077 0.688218 0.304283
O O8 0.356125 0.812796 0.256456
O O9 0.090029 0.868987 0.085774
O O10 0.000000 0.000000 0.500000
O O11 0.500000 0.500000 0.500000
O O12 0.872850 0.328078 0.544694
O O13 0.584302 0.565589 0.880412
O O14 0.961066 0.639016 0.548531
O O15 0.890389 0.860843 0.823729
O O16 0.300128 0.864382 0.902303
#
# Coordination Sequence:
#
# PCOD9044759 Si02
#       8
#     2   2   2   2   2   2   2   1
#     4  10  23  47  73 100 149 190 247 290 366 431
#     4  10  23  48  71 108 144 189 244 303 355 442
#     4  12  25  47  75 104 142 196 241 299 367 436
#     4  12  25  46  69 104 148 185 241 299 366 436
#     4  12  25  47  73 108 144 198 239 301 364 436
#     4  11  24  44  69 106 144 185 236 307 355 426
#     4  11  23  46  74 102 144 188 245 297 361 440
#     4  12  24  46  70 106 148 188 242 300 370 416
#
# _framework density 23.821709999999999
#
# number of rings (size 3 to 8) (size 9 to 14) (size 15 to 20)
#    0.000    0.800    4.000    3.200    0.000    1.067 
#    4.800    0.000    0.000    0.000    0.000    0.000 
#    0.000    0.000    0.000    0.000    0.000    0.000 
#
# Total GULP energy -83642.338707 kJ/mol
# GULP energy per Si atom -5576.155914 kJ/mol
# Density = 2.376749 g / cm^3
# Si number density = 23.821710 Si / 1000 Ang^3
#
#
#
# Elastic Constant Matrix: (Units=GPa)
#
#
# Indices 1 2 3 4 5 6 
#
# 1 122.1036 18.9322 17.2747 -16.5116 -31.4753 35.3751
# 2 18.9322 75.9022 15.1449 -8.5023 0.5797 34.4328
# 3 17.2747 15.1449 79.7578 -1.8406 -4.8708 9.9371
# 4 -16.5116 -8.5023 -1.8406 22.8079 -0.6021 8.8004
# 5 -31.4753 0.5797 -4.8708 -0.6021 45.8085 -6.4852
# 6 35.3751 34.4328 9.9371 8.8004 -6.4852 37.1983
#
#
#
# Elastic Compliance Matrix: (Units=1/GPa)
#
#
# Indices 1 2 3 4 5 6 
#
# 1 0.066502 0.067738 -0.003773 0.132373 0.024663 -0.151954
# 2 0.067738 0.103095 -0.005217 0.162202 0.019430 -0.193441
# 3 -0.003773 -0.005217 0.013417 -0.005993 -0.000301 0.006199
# 4 0.132373 0.162202 -0.005993 0.334272 0.043690 -0.345892
# 5 0.024663 0.019430 -0.000301 0.043690 0.032557 -0.046020
# 6 -0.151954 -0.193441 0.006199 -0.345892 -0.046020 0.422602
#
#
# Mechanical properties :
#
#
# Convention : Reuss Voigt Hill
#
# Bulk Modulus (GPa) = 3.32767 42.27413 22.80090
# Shear Modulus (GPa) = 5.23496 36.25707 20.74601
#
# Velocity S-wave (km/s) = 1.48402 3.90554 2.95428
# Velocity P-wave (km/s) = 2.08240 6.17432 4.60753
#
# Compressibility (1/GPa) = 0.30051013
#
# Stress axis : x y z
#
# Youngs Moduli (GPa) = 15.03721 9.69980 74.53328
#
# Poissons Ratio (x) = -0.65705 0.28123
# Poissons Ratio (y) = -1.01860 0.38884
# Poissons Ratio (z) = 0.05674 0.05060
#
# Static dielectric constant tensor:
#      x y z
#    x 1.988290 -0.019270 -0.141620 
#    y -0.019270 1.950830 -0.047880 
#    z -0.141620 -0.047880 2.036300 
# 
# From -- ./inp_files/26764.got.cif
#   From: 2010.05.17/outbox.cif.g08.bks.cpg/sg2_14_cif.got.tgz:26764.got - 2010.06.03 11:33:40.
