data_PCOD9044946
_publ_section_title
;
Structure prediction by ZEFSAII (Michael W. Deem and Ramdas Pophale) SiO2 
 PCOD9044946
Probable space group: P -1
;
_chemical_formula_sum "Si O2"
_cell_formula_units_Z 14
_cell_length_a 12.651349
_cell_length_b 16.040566
_cell_length_c 22.304187
_cell_angle_alpha 161.894104
_cell_angle_beta 152.679774
_cell_angle_gamma 37.391512
_cell_volume 604.708182
_symmetry_space_group_name_H-M "P -1"
_symmetry_group_IT_number 2
_symmetry_cell_setting 'triclinic'
loop_
_space_group_symop_operation_xyz
x,y,z
-x,-y,-z
loop_
_atom_site_type_symbol
_atom_site_label
_atom_site_fract_x
_atom_site_fract_y
_atom_site_fract_z
Si Si1 0.252282 0.568549 0.439416
Si Si2 0.930501 0.538106 0.924750
Si Si3 0.197542 0.386284 0.550812
Si Si4 0.846152 0.246432 0.924817
Si Si5 0.374105 0.108060 0.674635
Si Si6 0.208463 0.497333 0.773279
Si Si7 0.394018 0.119929 0.971558
O O1 0.500000 0.500000 0.500000
O O2 0.026372 0.406856 0.262966
O O3 0.339351 0.879936 0.727778
O O4 0.084599 0.479927 0.234768
O O5 0.748356 0.224074 0.600596
O O6 0.818474 0.788880 0.042799
O O7 0.000000 0.500000 0.000000
O O8 0.164188 0.639572 0.068741
O O9 0.200344 0.415455 0.644029
O O10 0.000000 0.500000 0.500000
O O11 0.123946 0.058227 0.271465
O O12 0.443410 0.586637 0.778617
O O13 0.598230 0.182785 0.792128
O O14 0.197482 0.246105 0.644895
O O15 0.522171 0.270222 0.918245
O O16 0.500000 0.000000 0.000000
#
# Coordination Sequence:
#
# PCOD9044946 Si02
#       7
#     2   2   2   2   2   2   2
#     4  11  23  45  69 100 139 187 237 294 350 426
#     4  12  25  43  74 106 145 187 241 295 363 427
#     4  12  24  43  69 104 141 191 236 292 358 425
#     4  11  25  44  71 105 143 187 239 291 358 429
#     4  10  23  48  69 110 144 187 238 301 360 434
#     4  10  24  45  73 101 151 183 238 302 365 421
#     4  12  26  46  68 103 147 186 238 297 355 432
#
# _framework density 23.151665000000001
#
# number of rings (size 3 to 8) (size 9 to 14) (size 15 to 20)
#    0.000    0.857    1.429    6.000    4.000    1.143 
#    2.571    5.714    0.000    0.000    0.000    0.000 
#    0.000    0.000    0.000    0.000    0.000    0.000 
#
# Total GULP energy -78110.594768 kJ/mol
# GULP energy per Si atom -5579.328198 kJ/mol
# Density = 2.309897 g / cm^3
# Si number density = 23.151665 Si / 1000 Ang^3
#
#
#
# Elastic Constant Matrix: (Units=GPa)
#
#
# Indices 1 2 3 4 5 6 
#
# 1 112.7339 46.5120 42.5442 3.4721 -2.9453 4.6640
# 2 46.5120 108.1166 36.4510 3.3776 -11.9587 -5.7654
# 3 42.5442 36.4510 125.6486 20.4501 -17.1630 6.5827
# 4 3.4721 3.3776 20.4501 26.3783 -4.7743 0.3448
# 5 -2.9453 -11.9587 -17.1630 -4.7743 42.9396 -0.9632
# 6 4.6640 -5.7654 6.5827 0.3448 -0.9632 38.5920
#
#
#
# Elastic Compliance Matrix: (Units=1/GPa)
#
#
# Indices 1 2 3 4 5 6 
#
# 1 0.011801 -0.004341 -0.003041 0.001104 -0.001528 -0.001604
# 2 -0.004341 0.012191 -0.002038 0.000999 0.002455 0.002746
# 3 -0.003041 -0.002038 0.011289 -0.007551 0.002858 -0.001724
# 4 0.001104 0.000999 -0.007551 0.043883 0.002237 0.000967
# 5 -0.001528 0.002455 0.002858 0.002237 0.025274 0.000675
# 6 -0.001604 0.002746 -0.001724 0.000967 0.000675 0.026818
#
#
# Mechanical properties :
#
#
# Convention : Reuss Voigt Hill
#
# Bulk Modulus (GPa) = 60.81995 66.39037 63.60516
# Shear Modulus (GPa) = 32.13858 36.31476 34.22667
#
# Velocity S-wave (km/s) = 3.72986 3.96480 3.84913
# Velocity P-wave (km/s) = 6.69899 7.04969 6.87657
#
# Compressibility (1/GPa) = 0.01644197
#
# Stress axis : x y z
#
# Youngs Moduli (GPa) = 84.73508 82.03099 88.57988
#
# Poissons Ratio (x) = 0.35608 0.26938
# Poissons Ratio (y) = 0.36782 0.18050
# Poissons Ratio (z) = 0.25769 0.16716
#
# Static dielectric constant tensor:
#      x y z
#    x 1.955510 -0.113220 -0.044460 
#    y -0.113220 1.833880 -0.169620 
#    z -0.044460 -0.169620 1.732620 
# 
# From -- ./inp_files/559463.got.cif
#   From: 2010.05.17/outbox.cif.g08.bks.cpg/sg2_280_cif.got.tgz:559463.got - 2010.06.03 11:33:40.
