data_PCOD9044939
_publ_section_title
;
Structure prediction by ZEFSAII (Michael W. Deem and Ramdas Pophale) SiO2 
 PCOD9044939
Probable space group: P -1
;
_chemical_formula_sum "Si O2"
_cell_formula_units_Z 15
_cell_length_a 7.414544
_cell_length_b 19.652194
_cell_length_c 15.545442
_cell_angle_alpha 19.510316
_cell_angle_beta 130.162233
_cell_angle_gamma 130.759384
_cell_volume 569.099527
_symmetry_space_group_name_H-M "P -1"
_symmetry_group_IT_number 2
_symmetry_cell_setting 'triclinic'
loop_
_space_group_symop_operation_xyz
x,y,z
-x,-y,-z
loop_
_atom_site_type_symbol
_atom_site_label
_atom_site_fract_x
_atom_site_fract_y
_atom_site_fract_z
Si Si1 0.711661 0.245923 0.280254
Si Si2 0.138400 0.175054 0.768767
Si Si3 0.632424 0.211892 0.972754
Si Si4 0.940241 0.926184 0.836986
Si Si5 0.139217 0.514263 0.614172
Si Si6 0.857725 0.467354 0.889714
Si Si7 0.438570 0.240259 0.467989
Si Si8 0.500000 0.500000 0.000000
O O1 0.851364 0.465554 0.110709
O O2 0.780607 0.292102 0.147705
O O3 0.453506 0.281441 0.187471
O O4 0.789016 0.059273 0.575727
O O5 0.029202 0.384814 0.492845
O O6 0.076095 0.072629 0.779117
O O7 0.411370 0.226966 0.824124
O O8 0.000000 0.000000 0.000000
O O9 0.854474 0.159511 0.049857
O O10 0.568017 0.000195 0.260536
O O11 0.720943 0.397181 0.844804
O O12 0.793118 0.710772 0.083956
O O13 0.375768 0.685068 0.487272
O O14 0.000000 0.500000 0.500000
O O15 0.791718 0.674174 0.667084
O O16 0.518091 0.362657 0.260514
#
# Coordination Sequence:
#
# PCOD9044939 Si02
#       8
#     2   2   2   2   2   2   2   1
#     4  10  23  48  69 104 143 177 230 292 346 415
#     4  12  25  46  70 100 144 182 234 294 340 408
#     4  12  26  44  72 102 138 188 233 284 346 414
#     4  12  27  44  72 103 137 187 235 284 350 416
#     4  12  25  43  71 101 137 184 231 286 349 407
#     4  10  24  45  71 100 141 183 228 286 348 413
#     4  11  23  44  67 102 140 177 231 287 341 410
#     4  10  24  40  74  96 138 180 218 284 356 400
#
# _framework density 26.357429
#
# number of rings (size 3 to 8) (size 9 to 14) (size 15 to 20)
#    0.000    0.800    4.000    2.000    3.733    2.133 
#    0.000    2.667    0.000    0.000    0.000    0.000 
#    0.000    0.000    0.000    0.000    0.000    0.000 
#
# Total GULP energy -83799.876231 kJ/mol
# GULP energy per Si atom -5586.658415 kJ/mol
# Density = 2.629744 g / cm^3
# Si number density = 26.357429 Si / 1000 Ang^3
#
#
#
# Elastic Constant Matrix: (Units=GPa)
#
#
# Indices 1 2 3 4 5 6 
#
# 1 51.6731 16.3419 16.5179 -6.5049 11.3688 -22.6507
# 2 16.3419 127.4856 24.1667 -29.3046 1.8296 -19.4827
# 3 16.5179 24.1667 148.0090 -8.0960 14.1719 -9.6536
# 4 -6.5049 -29.3046 -8.0960 31.5006 -3.8511 4.0084
# 5 11.3688 1.8296 14.1719 -3.8511 40.2823 4.6379
# 6 -22.6507 -19.4827 -9.6536 4.0084 4.6379 36.9272
#
#
#
# Elastic Compliance Matrix: (Units=1/GPa)
#
#
# Indices 1 2 3 4 5 6 
#
# 1 0.030930 -0.000087 -0.001030 0.002258 -0.010417 0.019720
# 2 -0.000087 0.010842 -0.000993 0.009290 0.000267 0.004365
# 3 -0.001030 -0.000993 0.007342 0.000335 -0.002332 0.001020
# 4 0.002258 0.009290 0.000335 0.041051 0.002564 0.001596
# 5 -0.010417 0.000267 -0.002332 0.002564 0.030075 -0.010914
# 6 0.019720 0.004365 0.001020 0.001596 -0.010914 0.042943
#
#
# Mechanical properties :
#
#
# Convention : Reuss Voigt Hill
#
# Bulk Modulus (GPa) = 22.27569 49.02453 35.65011
# Shear Modulus (GPa) = 27.41698 39.75143 33.58420
#
# Velocity S-wave (km/s) = 3.22871 3.88773 3.57344
# Velocity P-wave (km/s) = 4.72961 6.22839 5.53001
#
# Compressibility (1/GPa) = 0.04489199
#
# Stress axis : x y z
#
# Youngs Moduli (GPa) = 32.33136 92.23136 136.20846
#
# Poissons Ratio (x) = 0.00804 0.14034
# Poissons Ratio (y) = 0.00282 0.13529
# Poissons Ratio (z) = 0.03331 0.09161
#
# Static dielectric constant tensor:
#      x y z
#    x 1.355060 0.210130 -0.426190 
#    y 0.210130 2.099730 -0.026090 
#    z -0.426190 -0.026090 2.047280 
# 
# From -- ./inp_files/220402.got.cif
#   From: 2010.05.17/outbox.cif.g08.bks.cpg/sg2_111_cif.got.tgz:220402.got - 2010.06.03 11:33:40.
