data_PCOD9044235
_publ_section_title
;
Structure prediction by ZEFSAII (Michael W. Deem and Ramdas Pophale) SiO2 
 PCOD9044235
Probable space group: P -1
;
_chemical_formula_sum "Si O2"
_cell_formula_units_Z 16
_cell_length_a 8.608283
_cell_length_b 13.257250
_cell_length_c 9.665469
_cell_angle_alpha 110.757588
_cell_angle_beta 136.595500
_cell_angle_gamma 79.682922
_cell_volume 703.456062
_symmetry_space_group_name_H-M "P -1"
_symmetry_group_IT_number 2
_symmetry_cell_setting 'triclinic'
loop_
_space_group_symop_operation_xyz
x,y,z
-x,-y,-z
loop_
_atom_site_type_symbol
_atom_site_label
_atom_site_fract_x
_atom_site_fract_y
_atom_site_fract_z
Si Si1 0.969026 0.580213 0.396212
Si Si2 0.308514 0.228596 0.627001
Si Si3 0.530944 0.429579 0.352481
Si Si4 0.966014 0.881012 0.846491
Si Si5 0.689356 0.422483 0.927423
Si Si6 0.971594 0.857367 0.346695
Si Si7 0.754969 0.054363 0.192913
Si Si8 0.064438 0.289532 0.003986
O O1 0.876074 0.685857 0.446062
O O2 0.000000 0.500000 0.500000
O O3 0.219218 0.605214 0.506241
O O4 0.789796 0.511018 0.147057
O O5 0.250701 0.154459 0.415988
O O6 0.545892 0.307203 0.820947
O O7 0.244284 0.165795 0.698832
O O8 0.500000 0.500000 0.500000
O O9 0.478644 0.512031 0.237415
O O10 0.329761 0.331795 0.178346
O O11 0.963624 0.792315 0.923348
O O12 0.173302 0.884068 0.872351
O O13 0.000000 0.000000 0.000000
O O14 0.911124 0.386033 0.977538
O O15 0.923522 0.961388 0.276485
O O16 0.002781 0.766129 0.212205
O O17 0.186066 0.877374 0.597004
O O18 0.500000 0.000000 0.000000
#
# Coordination Sequence:
#
# PCOD9044235 Si02
#       8
#     2   2   2   2   2   2   2   2
#     4  12  25  46  70 101 145 189 235 290 350 420
#     4  11  25  44  72 105 143 188 238 286 356 424
#     4  12  26  46  69 101 148 187 235 290 350 423
#     4  11  24  49  69 102 142 184 238 294 348 429
#     4  12  26  46  70 106 148 185 237 292 352 427
#     4  10  24  43  65 102 135 176 237 288 344 420
#     4  10  23  46  71  93 135 180 234 297 350 402
#     4  12  25  43  72 105 143 188 234 288 356 421
#
# _framework density 22.744848000000001
#
# number of rings (size 3 to 8) (size 9 to 14) (size 15 to 20)
#    0.000    0.750    3.750    3.000    5.250    3.000 
#    0.000    1.250    0.000    0.000    0.000    0.000 
#    0.000    0.000    0.000    0.000    0.000    0.000 
#
# Total GULP energy -89437.038646 kJ/mol
# GULP energy per Si atom -5589.814915 kJ/mol
# Density = 2.269308 g / cm^3
# Si number density = 22.744848 Si / 1000 Ang^3
#
#
#
# Elastic Constant Matrix: (Units=GPa)
#
#
# Indices 1 2 3 4 5 6 
#
# 1 88.7888 15.4783 52.4220 8.2341 4.9666 21.1867
# 2 15.4783 79.8825 23.5517 10.5684 -9.5070 11.8729
# 3 52.4220 23.5517 129.2551 22.9818 -14.4082 12.4632
# 4 8.2341 10.5684 22.9818 34.9393 0.7189 -0.5348
# 5 4.9666 -9.5070 -14.4082 0.7189 50.6605 10.9489
# 6 21.1867 11.8729 12.4632 -0.5348 10.9489 43.2020
#
#
#
# Elastic Compliance Matrix: (Units=1/GPa)
#
#
# Indices 1 2 3 4 5 6 
#
# 1 0.016580 -0.000882 -0.006412 0.000545 -0.002453 -0.005410
# 2 -0.000882 0.014482 -0.000801 -0.003784 0.003551 -0.004263
# 3 -0.006412 -0.000801 0.012235 -0.006404 0.004339 -0.001344
# 4 0.000545 -0.003784 -0.006404 0.033993 -0.003940 0.004040
# 5 -0.002453 0.003551 0.004339 -0.003940 0.023453 -0.007017
# 6 -0.005410 -0.004263 -0.001344 0.004040 -0.007017 0.029188
#
#
# Mechanical properties :
#
#
# Convention : Reuss Voigt Hill
#
# Bulk Modulus (GPa) = 36.89161 53.42561 45.15861
# Shear Modulus (GPa) = 32.22514 39.52530 35.87522
#
# Velocity S-wave (km/s) = 3.76814 4.17318 3.97582
# Velocity P-wave (km/s) = 5.93185 6.83818 6.40107
#
# Compressibility (1/GPa) = 0.02710643
#
# Stress axis : x y z
#
# Youngs Moduli (GPa) = 60.31351 69.04888 81.73094
#
# Poissons Ratio (x) = 0.06090 0.52408
# Poissons Ratio (y) = 0.05320 0.06550
# Poissons Ratio (z) = 0.38675 0.05534
#
# Static dielectric constant tensor:
#      x y z
#    x 1.849990 0.041530 -0.029050 
#    y 0.041530 1.852740 -0.038580 
#    z -0.029050 -0.038580 1.689130 
# 
# From -- ./inp_files/208103.got.cif
#   From: 2010.05.17/outbox.cif.g08.bks.cpg/sg2_105_cif.got.tgz:208103.got - 2010.06.03 11:33:40.
