data_PCOD9044169
_publ_section_title
;
Structure prediction by ZEFSAII (Michael W. Deem and Ramdas Pophale) SiO2 
 PCOD9044169
Probable space group: P -1
;
_chemical_formula_sum "Si O2"
_cell_formula_units_Z 13
_cell_length_a 8.983865
_cell_length_b 8.753766
_cell_length_c 9.318909
_cell_angle_alpha 99.259438
_cell_angle_beta 71.712715
_cell_angle_gamma 63.256654
_cell_volume 580.636980
_symmetry_space_group_name_H-M "P -1"
_symmetry_group_IT_number 2
_symmetry_cell_setting 'triclinic'
loop_
_space_group_symop_operation_xyz
x,y,z
-x,-y,-z
loop_
_atom_site_type_symbol
_atom_site_label
_atom_site_fract_x
_atom_site_fract_y
_atom_site_fract_z
Si Si1 0.336366 0.623857 0.952131
Si Si2 0.110109 0.709587 0.506071
Si Si3 0.500000 0.000000 0.500000
Si Si4 0.484915 0.184295 0.993645
Si Si5 0.261132 0.946614 0.369686
Si Si6 0.722296 0.566209 0.322280
Si Si7 0.909641 0.446930 0.809938
O O1 0.383068 0.779221 0.940126
O O2 0.345564 0.520085 0.789807
O O3 0.500000 0.500000 0.000000
O O4 0.145886 0.674629 0.096498
O O5 0.214417 0.803664 0.423787
O O6 0.214279 0.566531 0.579262
O O7 0.082622 0.607554 0.366339
O O8 0.912892 0.887434 0.637540
O O9 0.306188 0.044195 0.495052
O O10 0.576121 0.776722 0.436694
O O11 0.272724 0.350106 0.087887
O O12 0.567586 0.152412 0.804735
O O13 0.500000 0.000000 0.000000
O O14 0.904996 0.560069 0.206950
#
# Coordination Sequence:
#
# PCOD9044169 Si02
#       7
#     2   2   1   2   2   2   2
#     4  10  23  46  70  98 147 191 231 295 370 424
#     4  11  25  47  75 101 149 192 245 294 368 427
#     4  12  26  40  70 106 150 176 250 298 354 422
#     4  11  24  42  73 102 140 187 242 292 357 434
#     4  11  25  48  69 106 147 194 235 309 358 428
#     4  12  26  45  74 113 139 196 245 298 363 438
#     4  11  22  46  72 102 143 192 233 296 367 428
#
# _framework density 22.389206999999999
#
# number of rings (size 3 to 8) (size 9 to 14) (size 15 to 20)
#    0.000    0.923    3.077    3.692    4.308    1.846 
#    0.000    3.077    0.000    0.000    0.000    0.000 
#    0.000    0.000    0.000    0.000    0.000    0.000 
#
# Total GULP energy -72434.080366 kJ/mol
# GULP energy per Si atom -5571.852336 kJ/mol
# Density = 2.233825 g / cm^3
# Si number density = 22.389207 Si / 1000 Ang^3
#
#
#
# Elastic Constant Matrix: (Units=GPa)
#
#
# Indices 1 2 3 4 5 6 
#
# 1 102.2119 61.4957 14.0991 1.8319 19.9640 19.3174
# 2 61.4957 152.5506 59.0668 7.5465 9.0289 7.5719
# 3 14.0991 59.0668 49.1836 1.2786 -1.8543 -4.4071
# 4 1.8319 7.5465 1.2786 17.7479 -7.8689 4.4792
# 5 19.9640 9.0289 -1.8543 -7.8689 34.0359 12.3508
# 6 19.3174 7.5719 -4.4071 4.4792 12.3508 40.9287
#
#
#
# Elastic Compliance Matrix: (Units=1/GPa)
#
#
# Indices 1 2 3 4 5 6 
#
# 1 0.015338 -0.006958 0.003414 -0.000420 -0.005673 -0.003826
# 2 -0.006958 0.016946 -0.018323 -0.006318 -0.002764 -0.000298
# 3 0.003414 -0.018323 0.041774 0.005540 0.004893 0.004194
# 4 -0.000420 -0.006318 0.005540 0.072528 0.023762 -0.013144
# 5 -0.005673 -0.002764 0.004893 0.023762 0.043568 -0.012032
# 6 -0.003826 -0.000298 0.004194 -0.013144 -0.012032 0.031815
#
#
# Mechanical properties :
#
#
# Convention : Reuss Voigt Hill
#
# Bulk Modulus (GPa) = 32.97777 63.69658 48.33717
# Shear Modulus (GPa) = 18.12836 29.82812 23.97824
#
# Velocity S-wave (km/s) = 2.84860 3.65397 3.27612
# Velocity P-wave (km/s) = 5.05773 6.80539 5.99558
#
# Compressibility (1/GPa) = 0.03032346
#
# Stress axis : x y z
#
# Youngs Moduli (GPa) = 65.19772 59.01216 23.93820
#
# Poissons Ratio (x) = 0.41063 -0.08172
# Poissons Ratio (y) = 0.45367 0.43861
# Poissons Ratio (z) = -0.22258 1.08127
#
# Static dielectric constant tensor:
#      x y z
#    x 1.819680 0.060730 0.007920 
#    y 0.060730 1.854240 -0.020180 
#    z 0.007920 -0.020180 1.870820 
# 
# From -- ./inp_files/155223.got.cif
#   From: 2010.05.17/outbox.cif.g08.bks.cpg/sg2_78_cif.got.tgz:155223.got - 2010.06.03 11:33:40.
