data_PCOD9044309
_publ_section_title
;
Structure prediction by ZEFSAII (Michael W. Deem and Ramdas Pophale) SiO2 
 PCOD9044309
Probable space group: P -1
;
_chemical_formula_sum "Si O2"
_cell_formula_units_Z 14
_cell_length_a 5.425206
_cell_length_b 12.377030
_cell_length_c 12.825104
_cell_angle_alpha 44.889174
_cell_angle_beta 104.939383
_cell_angle_gamma 111.099491
_cell_volume 567.015072
_symmetry_space_group_name_H-M "P -1"
_symmetry_group_IT_number 2
_symmetry_cell_setting 'triclinic'
loop_
_space_group_symop_operation_xyz
x,y,z
-x,-y,-z
loop_
_atom_site_type_symbol
_atom_site_label
_atom_site_fract_x
_atom_site_fract_y
_atom_site_fract_z
Si Si1 0.396533 0.354748 0.895538
Si Si2 0.740006 0.374916 0.595574
Si Si3 0.779010 0.465984 0.088848
Si Si4 0.945154 0.851135 0.169303
Si Si5 0.678353 0.607973 0.612409
Si Si6 0.439889 0.867388 0.761424
Si Si7 0.031706 0.068079 0.644470
O O1 0.164960 0.413703 0.890034
O O2 0.277767 0.276965 0.827885
O O3 0.614111 0.515816 0.776546
O O4 0.495939 0.227214 0.062941
O O5 0.675803 0.474704 0.616407
O O6 0.562446 0.331676 0.503047
O O7 0.000000 0.500000 0.500000
O O8 0.799852 0.216471 0.751039
O O9 0.695791 0.279146 0.228466
O O10 0.500000 0.500000 0.000000
O O11 0.000000 0.500000 0.000000
O O12 0.885437 0.886183 0.257269
O O13 0.000000 0.000000 0.000000
O O14 0.916692 0.764434 0.524675
O O15 0.226017 0.965624 0.693633
O O16 0.724385 0.969413 0.681631
#
# Coordination Sequence:
#
# PCOD9044309 Si02
#       7
#     2   2   2   2   2   2   2
#     4  11  24  43  69 104 127 186 239 281 334 423
#     4  11  21  42  60  91 147 192 223 271 340 427
#     4  10  23  46  72  97 135 180 236 290 340 398
#     4  12  24  38  68 104 140 173 230 284 349 409
#     4  11  24  40  65  98 138 191 231 272 348 420
#     4  11  25  45  70  98 139 182 234 286 347 394
#     4  12  25  44  66 104 144 184 212 292 357 406
#
# _framework density 24.6907
#
# number of rings (size 3 to 8) (size 9 to 14) (size 15 to 20)
#    0.000    0.857    4.286    3.429    2.000    1.714 
#    0.000    1.429    0.000    0.000    0.000    0.000 
#    0.000    0.000    0.000    0.000    0.000    0.000 
#
# Total GULP energy -78278.381718 kJ/mol
# GULP energy per Si atom -5591.312980 kJ/mol
# Density = 2.463450 g / cm^3
# Si number density = 24.690700 Si / 1000 Ang^3
#
#
#
# Elastic Constant Matrix: (Units=GPa)
#
#
# Indices 1 2 3 4 5 6 
#
# 1 137.1062 39.6501 67.1384 -18.2410 -22.7984 -3.8275
# 2 39.6501 73.9841 21.8183 -25.4260 0.1487 -2.4103
# 3 67.1384 21.8183 162.4012 -17.5185 -19.3870 7.9236
# 4 -18.2410 -25.4260 -17.5185 38.3526 5.5308 9.9168
# 5 -22.7984 0.1487 -19.3870 5.5308 52.9080 -6.1817
# 6 -3.8275 -2.4103 7.9236 9.9168 -6.1817 43.4173
#
#
#
# Elastic Compliance Matrix: (Units=1/GPa)
#
#
# Indices 1 2 3 4 5 6 
#
# 1 0.011148 -0.005132 -0.003660 -0.000867 0.003814 0.002107
# 2 -0.005132 0.020358 0.000425 0.012512 -0.003747 -0.002791
# 3 -0.003660 0.000425 0.008119 0.002717 0.000846 -0.002281
# 4 -0.000867 0.012512 0.002717 0.038237 -0.004491 -0.009251
# 5 0.003814 -0.003747 0.000846 -0.004491 0.021814 0.004105
# 6 0.002107 -0.002791 -0.002281 -0.009251 0.004105 0.026177
#
#
# Mechanical properties :
#
#
# Convention : Reuss Voigt Hill
#
# Bulk Modulus (GPa) = 43.68590 70.07834 56.88212
# Shear Modulus (GPa) = 33.28541 43.26123 38.27332
#
# Velocity S-wave (km/s) = 3.67562 4.19038 3.94142
# Velocity P-wave (km/s) = 5.97874 7.20115 6.61822
#
# Compressibility (1/GPa) = 0.02289068
#
# Stress axis : x y z
#
# Youngs Moduli (GPa) = 89.70519 49.12121 123.16737
#
# Poissons Ratio (x) = 0.25208 0.45081
# Poissons Ratio (y) = 0.46035 -0.05235
# Poissons Ratio (z) = 0.32833 -0.02088
#
# Static dielectric constant tensor:
#      x y z
#    x 2.102350 0.079390 0.051610 
#    y 0.079390 2.053500 0.019740 
#    z 0.051610 0.019740 1.965690 
# 
# From -- ./inp_files/482552.got.cif
#   From: 2010.05.17/outbox.cif.g08.bks.cpg/sg2_242_cif.got.tgz:482552.got - 2010.06.03 11:33:40.
