data_PCOD9044383
_publ_section_title
;
Structure prediction by ZEFSAII (Michael W. Deem and Ramdas Pophale) SiO2 
 PCOD9044383
Probable space group: P -1
;
_chemical_formula_sum "Si O2"
_cell_formula_units_Z 15
_cell_length_a 7.958631
_cell_length_b 16.316771
_cell_length_c 12.811306
_cell_angle_alpha 26.419046
_cell_angle_beta 50.972443
_cell_angle_gamma 58.766541
_cell_volume 570.051380
_symmetry_space_group_name_H-M "P -1"
_symmetry_group_IT_number 2
_symmetry_cell_setting 'triclinic'
loop_
_space_group_symop_operation_xyz
x,y,z
-x,-y,-z
loop_
_atom_site_type_symbol
_atom_site_label
_atom_site_fract_x
_atom_site_fract_y
_atom_site_fract_z
Si Si1 0.236166 0.285713 0.271173
Si Si2 0.598061 0.615692 0.121790
Si Si3 0.488168 0.227210 0.535624
Si Si4 0.856051 0.668707 0.161599
Si Si5 0.248189 0.861981 0.049335
Si Si6 0.302840 0.700547 0.846590
Si Si7 0.788003 0.073527 0.767308
Si Si8 0.000000 0.500000 0.500000
O O1 0.476842 0.227779 0.259133
O O2 0.027787 0.153409 0.540677
O O3 0.229598 0.332009 0.097843
O O4 0.257237 0.475361 0.114366
O O5 0.439241 0.435880 0.344612
O O6 0.717063 0.570602 0.231895
O O7 0.462406 0.780745 0.014233
O O8 0.648119 0.240220 0.358864
O O9 0.618738 0.153155 0.664701
O O10 0.281555 0.079245 0.757391
O O11 0.090240 0.750343 0.928387
O O12 0.752824 0.849922 0.030231
O O13 0.882817 0.519918 0.409457
O O14 0.233811 0.864982 0.175820
O O15 0.059783 0.728051 0.220036
#
# Coordination Sequence:
#
# PCOD9044383 Si02
#       8
#     2   2   2   2   2   2   2   1
#     4  10  23  46  73 110 144 196 245 306 360 445
#     4  11  25  48  82 105 151 197 248 300 372 423
#     4  11  25  46  78 112 146 194 249 306 359 445
#     4  12  27  47  75 109 148 199 245 311 362 444
#     4  12  28  50  72 111 149 195 245 305 363 449
#     4  10  23  46  76 108 150 190 246 304 374 425
#     4  12  27  45  75 110 152 190 254 299 368 437
#     4  12  30  48  70 102 150 192 242 294 382 428
#
# _framework density 26.313417000000001
#
# number of rings (size 3 to 8) (size 9 to 14) (size 15 to 20)
#    0.000    0.800    1.333    4.400    5.600    7.467 
#    0.000    0.000    0.000    0.000    0.000    0.000 
#    0.000    0.000    0.000    0.000    0.000    0.000 
#
# Total GULP energy -83951.876598 kJ/mol
# GULP energy per Si atom -5596.791773 kJ/mol
# Density = 2.625353 g / cm^3
# Si number density = 26.313417 Si / 1000 Ang^3
#
#
#
# Elastic Constant Matrix: (Units=GPa)
#
#
# Indices 1 2 3 4 5 6 
#
# 1 78.6841 19.4320 14.5689 -0.7531 -1.6314 22.3485
# 2 19.4320 126.8376 44.9519 -3.4924 -1.0037 11.1783
# 3 14.5689 44.9519 123.8562 -9.3484 -21.9306 13.3776
# 4 -0.7531 -3.4924 -9.3484 49.4378 9.0760 1.1003
# 5 -1.6314 -1.0037 -21.9306 9.0760 50.2544 7.9984
# 6 22.3485 11.1783 13.3776 1.1003 7.9984 33.4673
#
#
#
# Elastic Compliance Matrix: (Units=1/GPa)
#
#
# Indices 1 2 3 4 5 6 
#
# 1 0.016217 -0.001596 0.000274 -0.000003 0.002361 -0.010970
# 2 -0.001596 0.009359 -0.003381 0.000249 -0.001321 -0.000401
# 3 0.000274 -0.003381 0.010762 0.000948 0.005203 -0.004630
# 4 -0.000003 0.000249 0.000948 0.021043 -0.003325 -0.000357
# 5 0.002361 -0.001321 0.005203 -0.003325 0.024236 -0.008898
# 6 -0.010970 -0.000401 -0.004630 -0.000357 -0.008898 0.041328
#
#
# Mechanical properties :
#
#
# Convention : Reuss Voigt Hill
#
# Bulk Modulus (GPa) = 37.13039 54.14262 45.63651
# Shear Modulus (GPa) = 35.37886 43.32691 39.35288
#
# Velocity S-wave (km/s) = 3.67074 4.06220 3.87142
# Velocity P-wave (km/s) = 5.66633 6.52860 6.11269
#
# Compressibility (1/GPa) = 0.02693212
#
# Stress axis : x y z
#
# Youngs Moduli (GPa) = 61.66295 106.85451 92.92307
#
# Poissons Ratio (x) = 0.17058 -0.02550
# Poissons Ratio (y) = 0.09844 0.31414
# Poissons Ratio (z) = -0.01692 0.36124
#
# Static dielectric constant tensor:
#      x y z
#    x 2.070560 -0.081210 -0.079190 
#    y -0.081210 2.043590 0.050400 
#    z -0.079190 0.050400 1.954720 
# 
# From -- ./inp_files/398043.got.cif
#   From: 2010.05.17/outbox.cif.g08.bks.cpg/sg2_200_cif.got.tgz:398043.got - 2010.06.03 11:33:40.
