data_PCOD9044630
_publ_section_title
;
Structure prediction by ZEFSAII (Michael W. Deem and Ramdas Pophale) SiO2 
 PCOD9044630
Probable space group: P -1
;
_chemical_formula_sum "Si O2"
_cell_formula_units_Z 16
_cell_length_a 20.735544
_cell_length_b 18.039975
_cell_length_c 9.352672
_cell_angle_alpha 143.019734
_cell_angle_beta 144.500387
_cell_angle_gamma 20.279894
_cell_volume 693.317862
_symmetry_space_group_name_H-M "P -1"
_symmetry_group_IT_number 2
_symmetry_cell_setting 'triclinic'
loop_
_space_group_symop_operation_xyz
x,y,z
-x,-y,-z
loop_
_atom_site_type_symbol
_atom_site_label
_atom_site_fract_x
_atom_site_fract_y
_atom_site_fract_z
Si Si1 0.482995 0.420312 0.540452
Si Si2 0.356323 0.081974 0.743775
Si Si3 0.477519 0.716331 0.281611
Si Si4 0.504666 0.162355 0.987912
Si Si5 0.069003 0.054128 0.910808
Si Si6 0.964617 0.178887 0.607665
Si Si7 0.891807 0.728150 0.153134
Si Si8 0.689553 0.487139 0.036831
O O1 0.511506 0.362260 0.669058
O O2 0.540698 0.247792 0.287544
O O3 0.251418 0.643687 0.446284
O O4 0.588794 0.451557 0.748162
O O5 0.180489 0.188154 0.684998
O O6 0.454913 0.881735 0.527339
O O7 0.333298 0.225819 0.829665
O O8 0.500000 0.000000 0.000000
O O9 0.657202 0.523408 0.203843
O O10 0.278288 0.859454 0.063048
O O11 0.431519 0.288957 0.904757
O O12 0.705386 0.903427 0.977164
O O13 0.092692 0.077301 0.825233
O O14 0.910709 0.279116 0.057875
O O15 0.988562 0.988063 0.650085
O O16 0.972795 0.287805 0.687753
O O17 0.000000 0.500000 0.000000
#
# Coordination Sequence:
#
# PCOD9044630 Si02
#       8
#     2   2   2   2   2   2   2   2
#     4  12  23  45  75 104 147 191 237 294 362 432
#     4  10  23  47  69  96 140 189 243 297 348 429
#     4  12  26  47  69 110 151 184 242 308 355 426
#     4  11  23  46  73  99 141 192 246 288 354 442
#     4  11  26  45  71 111 152 188 241 295 367 430
#     4  11  24  44  73 108 150 191 242 295 353 451
#     4  11  23  39  72 108 133 183 247 301 349 412
#     4  12  26  44  75 107 150 194 227 299 379 418
#
# _framework density 23.077438999999998
#
# number of rings (size 3 to 8) (size 9 to 14) (size 15 to 20)
#    0.000    0.750    5.000    3.000    3.500    2.000 
#    0.000    0.625    0.000    0.000    0.000    0.000 
#    0.000    0.000    0.000    0.000    0.000    0.000 
#
# Total GULP energy -89498.522930 kJ/mol
# GULP energy per Si atom -5593.657683 kJ/mol
# Density = 2.302491 g / cm^3
# Si number density = 23.077439 Si / 1000 Ang^3
#
#
#
# Elastic Constant Matrix: (Units=GPa)
#
#
# Indices 1 2 3 4 5 6 
#
# 1 111.2524 8.7800 21.6318 8.1536 20.0795 21.9085
# 2 8.7800 89.2918 7.5975 10.0016 -8.1716 10.9077
# 3 21.6318 7.5975 69.7238 14.5630 -5.7958 3.1820
# 4 8.1536 10.0016 14.5630 40.6773 10.0576 -4.3592
# 5 20.0795 -8.1716 -5.7958 10.0576 36.0985 6.4035
# 6 21.9085 10.9077 3.1820 -4.3592 6.4035 41.6281
#
#
#
# Elastic Compliance Matrix: (Units=1/GPa)
#
#
# Indices 1 2 3 4 5 6 
#
# 1 0.011965 -0.000943 -0.004066 0.000482 -0.006834 -0.004637
# 2 -0.000943 0.012860 0.000624 -0.005074 0.005718 -0.004332
# 3 -0.004066 0.000624 0.017864 -0.007783 0.007686 -0.001386
# 4 0.000482 -0.005074 -0.007783 0.032486 -0.012971 0.007068
# 5 -0.006834 0.005718 0.007686 -0.012971 0.038674 -0.005797
# 6 -0.004637 -0.004332 -0.001386 0.007068 -0.005797 0.029336
#
#
# Mechanical properties :
#
#
# Convention : Reuss Voigt Hill
#
# Bulk Modulus (GPa) = 29.48357 38.47630 33.97994
# Shear Modulus (GPa) = 30.62597 39.16467 34.89532
#
# Velocity S-wave (km/s) = 3.64688 4.12405 3.89279
# Velocity P-wave (km/s) = 5.52600 6.27582 5.91281
#
# Compressibility (1/GPa) = 0.03391719
#
# Stress axis : x y z
#
# Youngs Moduli (GPa) = 83.57751 77.76197 55.97991
#
# Poissons Ratio (x) = 0.07336 0.22764
# Poissons Ratio (y) = 0.07885 -0.03495
# Poissons Ratio (z) = 0.33986 -0.04855
#
# Static dielectric constant tensor:
#      x y z
#    x 1.907800 -0.032200 0.008140 
#    y -0.032200 1.897280 -0.001510 
#    z 0.008140 -0.001510 1.868970 
# 
# From -- ./inp_files/272838.got.cif
#   From: 2010.05.17/outbox.cif.g08.bks.cpg/sg2_137_cif.got.tgz:272838.got - 2010.06.03 11:33:40.
