data_PCOD9044636
_publ_section_title
;
Structure prediction by ZEFSAII (Michael W. Deem and Ramdas Pophale) SiO2 
 PCOD9044636
Probable space group: P -1
;
_chemical_formula_sum "Si O2"
_cell_formula_units_Z 16
_cell_length_a 6.955491
_cell_length_b 18.942818
_cell_length_c 8.563850
_cell_angle_alpha 95.859061
_cell_angle_beta 88.891396
_cell_angle_gamma 138.540851
_cell_volume 740.354309
_symmetry_space_group_name_H-M "P -1"
_symmetry_group_IT_number 2
_symmetry_cell_setting 'triclinic'
loop_
_space_group_symop_operation_xyz
x,y,z
-x,-y,-z
loop_
_atom_site_type_symbol
_atom_site_label
_atom_site_fract_x
_atom_site_fract_y
_atom_site_fract_z
Si Si1 0.244633 0.726851 0.430159
Si Si2 0.815899 0.393381 0.299170
Si Si3 0.244677 0.924638 0.115463
Si Si4 0.223027 0.417234 0.098648
Si Si5 0.651321 0.506011 0.354812
Si Si6 0.659110 0.206267 0.876480
Si Si7 0.765816 0.942550 0.630281
Si Si8 0.269164 0.168356 0.108259
O O1 0.217495 0.661665 0.554404
O O2 0.404761 0.763785 0.268615
O O3 0.440447 0.840150 0.540344
O O4 0.911277 0.635154 0.348356
O O5 0.801254 0.471524 0.355106
O O6 0.540261 0.293137 0.177566
O O7 0.099559 0.450895 0.204819
O O8 0.286123 0.860061 0.182713
O O9 0.234092 0.984291 0.256531
O O10 0.960349 0.852299 0.994449
O O11 0.500000 0.000000 0.000000
O O12 0.374292 0.413308 0.228409
O O13 0.500000 0.500000 0.000000
O O14 0.947297 0.310860 0.988448
O O15 0.500000 0.500000 0.500000
O O16 0.396228 0.142158 0.987477
O O17 0.830117 0.898004 0.746352
O O18 0.000000 0.000000 0.500000
#
# Coordination Sequence:
#
# PCOD9044636 Si02
#       8
#     2   2   2   2   2   2   2   2
#     4  11  24  44  66 100 137 178 224 282 335 407
#     4  10  24  45  70  98 138 180 221 276 348 408
#     4  12  25  43  75  99 130 184 230 282 345 398
#     4  11  23  44  67 103 136 177 224 278 337 413
#     4  12  24  44  71  99 141 177 224 281 339 412
#     4  11  24  46  69 102 138 174 231 278 336 416
#     4  11  25  46  68  99 139 179 229 286 341 399
#     4  10  23  47  69  99 139 174 227 283 339 410
#
# _framework density 21.611274000000002
#
# number of rings (size 3 to 8) (size 9 to 14) (size 15 to 20)
#    0.000    1.000    3.750    2.250    1.750    2.000 
#   11.250    0.000    0.000    0.000    0.000    0.000 
#    0.000    0.000    0.000    0.000    0.000    0.000 
#
# Total GULP energy -89119.370744 kJ/mol
# GULP energy per Si atom -5569.960671 kJ/mol
# Density = 2.156209 g / cm^3
# Si number density = 21.611274 Si / 1000 Ang^3
#
#
#
# Elastic Constant Matrix: (Units=GPa)
#
#
# Indices 1 2 3 4 5 6 
#
# 1 96.1938 30.4738 41.7756 1.8092 -20.8368 8.1424
# 2 30.4738 68.7633 39.3916 7.4061 -20.6043 12.0779
# 3 41.7756 39.3916 130.6616 -5.6397 -13.6496 4.2633
# 4 1.8092 7.4061 -5.6397 43.5461 15.2465 -1.1027
# 5 -20.8368 -20.6043 -13.6496 15.2465 38.7343 14.0222
# 6 8.1424 12.0779 4.2633 -1.1027 14.0222 24.7728
#
#
#
# Elastic Compliance Matrix: (Units=1/GPa)
#
#
# Indices 1 2 3 4 5 6 
#
# 1 0.018074 0.008869 -0.005407 -0.012934 0.026681 -0.025012
# 2 0.008869 0.052201 -0.011027 -0.035596 0.066431 -0.065654
# 3 -0.005407 -0.011027 0.011326 0.008329 -0.012678 0.012752
# 4 -0.012934 -0.035596 0.008329 0.055503 -0.066661 0.060376
# 5 0.026681 0.066431 -0.012678 -0.066661 0.141445 -0.122006
# 6 -0.025012 -0.065654 0.012752 0.060376 -0.122006 0.150149
#
#
# Mechanical properties :
#
#
# Convention : Reuss Voigt Hill
#
# Bulk Modulus (GPa) = 15.04476 57.65564 36.35020
# Shear Modulus (GPa) = 10.72993 33.67583 22.20288
#
# Velocity S-wave (km/s) = 2.23064 3.95175 3.20875
# Velocity P-wave (km/s) = 3.68931 6.89625 5.53033
#
# Compressibility (1/GPa) = 0.06646834
#
# Stress axis : x y z
#
# Youngs Moduli (GPa) = 55.32722 19.15689 88.29441
#
# Poissons Ratio (x) = -0.16990 0.47745
# Poissons Ratio (y) = -0.49068 0.97365
# Poissons Ratio (z) = 0.29918 0.21125
#
# Static dielectric constant tensor:
#      x y z
#    x 1.815980 0.006940 0.035270 
#    y 0.006940 1.840850 -0.054630 
#    z 0.035270 -0.054630 1.791410 
# 
# From -- ./inp_files/139137.got.cif
#   From: 2010.05.17/outbox.cif.g08.bks.cpg/sg2_70_cif.got.tgz:139137.got - 2010.06.03 11:33:40.
