data_PCOD9044986
_publ_section_title
;
Structure prediction by ZEFSAII (Michael W. Deem and Ramdas Pophale) SiO2 
 PCOD9044986
Probable space group: P -1
;
_chemical_formula_sum "Si O2"
_cell_formula_units_Z 16
_cell_length_a 10.854553
_cell_length_b 26.099379
_cell_length_c 5.524782
_cell_angle_alpha 125.543469
_cell_angle_beta 52.142964
_cell_angle_gamma 148.622443
_cell_volume 637.131487
_symmetry_space_group_name_H-M "P -1"
_symmetry_group_IT_number 2
_symmetry_cell_setting 'triclinic'
loop_
_space_group_symop_operation_xyz
x,y,z
-x,-y,-z
loop_
_atom_site_type_symbol
_atom_site_label
_atom_site_fract_x
_atom_site_fract_y
_atom_site_fract_z
Si Si1 0.273534 0.468429 0.806101
Si Si2 0.991390 0.071805 0.242500
Si Si3 0.430754 0.643595 0.921078
Si Si4 0.540889 0.909634 0.100555
Si Si5 0.855740 0.200535 0.078042
Si Si6 0.738788 0.271823 0.773332
Si Si7 0.964551 0.102460 0.869589
Si Si8 0.590730 0.640238 0.214457
O O1 0.500000 0.500000 0.500000
O O2 0.244120 0.525997 0.860258
O O3 0.010964 0.353653 0.789566
O O4 0.375470 0.522528 0.093248
O O5 0.083070 0.123177 0.528459
O O6 0.109151 0.139325 0.047605
O O7 0.696180 0.993214 0.352455
O O8 0.000000 0.000000 0.000000
O O9 0.560413 0.664159 0.571386
O O10 0.317665 0.676493 0.110462
O O11 0.572616 0.679459 0.105560
O O12 0.291248 0.858825 0.153207
O O13 0.744642 0.982216 0.843027
O O14 0.462451 0.816883 0.037656
O O15 0.737581 0.221756 0.418702
O O16 0.854993 0.137758 0.070571
O O17 0.139226 0.304609 0.970701
#
# Coordination Sequence:
#
# PCOD9044986 Si02
#       8
#     2   2   2   2   2   2   2   2
#     4  10  23  48  75 107 147 192 241 303 367 438
#     4  10  23  48  71 103 146 194 238 302 370 428
#     4  10  26  49  70 106 149 188 237 306 368 430
#     4  10  27  40  75 100 147 182 254 288 364 424
#     4  12  26  44  74 108 145 199 245 302 361 435
#     4  12  25  46  75 110 147 194 245 304 365 437
#     4  10  25  45  71 101 147 190 243 300 358 432
#     4  10  26  47  74 103 148 188 245 296 365 432
#
# _framework density 25.112558
#
# number of rings (size 3 to 8) (size 9 to 14) (size 15 to 20)
#    1.500    0.000    1.250    1.875    7.000    5.000 
#    0.000    0.000    0.000    0.000    0.000    0.000 
#    0.000    0.000    0.000    0.000    0.000    0.000 
#
# Total GULP energy -89374.388923 kJ/mol
# GULP energy per Si atom -5585.899308 kJ/mol
# Density = 2.505540 g / cm^3
# Si number density = 25.112558 Si / 1000 Ang^3
#
#
#
# Elastic Constant Matrix: (Units=GPa)
#
#
# Indices 1 2 3 4 5 6 
#
# 1 115.5516 28.1542 49.8295 10.3635 4.8513 -16.6204
# 2 28.1542 109.1140 28.2004 9.1224 9.8388 6.4597
# 3 49.8295 28.2004 141.4837 13.4473 18.4011 -8.2628
# 4 10.3635 9.1224 13.4473 31.2675 -3.2936 1.4695
# 5 4.8513 9.8388 18.4011 -3.2936 46.9861 8.7772
# 6 -16.6204 6.4597 -8.2628 1.4695 8.7772 58.7383
#
#
#
# Elastic Compliance Matrix: (Units=1/GPa)
#
#
# Indices 1 2 3 4 5 6 
#
# 1 0.011114 -0.002063 -0.003122 -0.001900 -0.000188 0.003008
# 2 -0.002063 0.010355 -0.001069 -0.001946 -0.001371 -0.001619
# 3 -0.003122 -0.001069 0.009185 -0.003022 -0.003472 0.001120
# 4 -0.001900 -0.001946 -0.003022 0.035082 0.004681 -0.002326
# 5 -0.000188 -0.001371 -0.003472 0.004681 0.024043 -0.004101
# 6 0.003008 -0.001619 0.001120 -0.002326 -0.004101 0.018882
#
#
# Mechanical properties :
#
#
# Convention : Reuss Voigt Hill
#
# Bulk Modulus (GPa) = 55.10848 64.27971 59.69410
# Shear Modulus (GPa) = 39.30226 44.72939 42.01583
#
# Velocity S-wave (km/s) = 3.96036 4.22495 4.09479
# Velocity P-wave (km/s) = 6.55017 7.03225 6.79549
#
# Compressibility (1/GPa) = 0.01814603
#
# Stress axis : x y z
#
# Youngs Moduli (GPa) = 89.97423 96.56758 108.87441
#
# Poissons Ratio (x) = 0.19922 0.33996
# Poissons Ratio (y) = 0.18562 0.11636
# Poissons Ratio (z) = 0.28094 0.10321
#
# Static dielectric constant tensor:
#      x y z
#    x 2.027190 -0.005980 0.024100 
#    y -0.005980 2.034000 0.010520 
#    z 0.024100 0.010520 1.975620 
# 
# From -- ./inp_files/85121.got.cif
#   From: 2010.05.17/outbox.cif.g08.bks.cpg/sg2_43_cif.got.tgz:85121.got - 2010.06.03 11:33:40.
