data_PCOD9044660
_publ_section_title
;
Structure prediction by ZEFSAII (Michael W. Deem and Ramdas Pophale) SiO2 
 PCOD9044660
Probable space group: P -1
;
_chemical_formula_sum "Si O2"
_cell_formula_units_Z 10
_cell_length_a 7.455775
_cell_length_b 11.739012
_cell_length_c 8.447351
_cell_angle_alpha 141.467498
_cell_angle_beta 97.502757
_cell_angle_gamma 105.511839
_cell_volume 365.859355
_symmetry_space_group_name_H-M "P -1"
_symmetry_group_IT_number 2
_symmetry_cell_setting 'triclinic'
loop_
_space_group_symop_operation_xyz
x,y,z
-x,-y,-z
loop_
_atom_site_type_symbol
_atom_site_label
_atom_site_fract_x
_atom_site_fract_y
_atom_site_fract_z
Si Si1 0.696780 0.764713 0.275037
Si Si2 0.538189 0.848207 0.657527
Si Si3 0.343804 0.704796 0.943967
Si Si4 0.804697 0.740944 0.743777
Si Si5 0.079601 0.384199 0.051746
O O1 0.694301 0.874630 0.556133
O O2 0.500000 0.500000 0.000000
O O3 0.582338 0.810553 0.170683
O O4 0.901767 0.758285 0.237925
O O5 0.589805 0.741812 0.691803
O O6 0.281019 0.656090 0.365806
O O7 0.615510 0.103036 0.963491
O O8 0.233755 0.456958 0.588511
O O9 0.159123 0.664010 0.005413
O O10 0.857233 0.692656 0.867731
O O11 0.000000 0.000000 0.000000
#
# Coordination Sequence:
#
# PCOD9044660 Si02
#       5
#     2   2   2   2   2
#     4  10  23  47  70 105 141 178 234 290 337 419
#     4  11  25  47  72 103 144 180 235 287 341 420
#     4  12  25  46  74 102 142 181 238 283 344 417
#     4  12  25  48  70 104 145 180 234 292 337 418
#     4  11  25  45  75 102 140 191 223 284 362 395
#
# _framework density 27.332905
#
# number of rings (size 3 to 8) (size 9 to 14) (size 15 to 20)
#    0.000    0.800    6.000    1.800    0.000    6.400 
#    0.000    0.000    0.000    0.000    0.000    0.000 
#    0.000    0.000    0.000    0.000    0.000    0.000 
#
# Total GULP energy -56055.781642 kJ/mol
# GULP energy per Si atom -5605.578164 kJ/mol
# Density = 2.727069 g / cm^3
# Si number density = 27.332905 Si / 1000 Ang^3
#
#
#
# Elastic Constant Matrix: (Units=GPa)
#
#
# Indices 1 2 3 4 5 6 
#
# 1 160.7617 22.1605 53.5569 3.5057 -22.0910 18.1951
# 2 22.1605 108.9632 36.2185 8.5282 -11.3882 -26.3321
# 3 53.5569 36.2185 176.7829 38.3360 -21.7464 4.8594
# 4 3.5057 8.5282 38.3360 50.8464 -0.9490 -2.1734
# 5 -22.0910 -11.3882 -21.7464 -0.9490 56.4396 -1.0865
# 6 18.1951 -26.3321 4.8594 -2.1734 -1.0865 54.4111
#
#
#
# Elastic Compliance Matrix: (Units=1/GPa)
#
#
# Indices 1 2 3 4 5 6 
#
# 1 0.007657 -0.001543 -0.001920 0.001084 0.001905 -0.003054
# 2 -0.001543 0.011829 -0.001972 -0.000095 0.001146 0.006436
# 3 -0.001920 -0.001972 0.008140 -0.005692 0.001868 -0.001229
# 4 0.001084 -0.000095 -0.005692 0.023918 -0.001366 0.001028
# 5 0.001905 0.001146 0.001868 -0.001366 0.019393 0.000083
# 6 -0.003054 0.006436 -0.001229 0.001028 0.000083 0.022667
#
#
# Mechanical properties :
#
#
# Convention : Reuss Voigt Hill
#
# Bulk Modulus (GPa) = 59.67732 74.48664 67.08198
# Shear Modulus (GPa) = 45.43053 54.64422 50.03738
#
# Velocity S-wave (km/s) = 4.08133 4.47610 4.28327
# Velocity P-wave (km/s) = 6.64008 7.35016 7.00412
#
# Compressibility (1/GPa) = 0.01675678
#
# Stress axis : x y z
#
# Youngs Moduli (GPa) = 130.60672 84.53919 122.84783
#
# Poissons Ratio (x) = 0.13041 0.23589
# Poissons Ratio (y) = 0.20148 0.24220
# Poissons Ratio (z) = 0.25079 0.16667
#
# Static dielectric constant tensor:
#      x y z
#    x 2.205840 0.035690 0.043070 
#    y 0.035690 2.198990 -0.014140 
#    z 0.043070 -0.014140 2.141170 
# 
# From -- ./inp_files/148613.got.cif
#   From: 2010.05.17/outbox.cif.g08.bks.cpg/sg2_75_cif.got.tgz:148613.got - 2010.06.03 11:33:40.
