data_PCOD9044221
_publ_section_title
;
Structure prediction by ZEFSAII (Michael W. Deem and Ramdas Pophale) SiO2 
 PCOD9044221
Probable space group: P -1
;
_chemical_formula_sum "Si O2"
_cell_formula_units_Z 13
_cell_length_a 10.306805
_cell_length_b 18.641791
_cell_length_c 6.371346
_cell_angle_alpha 66.891300
_cell_angle_beta 66.965214
_cell_angle_gamma 27.610675
_cell_volume 519.107727
_symmetry_space_group_name_H-M "P -1"
_symmetry_group_IT_number 2
_symmetry_cell_setting 'triclinic'
loop_
_space_group_symop_operation_xyz
x,y,z
-x,-y,-z
loop_
_atom_site_type_symbol
_atom_site_label
_atom_site_fract_x
_atom_site_fract_y
_atom_site_fract_z
Si Si1 0.731949 0.111464 0.686320
Si Si2 0.232097 0.461177 0.165679
Si Si3 0.500000 0.000000 0.500000
Si Si4 0.351391 0.636130 0.796845
Si Si5 0.892904 0.884964 0.064416
Si Si6 0.435897 0.644578 0.288139
Si Si7 0.755623 0.716813 0.504041
O O1 0.621332 0.241650 0.717980
O O2 0.501864 0.181884 0.602402
O O3 0.000000 0.000000 0.500000
O O4 0.812241 0.012214 0.930163
O O5 0.535136 0.334999 0.223769
O O6 0.182869 0.392052 0.275649
O O7 0.014644 0.602581 0.306895
O O8 0.284074 0.479339 0.889503
O O9 0.359451 0.040884 0.763478
O O10 0.335525 0.165467 0.439306
O O11 0.442780 0.589367 0.555121
O O12 0.500000 0.500000 0.000000
O O13 0.020300 0.792634 0.870007
O O14 0.155585 0.754960 0.209827
#
# Coordination Sequence:
#
# PCOD9044221 Si02
#       7
#     2   2   1   2   2   2   2
#     4  12  21  43  74 104 143 188 238 296 361 426
#     4  10  23  46  71 107 142 189 242 297 358 432
#     4  12  26  46  64 106 148 192 234 294 364 428
#     4  11  23  45  70 103 142 184 243 303 354 426
#     4  11  25  42  68 104 143 187 239 290 362 432
#     4  11  22  44  75 103 136 190 239 301 360 421
#     4  11  24  45  71 104 152 189 238 299 357 430
#
# _framework density 25.042968999999999
#
# number of rings (size 3 to 8) (size 9 to 14) (size 15 to 20)
#    0.000    0.923    3.077    4.154    0.000    3.692 
#    8.308    0.000    0.000    0.000    0.000    0.000 
#    0.000    0.000    0.000    0.000    0.000    0.000 
#
# Total GULP energy -72476.348794 kJ/mol
# GULP energy per Si atom -5575.103753 kJ/mol
# Density = 2.498597 g / cm^3
# Si number density = 25.042969 Si / 1000 Ang^3
#
#
#
# Elastic Constant Matrix: (Units=GPa)
#
#
# Indices 1 2 3 4 5 6 
#
# 1 33.5820 23.3072 15.7903 8.6784 -3.2103 11.9498
# 2 23.3072 110.3159 39.1082 30.6546 -7.0886 25.1018
# 3 15.7903 39.1082 187.1542 25.1627 -29.6579 3.5873
# 4 8.6784 30.6546 25.1627 60.9184 -7.0104 0.3339
# 5 -3.2103 -7.0886 -29.6579 -7.0104 27.8129 -3.3255
# 6 11.9498 25.1018 3.5873 0.3339 -3.3255 53.0043
#
#
#
# Elastic Compliance Matrix: (Units=1/GPa)
#
#
# Indices 1 2 3 4 5 6 
#
# 1 0.036758 -0.005414 -0.001617 -0.001812 0.000012 -0.005602
# 2 -0.005414 0.013370 -0.001672 -0.005347 -0.000949 -0.005024
# 3 -0.001617 -0.001672 0.007017 -0.001058 0.006736 0.001111
# 4 -0.001812 -0.005347 -0.001058 0.020099 0.002732 0.003057
# 5 0.000012 -0.000949 0.006736 0.002732 0.043912 0.002729
# 6 -0.005602 -0.005024 0.001111 0.003057 0.002729 0.022585
#
#
# Mechanical properties :
#
#
# Convention : Reuss Voigt Hill
#
# Bulk Modulus (GPa) = 25.16408 54.16262 39.66335
# Shear Modulus (GPa) = 28.67069 45.20356 36.93712
#
# Velocity S-wave (km/s) = 3.38725 4.25319 3.84467
# Velocity P-wave (km/s) = 5.03668 6.76715 5.96500
#
# Compressibility (1/GPa) = 0.03973919
#
# Stress axis : x y z
#
# Youngs Moduli (GPa) = 27.20465 74.79680 142.50228
#
# Poissons Ratio (x) = 0.40495 0.23043
# Poissons Ratio (y) = 0.14728 0.23828
# Poissons Ratio (z) = 0.04399 0.12507
#
# Static dielectric constant tensor:
#      x y z
#    x 2.037100 -0.019720 0.010090 
#    y -0.019720 2.018860 0.021640 
#    z 0.010090 0.021640 2.042490 
# 
# From -- ./inp_files/82026.got.cif
#   From: 2010.05.17/outbox.cif.g08.bks.cpg/sg2_42_cif.got.tgz:82026.got - 2010.06.03 11:33:40.
