data_PCOD9044901
_publ_section_title
;
Structure prediction by ZEFSAII (Michael W. Deem and Ramdas Pophale) SiO2 
 PCOD9044901
Probable space group: P -1
;
_chemical_formula_sum "Si O2"
_cell_formula_units_Z 14
_cell_length_a 11.843121
_cell_length_b 7.916402
_cell_length_c 7.009687
_cell_angle_alpha 65.062878
_cell_angle_beta 126.555495
_cell_angle_gamma 113.072968
_cell_volume 469.666927
_symmetry_space_group_name_H-M "P -1"
_symmetry_group_IT_number 2
_symmetry_cell_setting 'triclinic'
loop_
_space_group_symop_operation_xyz
x,y,z
-x,-y,-z
loop_
_atom_site_type_symbol
_atom_site_label
_atom_site_fract_x
_atom_site_fract_y
_atom_site_fract_z
Si Si1 0.000000 0.500000 0.000000
Si Si2 0.148233 0.199583 0.181604
Si Si3 0.000000 0.000000 0.500000
Si Si4 0.451517 0.273996 0.544131
Si Si5 0.676766 0.339803 0.233337
Si Si6 0.963751 0.269646 0.603479
Si Si7 0.353641 0.233518 0.900920
Si Si8 0.258382 0.808282 0.055035
O O1 0.141239 0.403974 0.163400
O O2 0.108951 0.705316 0.037604
O O3 0.315482 0.203553 0.306745
O O4 0.088365 0.045067 0.357104
O O5 0.063514 0.206094 0.896679
O O6 0.991708 0.782633 0.540030
O O7 0.500000 0.500000 0.500000
O O8 0.389885 0.222818 0.717822
O O9 0.594385 0.194539 0.687109
O O10 0.689372 0.564726 0.185294
O O11 0.796567 0.250088 0.501720
O O12 0.511420 0.247820 0.144730
O O13 0.712478 0.286580 0.075481
O O14 0.000000 0.500000 0.500000
O O15 0.244754 0.029847 0.907352
#
# Coordination Sequence:
#
# PCOD9044901 Si02
#       8
#     1   2   1   2   2   2   2   2
#     4  12  26  48  78 122 170 218 288 358 428 508
#     4  12  28  50  82 128 172 227 292 359 440 524
#     4  12  30  54  82 124 174 232 292 360 436 526
#     4  11  24  46  81 121 169 224 281 358 437 527
#     4  10  23  47  79 124 162 222 289 354 430 529
#     4  12  29  50  85 123 179 225 289 365 438 523
#     4  10  25  46  85 118 162 227 288 348 445 517
#     4  11  24  50  83 119 168 229 284 361 438 517
#
# _framework density 29.808357999999998
#
# number of rings (size 3 to 8) (size 9 to 14) (size 15 to 20)
#    0.000    0.857    1.429    4.714   12.000    0.000 
#    0.000    2.143    0.000   14.571    0.000    0.000 
#    0.000    0.000    0.000    0.000    0.000    0.000 
#
# Total GULP energy -78116.197256 kJ/mol
# GULP energy per Si atom -5579.728375 kJ/mol
# Density = 2.974051 g / cm^3
# Si number density = 29.808358 Si / 1000 Ang^3
#
#
#
# Elastic Constant Matrix: (Units=GPa)
#
#
# Indices 1 2 3 4 5 6 
#
# 1 188.3510 67.9731 71.6745 9.9271 26.3432 -5.5884
# 2 67.9731 184.9369 30.2500 15.6936 1.3400 15.1427
# 3 71.6745 30.2500 211.7555 33.9011 15.9330 15.3208
# 4 9.9271 15.6936 33.9011 34.0570 -3.4447 10.2699
# 5 26.3432 1.3400 15.9330 -3.4447 60.2101 2.7794
# 6 -5.5884 15.1427 15.3208 10.2699 2.7794 66.0922
#
#
#
# Elastic Compliance Matrix: (Units=1/GPa)
#
#
# Indices 1 2 3 4 5 6 
#
# 1 0.007453 -0.002543 -0.002135 0.000317 -0.002703 0.001772
# 2 -0.002543 0.006585 0.000293 -0.002045 0.000841 -0.001509
# 3 -0.002135 0.000293 0.006475 -0.005827 -0.001082 -0.000798
# 4 0.000317 -0.002045 -0.005827 0.037653 0.003795 -0.004164
# 5 -0.002703 0.000841 -0.001082 0.003795 0.018347 -0.001532
# 6 0.001772 -0.001509 -0.000798 -0.004164 -0.001532 0.016522
#
#
# Mechanical properties :
#
#
# Convention : Reuss Voigt Hill
#
# Bulk Modulus (GPa) = 85.14562 102.75984 93.95273
# Shear Modulus (GPa) = 47.29519 59.74827 53.52173
#
# Velocity S-wave (km/s) = 3.98759 4.48192 4.24196
# Velocity P-wave (km/s) = 7.05886 7.83147 7.45518
#
# Compressibility (1/GPa) = 0.01174459
#
# Stress axis : x y z
#
# Youngs Moduli (GPa) = 134.16999 151.86459 154.43278
#
# Poissons Ratio (x) = 0.38613 0.32972
# Poissons Ratio (y) = 0.34114 -0.04529
# Poissons Ratio (z) = 0.28646 -0.04453
#
# Static dielectric constant tensor:
#      x y z
#    x 0.546410 1.099830 -0.676460 
#    y 1.099830 1.679520 0.329570 
#    z -0.676460 0.329570 1.869720 
# 
# From -- ./inp_files/435281.got.cif
#   From: 2010.05.17/outbox.cif.g08.bks.cpg/sg2_218_cif.got.tgz:435281.got - 2010.06.03 11:33:40.
