data_PCOD9044238
_publ_section_title
;
Structure prediction by ZEFSAII (Michael W. Deem and Ramdas Pophale) SiO2 
 PCOD9044238
Probable space group: P -1
;
_chemical_formula_sum "Si O2"
_cell_formula_units_Z 16
_cell_length_a 9.270522
_cell_length_b 11.695873
_cell_length_c 9.743279
_cell_angle_alpha 76.558913
_cell_angle_beta 111.259387
_cell_angle_gamma 128.711946
_cell_volume 768.214063
_symmetry_space_group_name_H-M "P -1"
_symmetry_group_IT_number 2
_symmetry_cell_setting 'triclinic'
loop_
_space_group_symop_operation_xyz
x,y,z
-x,-y,-z
loop_
_atom_site_type_symbol
_atom_site_label
_atom_site_fract_x
_atom_site_fract_y
_atom_site_fract_z
Si Si1 0.507836 0.317676 0.970247
Si Si2 0.052130 0.213895 0.318037
Si Si3 0.103939 0.036852 0.878033
Si Si4 0.831741 0.368331 0.576752
Si Si5 0.020712 0.794007 0.391125
Si Si6 0.657740 0.517116 0.196373
Si Si7 0.466193 0.371423 0.427275
Si Si8 0.854088 0.480225 0.841431
O O1 0.336064 0.146399 0.951802
O O2 0.377966 0.376980 0.922255
O O3 0.640475 0.375630 0.864511
O O4 0.653856 0.404096 0.124673
O O5 0.250030 0.233142 0.414168
O O6 0.103005 0.368581 0.240325
O O7 0.961135 0.179474 0.447374
O O8 0.943573 0.099303 0.190440
O O9 0.019536 0.105751 0.735377
O O10 0.000000 0.000000 0.000000
O O11 0.810330 0.219954 0.585209
O O12 0.632885 0.350745 0.500499
O O13 0.883205 0.410758 0.740442
O O14 0.000000 0.500000 0.500000
O O15 0.834283 0.629760 0.326375
O O16 0.477689 0.417108 0.261717
O O17 0.500000 0.500000 0.500000
O O18 0.000000 0.500000 0.000000
#
# Coordination Sequence:
#
# PCOD9044238 Si02
#       8
#     2   2   2   2   2   2   2   2
#     4  10  22  38  63  99 130 182 221 278 336 405
#     4  12  24  45  69 105 135 183 228 278 348 418
#     4  11  27  46  69  95 142 189 232 273 341 426
#     4  12  22  39  66 104 141 168 221 296 349 394
#     4  11  23  42  68 100 136 174 228 291 344 399
#     4  10  17  33  64  93 130 158 227 279 329 386
#     4  12  19  36  66  99 132 167 224 279 335 401
#     4  12  25  39  71 104 138 173 231 287 348 396
#
# _framework density 20.827525999999999
#
# number of rings (size 3 to 8) (size 9 to 14) (size 15 to 20)
#    0.000    0.750    6.250    1.875    7.000    0.000 
#    0.000    1.250    0.000    0.000    0.000    0.000 
#    0.000    0.000    0.000    0.000    0.000    0.000 
#
# Total GULP energy -89143.326055 kJ/mol
# GULP energy per Si atom -5571.457878 kJ/mol
# Density = 2.078012 g / cm^3
# Si number density = 20.827526 Si / 1000 Ang^3
#
#
#
# Elastic Constant Matrix: (Units=GPa)
#
#
# Indices 1 2 3 4 5 6 
#
# 1 91.5961 21.8938 31.9253 1.7422 -13.5823 0.1237
# 2 21.8938 72.2307 33.0183 15.6320 -24.7171 0.6225
# 3 31.9253 33.0183 128.7256 8.2332 -37.7520 -2.4765
# 4 1.7422 15.6320 8.2332 38.3119 -7.9639 1.4700
# 5 -13.5823 -24.7171 -37.7520 -7.9639 50.7743 4.2563
# 6 0.1237 0.6225 -2.4765 1.4700 4.2563 19.0462
#
#
#
# Elastic Compliance Matrix: (Units=1/GPa)
#
#
# Indices 1 2 3 4 5 6 
#
# 1 0.012443 -0.002807 -0.002314 0.001193 0.000469 -0.000487
# 2 -0.002807 0.019035 -0.002014 -0.005837 0.006255 -0.001813
# 3 -0.002314 -0.002014 0.010730 -0.000058 0.006365 0.000058
# 4 0.001193 -0.005837 -0.000058 0.028996 0.002197 -0.002553
# 5 0.000469 0.006255 0.006365 0.002197 0.028438 -0.005904
# 6 -0.000487 -0.001813 0.000058 -0.002553 -0.005904 0.054090
#
#
# Mechanical properties :
#
#
# Convention : Reuss Voigt Hill
#
# Bulk Modulus (GPa) = 35.79232 51.80300 43.79766
# Shear Modulus (GPa) = 28.19865 35.34081 31.76973
#
# Velocity S-wave (km/s) = 3.68355 4.12373 3.90984
# Velocity P-wave (km/s) = 5.94254 6.89927 6.43870
#
# Compressibility (1/GPa) = 0.02793896
#
# Stress axis : x y z
#
# Youngs Moduli (GPa) = 80.36957 52.53500 93.19340
#
# Poissons Ratio (x) = 0.14747 0.21564
# Poissons Ratio (y) = 0.22560 0.18765
# Poissons Ratio (z) = 0.18596 0.10578
#
# Static dielectric constant tensor:
#      x y z
#    x 1.864170 0.026170 0.090620 
#    y 0.026170 1.803080 0.034230 
#    z 0.090620 0.034230 1.850030 
# 
# From -- ./inp_files/186837.got.cif
#   From: 2010.05.17/outbox.cif.g08.bks.cpg/sg2_94_cif.got.tgz:186837.got - 2010.06.03 11:33:40.
