data_PCOD9044057
_publ_section_title
;
Structure prediction by ZEFSAII (Michael W. Deem and Ramdas Pophale) SiO2 
 PCOD9044057
Probable space group: P -1
;
_chemical_formula_sum "Si O2"
_cell_formula_units_Z 16
_cell_length_a 11.494075
_cell_length_b 6.122389
_cell_length_c 11.903565
_cell_angle_alpha 89.405924
_cell_angle_beta 78.266395
_cell_angle_gamma 60.578035
_cell_volume 710.436244
_symmetry_space_group_name_H-M "P -1"
_symmetry_group_IT_number 2
_symmetry_cell_setting 'triclinic'
loop_
_space_group_symop_operation_xyz
x,y,z
-x,-y,-z
loop_
_atom_site_type_symbol
_atom_site_label
_atom_site_fract_x
_atom_site_fract_y
_atom_site_fract_z
Si Si1 0.164868 0.429065 0.311727
Si Si2 0.795571 0.634567 0.954923
Si Si3 0.922685 0.871019 0.070976
Si Si4 0.610105 0.815404 0.391227
Si Si5 0.620443 0.111359 0.698897
Si Si6 0.129588 0.115897 0.667281
Si Si7 0.517547 0.727286 0.049116
Si Si8 0.261250 0.668528 0.485525
O O1 0.231202 0.376861 0.173577
O O2 0.206411 0.569278 0.395323
O O3 0.002530 0.609036 0.329399
O O4 0.235018 0.143768 0.343425
O O5 0.950662 0.408731 0.932580
O O6 0.810246 0.858683 0.011860
O O7 0.681189 0.598277 0.042099
O O8 0.875087 0.975369 0.205182
O O9 0.000000 0.000000 0.000000
O O10 0.518668 0.894364 0.297643
O O11 0.735332 0.863286 0.361083
O O12 0.670833 0.535641 0.428525
O O13 0.500000 0.000000 0.500000
O O14 0.594703 0.195130 0.831035
O O15 0.626230 0.289895 0.601833
O O16 0.146754 0.918705 0.568904
O O17 0.500000 0.500000 0.000000
O O18 0.500000 0.000000 0.000000
#
# Coordination Sequence:
#
# PCOD9044057 Si02
#       8
#     2   2   2   2   2   2   2   2
#     4  11  24  45  71 103 147 185 247 307 383 454
#     4  10  23  46  69 105 146 194 252 311 386 459
#     4  10  24  45  74 104 144 192 253 320 381 458
#     4  12  25  48  68  99 145 190 251 308 379 461
#     4  12  26  45  75 102 151 194 249 319 377 460
#     4  11  26  45  73 105 145 194 247 314 385 462
#     4  12  27  47  75 115 152 205 255 320 391 467
#     4  12  25  44  71 106 142 197 251 312 382 460
#
# _framework density 22.521374000000002
#
# number of rings (size 3 to 8) (size 9 to 14) (size 15 to 20)
#    0.000    0.750    3.750    2.250    1.750    9.000 
#    0.000    0.000    0.000    0.000    0.000    0.000 
#    0.000    0.000    0.000    0.000    0.000    0.000 
#
# Total GULP energy -89119.184600 kJ/mol
# GULP energy per Si atom -5569.949038 kJ/mol
# Density = 2.247011 g / cm^3
# Si number density = 22.521374 Si / 1000 Ang^3
#
#
#
# Elastic Constant Matrix: (Units=GPa)
#
#
# Indices 1 2 3 4 5 6 
#
# 1 87.4382 25.4307 38.3613 22.8157 -2.0508 2.1357
# 2 25.4307 71.0908 52.2382 17.9460 7.0826 2.6137
# 3 38.3613 52.2382 138.3745 23.9224 -1.2304 13.2272
# 4 22.8157 17.9460 23.9224 35.5099 1.3738 -0.8351
# 5 -2.0508 7.0826 -1.2304 1.3738 39.1011 2.7441
# 6 2.1357 2.6137 13.2272 -0.8351 2.7441 36.2227
#
#
#
# Elastic Compliance Matrix: (Units=1/GPa)
#
#
# Indices 1 2 3 4 5 6 
#
# 1 0.014857 -0.002139 -0.002040 -0.007150 0.001371 -0.000246
# 2 -0.002139 0.021394 -0.006841 -0.004639 -0.004130 0.001286
# 3 -0.002040 -0.006841 0.011260 -0.002977 0.001851 -0.003707
# 4 -0.007150 -0.004639 -0.002977 0.037214 -0.001131 0.002787
# 5 0.001371 -0.004130 0.001851 -0.001131 0.026669 -0.002505
# 6 -0.000246 0.001286 -0.003707 0.002787 -0.002505 0.029136
#
#
# Mechanical properties :
#
#
# Convention : Reuss Voigt Hill
#
# Bulk Modulus (GPa) = 39.25845 58.77377 49.01611
# Shear Modulus (GPa) = 29.22946 34.22497 31.72721
#
# Velocity S-wave (km/s) = 3.60648 3.90252 3.75742
# Velocity P-wave (km/s) = 5.90015 6.81614 6.37462
#
# Compressibility (1/GPa) = 0.02547222
#
# Stress axis : x y z
#
# Youngs Moduli (GPa) = 67.30676 46.74263 88.80760
#
# Poissons Ratio (x) = 0.09996 0.18115
# Poissons Ratio (y) = 0.14394 0.60755
# Poissons Ratio (z) = 0.13729 0.31978
#
# Static dielectric constant tensor:
#      x y z
#    x 1.683520 -0.146890 0.084210 
#    y -0.146890 1.962220 -0.198380 
#    z 0.084210 -0.198380 2.148260 
# 
# From -- ./inp_files/410510.got.cif
#   From: 2010.05.17/outbox.cif.g08.bks.cpg/sg2_206_cif.got.tgz:410510.got - 2010.06.03 11:33:40.
