data_PCOD9044840
_publ_section_title
;
Structure prediction by ZEFSAII (Michael W. Deem and Ramdas Pophale) SiO2 
 PCOD9044840
Probable space group: P -1
;
_chemical_formula_sum "Si O2"
_cell_formula_units_Z 14
_cell_length_a 5.275524
_cell_length_b 20.760991
_cell_length_c 11.493496
_cell_angle_alpha 29.895246
_cell_angle_beta 87.659529
_cell_angle_gamma 70.754780
_cell_volume 505.800041
_symmetry_space_group_name_H-M "P -1"
_symmetry_group_IT_number 2
_symmetry_cell_setting 'triclinic'
loop_
_space_group_symop_operation_xyz
x,y,z
-x,-y,-z
loop_
_atom_site_type_symbol
_atom_site_label
_atom_site_fract_x
_atom_site_fract_y
_atom_site_fract_z
Si Si1 0.300099 0.777978 0.031668
Si Si2 0.939278 0.865268 0.704719
Si Si3 0.639254 0.094640 0.811794
Si Si4 0.245656 0.333233 0.018685
Si Si5 0.438282 0.401260 0.457840
Si Si6 0.219876 0.570604 0.800736
Si Si7 0.951660 0.133875 0.542262
O O1 0.523181 0.692154 0.049419
O O2 0.427174 0.659021 0.322533
O O3 0.978974 0.824513 0.905695
O O4 0.234693 0.946008 0.809761
O O5 0.163237 0.784099 0.710865
O O6 0.678001 0.843378 0.695863
O O7 0.000000 0.000000 0.500000
O O8 0.426716 0.263876 0.614890
O O9 0.695497 0.127331 0.628015
O O10 0.500000 0.000000 0.000000
O O11 0.000000 0.000000 0.000000
O O12 0.167121 0.436970 0.975826
O O13 0.902740 0.436044 0.802569
O O14 0.670779 0.409848 0.357601
O O15 0.984395 0.754384 0.561478
O O16 0.500000 0.500000 0.000000
#
# Coordination Sequence:
#
# PCOD9044840 Si02
#       7
#     2   2   2   2   2   2   2
#     4  11  24  47  71 107 155 197 266 310 393 470
#     4  10  25  48  71 107 151 198 258 321 387 469
#     4  11  25  48  75 113 158 206 264 325 395 471
#     4  12  26  44  75 111 150 207 255 323 399 466
#     4  11  26  42  73 109 153 203 255 327 389 468
#     4  11  26  49  72 107 153 195 265 328 399 467
#     4  10  23  47  75 106 148 203 258 328 388 469
#
# _framework density 27.678923000000001
#
# number of rings (size 3 to 8) (size 9 to 14) (size 15 to 20)
#    0.000    1.143    1.429    3.000    4.000   10.286 
#    5.143    0.000    0.000    0.000    0.000    0.000 
#    0.000    0.000    0.000    0.000    0.000    0.000 
#
# Total GULP energy -78132.594110 kJ/mol
# GULP energy per Si atom -5580.899579 kJ/mol
# Density = 2.761592 g / cm^3
# Si number density = 27.678923 Si / 1000 Ang^3
#
#
#
# Elastic Constant Matrix: (Units=GPa)
#
#
# Indices 1 2 3 4 5 6 
#
# 1 91.6633 34.5669 29.6678 -3.9078 -17.7256 6.5205
# 2 34.5669 201.6010 63.6683 -0.3530 -22.1307 28.1141
# 3 29.6678 63.6683 127.5551 0.3870 -13.5834 20.5206
# 4 -3.9078 -0.3530 0.3870 87.4939 16.5822 -13.7684
# 5 -17.7256 -22.1307 -13.5834 16.5822 51.3382 -7.4819
# 6 6.5205 28.1141 20.5206 -13.7684 -7.4819 37.0375
#
#
#
# Elastic Compliance Matrix: (Units=1/GPa)
#
#
# Indices 1 2 3 4 5 6 
#
# 1 0.012651 -0.001223 -0.002058 0.000014 0.003369 0.000527
# 2 -0.001223 0.006540 -0.002245 -0.000869 0.001572 -0.003510
# 3 -0.002058 -0.002245 0.010118 -0.000870 0.000738 -0.003714
# 4 0.000014 -0.000869 -0.000870 0.013009 -0.004050 0.005157
# 5 0.003369 0.001572 0.000738 -0.004050 0.022960 0.000937
# 6 0.000527 -0.003510 -0.003714 0.005157 0.000937 0.033735
#
#
# Mechanical properties :
#
#
# Convention : Reuss Voigt Hill
#
# Bulk Modulus (GPa) = 54.77532 75.18060 64.97796
# Shear Modulus (GPa) = 43.04760 54.70168 48.87464
#
# Velocity S-wave (km/s) = 3.94794 4.45038 4.20667
# Velocity P-wave (km/s) = 6.37292 7.32314 6.86450
#
# Compressibility (1/GPa) = 0.01825640
#
# Stress axis : x y z
#
# Youngs Moduli (GPa) = 79.04296 152.91683 98.83630
#
# Poissons Ratio (x) = 0.18700 0.20343
# Poissons Ratio (y) = 0.09666 0.22189
# Poissons Ratio (z) = 0.16269 0.34330
#
# Static dielectric constant tensor:
#      x y z
#    x 2.574620 -0.002260 0.145470 
#    y -0.002260 2.134360 -0.027560 
#    z 0.145470 -0.027560 2.426280 
# 
# From -- ./inp_files/369755.got.cif
#   From: 2010.05.17/outbox.cif.g08.bks.cpg/sg2_185_cif.got.tgz:369755.got - 2010.06.03 11:33:40.
