data_PCOD9044706
_publ_section_title
;
Structure prediction by ZEFSAII (Michael W. Deem and Ramdas Pophale) SiO2 
 PCOD9044706
Probable space group: P -1
;
_chemical_formula_sum "Si O2"
_cell_formula_units_Z 12
_cell_length_a 5.139120
_cell_length_b 7.944378
_cell_length_c 14.891666
_cell_angle_alpha 69.284275
_cell_angle_beta 105.158486
_cell_angle_gamma 121.895710
_cell_volume 480.677755
_symmetry_space_group_name_H-M "P -1"
_symmetry_group_IT_number 2
_symmetry_cell_setting 'triclinic'
loop_
_space_group_symop_operation_xyz
x,y,z
-x,-y,-z
loop_
_atom_site_type_symbol
_atom_site_label
_atom_site_fract_x
_atom_site_fract_y
_atom_site_fract_z
Si Si1 0.633545 0.861497 0.494609
Si Si2 0.542291 0.223333 0.181517
Si Si3 0.873824 0.461015 0.893515
Si Si4 0.567566 0.481218 0.309998
Si Si5 0.760618 0.763668 0.030854
Si Si6 0.710443 0.245952 0.704564
O O1 0.532207 0.661708 0.584398
O O2 0.495395 0.796490 0.395438
O O3 0.500000 0.000000 0.500000
O O4 0.000000 0.000000 0.500000
O O5 0.507995 0.329123 0.248847
O O6 0.905380 0.316149 0.173631
O O7 0.388364 0.979267 0.222838
O O8 0.388641 0.285940 0.073533
O O9 0.626143 0.394325 0.729408
O O10 0.515708 0.310965 0.909642
O O11 0.000000 0.500000 0.000000
O O12 0.931698 0.637946 0.312723
O O13 0.965713 0.667361 0.103449
O O14 0.000000 0.000000 0.000000
#
# Coordination Sequence:
#
# PCOD9044706 Si02
#       6
#     2   2   2   2   2   2
#     4  12  24  50  78 106 155 201 240 302 378 438
#     4  11  27  50  75 110 154 188 256 315 364 439
#     4  10  23  47  71  98 145 192 232 304 373 432
#     4  12  28  48  77 109 152 198 248 309 368 442
#     4  11  25  48  75 105 144 199 243 300 381 447
#     4  12  28  48  77 112 149 199 251 301 373 446
#
# _framework density 24.964749000000001
#
# number of rings (size 3 to 8) (size 9 to 14) (size 15 to 20)
#    0.000    0.667    1.667    5.500    2.333    8.000 
#    0.000    0.000    0.000    0.000    0.000    0.000 
#    0.000    0.000    0.000    0.000    0.000    0.000 
#
# Total GULP energy -67236.346599 kJ/mol
# GULP energy per Si atom -5603.028883 kJ/mol
# Density = 2.490793 g / cm^3
# Si number density = 24.964749 Si / 1000 Ang^3
#
#
#
# Elastic Constant Matrix: (Units=GPa)
#
#
# Indices 1 2 3 4 5 6 
#
# 1 180.4208 88.1885 26.0241 -25.7126 17.3552 45.2454
# 2 88.1885 209.4159 47.1147 -35.2073 7.8239 39.6707
# 3 26.0241 47.1147 132.0765 -24.9458 3.3747 9.3923
# 4 -25.7126 -35.2073 -24.9458 63.5470 -5.4989 0.5143
# 5 17.3552 7.8239 3.3747 -5.4989 44.4585 1.3558
# 6 45.2454 39.6707 9.3923 0.5143 1.3558 60.8598
#
#
#
# Elastic Compliance Matrix: (Units=1/GPa)
#
#
# Indices 1 2 3 4 5 6 
#
# 1 0.008313 -0.002165 -0.000099 0.001950 -0.002472 -0.004715
# 2 -0.002165 0.006920 -0.001390 0.002444 0.000118 -0.002709
# 3 -0.000099 -0.001390 0.008598 0.002564 -0.000041 -0.000368
# 4 0.001950 0.002444 0.002564 0.019008 0.001076 -0.003623
# 5 -0.002472 0.000118 -0.000041 0.001076 0.023536 0.001234
# 6 -0.004715 -0.002709 -0.000368 -0.003623 0.001234 0.021763
#
#
# Mechanical properties :
#
#
# Convention : Reuss Voigt Hill
#
# Bulk Modulus (GPa) = 60.52594 93.84087 77.18341
# Shear Modulus (GPa) = 49.52729 57.81212 53.66970
#
# Velocity S-wave (km/s) = 4.45892 4.81744 4.64164
# Velocity P-wave (km/s) = 7.12787 8.28340 7.72726
#
# Compressibility (1/GPa) = 0.01652184
#
# Stress axis : x y z
#
# Youngs Moduli (GPa) = 120.28920 144.51771 116.30028
#
# Poissons Ratio (x) = 0.31292 0.01151
# Poissons Ratio (y) = 0.26046 0.16171
# Poissons Ratio (z) = 0.01190 0.20095
#
# Static dielectric constant tensor:
#      x y z
#    x 2.104940 0.071650 0.207050 
#    y 0.071650 2.192360 0.532980 
#    z 0.207050 0.532980 3.079060 
# 
# From -- ./inp_files/36630.got.cif
#   From: 2010.05.17/outbox.cif.g08.bks.cpg/sg2_19_cif.got.tgz:36630.got - 2010.06.03 11:33:40.
