data_PCOD9044125
_publ_section_title
;
Structure prediction by ZEFSAII (Michael W. Deem and Ramdas Pophale) SiO2 
 PCOD9044125
Probable space group: P -1
;
_chemical_formula_sum "Si O2"
_cell_formula_units_Z 14
_cell_length_a 14.495787
_cell_length_b 28.661037
_cell_length_c 22.701183
_cell_angle_alpha 168.850471
_cell_angle_beta 158.798078
_cell_angle_gamma 21.626053
_cell_volume 644.447562
_symmetry_space_group_name_H-M "P -1"
_symmetry_group_IT_number 2
_symmetry_cell_setting 'triclinic'
loop_
_space_group_symop_operation_xyz
x,y,z
-x,-y,-z
loop_
_atom_site_type_symbol
_atom_site_label
_atom_site_fract_x
_atom_site_fract_y
_atom_site_fract_z
Si Si1 0.778402 0.450879 0.136237
Si Si2 0.200682 0.253780 0.292566
Si Si3 0.569525 0.355415 0.728115
Si Si4 0.926486 0.600472 0.175304
Si Si5 0.683681 0.807082 0.167079
Si Si6 0.136023 0.834103 0.822356
Si Si7 0.216230 0.025615 0.891099
O O1 0.678885 0.490016 0.193016
O O2 0.955059 0.644855 0.466749
O O3 0.500000 0.500000 0.000000
O O4 0.971475 0.193069 0.918558
O O5 0.476396 0.289120 0.526074
O O6 0.000000 0.500000 0.500000
O O7 0.215482 0.179166 0.141210
O O8 0.145143 0.016752 0.000274
O O9 0.654281 0.096068 0.491639
O O10 0.779940 0.518093 0.042272
O O11 0.730689 0.747129 0.190090
O O12 0.130483 0.764429 0.520282
O O13 0.077928 0.356406 0.929428
O O14 0.425165 0.729464 0.890475
O O15 0.000000 0.000000 0.000000
O O16 0.500000 0.000000 0.000000
#
# Coordination Sequence:
#
# PCOD9044125 Si02
#       7
#     2   2   2   2   2   2   2
#     4  12  26  45  70 103 147 183 236 306 355 423
#     4  11  24  44  72 102 140 194 240 293 357 443
#     4  11  24  44  72 105 138 188 247 291 354 437
#     4  11  26  42  74 102 147 189 231 298 367 426
#     4  10  23  46  70 104 142 190 238 294 361 434
#     4  11  22  43  71  99 136 184 240 291 353 421
#     4  12  28  48  70 108 148 187 241 300 367 428
#
# _framework density 21.724034
#
# number of rings (size 3 to 8) (size 9 to 14) (size 15 to 20)
#    0.000    0.857    4.286    2.143   10.000    0.571 
#    5.143    3.571    0.000    0.000    0.000    0.000 
#    0.000    0.000    0.000    0.000    0.000    0.000 
#
# Total GULP energy -78200.771233 kJ/mol
# GULP energy per Si atom -5585.769374 kJ/mol
# Density = 2.167459 g / cm^3
# Si number density = 21.724034 Si / 1000 Ang^3
#
#
#
# Elastic Constant Matrix: (Units=GPa)
#
#
# Indices 1 2 3 4 5 6 
#
# 1 82.2672 49.3793 38.3147 -11.6869 0.3092 -12.0174
# 2 49.3793 132.3811 38.5967 -9.5101 8.3857 -11.0272
# 3 38.3147 38.5967 121.7802 -20.3018 21.9014 -21.6808
# 4 -11.6869 -9.5101 -20.3018 37.3032 -8.7449 -8.3767
# 5 0.3092 8.3857 21.9014 -8.7449 38.7869 -12.6117
# 6 -12.0174 -11.0272 -21.6808 -8.3767 -12.6117 31.2858
#
#
#
# Elastic Compliance Matrix: (Units=1/GPa)
#
#
# Indices 1 2 3 4 5 6 
#
# 1 0.018767 -0.005483 -0.003007 0.006042 0.006514 0.007436
# 2 -0.005483 0.010032 -0.001233 -0.000202 -0.001502 -0.000084
# 3 -0.003007 -0.001233 0.012540 0.006667 -0.002760 0.007773
# 4 0.006042 -0.000202 0.006667 0.040395 0.012762 0.022830
# 5 0.006514 -0.001502 -0.002760 0.012762 0.036391 0.018147
# 6 0.007436 -0.000084 0.007773 0.022830 0.018147 0.053604
#
#
# Mechanical properties :
#
#
# Convention : Reuss Voigt Hill
#
# Bulk Modulus (GPa) = 45.67660 65.44555 55.56107
# Shear Modulus (GPa) = 25.19229 35.48438 30.33833
#
# Velocity S-wave (km/s) = 3.40906 4.04594 3.74108
# Velocity P-wave (km/s) = 6.04707 7.21231 6.65524
#
# Compressibility (1/GPa) = 0.02189305
#
# Stress axis : x y z
#
# Youngs Moduli (GPa) = 53.28504 99.67931 79.74446
#
# Poissons Ratio (x) = 0.54650 0.23981
# Poissons Ratio (y) = 0.29214 0.09834
# Poissons Ratio (z) = 0.16024 0.12292
#
# Static dielectric constant tensor:
#      x y z
#    x 1.816580 0.041840 -0.025930 
#    y 0.041840 1.877030 -0.037200 
#    z -0.025930 -0.037200 1.828960 
# 
# From -- ./inp_files/612479.got.cif
#   From: 2010.05.17/outbox.cif.g08.bks.cpg/sg2_307_cif.got.tgz:612479.got - 2010.06.03 11:33:40.
