data_PCOD9044531
_publ_section_title
;
Structure prediction by ZEFSAII (Michael W. Deem and Ramdas Pophale) SiO2 
 PCOD9044531
Probable space group: P -1
;
_chemical_formula_sum "Si O2"
_cell_formula_units_Z 16
_cell_length_a 8.733211
_cell_length_b 6.555658
_cell_length_c 17.204709
_cell_angle_alpha 119.430089
_cell_angle_beta 128.017547
_cell_angle_gamma 60.560941
_cell_volume 649.760615
_symmetry_space_group_name_H-M "P -1"
_symmetry_group_IT_number 2
_symmetry_cell_setting 'triclinic'
loop_
_space_group_symop_operation_xyz
x,y,z
-x,-y,-z
loop_
_atom_site_type_symbol
_atom_site_label
_atom_site_fract_x
_atom_site_fract_y
_atom_site_fract_z
Si Si1 0.671660 0.125770 0.599138
Si Si2 0.607527 0.106041 0.231158
Si Si3 0.898506 0.715976 0.140100
Si Si4 0.321161 0.026867 0.009112
Si Si5 0.599916 0.062876 0.733689
Si Si6 0.841015 0.508519 0.675908
Si Si7 0.813091 0.239866 0.971562
Si Si8 0.956308 0.358208 0.383307
O O1 0.601013 0.201771 0.679466
O O2 0.882632 0.911157 0.620014
O O3 0.500000 0.000000 0.500000
O O4 0.687514 0.341564 0.586669
O O5 0.388079 0.173720 0.130115
O O6 0.582976 0.006782 0.291234
O O7 0.737801 0.301520 0.305214
O O8 0.734620 0.875423 0.178114
O O9 0.072663 0.599694 0.233588
O O10 0.880967 0.891058 0.092314
O O11 0.864282 0.489273 0.040384
O O12 0.323129 0.770890 0.998017
O O13 0.500000 0.000000 0.000000
O O14 0.740428 0.792556 0.709153
O O15 0.691511 0.205759 0.852370
O O16 0.996659 0.499302 0.651897
O O17 0.000000 0.000000 0.000000
O O18 0.000000 0.500000 0.500000
#
# Coordination Sequence:
#
# PCOD9044531 Si02
#       8
#     2   2   2   2   2   2   2   2
#     4  11  27  48  73 101 133 176 231 283 345 412
#     4  10  23  47  65 103 141 181 229 281 339 409
#     4  11  23  42  71  95 140 183 226 274 336 401
#     4   9  23  39  62  95 137 175 222 273 328 400
#     4  10  25  44  67 102 143 175 227 287 334 404
#     4  11  25  45  71 100 134 184 221 278 350 403
#     4  11  23  40  66 100 136 181 230 272 332 406
#     4  11  27  47  73  98 137 176 226 292 340 405
#
# _framework density 24.624452000000002
#
# number of rings (size 3 to 8) (size 9 to 14) (size 15 to 20)
#    0.000    1.500    2.500    0.000    8.750    9.500 
#    0.000    0.000    0.000    0.000    0.000    0.000 
#    0.000    0.000    0.000    0.000    0.000    0.000 
#
# Total GULP energy -89229.913127 kJ/mol
# GULP energy per Si atom -5576.869570 kJ/mol
# Density = 2.456841 g / cm^3
# Si number density = 24.624452 Si / 1000 Ang^3
#
#
#
# Elastic Constant Matrix: (Units=GPa)
#
#
# Indices 1 2 3 4 5 6 
#
# 1 121.5505 33.9721 33.5753 1.7381 -11.1872 36.6521
# 2 33.9721 65.1339 22.7344 4.3938 -9.4345 6.3308
# 3 33.5753 22.7344 80.0671 4.3876 -10.0410 13.8682
# 4 1.7381 4.3938 4.3876 33.3293 -1.2511 -2.5766
# 5 -11.1872 -9.4345 -10.0410 -1.2511 41.3432 -1.4351
# 6 36.6521 6.3308 13.8682 -2.5766 -1.4351 40.3765
#
#
#
# Elastic Compliance Matrix: (Units=1/GPa)
#
#
# Indices 1 2 3 4 5 6 
#
# 1 0.013666 -0.005038 -0.002189 -0.000537 0.001624 -0.010840
# 2 -0.005038 0.019365 -0.003489 -0.001536 0.002256 0.002718
# 3 -0.002189 -0.003489 0.015226 -0.001559 0.002168 -0.002718
# 4 -0.000537 -0.001536 -0.001559 0.030695 0.000166 0.003229
# 5 0.001624 0.002256 0.002168 0.000166 0.025616 -0.001651
# 6 -0.010840 0.002718 -0.002718 0.003229 -0.001651 0.035261
#
#
# Mechanical properties :
#
#
# Convention : Reuss Voigt Hill
#
# Bulk Modulus (GPa) = 37.28174 49.70170 43.49172
# Shear Modulus (GPa) = 29.37625 34.77444 32.07534
#
# Velocity S-wave (km/s) = 3.45769 3.76199 3.61304
# Velocity P-wave (km/s) = 5.57797 6.25282 5.92501
#
# Compressibility (1/GPa) = 0.02682278
#
# Stress axis : x y z
#
# Youngs Moduli (GPa) = 73.17587 51.63929 65.67526
#
# Poissons Ratio (x) = 0.26018 0.14379
# Poissons Ratio (y) = 0.36869 0.22917
# Poissons Ratio (z) = 0.16021 0.18019
#
# Static dielectric constant tensor:
#      x y z
#    x 2.108480 -0.007800 0.072990 
#    y -0.007800 1.955440 -0.042920 
#    z 0.072990 -0.042920 2.093160 
# 
# From -- ./inp_files/550580.got.cif
#   From: 2010.05.17/outbox.cif.g08.bks.cpg/sg2_276_cif.got.tgz:550580.got - 2010.06.03 11:33:40.
