data_PCOD9044214
_publ_section_title
;
Structure prediction by ZEFSAII (Michael W. Deem and Ramdas Pophale) SiO2 
 PCOD9044214
Probable space group: P -1
;
_chemical_formula_sum "Si O2"
_cell_formula_units_Z 12
_cell_length_a 13.504835
_cell_length_b 11.211416
_cell_length_c 6.090074
_cell_angle_alpha 75.928549
_cell_angle_beta 127.582376
_cell_angle_gamma 135.685853
_cell_volume 478.368844
_symmetry_space_group_name_H-M "P -1"
_symmetry_group_IT_number 2
_symmetry_cell_setting 'triclinic'
loop_
_space_group_symop_operation_xyz
x,y,z
-x,-y,-z
loop_
_atom_site_type_symbol
_atom_site_label
_atom_site_fract_x
_atom_site_fract_y
_atom_site_fract_z
Si Si1 0.822828 0.927671 0.593233
Si Si2 0.344457 0.987886 0.839886
Si Si3 0.179777 0.267570 0.641939
Si Si4 0.239969 0.552448 0.356056
Si Si5 0.942945 0.365564 0.675637
Si Si6 0.664638 0.848763 0.854812
O O1 0.812362 0.779408 0.574670
O O2 0.822435 0.952184 0.837447
O O3 0.632833 0.857941 0.290704
O O4 0.987435 0.097813 0.583141
O O5 0.179449 0.820671 0.536872
O O6 0.500000 0.000000 0.000000
O O7 0.308264 0.004141 0.034855
O O8 0.203215 0.428373 0.560114
O O9 0.317881 0.272357 0.947678
O O10 0.183083 0.645980 0.324147
O O11 0.458191 0.706561 0.547315
O O12 0.113722 0.440770 0.019110
O O13 0.000000 0.500000 0.500000
#
# Coordination Sequence:
#
# PCOD9044214 Si02
#       6
#     2   2   2   2   2   2
#     4  10  24  42  71 106 144 190 242 297 366 430
#     4  11  24  45  70 103 146 190 240 302 357 432
#     4  10  23  46  71 105 151 187 240 300 370 430
#     4  11  25  45  72 107 143 194 239 300 368 428
#     4  11  26  45  71 102 151 192 240 296 365 434
#     4  11  24  44  77 110 141 188 249 300 357 433
#
# _framework density 25.085248
#
# number of rings (size 3 to 8) (size 9 to 14) (size 15 to 20)
#    0.000    1.333    1.667    2.000    2.333   10.667 
#    0.000    2.500    0.000    0.000    0.000    5.833 
#    0.000    0.000    0.000    0.000    0.000    0.000 
#
# Total GULP energy -66905.115748 kJ/mol
# GULP energy per Si atom -5575.426312 kJ/mol
# Density = 2.502815 g / cm^3
# Si number density = 25.085248 Si / 1000 Ang^3
#
#
#
# Elastic Constant Matrix: (Units=GPa)
#
#
# Indices 1 2 3 4 5 6 
#
# 1 183.2620 38.3701 83.4897 5.9671 -6.8251 -11.6577
# 2 38.3701 66.2480 33.7117 -9.8129 -5.1969 -3.1764
# 3 83.4897 33.7117 170.0856 10.0758 19.2299 0.5039
# 4 5.9671 -9.8129 10.0758 33.5976 -2.5394 -0.2232
# 5 -6.8251 -5.1969 19.2299 -2.5394 50.4674 -8.1863
# 6 -11.6577 -3.1764 0.5039 -0.2232 -8.1863 38.6681
#
#
#
# Elastic Compliance Matrix: (Units=1/GPa)
#
#
# Indices 1 2 3 4 5 6 
#
# 1 0.007955 -0.002531 -0.003658 -0.000839 0.002619 0.002788
# 2 -0.002531 0.019889 -0.003579 0.007626 0.003738 0.001753
# 3 -0.003658 -0.003579 0.009161 -0.003534 -0.004951 -0.002585
# 4 -0.000839 0.007626 -0.003534 0.033508 0.003939 0.001447
# 5 0.002619 0.003738 -0.004951 0.003939 0.023643 0.006189
# 6 0.002788 0.001753 -0.002585 0.001447 0.006189 0.028198
#
#
# Mechanical properties :
#
#
# Convention : Reuss Voigt Hill
#
# Bulk Modulus (GPa) = 57.24490 81.19318 69.21904
# Shear Modulus (GPa) = 33.84934 42.14823 37.99879
#
# Velocity S-wave (km/s) = 3.67737 4.10347 3.89625
# Velocity P-wave (km/s) = 6.39534 7.40868 6.92058
#
# Compressibility (1/GPa) = 0.01746880
#
# Stress axis : x y z
#
# Youngs Moduli (GPa) = 125.70193 50.27893 109.15627
#
# Poissons Ratio (x) = 0.12727 0.39929
# Poissons Ratio (y) = 0.31819 0.39068
# Poissons Ratio (z) = 0.45981 0.17995
#
# Static dielectric constant tensor:
#      x y z
#    x 2.081210 -0.073960 -0.066030 
#    y -0.073960 2.144130 -0.001710 
#    z -0.066030 -0.001710 2.129560 
# 
# From -- ./inp_files/70907.got.cif
#   From: 2010.05.17/outbox.cif.g08.bks.cpg/sg2_36_cif.got.tgz:70907.got - 2010.06.03 11:33:40.
