data_PCOD9044833
_publ_section_title
;
Structure prediction by ZEFSAII (Michael W. Deem and Ramdas Pophale) SiO2 
 PCOD9044833
Probable space group: P -1
;
_chemical_formula_sum "Si O2"
_cell_formula_units_Z 14
_cell_length_a 9.686030
_cell_length_b 25.332060
_cell_length_c 5.115224
_cell_angle_alpha 58.118174
_cell_angle_beta 55.513570
_cell_angle_gamma 35.071822
_cell_volume 588.863233
_symmetry_space_group_name_H-M "P -1"
_symmetry_group_IT_number 2
_symmetry_cell_setting 'triclinic'
loop_
_space_group_symop_operation_xyz
x,y,z
-x,-y,-z
loop_
_atom_site_type_symbol
_atom_site_label
_atom_site_fract_x
_atom_site_fract_y
_atom_site_fract_z
Si Si1 0.906204 0.602894 0.045010
Si Si2 0.904539 0.220839 0.114128
Si Si3 0.056892 0.876346 0.158035
Si Si4 0.239972 0.230923 0.982828
Si Si5 0.551949 0.051914 0.424892
Si Si6 0.673167 0.606806 0.791021
Si Si7 0.709131 0.094231 0.511909
O O1 0.896331 0.674988 0.976123
O O2 0.753732 0.604890 0.418818
O O3 0.181376 0.496793 0.024111
O O4 0.780198 0.626603 0.836484
O O5 0.898684 0.177946 0.491054
O O6 0.623379 0.315484 0.086947
O O7 0.005851 0.151109 0.948437
O O8 0.062114 0.239126 0.963928
O O9 0.277762 0.859749 0.860564
O O10 0.829310 0.985149 0.186264
O O11 0.502860 0.179286 0.703312
O O12 0.337378 0.155487 0.287556
O O13 0.592191 0.058773 0.662857
O O14 0.500000 0.000000 0.500000
O O15 0.000000 0.000000 0.500000
#
# Coordination Sequence:
#
# PCOD9044833 Si02
#       7
#     2   2   2   2   2   2   2
#     4  10  24  46  75 106 137 179 237 290 355 424
#     4  12  27  44  74 104 145 188 231 296 360 419
#     4  12  26  45  70 102 141 189 247 286 345 417
#     4  12  28  43  70 105 145 189 236 294 353 422
#     4  12  26  45  65  98 148 187 236 292 353 408
#     4  10  23  47  75 104 139 180 229 298 356 424
#     4  12  27  44  69  99 138 196 245 293 336 417
#
# _framework density 23.774618
#
# number of rings (size 3 to 8) (size 9 to 14) (size 15 to 20)
#    0.000    0.571    2.857    3.857    8.000    1.714 
#    0.000    0.000    0.000    6.857    0.000    0.000 
#    0.000    0.000    0.000    0.000    0.000    0.000 
#
# Total GULP energy -78316.423040 kJ/mol
# GULP energy per Si atom -5594.030217 kJ/mol
# Density = 2.372051 g / cm^3
# Si number density = 23.774618 Si / 1000 Ang^3
#
#
#
# Elastic Constant Matrix: (Units=GPa)
#
#
# Indices 1 2 3 4 5 6 
#
# 1 141.0525 58.9124 12.7886 -6.8297 3.5727 17.3078
# 2 58.9124 160.9685 13.5510 -15.3590 0.9126 11.3579
# 3 12.7886 13.5510 82.6658 5.5693 10.0906 1.7467
# 4 -6.8297 -15.3590 5.5693 28.7051 5.3062 -0.0657
# 5 3.5727 0.9126 10.0906 5.3062 37.8410 -0.4133
# 6 17.3078 11.3579 1.7467 -0.0657 -0.4133 51.1134
#
#
#
# Elastic Compliance Matrix: (Units=1/GPa)
#
#
# Indices 1 2 3 4 5 6 
#
# 1 0.008699 -0.002875 -0.000798 0.000806 -0.000677 -0.002284
# 2 -0.002875 0.007756 -0.001041 0.003697 -0.000164 -0.000711
# 3 -0.000798 -0.001041 0.012935 -0.002707 -0.002969 0.000032
# 4 0.000806 0.003697 -0.002707 0.038425 -0.004842 -0.000992
# 5 -0.000677 -0.000164 -0.002969 -0.004842 0.027971 0.000587
# 6 -0.002284 -0.000711 0.000032 -0.000992 0.000587 0.020498
#
#
# Mechanical properties :
#
#
# Convention : Reuss Voigt Hill
#
# Bulk Modulus (GPa) = 50.09128 61.68787 55.88957
# Shear Modulus (GPa) = 37.77432 43.49423 40.63427
#
# Velocity S-wave (km/s) = 3.99036 4.28184 4.13867
# Velocity P-wave (km/s) = 6.50735 7.10273 6.81155
#
# Compressibility (1/GPa) = 0.01996356
#
# Stress axis : x y z
#
# Youngs Moduli (GPa) = 114.95601 128.93443 77.30935
#
# Poissons Ratio (x) = 0.37063 0.06169
# Poissons Ratio (y) = 0.33045 0.08045
# Poissons Ratio (z) = 0.09173 0.13417
#
# Static dielectric constant tensor:
#      x y z
#    x 2.008960 0.008210 0.019660 
#    y 0.008210 1.882340 -0.005880 
#    z 0.019660 -0.005880 2.002720 
# 
# From -- ./inp_files/40069.got.cif
#   From: 2010.05.17/outbox.cif.g08.bks.cpg/sg2_21_cif.got.tgz:40069.got - 2010.06.03 11:33:40.
