data_PCOD9044687
_publ_section_title
;
Structure prediction by ZEFSAII (Michael W. Deem and Ramdas Pophale) SiO2 
 PCOD9044687
Probable space group: P -1
;
_chemical_formula_sum "Si O2"
_cell_formula_units_Z 11
_cell_length_a 11.911696
_cell_length_b 4.981319
_cell_length_c 9.210310
_cell_angle_alpha 70.672183
_cell_angle_beta 71.141786
_cell_angle_gamma 57.059157
_cell_volume 425.654044
_symmetry_space_group_name_H-M "P -1"
_symmetry_group_IT_number 2
_symmetry_cell_setting 'triclinic'
loop_
_space_group_symop_operation_xyz
x,y,z
-x,-y,-z
loop_
_atom_site_type_symbol
_atom_site_label
_atom_site_fract_x
_atom_site_fract_y
_atom_site_fract_z
Si Si1 0.500000 0.000000 0.500000
Si Si2 0.611917 0.108840 0.224547
Si Si3 0.648973 0.712525 0.022437
Si Si4 0.011554 0.050468 0.812812
Si Si5 0.860114 0.779779 0.729587
Si Si6 0.721575 0.238283 0.430612
O O1 0.467573 0.141197 0.313030
O O2 0.385733 0.396539 0.545532
O O3 0.628129 0.404041 0.107806
O O4 0.692621 0.823161 0.131644
O O5 0.638976 0.096450 0.393637
O O6 0.753717 0.693315 0.864318
O O7 0.500000 0.000000 0.000000
O O8 0.984381 0.413841 0.720780
O O9 0.158611 0.819062 0.721726
O O10 0.908035 0.966922 0.787054
O O11 0.000000 0.000000 0.000000
O O12 0.796603 0.007083 0.576216
#
# Coordination Sequence:
#
# PCOD9044687 Si02
#       6
#     1   2   2   2   2   2
#     4   8  22  46  72 100 140 180 234 286 348 402
#     4  10  24  44  68  99 137 186 227 286 351 409
#     4  12  24  43  68 101 142 183 234 286 346 417
#     4  12  26  47  73 100 143 188 233 288 353 423
#     4  12  26  44  71 108 137 185 235 293 349 420
#     4  10  23  47  71 105 141 185 238 288 355 409
#
# _framework density 25.842585
#
# number of rings (size 3 to 8) (size 9 to 14) (size 15 to 20)
#    1.091    0.000    0.000    6.545    0.000    5.091 
#    0.000    0.000    0.000    0.000    0.000    0.000 
#    0.000    0.000    0.000    0.000    0.000    0.000 
#
# Total GULP energy -61419.869293 kJ/mol
# GULP energy per Si atom -5583.624481 kJ/mol
# Density = 2.578377 g / cm^3
# Si number density = 25.842585 Si / 1000 Ang^3
#
#
#
# Elastic Constant Matrix: (Units=GPa)
#
#
# Indices 1 2 3 4 5 6 
#
# 1 108.0523 57.0954 71.6950 -2.9223 12.4855 -0.0222
# 2 57.0954 201.3245 84.7331 -6.1816 15.1211 15.3689
# 3 71.6950 84.7331 205.6015 3.6956 -11.1853 -5.4716
# 4 -2.9223 -6.1816 3.6956 40.3574 -5.0897 -10.2195
# 5 12.4855 15.1211 -11.1853 -5.0897 58.6611 4.4543
# 6 -0.0222 15.3689 -5.4716 -10.2195 4.4543 38.6389
#
#
#
# Elastic Compliance Matrix: (Units=1/GPa)
#
#
# Indices 1 2 3 4 5 6 
#
# 1 0.013300 -0.001876 -0.004028 0.000847 -0.003100 0.000765
# 2 -0.001876 0.006813 -0.002317 0.000213 -0.001567 -0.002802
# 3 -0.004028 -0.002317 0.007421 -0.000606 0.002703 0.001498
# 4 0.000847 0.000213 -0.000606 0.026823 0.001464 0.006756
# 5 -0.003100 -0.001567 0.002703 0.001464 0.018812 -0.000777
# 6 0.000765 -0.002802 0.001498 0.006756 -0.000777 0.029084
#
#
# Mechanical properties :
#
#
# Convention : Reuss Voigt Hill
#
# Bulk Modulus (GPa) = 90.16166 104.66949 97.41557
# Shear Modulus (GPa) = 40.85185 47.62848 44.24017
#
# Velocity S-wave (km/s) = 3.98024 4.29770 4.14201
# Velocity P-wave (km/s) = 7.48916 8.07574 7.78798
#
# Compressibility (1/GPa) = 0.01109119
#
# Stress axis : x y z
#
# Youngs Moduli (GPa) = 75.18692 146.78897 134.74909
#
# Poissons Ratio (x) = 0.27539 0.54280
# Poissons Ratio (y) = 0.14106 0.31222
# Poissons Ratio (z) = 0.30287 0.34012
#
# Static dielectric constant tensor:
#      x y z
#    x 2.114510 0.010640 0.027160 
#    y 0.010640 2.061080 -0.058680 
#    z 0.027160 -0.058680 2.197250 
# 
# From -- ./inp_files/229431.got.cif
#   From: 2010.05.17/outbox.cif.g08.bks.cpg/sg2_115_cif.got.tgz:229431.got - 2010.06.03 11:33:40.
