data_PCOD9044964
_publ_section_title
;
Structure prediction by ZEFSAII (Michael W. Deem and Ramdas Pophale) SiO2 
 PCOD9044964
Probable space group: P -1
;
_chemical_formula_sum "Si O2"
_cell_formula_units_Z 15
_cell_length_a 6.330942
_cell_length_b 23.245193
_cell_length_c 6.009651
_cell_angle_alpha 53.240366
_cell_angle_beta 76.764699
_cell_angle_gamma 61.665805
_cell_volume 621.749821
_symmetry_space_group_name_H-M "P -1"
_symmetry_group_IT_number 2
_symmetry_cell_setting 'triclinic'
loop_
_space_group_symop_operation_xyz
x,y,z
-x,-y,-z
loop_
_atom_site_type_symbol
_atom_site_label
_atom_site_fract_x
_atom_site_fract_y
_atom_site_fract_z
Si Si1 0.459080 0.831703 0.756377
Si Si2 0.089314 0.295700 0.299384
Si Si3 0.308336 0.707893 0.297856
Si Si4 0.608833 0.929006 0.820429
Si Si5 0.707345 0.598053 0.769598
Si Si6 0.792983 0.019622 0.826566
Si Si7 0.000000 0.500000 0.500000
Si Si8 0.682635 0.404226 0.827075
O O1 0.666295 0.776923 0.663764
O O2 0.601026 0.856073 0.857221
O O3 0.266028 0.909273 0.498352
O O4 0.332211 0.779774 0.004241
O O5 0.149503 0.369248 0.177872
O O6 0.949785 0.274417 0.577598
O O7 0.900022 0.328935 0.067285
O O8 0.510061 0.676439 0.513081
O O9 0.379158 0.633749 0.285368
O O10 0.500000 0.000000 0.500000
O O11 0.824652 0.942118 0.854658
O O12 0.434840 0.947175 0.030857
O O13 0.879818 0.542046 0.671470
O O14 0.545347 0.565270 0.022822
O O15 0.000000 0.000000 0.000000
O O16 0.795027 0.464736 0.610705
#
# Coordination Sequence:
#
# PCOD9044964 Si02
#       8
#     2   2   2   2   2   2   1   2
#     4  11  24  45  73  99 140 190 227 290 360 408
#     4  11  25  47  69 102 144 179 239 296 343 418
#     4  11  25  47  69 103 142 182 237 294 347 416
#     4   9  22  46  66  99 140 177 223 283 343 418
#     4  11  25  46  68 101 145 178 242 295 340 430
#     4  10  23  48  70 105 142 176 235 285 340 426
#     4  12  24  44  74 100 140 202 220 290 374 396
#     4  11  25  46  67 103 141 183 238 296 343 426
#
# _framework density 24.125457000000001
#
# number of rings (size 3 to 8) (size 9 to 14) (size 15 to 20)
#    0.000    1.333    2.667    1.200    1.867    3.200 
#   19.200    0.000    0.000    0.000    0.000    0.000 
#    0.000    0.000    0.000    0.000    0.000    0.000 
#
# Total GULP energy -83717.543494 kJ/mol
# GULP energy per Si atom -5581.169566 kJ/mol
# Density = 2.407055 g / cm^3
# Si number density = 24.125457 Si / 1000 Ang^3
#
#
#
# Elastic Constant Matrix: (Units=GPa)
#
#
# Indices 1 2 3 4 5 6 
#
# 1 126.6708 57.0151 71.4086 -4.2477 -20.4462 6.7229
# 2 57.0151 137.6762 34.1104 7.9930 -26.5255 10.3420
# 3 71.4086 34.1104 119.2243 -2.3091 -34.7849 -6.1890
# 4 -4.2477 7.9930 -2.3091 31.7010 -1.0500 -7.7644
# 5 -20.4462 -26.5255 -34.7849 -1.0500 64.1249 14.2146
# 6 6.7229 10.3420 -6.1890 -7.7644 14.2146 48.9408
#
#
#
# Elastic Compliance Matrix: (Units=1/GPa)
#
#
# Indices 1 2 3 4 5 6 
#
# 1 0.013963 -0.004123 -0.007504 0.001990 -0.000982 -0.001395
# 2 -0.004123 0.010028 0.000449 -0.003700 0.003718 -0.003163
# 3 -0.007504 0.000449 0.014379 0.000417 0.005317 0.001276
# 4 0.001990 -0.003700 0.000417 0.034303 -0.001538 0.006450
# 5 -0.000982 0.003718 0.005317 -0.001538 0.021085 -0.006346
# 6 -0.001395 -0.003163 0.001276 0.006450 -0.006346 0.024321
#
#
# Mechanical properties :
#
#
# Convention : Reuss Voigt Hill
#
# Bulk Modulus (GPa) = 62.44205 78.73770 70.58988
# Shear Modulus (GPa) = 34.30013 43.68917 38.99465
#
# Velocity S-wave (km/s) = 3.77469 4.26010 4.02472
# Velocity P-wave (km/s) = 6.70344 7.54358 7.13588
#
# Compressibility (1/GPa) = 0.01601485
#
# Stress axis : x y z
#
# Youngs Moduli (GPa) = 71.62028 99.71815 69.54642
#
# Poissons Ratio (x) = 0.41115 0.52184
# Poissons Ratio (y) = 0.29530 -0.03125
# Poissons Ratio (z) = 0.53741 -0.04480
#
# Static dielectric constant tensor:
#      x y z
#    x 2.047320 -0.007490 0.066090 
#    y -0.007490 1.875980 -0.050140 
#    z 0.066090 -0.050140 1.963570 
# 
# From -- ./inp_files/7944.got.cif
#   From: 2010.05.17/outbox.cif.g08.bks.cpg/sg2_4_cif.got.tgz:7944.got - 2010.06.03 11:33:40.
