data_PCOD9044308
_publ_section_title
;
Structure prediction by ZEFSAII (Michael W. Deem and Ramdas Pophale) SiO2 
 PCOD9044308
Probable space group: P -1
;
_chemical_formula_sum "Si O2"
_cell_formula_units_Z 16
_cell_length_a 15.846639
_cell_length_b 9.268096
_cell_length_c 10.499000
_cell_angle_alpha 70.796513
_cell_angle_beta 111.550418
_cell_angle_gamma 149.681000
_cell_volume 723.762208
_symmetry_space_group_name_H-M "P -1"
_symmetry_group_IT_number 2
_symmetry_cell_setting 'triclinic'
loop_
_space_group_symop_operation_xyz
x,y,z
-x,-y,-z
loop_
_atom_site_type_symbol
_atom_site_label
_atom_site_fract_x
_atom_site_fract_y
_atom_site_fract_z
Si Si1 0.903009 0.392553 0.106511
Si Si2 0.006329 0.170264 0.890750
Si Si3 0.160643 0.596127 0.366412
Si Si4 0.510810 0.282982 0.354069
Si Si5 0.558175 0.938576 0.133971
Si Si6 0.164167 0.272324 0.419397
Si Si7 0.672805 0.667410 0.739188
Si Si8 0.743608 0.402891 0.308667
O O1 0.710156 0.065359 0.108750
O O2 0.894513 0.563293 0.053262
O O3 0.010337 0.489981 0.261525
O O4 0.000000 0.500000 0.000000
O O5 0.107015 0.314770 0.773548
O O6 0.811090 0.934923 0.833345
O O7 0.000000 0.000000 0.000000
O O8 0.136916 0.409150 0.321617
O O9 0.169920 0.547599 0.531449
O O10 0.338275 0.939214 0.357738
O O11 0.654899 0.452019 0.488759
O O12 0.464710 0.393218 0.324792
O O13 0.613038 0.357848 0.269767
O O14 0.642677 0.128163 0.254791
O O15 0.413063 0.610765 0.180435
O O16 0.500000 0.000000 0.000000
O O17 0.216695 0.224160 0.355283
O O18 0.000000 0.000000 0.500000
#
# Coordination Sequence:
#
# PCOD9044308 Si02
#       8
#     2   2   2   2   2   2   2   2
#     4  11  27  47  71 101 138 190 237 290 349 426
#     4  11  25  46  67  99 137 186 226 286 353 414
#     4  11  23  46  72 101 139 184 235 281 360 412
#     4  11  23  42  67 106 135 178 229 287 351 412
#     4  11  26  44  70 101 138 189 232 288 355 414
#     4  11  25  42  69 102 143 184 217 286 354 420
#     4  12  23  42  68 101 137 174 233 289 339 422
#     4  10  23  46  72  96 140 187 230 281 354 427
#
# _framework density 22.106708000000001
#
# number of rings (size 3 to 8) (size 9 to 14) (size 15 to 20)
#    0.000    1.000    1.250    6.375    7.000    3.000 
#    4.500    1.875    0.000    0.000    0.000    0.000 
#    0.000    0.000    0.000    0.000    0.000    0.000 
#
# Total GULP energy -89158.392012 kJ/mol
# GULP energy per Si atom -5572.399501 kJ/mol
# Density = 2.205639 g / cm^3
# Si number density = 22.106708 Si / 1000 Ang^3
#
#
#
# Elastic Constant Matrix: (Units=GPa)
#
#
# Indices 1 2 3 4 5 6 
#
# 1 112.8846 28.8991 35.2143 -28.8782 0.3599 8.7884
# 2 28.8991 115.2919 26.5146 -20.0702 5.5310 17.7696
# 3 35.2143 26.5146 85.2652 -19.8751 5.5774 16.1906
# 4 -28.8782 -20.0702 -19.8751 31.0719 0.0275 3.5744
# 5 0.3599 5.5310 5.5774 0.0275 35.9535 -4.0087
# 6 8.7884 17.7696 16.1906 3.5744 -4.0087 38.3091
#
#
#
# Elastic Compliance Matrix: (Units=1/GPa)
#
#
# Indices 1 2 3 4 5 6 
#
# 1 0.012466 -0.000428 -0.002094 0.010285 -0.000048 -0.002741
# 2 -0.000428 0.011132 -0.000333 0.007254 -0.002314 -0.005843
# 3 -0.002094 -0.000333 0.016512 0.009272 -0.003339 -0.007558
# 4 0.010285 0.007254 0.009272 0.054106 -0.004388 -0.015150
# 5 -0.000048 -0.002314 -0.003339 -0.004388 0.029358 0.005977
# 6 -0.002741 -0.005843 -0.007558 -0.015150 0.005977 0.034676
#
#
# Mechanical properties :
#
#
# Convention : Reuss Voigt Hill
#
# Bulk Modulus (GPa) = 29.07084 54.96640 42.01862
# Shear Modulus (GPa) = 28.50202 35.92116 32.21159
#
# Velocity S-wave (km/s) = 3.59457 4.03538 3.82133
# Velocity P-wave (km/s) = 5.51422 6.82865 6.20633
#
# Compressibility (1/GPa) = 0.03439873
#
# Stress axis : x y z
#
# Youngs Moduli (GPa) = 80.21668 89.83187 60.56367
#
# Poissons Ratio (x) = 0.03844 0.12685
# Poissons Ratio (y) = 0.03433 0.02018
# Poissons Ratio (z) = 0.16801 0.02993
#
# Static dielectric constant tensor:
#      x y z
#    x 2.010090 0.017560 -0.037280 
#    y 0.017560 1.721430 0.033910 
#    z -0.037280 0.033910 1.883290 
# 
# From -- ./inp_files/447180.got.cif
#   From: 2010.05.17/outbox.cif.g08.bks.cpg/sg2_224_cif.got.tgz:447180.got - 2010.06.03 11:33:40.
