data_PCOD9044222
_publ_section_title
;
Structure prediction by ZEFSAII (Michael W. Deem and Ramdas Pophale) SiO2 
 PCOD9044222
Probable space group: P -1
;
_chemical_formula_sum "Si O2"
_cell_formula_units_Z 12
_cell_length_a 9.502922
_cell_length_b 5.412919
_cell_length_c 13.906308
_cell_angle_alpha 52.781485
_cell_angle_beta 66.488684
_cell_angle_gamma 93.343905
_cell_volume 476.347456
_symmetry_space_group_name_H-M "P -1"
_symmetry_group_IT_number 2
_symmetry_cell_setting 'triclinic'
loop_
_space_group_symop_operation_xyz
x,y,z
-x,-y,-z
loop_
_atom_site_type_symbol
_atom_site_label
_atom_site_fract_x
_atom_site_fract_y
_atom_site_fract_z
Si Si1 0.402571 0.494072 0.428350
Si Si2 0.012936 0.134399 0.604787
Si Si3 0.283834 0.370745 0.807742
Si Si4 0.104522 0.813648 0.829472
Si Si5 0.366416 0.154247 0.019762
Si Si6 0.662974 0.877025 0.749415
O O1 0.500000 0.500000 0.500000
O O2 0.212933 0.227846 0.517976
O O3 0.521643 0.491186 0.308862
O O4 0.380669 0.844311 0.356033
O O5 0.000000 0.500000 0.500000
O O6 0.998495 0.927339 0.757430
O O7 0.837841 0.876036 0.662114
O O8 0.226651 0.671280 0.775033
O O9 0.247726 0.120881 0.969115
O O10 0.193490 0.137116 0.797330
O O11 0.000000 0.500000 0.000000
O O12 0.487471 0.554941 0.888259
O O13 0.292178 0.014537 0.176163
O O14 0.500000 0.000000 0.000000
#
# Coordination Sequence:
#
# PCOD9044222 Si02
#       6
#     2   2   2   2   2   2
#     4  11  22  46  73 104 149 200 253 301 375 454
#     4  10  24  47  74 106 153 200 251 311 380 453
#     4  12  26  47  76 113 147 200 258 310 382 455
#     4  12  27  49  78 112 153 197 255 324 382 450
#     4  11  23  41  74 103 145 189 250 310 382 446
#     4  10  23  46  71 107 147 193 250 315 379 449
#
# _framework density 25.191697999999999
#
# number of rings (size 3 to 8) (size 9 to 14) (size 15 to 20)
#    0.000    1.000    3.333    2.500    4.667    0.667 
#    0.000    1.667    0.000    0.000    0.000    0.000 
#    0.000    0.000    0.000    0.000    0.000    0.000 
#
# Total GULP energy -66905.613820 kJ/mol
# GULP energy per Si atom -5575.467818 kJ/mol
# Density = 2.513436 g / cm^3
# Si number density = 25.191698 Si / 1000 Ang^3
#
#
#
# Elastic Constant Matrix: (Units=GPa)
#
#
# Indices 1 2 3 4 5 6 
#
# 1 188.0346 43.8671 52.7641 8.1903 26.5512 -14.0761
# 2 43.8671 75.0500 -5.9257 7.6302 16.6727 1.1938
# 3 52.7641 -5.9257 110.8536 -2.4764 24.3859 7.2175
# 4 8.1903 7.6302 -2.4764 21.1507 4.4531 -2.9028
# 5 26.5512 16.6727 24.3859 4.4531 70.1012 8.0714
# 6 -14.0761 1.1938 7.2175 -2.9028 8.0714 15.5385
#
#
#
# Elastic Compliance Matrix: (Units=1/GPa)
#
#
# Indices 1 2 3 4 5 6 
#
# 1 0.009190 -0.005556 -0.005066 -0.000128 -0.001771 0.012001
# 2 -0.005556 0.018087 0.004608 -0.004390 -0.002596 -0.008034
# 3 -0.005066 0.004608 0.012896 0.001085 -0.002655 -0.009351
# 4 -0.000128 -0.004390 0.001085 0.051405 -0.003854 0.011323
# 5 -0.001771 -0.002596 -0.002655 -0.003854 0.017895 -0.010186
# 6 0.012001 -0.008034 -0.009351 0.011323 -0.010186 0.087595
#
#
# Mechanical properties :
#
#
# Convention : Reuss Voigt Hill
#
# Bulk Modulus (GPa) = 35.53228 61.70546 48.61887
# Shear Modulus (GPa) = 22.88573 40.24026 31.56299
#
# Velocity S-wave (km/s) = 3.01734 4.00104 3.54349
# Velocity P-wave (km/s) = 5.12587 6.77436 6.00693
#
# Compressibility (1/GPa) = 0.02814342
#
# Stress axis : x y z
#
# Youngs Moduli (GPa) = 108.81605 55.28935 77.54557
#
# Poissons Ratio (x) = 0.30719 0.39283
# Poissons Ratio (y) = 0.60459 -0.35729
# Poissons Ratio (z) = 0.55125 -0.25475
#
# Static dielectric constant tensor:
#      x y z
#    x 1.999000 0.056780 -0.094230 
#    y 0.056780 2.076590 0.064980 
#    z -0.094230 0.064980 2.111380 
# 
# From -- ./inp_files/410081.got.cif
#   From: 2010.05.17/outbox.cif.g08.bks.cpg/sg2_206_cif.got.tgz:410081.got - 2010.06.03 11:33:40.
