data_PCOD9044952
_publ_section_title
;
Structure prediction by ZEFSAII (Michael W. Deem and Ramdas Pophale) SiO2 
 PCOD9044952
Probable space group: P -1
;
_chemical_formula_sum "Si O2"
_cell_formula_units_Z 12
_cell_length_a 5.138995
_cell_length_b 9.928311
_cell_length_c 15.976094
_cell_angle_alpha 122.795102
_cell_angle_beta 139.646093
_cell_angle_gamma 61.791510
_cell_volume 440.977952
_symmetry_space_group_name_H-M "P -1"
_symmetry_group_IT_number 2
_symmetry_cell_setting 'triclinic'
loop_
_space_group_symop_operation_xyz
x,y,z
-x,-y,-z
loop_
_atom_site_type_symbol
_atom_site_label
_atom_site_fract_x
_atom_site_fract_y
_atom_site_fract_z
Si Si1 0.819405 0.641913 0.353230
Si Si2 0.887894 0.734377 0.218742
Si Si3 0.980278 0.992880 0.091990
Si Si4 0.060000 0.711986 0.711409
Si Si5 0.806910 0.679390 0.002712
Si Si6 0.961422 0.916856 0.588474
O O1 0.361410 0.681877 0.289786
O O2 0.039230 0.471447 0.382111
O O3 0.033418 0.799058 0.486652
O O4 0.831817 0.631269 0.252514
O O5 0.634260 0.712707 0.065031
O O6 0.821962 0.924259 0.288678
O O7 0.505811 0.681754 0.851699
O O8 0.137335 0.150265 0.226069
O O9 0.500000 0.000000 0.000000
O O10 0.000000 0.000000 0.000000
O O11 0.027608 0.799409 0.644507
O O12 0.902363 0.182060 0.896725
O O13 0.000000 0.500000 0.000000
O O14 0.500000 0.000000 0.500000
#
# Coordination Sequence:
#
# PCOD9044952 Si02
#       6
#     2   2   2   2   2   2
#     4  11  25  44  72 102 139 186 231 287 341 412
#     4  11  24  46  70 103 141 184 230 285 348 413
#     4  10  24  43  64 100 138 178 222 277 342 409
#     4  11  23  44  71 104 140 180 232 288 348 414
#     4  11  23  44  70 104 141 181 227 286 351 417
#     4  10  23  48  70 100 138 186 237 286 342 409
#
# _framework density 27.212247000000001
#
# number of rings (size 3 to 8) (size 9 to 14) (size 15 to 20)
#    0.000    1.333    3.333    1.000    2.333    3.333 
#    0.000   15.833    0.000    0.000    0.000    0.000 
#    0.000    0.000    0.000    0.000    0.000    0.000 
#
# Total GULP energy -67192.904313 kJ/mol
# GULP energy per Si atom -5599.408693 kJ/mol
# Density = 2.715031 g / cm^3
# Si number density = 27.212247 Si / 1000 Ang^3
#
#
#
# Elastic Constant Matrix: (Units=GPa)
#
#
# Indices 1 2 3 4 5 6 
#
# 1 128.1086 45.6063 20.1606 -3.3536 -23.5438 18.5273
# 2 45.6063 231.5378 36.9382 18.3441 -11.0270 18.8679
# 3 20.1606 36.9382 124.6902 16.1519 -11.8936 -4.1120
# 4 -3.3536 18.3441 16.1519 75.8139 2.0462 -14.3041
# 5 -23.5438 -11.0270 -11.8936 2.0462 47.5095 -10.7313
# 6 18.5273 18.8679 -4.1120 -14.3041 -10.7313 38.3198
#
#
#
# Elastic Compliance Matrix: (Units=1/GPa)
#
#
# Indices 1 2 3 4 5 6 
#
# 1 0.009506 -0.001339 -0.000944 0.000294 0.003484 -0.002953
# 2 -0.001339 0.005098 -0.001214 -0.001526 -0.000317 -0.002652
# 3 -0.000944 -0.001214 0.008965 -0.001318 0.002024 0.002091
# 4 0.000294 -0.001526 -0.001318 0.015003 0.000199 0.006124
# 5 0.003484 -0.000317 0.002024 0.000199 0.024468 0.005615
# 6 -0.002953 -0.002652 0.002091 0.006124 0.005615 0.032912
#
#
# Mechanical properties :
#
#
# Convention : Reuss Voigt Hill
#
# Bulk Modulus (GPa) = 60.32558 76.63856 68.48207
# Shear Modulus (GPa) = 46.09578 57.77075 51.93327
#
# Velocity S-wave (km/s) = 4.12021 4.61257 4.37332
# Velocity P-wave (km/s) = 6.69713 7.52277 7.12192
#
# Compressibility (1/GPa) = 0.01657671
#
# Stress axis : x y z
#
# Youngs Moduli (GPa) = 105.19697 196.14959 111.54769
#
# Poissons Ratio (x) = 0.26258 0.10525
# Poissons Ratio (y) = 0.14082 0.13541
# Poissons Ratio (z) = 0.09926 0.23810
#
# Static dielectric constant tensor:
#      x y z
#    x 2.315590 -0.228380 0.149040 
#    y -0.228380 2.278560 -0.057150 
#    z 0.149040 -0.057150 2.248740 
# 
# From -- ./inp_files/478706.got.cif
#   From: 2010.05.17/outbox.cif.g08.bks.cpg/sg2_240_cif.got.tgz:478706.got - 2010.06.03 11:33:40.
