data_PCOD9044121
_publ_section_title
;
Structure prediction by ZEFSAII (Michael W. Deem and Ramdas Pophale) SiO2 
 PCOD9044121
Probable space group: P -1
;
_chemical_formula_sum "Si O2"
_cell_formula_units_Z 12
_cell_length_a 13.446740
_cell_length_b 14.176328
_cell_length_c 10.645744
_cell_angle_alpha 148.109305
_cell_angle_beta 149.828734
_cell_angle_gamma 31.096961
_cell_volume 478.303625
_symmetry_space_group_name_H-M "P -1"
_symmetry_group_IT_number 2
_symmetry_cell_setting 'triclinic'
loop_
_space_group_symop_operation_xyz
x,y,z
-x,-y,-z
loop_
_atom_site_type_symbol
_atom_site_label
_atom_site_fract_x
_atom_site_fract_y
_atom_site_fract_z
Si Si1 0.980809 0.137177 0.813280
Si Si2 0.929888 0.160081 0.214387
Si Si3 0.823773 0.585918 0.554090
Si Si4 0.433646 0.800466 0.858356
Si Si5 0.463010 0.378272 0.474232
Si Si6 0.448097 0.210188 0.748119
O O1 0.732260 0.276978 0.655012
O O2 0.969038 0.968172 0.696749
O O3 0.199074 0.002729 0.815389
O O4 0.052801 0.279904 0.133950
O O5 0.977086 0.347406 0.463207
O O6 0.664586 0.246736 0.020934
O O7 0.000000 0.000000 0.000000
O O8 0.642024 0.641921 0.532161
O O9 0.720028 0.628682 0.350682
O O10 0.381767 0.611579 0.615694
O O11 0.581161 0.734733 0.819364
O O12 0.559590 0.815919 0.138875
O O13 0.500000 0.000000 0.500000
#
# Coordination Sequence:
#
# PCOD9044121 Si02
#       6
#     2   2   2   2   2   2
#     4  11  24  46  70 107 141 183 239 291 346 425
#     4  11  24  41  66 106 142 179 236 291 351 420
#     4  12  24  45  75 103 141 188 237 289 359 418
#     4  10  23  46  70 103 149 181 236 297 344 419
#     4  11  24  46  76 100 144 193 228 296 354 411
#     4  11  21  43  69  96 142 179 225 296 344 406
#
# _framework density 25.088666
#
# number of rings (size 3 to 8) (size 9 to 14) (size 15 to 20)
#    0.000    1.000    6.667    2.000    2.333    2.667 
#    3.000    3.333    0.000    0.000    0.000    0.000 
#    0.000    0.000    0.000    0.000    0.000    0.000 
#
# Total GULP energy -67110.816921 kJ/mol
# GULP energy per Si atom -5592.568077 kJ/mol
# Density = 2.503156 g / cm^3
# Si number density = 25.088666 Si / 1000 Ang^3
#
#
#
# Elastic Constant Matrix: (Units=GPa)
#
#
# Indices 1 2 3 4 5 6 
#
# 1 142.9469 28.0933 44.7136 -3.5934 -26.4303 -11.9353
# 2 28.0933 127.7345 49.7471 12.3419 1.8461 4.0684
# 3 44.7136 49.7471 79.9337 -2.4185 -21.3859 -4.3670
# 4 -3.5934 12.3419 -2.4185 47.5898 -1.2867 -8.2505
# 5 -26.4303 1.8461 -21.3859 -1.2867 47.3594 17.0057
# 6 -11.9353 4.0684 -4.3670 -8.2505 17.0057 26.3174
#
#
#
# Elastic Compliance Matrix: (Units=1/GPa)
#
#
# Indices 1 2 3 4 5 6 
#
# 1 0.009004 -0.000755 -0.003714 0.001150 0.002594 0.002268
# 2 -0.000755 0.011665 -0.008108 -0.003991 -0.003832 -0.002266
# 3 -0.003714 -0.008108 0.021995 0.002907 0.008817 -0.001568
# 4 0.001150 -0.003991 0.002907 0.023921 -0.000671 0.009553
# 5 0.002594 -0.003832 0.008817 -0.000671 0.033322 -0.018510
# 6 0.002268 -0.002266 -0.001568 0.009553 -0.018510 0.054072
#
#
# Mechanical properties :
#
#
# Convention : Reuss Voigt Hill
#
# Bulk Modulus (GPa) = 57.10564 66.19146 61.64855
# Shear Modulus (GPa) = 27.03158 39.45740 33.24449
#
# Velocity S-wave (km/s) = 3.28600 3.97005 3.64411
# Velocity P-wave (km/s) = 6.09984 6.88879 6.50628
#
# Compressibility (1/GPa) = 0.01751141
#
# Stress axis : x y z
#
# Youngs Moduli (GPa) = 111.06746 85.72353 45.46444
#
# Poissons Ratio (x) = 0.06468 0.16886
# Poissons Ratio (y) = 0.08380 0.36861
# Poissons Ratio (z) = 0.41253 0.69502
#
# Static dielectric constant tensor:
#      x y z
#    x 2.080890 -0.044970 -0.034900 
#    y -0.044970 1.994160 0.014940 
#    z -0.034900 0.014940 1.957040 
# 
# From -- ./inp_files/375543.got.cif
#   From: 2010.05.17/outbox.cif.g08.bks.cpg/sg2_188_cif.got.tgz:375543.got - 2010.06.03 11:33:40.
