data_PCOD9044323
_publ_section_title
;
Structure prediction by ZEFSAII (Michael W. Deem and Ramdas Pophale) SiO2 
 PCOD9044323
Probable space group: P -1
;
_chemical_formula_sum "Si O2"
_cell_formula_units_Z 10
_cell_length_a 17.459380
_cell_length_b 13.111379
_cell_length_c 7.978615
_cell_angle_alpha 31.191756
_cell_angle_beta 147.465685
_cell_angle_gamma 156.950942
_cell_volume 355.983286
_symmetry_space_group_name_H-M "P -1"
_symmetry_group_IT_number 2
_symmetry_cell_setting 'triclinic'
loop_
_space_group_symop_operation_xyz
x,y,z
-x,-y,-z
loop_
_atom_site_type_symbol
_atom_site_label
_atom_site_fract_x
_atom_site_fract_y
_atom_site_fract_z
Si Si1 0.416429 0.178878 0.465858
Si Si2 0.113712 0.037835 0.327030
Si Si3 0.120073 0.453346 0.178985
Si Si4 0.585230 0.396880 0.010125
Si Si5 0.770998 0.170845 0.728268
O O1 0.638638 0.309872 0.716615
O O2 0.314872 0.988689 0.381761
O O3 0.438657 0.438920 0.144138
O O4 0.254917 0.999706 0.570944
O O5 0.955077 0.820373 0.479957
O O6 0.282630 0.370677 0.218990
O O7 0.000000 0.000000 0.000000
O O8 0.000000 0.500000 0.000000
O O9 0.004442 0.356163 0.925835
O O10 0.365108 0.081314 0.030981
O O11 0.718804 0.349598 0.395330
#
# Coordination Sequence:
#
# PCOD9044323 Si02
#       5
#     2   2   2   2   2
#     4  10  25  48  75  97 145 194 225 287 363 414
#     4  10  23  46  72  99 148 184 227 298 349 411
#     4  12  26  44  74 111 140 180 243 296 341 420
#     4   9  22  44  73  99 142 189 231 285 352 422
#     4  11  21  44  79 100 137 191 235 286 353 414
#
# _framework density 28.091204999999999
#
# number of rings (size 3 to 8) (size 9 to 14) (size 15 to 20)
#    1.200    0.400    0.000    5.400    2.800    2.400 
#    0.000    8.000    8.800    0.000    0.000    0.000 
#    0.000    0.000    0.000    0.000    0.000    0.000 
#
# Total GULP energy -56012.838679 kJ/mol
# GULP energy per Si atom -5601.283868 kJ/mol
# Density = 2.802727 g / cm^3
# Si number density = 28.091205 Si / 1000 Ang^3
#
#
#
# Elastic Constant Matrix: (Units=GPa)
#
#
# Indices 1 2 3 4 5 6 
#
# 1 154.8228 55.7922 54.4668 22.2677 39.4391 24.9550
# 2 55.7922 149.3997 74.5397 26.9801 29.5394 17.4167
# 3 54.4668 74.5397 120.8128 6.6521 33.2552 -3.0843
# 4 22.2677 26.9801 6.6521 70.6345 11.9116 9.4017
# 5 39.4391 29.5394 33.2552 11.9116 48.9433 -9.0887
# 6 24.9550 17.4167 -3.0843 9.4017 -9.0887 52.8608
#
#
#
# Elastic Compliance Matrix: (Units=1/GPa)
#
#
# Indices 1 2 3 4 5 6 
#
# 1 0.010488 -0.000258 -0.002631 -0.000890 -0.007431 -0.006139
# 2 -0.000258 0.011273 -0.006096 -0.002706 -0.002519 -0.003900
# 3 -0.002631 -0.006096 0.014237 0.002051 -0.003805 0.003062
# 4 -0.000890 -0.002706 0.002051 0.016108 -0.003336 -0.002007
# 5 -0.007431 -0.002519 -0.003805 -0.003336 0.033275 0.010431
# 6 -0.006139 -0.003900 0.003062 -0.002007 0.010431 0.025430
#
#
# Mechanical properties :
#
#
# Convention : Reuss Voigt Hill
#
# Bulk Modulus (GPa) = 55.47107 88.29250 71.88178
# Shear Modulus (GPa) = 37.09447 50.50349 43.79898
#
# Velocity S-wave (km/s) = 3.63781 4.24469 3.95292
# Velocity P-wave (km/s) = 6.11838 7.45132 6.81750
#
# Compressibility (1/GPa) = 0.01802742
#
# Stress axis : x y z
#
# Youngs Moduli (GPa) = 95.34372 88.70988 70.23893
#
# Poissons Ratio (x) = 0.02290 0.18483
# Poissons Ratio (y) = 0.02462 0.42816
# Poissons Ratio (z) = 0.25089 0.54076
#
# Static dielectric constant tensor:
#      x y z
#    x 2.167170 -0.008800 -0.050840 
#    y -0.008800 2.227970 -0.023120 
#    z -0.050840 -0.023120 2.244040 
# 
# From -- ./inp_files/357125.got.cif
#   From: 2010.05.17/outbox.cif.g08.bks.cpg/sg2_179_cif.got.tgz:357125.got - 2010.06.03 11:33:40.
