data_PCOD9044592
_publ_section_title
;
Structure prediction by ZEFSAII (Michael W. Deem and Ramdas Pophale) SiO2 
 PCOD9044592
Probable space group: P -1
;
_chemical_formula_sum "Si O2"
_cell_formula_units_Z 15
_cell_length_a 8.692625
_cell_length_b 7.706915
_cell_length_c 18.645489
_cell_angle_alpha 133.669869
_cell_angle_beta 125.488676
_cell_angle_gamma 47.159996
_cell_volume 647.837337
_symmetry_space_group_name_H-M "P -1"
_symmetry_group_IT_number 2
_symmetry_cell_setting 'triclinic'
loop_
_space_group_symop_operation_xyz
x,y,z
-x,-y,-z
loop_
_atom_site_type_symbol
_atom_site_label
_atom_site_fract_x
_atom_site_fract_y
_atom_site_fract_z
Si Si1 0.963453 0.184498 0.931262
Si Si2 0.045312 0.558250 0.412577
Si Si3 0.500000 0.500000 0.500000
Si Si4 0.293450 0.033843 0.109515
Si Si5 0.457795 0.457283 0.311588
Si Si6 0.746924 0.937072 0.560535
Si Si7 0.234510 0.673885 0.776748
Si Si8 0.437875 0.286845 0.026897
O O1 0.804976 0.497936 0.964131
O O2 0.811034 0.062578 0.885045
O O3 0.083902 0.994188 0.842343
O O4 0.125003 0.139306 0.027774
O O5 0.246081 0.573193 0.437545
O O6 0.147118 0.290848 0.415282
O O7 0.885931 0.814017 0.491214
O O8 0.895871 0.494294 0.300516
O O9 0.552392 0.431729 0.409271
O O10 0.358493 0.257308 0.215385
O O11 0.501916 0.782907 0.059323
O O12 0.646523 0.385993 0.284265
O O13 0.281020 0.771187 0.342010
O O14 0.500000 0.000000 0.500000
O O15 0.416030 0.597390 0.864213
O O16 0.500000 0.000000 0.000000
#
# Coordination Sequence:
#
# PCOD9044592 Si02
#       8
#     2   2   1   2   2   2   2   2
#     4  10  24  44  74 102 151 189 227 304 358 436
#     4  11  24  44  69 100 138 187 238 296 364 425
#     4  12  26  46  66 102 140 178 250 296 350 428
#     4  10  23  47  68 107 143 185 242 290 369 425
#     4  12  24  46  70 102 141 186 245 299 350 431
#     4  11  22  45  72  94 137 187 242 296 359 424
#     4  11  24  42  71 106 141 188 242 283 368 433
#     4  11  23  43  72 113 144 185 245 286 354 451
#
# _framework density 23.153962
#
# number of rings (size 3 to 8) (size 9 to 14) (size 15 to 20)
#    0.000    1.067    4.000    2.000    1.867    3.733 
#    4.800    0.000    0.000    0.000    0.000    0.000 
#    0.000    0.000    0.000    0.000    0.000    0.000 
#
# Total GULP energy -83714.489602 kJ/mol
# GULP energy per Si atom -5580.965973 kJ/mol
# Density = 2.310126 g / cm^3
# Si number density = 23.153962 Si / 1000 Ang^3
#
#
#
# Elastic Constant Matrix: (Units=GPa)
#
#
# Indices 1 2 3 4 5 6 
#
# 1 106.2256 33.1750 53.3547 9.6756 7.0455 -24.2179
# 2 33.1750 101.1794 45.4420 27.8993 -5.5962 -22.0876
# 3 53.3547 45.4420 129.9725 11.8420 -6.5418 -12.8387
# 4 9.6756 27.8993 11.8420 31.7689 -14.9073 -2.6924
# 5 7.0455 -5.5962 -6.5418 -14.9073 49.3190 -2.4355
# 6 -24.2179 -22.0876 -12.8387 -2.6924 -2.4355 37.9902
#
#
#
# Elastic Compliance Matrix: (Units=1/GPa)
#
#
# Indices 1 2 3 4 5 6 
#
# 1 0.013967 -0.000228 -0.004866 -0.003227 -0.003312 0.006686
# 2 -0.000228 0.017051 -0.004002 -0.013929 -0.002415 0.007274
# 3 -0.004866 -0.004002 0.010887 0.001829 0.002165 -0.001481
# 4 -0.003227 -0.013929 0.001829 0.050167 0.014035 -0.005083
# 5 -0.003312 -0.002415 0.002165 0.014035 0.024996 -0.000187
# 6 0.006686 0.007274 -0.001481 -0.005083 -0.000187 0.033941
#
#
# Mechanical properties :
#
#
# Convention : Reuss Voigt Hill
#
# Bulk Modulus (GPa) = 42.17119 66.81345 54.49232
# Shear Modulus (GPa) = 28.23213 37.50934 32.87074
#
# Velocity S-wave (km/s) = 3.49567 4.02928 3.77192
# Velocity P-wave (km/s) = 5.87757 7.11095 6.52348
#
# Compressibility (1/GPa) = 0.02371287
#
# Stress axis : x y z
#
# Youngs Moduli (GPa) = 71.59667 58.64897 91.85512
#
# Poissons Ratio (x) = 0.01336 0.44698
# Poissons Ratio (y) = 0.01631 0.36758
# Poissons Ratio (z) = 0.34840 0.23470
#
# Static dielectric constant tensor:
#      x y z
#    x 1.901710 -0.000080 0.021430 
#    y -0.000080 1.862030 0.010020 
#    z 0.021430 0.010020 1.857180 
# 
# From -- ./inp_files/587631.got.cif
#   From: 2010.05.17/outbox.cif.g08.bks.cpg/sg2_294_cif.got.tgz:587631.got - 2010.06.03 11:33:40.
