data_PCOD9044800
_publ_section_title
;
Structure prediction by ZEFSAII (Michael W. Deem and Ramdas Pophale) SiO2 
 PCOD9044800
Probable space group: P -1
;
_chemical_formula_sum "Si O2"
_cell_formula_units_Z 14
_cell_length_a 11.573067
_cell_length_b 15.551891
_cell_length_c 19.644122
_cell_angle_alpha 23.574458
_cell_angle_beta 143.455094
_cell_angle_gamma 153.905798
_cell_volume 618.036038
_symmetry_space_group_name_H-M "P -1"
_symmetry_group_IT_number 2
_symmetry_cell_setting 'triclinic'
loop_
_space_group_symop_operation_xyz
x,y,z
-x,-y,-z
loop_
_atom_site_type_symbol
_atom_site_label
_atom_site_fract_x
_atom_site_fract_y
_atom_site_fract_z
Si Si1 0.050703 0.293460 0.822876
Si Si2 0.719380 0.388241 0.012161
Si Si3 0.673484 0.087094 0.086057
Si Si4 0.239765 0.417862 0.966392
Si Si5 0.102321 0.151905 0.687293
Si Si6 0.736835 0.319949 0.552762
Si Si7 0.590657 0.786350 0.639789
O O1 0.078684 0.373802 0.856836
O O2 0.331647 0.570861 0.720782
O O3 0.815293 0.230615 0.717148
O O4 0.000000 0.000000 0.000000
O O5 0.583034 0.117167 0.093422
O O6 0.662783 0.360642 0.086034
O O7 0.664939 0.587078 0.810677
O O8 0.036075 0.587101 0.020750
O O9 0.737927 0.882335 0.262686
O O10 0.500000 0.000000 0.000000
O O11 0.500000 0.500000 0.000000
O O12 0.044423 0.104127 0.139687
O O13 0.853207 0.076967 0.587665
O O14 0.283032 0.456204 0.589244
O O15 0.492648 0.127777 0.525135
O O16 0.000000 0.500000 0.500000
#
# Coordination Sequence:
#
# PCOD9044800 Si02
#       7
#     2   2   2   2   2   2   2
#     4  11  21  34  51  78 113 151 185 219 278 336
#     4   9  18  31  54  83 111 142 186 227 274 319
#     4   9  17  31  55  83 107 140 185 238 269 312
#     4  10  17  34  51  79 117 145 171 227 271 333
#     4  10  20  35  57  80 110 145 185 225 281 320
#     4  10  21  34  51  77 110 147 186 227 268 329
#     4   9  18  35  51  77 112 141 183 226 263 325
#
# _framework density 22.6524
#
# number of rings (size 3 to 8) (size 9 to 14) (size 15 to 20)
#    0.000    2.571    2.857    2.571    0.000    3.429 
#    2.571    0.000    0.000    0.857    0.000   41.000 
#    0.000    4.571    0.000    0.000    0.000    0.000 
#
# Total GULP energy -78079.782901 kJ/mol
# GULP energy per Si atom -5577.127350 kJ/mol
# Density = 2.260084 g / cm^3
# Si number density = 22.652400 Si / 1000 Ang^3
#
#
#
# Elastic Constant Matrix: (Units=GPa)
#
#
# Indices 1 2 3 4 5 6 
#
# 1 119.2368 38.6335 28.0773 10.9136 -2.2709 -35.5504
# 2 38.6335 129.0843 40.0409 48.1945 -11.7447 -19.6221
# 3 28.0773 40.0409 81.5977 41.3199 -9.0027 -15.8978
# 4 10.9136 48.1945 41.3199 48.8252 -14.2769 -2.3050
# 5 -2.2709 -11.7447 -9.0027 -14.2769 19.9128 5.6855
# 6 -35.5504 -19.6221 -15.8978 -2.3050 5.6855 42.4371
#
#
#
# Elastic Compliance Matrix: (Units=1/GPa)
#
#
# Indices 1 2 3 4 5 6 
#
# 1 0.012064 -0.002213 -0.002127 0.000900 -0.002730 0.008701
# 2 -0.002213 0.014370 0.003088 -0.017326 -0.004401 0.005596
# 3 -0.002127 0.003088 0.025554 -0.026167 -0.008168 0.008892
# 4 0.000900 -0.017326 -0.026167 0.068007 0.031847 -0.017633
# 5 -0.002730 -0.004401 -0.008168 0.031847 0.070774 -0.015134
# 6 0.008701 0.005596 0.008892 -0.017633 -0.015134 0.037842
#
#
# Mechanical properties :
#
#
# Convention : Reuss Voigt Hill
#
# Bulk Modulus (GPa) = 20.20814 60.38023 40.29418
# Shear Modulus (GPa) = 20.19309 37.11283 28.65296
#
# Velocity S-wave (km/s) = 2.98893 4.05206 3.56040
# Velocity P-wave (km/s) = 4.56639 6.97174 5.89309
#
# Compressibility (1/GPa) = 0.04948501
#
# Stress axis : x y z
#
# Youngs Moduli (GPa) = 82.88858 69.58779 39.13337
#
# Poissons Ratio (x) = 0.15398 0.08325
# Poissons Ratio (y) = 0.18341 -0.12086
# Poissons Ratio (z) = 0.17633 -0.21491
#
# Static dielectric constant tensor:
#      x y z
#    x 1.839480 -0.010770 0.030250 
#    y -0.010770 1.856820 -0.010500 
#    z 0.030250 -0.010500 1.880110 
# 
# From -- ./inp_files/569496.got.cif
#   From: 2010.05.17/outbox.cif.g08.bks.cpg/sg2_285_cif.got.tgz:569496.got - 2010.06.03 11:33:40.
