data_PCOD9044333
_publ_section_title
;
Structure prediction by ZEFSAII (Michael W. Deem and Ramdas Pophale) SiO2 
 PCOD9044333
Probable space group: P -1
;
_chemical_formula_sum "Si O2"
_cell_formula_units_Z 16
_cell_length_a 8.490511
_cell_length_b 6.186832
_cell_length_c 17.473665
_cell_angle_alpha 44.532366
_cell_angle_beta 83.643434
_cell_angle_gamma 87.154571
_cell_volume 639.198336
_symmetry_space_group_name_H-M "P -1"
_symmetry_group_IT_number 2
_symmetry_cell_setting 'triclinic'
loop_
_space_group_symop_operation_xyz
x,y,z
-x,-y,-z
loop_
_atom_site_type_symbol
_atom_site_label
_atom_site_fract_x
_atom_site_fract_y
_atom_site_fract_z
Si Si1 0.436585 0.651143 0.111881
Si Si2 0.372489 0.588521 0.570417
Si Si3 0.877284 0.155100 0.360785
Si Si4 0.958548 0.835940 0.965506
Si Si5 0.676244 0.138404 0.235608
Si Si6 0.272692 0.488347 0.440006
Si Si7 0.148433 0.635319 0.251505
Si Si8 0.271717 0.555019 0.990746
O O1 0.555878 0.400206 0.199761
O O2 0.290028 0.647852 0.179065
O O3 0.382928 0.515958 0.065508
O O4 0.500000 0.000000 0.000000
O O5 0.255905 0.694351 0.615995
O O6 0.305600 0.680665 0.467318
O O7 0.559575 0.668388 0.549712
O O8 0.371375 0.215532 0.657152
O O9 0.831831 0.208537 0.260933
O O10 0.044795 0.318060 0.330514
O O11 0.857024 0.788709 0.468010
O O12 0.095120 0.591001 0.022183
O O13 0.966672 0.091586 0.833900
O O14 0.776961 0.705629 0.002846
O O15 0.000000 0.000000 0.000000
O O16 0.687052 0.158735 0.137831
O O17 0.218594 0.675267 0.322316
#
# Coordination Sequence:
#
# PCOD9044333 Si02
#       8
#     2   2   2   2   2   2   2   2
#     4  12  28  45  70 104 146 187 240 297 344 420
#     4  10  23  46  73 102 139 181 229 290 353 420
#     4  11  24  46  71 103 141 181 229 293 354 422
#     4  11  23  44  67 101 139 183 230 289 346 416
#     4  11  25  42  71  99 137 184 234 283 352 417
#     4  10  24  44  70 106 139 178 233 287 352 423
#     4  12  25  43  74  99 142 186 232 288 353 412
#     4  11  25  43  70  99 140 186 238 286 349 415
#
# _framework density 25.031354
#
# number of rings (size 3 to 8) (size 9 to 14) (size 15 to 20)
#    0.000    1.000    1.250    4.125    8.750    2.500 
#    0.000    0.000    0.000    0.000    0.000    0.000 
#    0.000    0.000    0.000    0.000    0.000    0.000 
#
# Total GULP energy -89432.186816 kJ/mol
# GULP energy per Si atom -5589.511676 kJ/mol
# Density = 2.497438 g / cm^3
# Si number density = 25.031354 Si / 1000 Ang^3
#
#
#
# Elastic Constant Matrix: (Units=GPa)
#
#
# Indices 1 2 3 4 5 6 
#
# 1 72.1092 24.7524 30.7065 3.9217 6.6422 15.7904
# 2 24.7524 38.7741 22.8156 2.4102 9.6544 7.8023
# 3 30.7065 22.8156 96.0250 24.1500 13.2648 20.9769
# 4 3.9217 2.4102 24.1500 40.0377 15.8163 7.2876
# 5 6.6422 9.6544 13.2648 15.8163 51.7762 10.2817
# 6 15.7904 7.8023 20.9769 7.2876 10.2817 48.8080
#
#
#
# Elastic Compliance Matrix: (Units=1/GPa)
#
#
# Indices 1 2 3 4 5 6 
#
# 1 0.019372 -0.009833 -0.003474 0.001204 0.000566 -0.003501
# 2 -0.009833 0.036608 -0.006010 0.004473 -0.005470 0.000396
# 3 -0.003474 -0.006010 0.015755 -0.008476 0.000833 -0.003597
# 4 0.001204 0.004473 -0.008476 0.033313 -0.008881 -0.000565
# 5 0.000566 -0.005470 0.000833 -0.008881 0.023411 -0.003272
# 6 -0.003501 0.000396 -0.003597 -0.000565 -0.003272 0.023877
#
#
# Mechanical properties :
#
#
# Convention : Reuss Voigt Hill
#
# Bulk Modulus (GPa) = 30.21111 40.38413 35.29762
# Shear Modulus (GPa) = 24.75205 36.69995 30.72600
#
# Velocity S-wave (km/s) = 3.14800 3.83320 3.50737
# Velocity P-wave (km/s) = 5.03077 5.97994 5.52577
#
# Compressibility (1/GPa) = 0.03310041
#
# Stress axis : x y z
#
# Youngs Moduli (GPa) = 51.62137 27.31631 63.47190
#
# Poissons Ratio (x) = 0.26861 0.22052
# Poissons Ratio (y) = 0.50761 0.38144
# Poissons Ratio (z) = 0.17935 0.16416
#
# Static dielectric constant tensor:
#      x y z
#    x 1.947140 -0.134770 -0.019290 
#    y -0.134770 1.468740 0.039480 
#    z -0.019290 0.039480 2.008510 
# 
# From -- ./inp_files/553159.got.cif
#   From: 2010.05.17/outbox.cif.g08.bks.cpg/sg2_277_cif.got.tgz:553159.got - 2010.06.03 11:33:40.
