data_PCOD9044689
_publ_section_title
;
Structure prediction by ZEFSAII (Michael W. Deem and Ramdas Pophale) SiO2 
 PCOD9044689
Probable space group: P -1
;
_chemical_formula_sum "Si O2"
_cell_formula_units_Z 16
_cell_length_a 9.091564
_cell_length_b 4.975654
_cell_length_c 20.016471
_cell_angle_alpha 91.321573
_cell_angle_beta 49.510767
_cell_angle_gamma 107.985173
_cell_volume 634.982047
_symmetry_space_group_name_H-M "P -1"
_symmetry_group_IT_number 2
_symmetry_cell_setting 'triclinic'
loop_
_space_group_symop_operation_xyz
x,y,z
-x,-y,-z
loop_
_atom_site_type_symbol
_atom_site_label
_atom_site_fract_x
_atom_site_fract_y
_atom_site_fract_z
Si Si1 0.699456 0.910267 0.785683
Si Si2 0.951185 0.550061 0.756947
Si Si3 0.454678 0.392343 0.776730
Si Si4 0.260888 0.906088 0.931386
Si Si5 0.957350 0.548559 0.122274
Si Si6 0.283032 0.339527 0.603546
Si Si7 0.812487 0.803108 0.508264
Si Si8 0.552723 0.160792 0.620270
O O1 0.863796 0.801791 0.772898
O O2 0.636374 0.705613 0.737451
O O3 0.464907 0.830787 0.884377
O O4 0.794080 0.258759 0.763560
O O5 0.950063 0.506401 0.836593
O O6 0.170655 0.546305 0.664743
O O7 0.260487 0.424207 0.797067
O O8 0.524517 0.189221 0.707378
O O9 0.356718 0.226573 0.873391
O O10 0.116506 0.708748 0.912863
O O11 0.118807 0.830953 0.038186
O O12 0.500000 0.500000 0.500000
O O13 0.139772 0.148250 0.584335
O O14 0.352080 0.169889 0.639676
O O15 0.741710 0.462593 0.544220
O O16 0.619159 0.898310 0.581196
O O17 0.000000 0.000000 0.500000
#
# Coordination Sequence:
#
# PCOD9044689 Si02
#       8
#     2   2   2   2   2   2   2   2
#     4  11  27  44  69 103 146 185 226 293 353 417
#     4  12  26  47  71 106 139 188 233 295 353 420
#     4  11  23  45  71 100 145 185 242 276 357 412
#     4  10  23  47  71 107 142 190 230 295 340 428
#     4  10  24  43  75 105 139 187 242 284 352 416
#     4  10  25  48  69 100 139 181 233 290 347 414
#     4  11  26  43  69 103 136 176 227 288 353 414
#     4  11  25  43  71  97 135 183 226 285 343 416
#
# _framework density 25.197562999999999
#
# number of rings (size 3 to 8) (size 9 to 14) (size 15 to 20)
#    0.000    1.250    2.500    1.125    8.750    5.000 
#    0.000    0.000    0.000    0.000    0.000    0.000 
#    0.000    0.000    0.000    0.000    0.000    0.000 
#
# Total GULP energy -89510.089221 kJ/mol
# GULP energy per Si atom -5594.380576 kJ/mol
# Density = 2.514021 g / cm^3
# Si number density = 25.197563 Si / 1000 Ang^3
#
#
#
# Elastic Constant Matrix: (Units=GPa)
#
#
# Indices 1 2 3 4 5 6 
#
# 1 117.3544 10.5311 26.2306 -7.3083 -8.5326 6.1757
# 2 10.5311 79.2845 9.1154 -8.2564 -6.4094 0.6102
# 3 26.2306 9.1154 72.8792 -0.8389 4.2347 10.9576
# 4 -7.3083 -8.2564 -0.8389 32.5813 -1.7378 -6.3980
# 5 -8.5326 -6.4094 4.2347 -1.7378 36.3400 3.6467
# 6 6.1757 0.6102 10.9576 -6.3980 3.6467 39.5181
#
#
#
# Elastic Compliance Matrix: (Units=1/GPa)
#
#
# Indices 1 2 3 4 5 6 
#
# 1 0.009694 -0.000449 -0.003500 0.002026 0.002748 -0.000463
# 2 -0.000449 0.013441 -0.001730 0.003531 0.002568 0.000677
# 3 -0.003500 -0.001730 0.015915 -0.001716 -0.002675 -0.003870
# 4 0.002026 0.003531 -0.001716 0.033155 0.002357 0.005255
# 5 0.002748 0.002568 -0.002675 0.002357 0.029246 -0.002045
# 6 -0.000463 0.000677 -0.003870 0.005255 -0.002045 0.027479
#
#
# Mechanical properties :
#
#
# Convention : Reuss Voigt Hill
#
# Bulk Modulus (GPa) = 36.10926 40.14135 38.12530
# Shear Modulus (GPa) = 33.44064 36.59727 35.01896
#
# Velocity S-wave (km/s) = 3.64694 3.81519 3.73201
# Velocity P-wave (km/s) = 5.66526 5.94750 5.80810
#
# Compressibility (1/GPa) = 0.02769373
#
# Stress axis : x y z
#
# Youngs Moduli (GPa) = 103.15581 74.39715 62.83400
#
# Poissons Ratio (x) = 0.03337 0.21990
# Poissons Ratio (y) = 0.04627 0.10871
# Poissons Ratio (z) = 0.36102 0.12872
#
# Static dielectric constant tensor:
#      x y z
#    x 2.021560 0.036570 -0.026590 
#    y 0.036570 2.004570 -0.061870 
#    z -0.026590 -0.061870 1.985830 
# 
# From -- ./inp_files/585316.got.cif
#   From: 2010.05.17/outbox.cif.g08.bks.cpg/sg2_293_cif.got.tgz:585316.got - 2010.06.03 11:33:40.
