data_PCOD9044223
_publ_section_title
;
Structure prediction by ZEFSAII (Michael W. Deem and Ramdas Pophale) SiO2 
 PCOD9044223
Probable space group: P -1
;
_chemical_formula_sum "Si O2"
_cell_formula_units_Z 14
_cell_length_a 18.259723
_cell_length_b 9.575677
_cell_length_c 5.082656
_cell_angle_alpha 108.594576
_cell_angle_beta 92.204609
_cell_angle_gamma 44.089490
_cell_volume 561.059687
_symmetry_space_group_name_H-M "P -1"
_symmetry_group_IT_number 2
_symmetry_cell_setting 'triclinic'
loop_
_space_group_symop_operation_xyz
x,y,z
-x,-y,-z
loop_
_atom_site_type_symbol
_atom_site_label
_atom_site_fract_x
_atom_site_fract_y
_atom_site_fract_z
Si Si1 0.394193 0.051051 0.478853
Si Si2 0.237596 0.828565 0.428922
Si Si3 0.893932 0.559048 0.473219
Si Si4 0.679522 0.559971 0.534158
Si Si5 0.228370 0.159505 0.876781
Si Si6 0.017606 0.076399 0.297828
Si Si7 0.567494 0.617098 0.033708
O O1 0.616292 0.567209 0.300390
O O2 0.342846 0.060076 0.738824
O O3 0.439908 0.845348 0.190442
O O4 0.307431 0.296860 0.491011
O O5 0.227243 0.693575 0.518127
O O6 0.194492 0.239285 0.216441
O O7 0.363829 0.624993 0.213752
O O8 0.141348 0.958528 0.278355
O O9 0.932635 0.338241 0.423662
O O10 0.000000 0.500000 0.500000
O O11 0.858037 0.632123 0.209309
O O12 0.773607 0.008367 0.305774
O O13 0.609588 0.675001 0.862258
O O14 0.000000 0.000000 0.500000
O O15 0.000000 0.000000 0.000000
O O16 0.500000 0.000000 0.500000
#
# Coordination Sequence:
#
# PCOD9044223 Si02
#       7
#     2   2   2   2   2   2   2
#     4  10  23  46  71 107 151 195 247 301 368 444
#     4  10  26  44  71 107 149 190 255 296 372 444
#     4  12  28  53  77 106 151 194 253 307 379 446
#     4   9  21  38  69  96 142 189 240 296 357 416
#     4  12  28  45  79 108 146 202 246 301 374 447
#     4  12  29  45  76 110 143 189 246 316 373 433
#     4   9  21  39  70  96 144 189 234 298 355 430
#
# _framework density 24.952781000000002
#
# number of rings (size 3 to 8) (size 9 to 14) (size 15 to 20)
#    0.857    0.571    1.429    1.714    8.000    8.571 
#    0.000    2.857    0.000    0.000    0.000    0.000 
#    0.000    0.000    0.000    0.000    0.000    0.000 
#
# Total GULP energy -78183.139978 kJ/mol
# GULP energy per Si atom -5584.509998 kJ/mol
# Density = 2.489599 g / cm^3
# Si number density = 24.952781 Si / 1000 Ang^3
#
#
#
# Elastic Constant Matrix: (Units=GPa)
#
#
# Indices 1 2 3 4 5 6 
#
# 1 97.5838 25.4963 36.0179 15.1323 6.8664 13.7200
# 2 25.4963 158.7865 35.5791 25.5314 15.3059 7.1120
# 3 36.0179 35.5791 102.1760 9.8942 5.4069 5.0940
# 4 15.1323 25.5314 9.8942 51.5346 2.1409 10.3369
# 5 6.8664 15.3059 5.4069 2.1409 39.3244 4.4797
# 6 13.7200 7.1120 5.0940 10.3369 4.4797 32.8851
#
#
#
# Elastic Compliance Matrix: (Units=1/GPa)
#
#
# Indices 1 2 3 4 5 6 
#
# 1 0.012729 -0.000618 -0.003849 -0.001879 -0.000910 -0.003866
# 2 -0.000618 0.007571 -0.001999 -0.003134 -0.002421 0.000245
# 3 -0.003849 -0.001999 0.011856 -0.000206 -0.000202 0.000294
# 4 -0.001879 -0.003134 -0.000206 0.022664 0.000999 -0.005766
# 5 -0.000910 -0.002421 -0.000202 0.000999 0.026850 -0.003037
# 6 -0.003866 0.000245 0.000294 -0.005766 -0.003037 0.034150
#
#
# Mechanical properties :
#
#
# Convention : Reuss Voigt Hill
#
# Bulk Modulus (GPa) = 52.01988 61.41478 56.71733
# Shear Modulus (GPa) = 36.99326 42.17901 39.58613
#
# Velocity S-wave (km/s) = 3.85454 4.11585 3.98734
# Velocity P-wave (km/s) = 6.37986 6.87407 6.63157
#
# Compressibility (1/GPa) = 0.01922342
#
# Stress axis : x y z
#
# Youngs Moduli (GPa) = 78.56248 132.07661 84.34636
#
# Poissons Ratio (x) = 0.08168 0.32463
# Poissons Ratio (y) = 0.04859 0.16861
# Poissons Ratio (z) = 0.30237 0.26403
#
# Static dielectric constant tensor:
#      x y z
#    x 2.028370 -0.080350 -0.045150 
#    y -0.080350 2.031950 0.047970 
#    z -0.045150 0.047970 1.922030 
# 
# From -- ./inp_files/116244.got.cif
#   From: 2010.05.17/outbox.cif.g08.bks.cpg/sg2_59_cif.got.tgz:116244.got - 2010.06.03 11:33:40.
