data_PCOD9044634
_publ_section_title
;
Structure prediction by ZEFSAII (Michael W. Deem and Ramdas Pophale) SiO2 
 PCOD9044634
Probable space group: P -1
;
_chemical_formula_sum "Si O2"
_cell_formula_units_Z 16
_cell_length_a 14.255374
_cell_length_b 8.575525
_cell_length_c 8.053851
_cell_angle_alpha 110.035844
_cell_angle_beta 81.021719
_cell_angle_gamma 52.006596
_cell_volume 633.121194
_symmetry_space_group_name_H-M "P -1"
_symmetry_group_IT_number 2
_symmetry_cell_setting 'triclinic'
loop_
_space_group_symop_operation_xyz
x,y,z
-x,-y,-z
loop_
_atom_site_type_symbol
_atom_site_label
_atom_site_fract_x
_atom_site_fract_y
_atom_site_fract_z
Si Si1 0.377235 0.017122 0.532175
Si Si2 0.369063 0.907356 0.853460
Si Si3 0.058897 0.531776 0.771855
Si Si4 0.803258 0.380132 0.436648
Si Si5 0.732850 0.330929 0.115751
Si Si6 0.492685 0.310762 0.931968
Si Si7 0.007953 0.849177 0.172846
Si Si8 0.830419 0.562060 0.779969
O O1 0.216931 0.278520 0.673454
O O2 0.500000 0.000000 0.500000
O O3 0.397954 0.873517 0.636492
O O4 0.398195 0.899931 0.305936
O O5 0.298485 0.822604 0.899594
O O6 0.484294 0.777118 0.918779
O O7 0.275487 0.187640 0.004960
O O8 0.075022 0.660302 0.685194
O O9 0.961583 0.518725 0.711823
O O10 0.991845 0.699254 0.016411
O O11 0.703508 0.461750 0.343822
O O12 0.750938 0.573866 0.656747
O O13 0.872091 0.116446 0.361594
O O14 0.650185 0.529058 0.066443
O O15 0.890210 0.165681 0.969465
O O16 0.500000 0.500000 0.000000
O O17 0.095922 0.685843 0.245694
#
# Coordination Sequence:
#
# PCOD9044634 Si02
#       8
#     2   2   2   2   2   2   2   2
#     4  12  26  47  73 107 144 187 241 295 357 424
#     4  11  25  48  76 102 145 193 234 298 362 423
#     4  11  23  43  70  97 146 186 234 292 353 438
#     4  11  23  40  67 103 143 188 228 296 358 426
#     4  10  23  47  69  98 142 190 237 290 365 423
#     4  10  25  48  71 105 139 186 247 293 348 428
#     4  11  22  41  65 101 142 184 232 292 351 432
#     4  12  24  41  68 111 139 182 241 288 366 422
#
# _framework density 25.271625
#
# number of rings (size 3 to 8) (size 9 to 14) (size 15 to 20)
#    0.000    1.000    1.250    6.375    1.750    4.500 
#    9.000    0.000    0.000    0.000    0.000    0.000 
#    0.000    0.000    0.000    0.000    0.000    0.000 
#
# Total GULP energy -89336.896129 kJ/mol
# GULP energy per Si atom -5583.556008 kJ/mol
# Density = 2.521411 g / cm^3
# Si number density = 25.271625 Si / 1000 Ang^3
#
#
#
# Elastic Constant Matrix: (Units=GPa)
#
#
# Indices 1 2 3 4 5 6 
#
# 1 112.2572 31.3721 50.4699 7.7748 14.6741 -3.8743
# 2 31.3721 109.7717 -6.2893 4.7809 -7.6690 -4.3514
# 3 50.4699 -6.2893 48.9774 11.9050 26.4874 5.6060
# 4 7.7748 4.7809 11.9050 43.2557 -3.8180 0.5975
# 5 14.6741 -7.6690 26.4874 -3.8180 41.0238 -3.5449
# 6 -3.8743 -4.3514 5.6060 0.5975 -3.5449 36.1739
#
#
#
# Elastic Compliance Matrix: (Units=1/GPa)
#
#
# Indices 1 2 3 4 5 6 
#
# 1 0.028780 -0.009485 -0.044301 0.009541 0.018326 0.010445
# 2 -0.009485 0.012459 0.015189 -0.004234 -0.004675 -0.002259
# 3 -0.044301 0.015189 0.107656 -0.027909 -0.055545 -0.024583
# 4 0.009541 -0.004234 -0.027909 0.030989 0.017219 0.006013
# 5 0.018326 -0.004675 -0.055545 0.017219 0.055725 0.015185
# 6 0.010445 -0.002259 -0.024583 0.006013 0.015185 0.033690
#
#
# Mechanical properties :
#
#
# Convention : Reuss Voigt Hill
#
# Bulk Modulus (GPa) = 13.94642 46.90132 30.42387
# Shear Modulus (GPa) = 13.49923 37.12092 25.31008
#
# Velocity S-wave (km/s) = 2.31371 3.83675 3.16812
# Velocity P-wave (km/s) = 3.55925 6.18278 5.04455
#
# Compressibility (1/GPa) = 0.07170301
#
# Stress axis : x y z
#
# Youngs Moduli (GPa) = 34.74618 80.26345 9.28886
#
# Poissons Ratio (x) = 0.76126 0.41150
# Poissons Ratio (y) = 0.32955 -0.14109
# Poissons Ratio (z) = 1.53929 -1.21916
#
# Static dielectric constant tensor:
#      x y z
#    x 2.033680 -0.031960 0.024060 
#    y -0.031960 2.041060 -0.039920 
#    z 0.024060 -0.039920 2.090880 
# 
# From -- ./inp_files/299180.got.cif
#   From: 2010.05.17/outbox.cif.g08.bks.cpg/sg2_150_cif.got.tgz:299180.got - 2010.06.03 11:33:40.
