data_PCOD9044106
_publ_section_title
;
Structure prediction by ZEFSAII (Michael W. Deem and Ramdas Pophale) SiO2 
 PCOD9044106
Probable space group: P -1
;
_chemical_formula_sum "Si O2"
_cell_formula_units_Z 16
_cell_length_a 12.738323
_cell_length_b 14.339289
_cell_length_c 10.211153
_cell_angle_alpha 69.512666
_cell_angle_beta 143.398590
_cell_angle_gamma 136.143955
_cell_volume 641.429791
_symmetry_space_group_name_H-M "P -1"
_symmetry_group_IT_number 2
_symmetry_cell_setting 'triclinic'
loop_
_space_group_symop_operation_xyz
x,y,z
-x,-y,-z
loop_
_atom_site_type_symbol
_atom_site_label
_atom_site_fract_x
_atom_site_fract_y
_atom_site_fract_z
Si Si1 0.476415 0.302639 0.382503
Si Si2 0.705769 0.506458 0.257791
Si Si3 0.015219 0.598697 0.118839
Si Si4 0.183460 0.311260 0.273571
Si Si5 0.630845 0.772371 0.329266
Si Si6 0.371456 0.184877 0.988453
Si Si7 0.208836 0.014374 0.375661
Si Si8 0.260095 0.807284 0.529669
O O1 0.605720 0.430229 0.338314
O O2 0.229159 0.255494 0.227597
O O3 0.318264 0.125528 0.306296
O O4 0.770099 0.396141 0.700735
O O5 0.024352 0.685209 0.467793
O O6 0.500000 0.500000 0.000000
O O7 0.648086 0.378930 0.184296
O O8 0.127793 0.695864 0.322171
O O9 0.020134 0.689860 0.971852
O O10 0.692810 0.414987 0.904052
O O11 0.500000 0.500000 0.500000
O O12 0.168778 0.232455 0.423476
O O13 0.703656 0.846456 0.223287
O O14 0.663659 0.871235 0.425106
O O15 0.456087 0.118183 0.168131
O O16 0.126797 0.127712 0.858314
O O17 0.294323 0.939231 0.479949
#
# Coordination Sequence:
#
# PCOD9044106 Si02
#       8
#     2   2   2   2   2   2   2   2
#     4  11  25  45  69 108 143 179 235 298 354 412
#     4  12  23  44  75 107 137 185 237 297 345 417
#     4  11  22  45  75 101 140 185 246 293 340 424
#     4   9  22  39  66  99 135 185 228 280 345 412
#     4  10  23  46  70 100 144 190 237 287 351 425
#     4  12  24  46  74 100 147 185 237 291 351 427
#     4  11  28  46  66 107 150 187 227 291 366 418
#     4  12  25  45  76 110 135 188 242 293 357 410
#
# _framework density 24.944275000000001
#
# number of rings (size 3 to 8) (size 9 to 14) (size 15 to 20)
#    0.000    1.000    3.750    2.250    1.750    8.000 
#    2.250    3.750    0.000    0.000    0.000    0.000 
#    0.000    0.000    0.000    0.000    0.000    0.000 
#
# Total GULP energy -89465.407076 kJ/mol
# GULP energy per Si atom -5591.587942 kJ/mol
# Density = 2.488750 g / cm^3
# Si number density = 24.944275 Si / 1000 Ang^3
#
#
#
# Elastic Constant Matrix: (Units=GPa)
#
#
# Indices 1 2 3 4 5 6 
#
# 1 58.9672 30.7025 19.5106 -23.8132 -3.7150 7.2839
# 2 30.7025 141.4000 38.3474 -24.6046 -0.4145 -5.4843
# 3 19.5106 38.3474 117.3130 -31.3014 6.2144 1.9426
# 4 -23.8132 -24.6046 -31.3014 57.1099 0.1934 2.5751
# 5 -3.7150 -0.4145 6.2144 0.1934 36.6431 -4.3586
# 6 7.2839 -5.4843 1.9426 2.5751 -4.3586 43.4918
#
#
#
# Elastic Compliance Matrix: (Units=1/GPa)
#
#
# Indices 1 2 3 4 5 6 
#
# 1 0.022881 -0.003622 -0.000537 0.007885 0.001787 -0.004553
# 2 -0.003622 0.008649 -0.001989 0.001046 0.000271 0.001751
# 3 -0.000537 -0.001989 0.010680 0.004831 -0.002048 -0.001129
# 4 0.007885 0.001046 0.004831 0.024028 -0.000477 -0.002875
# 5 0.001787 0.000271 -0.002048 -0.000477 0.028142 0.002675
# 6 -0.004553 0.001751 -0.001129 -0.002875 0.002675 0.024465
#
#
# Mechanical properties :
#
#
# Convention : Reuss Voigt Hill
#
# Bulk Modulus (GPa) = 33.42877 54.97794 44.20336
# Shear Modulus (GPa) = 35.43294 42.72360 39.07827
#
# Velocity S-wave (km/s) = 3.77302 4.14304 3.96235
# Velocity P-wave (km/s) = 5.69310 6.70631 6.22037
#
# Compressibility (1/GPa) = 0.02991435
#
# Stress axis : x y z
#
# Youngs Moduli (GPa) = 43.70362 115.62439 93.63539
#
# Poissons Ratio (x) = 0.41878 0.05026
# Poissons Ratio (y) = 0.15829 0.18624
# Poissons Ratio (z) = 0.02346 0.22998
#
# Static dielectric constant tensor:
#      x y z
#    x 2.291560 -0.232790 0.110400 
#    y -0.232790 2.195680 -0.173700 
#    z 0.110400 -0.173700 2.219850 
# 
# From -- ./inp_files/455677.got.cif
#   From: 2010.05.17/outbox.cif.g08.bks.cpg/sg2_228_cif.got.tgz:455677.got - 2010.06.03 11:33:40.
