data_PCOD9044771
_publ_section_title
;
Structure prediction by ZEFSAII (Michael W. Deem and Ramdas Pophale) SiO2 
 PCOD9044771
Probable space group: P -1
;
_chemical_formula_sum "Si O2"
_cell_formula_units_Z 16
_cell_length_a 22.046521
_cell_length_b 5.762365
_cell_length_c 8.287693
_cell_angle_alpha 100.060768
_cell_angle_beta 137.168958
_cell_angle_gamma 80.297539
_cell_volume 703.488835
_symmetry_space_group_name_H-M "P -1"
_symmetry_group_IT_number 2
_symmetry_cell_setting 'triclinic'
loop_
_space_group_symop_operation_xyz
x,y,z
-x,-y,-z
loop_
_atom_site_type_symbol
_atom_site_label
_atom_site_fract_x
_atom_site_fract_y
_atom_site_fract_z
Si Si1 0.114933 0.118391 0.957986
Si Si2 0.249440 0.389360 0.093164
Si Si3 0.688091 0.794209 0.138460
Si Si4 0.864404 0.933576 0.652236
Si Si5 0.081088 0.673173 0.692410
Si Si6 0.060468 0.612115 0.295712
Si Si7 0.548633 0.156069 0.986285
Si Si8 0.632977 0.568959 0.351492
O O1 0.046250 0.343816 0.883674
O O2 0.052004 0.919943 0.746945
O O3 0.189180 0.165080 0.976902
O O4 0.161429 0.055047 0.208924
O O5 0.305502 0.411542 0.369301
O O6 0.298961 0.366973 0.015186
O O7 0.170960 0.592338 0.950768
O O8 0.780185 0.914966 0.369182
O O9 0.665782 0.678591 0.257142
O O10 0.607021 0.984501 0.964217
O O11 0.915128 0.668940 0.707023
O O12 0.913056 0.177260 0.746888
O O13 0.108215 0.686558 0.561466
O O14 0.000000 0.500000 0.500000
O O15 0.618223 0.302880 0.239198
O O16 0.466626 0.323524 0.781078
O O17 0.500000 0.000000 0.000000
#
# Coordination Sequence:
#
# PCOD9044771 Si02
#       8
#     2   2   2   2   2   2   2   2
#     4  12  27  43  70 101 145 202 254 310 373 436
#     4  12  26  43  72 107 144 194 251 300 375 439
#     4  11  24  42  69 108 147 188 237 308 371 443
#     4  12  27  45  73 108 145 197 257 316 369 444
#     4  12  26  44  65  96 146 198 255 309 369 435
#     4  12  26  47  69 101 148 200 255 313 372 431
#     4   9  22  46  76 102 143 186 231 302 380 447
#     4  10  23  47  73 105 143 187 239 303 374 454
#
# _framework density 22.743787000000001
#
# number of rings (size 3 to 8) (size 9 to 14) (size 15 to 20)
#    0.000    0.750    3.750    2.625    5.250    1.500 
#    0.000    5.625    0.000    0.000    0.000    0.000 
#    0.000    0.000    0.000    0.000    0.000    0.000 
#
# Total GULP energy -89223.324691 kJ/mol
# GULP energy per Si atom -5576.457793 kJ/mol
# Density = 2.269202 g / cm^3
# Si number density = 22.743787 Si / 1000 Ang^3
#
#
#
# Elastic Constant Matrix: (Units=GPa)
#
#
# Indices 1 2 3 4 5 6 
#
# 1 94.4093 37.5861 41.2002 -4.6126 -6.6012 -8.3634
# 2 37.5861 88.0832 12.9310 0.7711 12.2523 0.5147
# 3 41.2002 12.9310 110.6608 -7.4296 -6.3353 7.7040
# 4 -4.6126 0.7711 -7.4296 30.6784 7.7324 9.9654
# 5 -6.6012 12.2523 -6.3353 7.7324 30.8389 -8.4551
# 6 -8.3634 0.5147 7.7040 9.9654 -8.4551 24.9993
#
#
#
# Elastic Compliance Matrix: (Units=1/GPa)
#
#
# Indices 1 2 3 4 5 6 
#
# 1 0.018950 -0.008779 -0.006851 -0.006583 0.011985 0.015309
# 2 -0.008779 0.016542 0.001657 0.004878 -0.012021 -0.009798
# 3 -0.006851 0.001657 0.012264 0.006042 -0.003808 -0.009802
# 4 -0.006583 0.004878 0.006042 0.048969 -0.023012 -0.031468
# 5 0.011985 -0.012021 -0.003808 -0.023012 0.053743 0.032780
# 6 0.015309 -0.009798 -0.009802 -0.031468 0.032780 0.071976
#
#
# Mechanical properties :
#
#
# Convention : Reuss Voigt Hill
#
# Bulk Modulus (GPa) = 50.48044 52.95420 51.71732
# Shear Modulus (GPa) = 19.45583 30.73239 25.09411
#
# Velocity S-wave (km/s) = 2.92795 3.67991 3.32526
# Velocity P-wave (km/s) = 5.80293 6.43344 6.12630
#
# Compressibility (1/GPa) = 0.01980965
#
# Stress axis : x y z
#
# Youngs Moduli (GPa) = 52.77159 60.45061 81.54148
#
# Poissons Ratio (x) = 0.53070 0.55863
# Poissons Ratio (y) = 0.46329 -0.13512
# Poissons Ratio (z) = 0.36153 -0.10017
#
# Static dielectric constant tensor:
#      x y z
#    x 1.923910 0.023860 -0.037260 
#    y 0.023860 1.946560 -0.037510 
#    z -0.037260 -0.037510 1.846840 
# 
# From -- ./inp_files/350786.got.cif
#   From: 2010.05.17/outbox.cif.g08.bks.cpg/sg2_176_cif.got.tgz:350786.got - 2010.06.03 11:33:40.
