data_PCOD9044897
_publ_section_title
;
Structure prediction by ZEFSAII (Michael W. Deem and Ramdas Pophale) SiO2 
 PCOD9044897
Probable space group: P -1
;
_chemical_formula_sum "Si O2"
_cell_formula_units_Z 14
_cell_length_a 12.681088
_cell_length_b 11.493915
_cell_length_c 4.902577
_cell_angle_alpha 111.942167
_cell_angle_beta 84.336388
_cell_angle_gamma 132.174396
_cell_volume 479.024768
_symmetry_space_group_name_H-M "P -1"
_symmetry_group_IT_number 2
_symmetry_cell_setting 'triclinic'
loop_
_space_group_symop_operation_xyz
x,y,z
-x,-y,-z
loop_
_atom_site_type_symbol
_atom_site_label
_atom_site_fract_x
_atom_site_fract_y
_atom_site_fract_z
Si Si1 0.703683 0.667367 0.805599
Si Si2 0.528495 0.162308 0.271633
Si Si3 0.418117 0.564007 0.880410
Si Si4 0.117010 0.517672 0.666952
Si Si5 0.987559 0.143196 0.233548
Si Si6 0.206830 0.961573 0.331160
Si Si7 0.262677 0.731152 0.329573
O O1 0.673758 0.525994 0.896128
O O2 0.646403 0.591622 0.450644
O O3 0.875262 0.833182 0.868011
O O4 0.589016 0.671599 0.969515
O O5 0.570916 0.176001 0.597905
O O6 0.370256 0.106577 0.308785
O O7 0.595417 0.321714 0.187614
O O8 0.500000 0.000000 0.000000
O O9 0.151175 0.567530 0.018575
O O10 0.250159 0.691603 0.622264
O O11 0.000000 0.500000 0.500000
O O12 0.079527 0.342828 0.482002
O O13 0.879627 0.026979 0.412262
O O14 0.896099 0.116496 0.975013
O O15 0.220541 0.836872 0.362818
#
# Coordination Sequence:
#
# PCOD9044897 Si02
#       7
#     2   2   2   2   2   2   2
#     4  10  23  47  79 104 133 180 247 315 369 414
#     4  12  28  47  70 104 151 203 248 285 356 443
#     4  10  24  49  74 105 138 181 247 310 357 418
#     4  12  22  40  64  95 141 182 236 303 358 416
#     4  12  24  40  67 101 139 184 237 297 371 419
#     4  12  25  42  60  96 150 192 233 288 339 450
#     4  12  24  42  64  95 138 199 240 290 356 415
#
# _framework density 29.226047999999999
#
# number of rings (size 3 to 8) (size 9 to 14) (size 15 to 20)
#    0.000    0.571    2.857    5.143    0.000    9.143 
#    0.000    1.429    0.000    0.000    0.000    0.000 
#    0.000    0.000    0.000    0.000    0.000    0.000 
#
# Total GULP energy -78279.729877 kJ/mol
# GULP energy per Si atom -5591.409277 kJ/mol
# Density = 2.915953 g / cm^3
# Si number density = 29.226048 Si / 1000 Ang^3
#
#
#
# Elastic Constant Matrix: (Units=GPa)
#
#
# Indices 1 2 3 4 5 6 
#
# 1 134.9562 27.9014 47.3554 -1.3300 35.3292 12.9881
# 2 27.9014 85.1237 41.8710 -39.5070 13.8903 6.9204
# 3 47.3554 41.8710 207.2637 -9.4146 18.5921 13.3952
# 4 -1.3300 -39.5070 -9.4146 46.0830 2.2388 2.3030
# 5 35.3292 13.8903 18.5921 2.2388 63.9547 -4.2385
# 6 12.9881 6.9204 13.3952 2.3030 -4.2385 56.4938
#
#
#
# Elastic Compliance Matrix: (Units=1/GPa)
#
#
# Indices 1 2 3 4 5 6 
#
# 1 0.009722 -0.002519 -0.001268 -0.001824 -0.004516 -0.001890
# 2 -0.002519 0.024459 -0.002884 0.020644 -0.003996 -0.002875
# 3 -0.001268 -0.002884 0.005712 -0.001291 -0.000334 -0.000682
# 4 -0.001824 0.020644 -0.001291 0.039500 -0.004733 -0.003769
# 5 -0.004516 -0.003996 -0.000334 -0.004733 0.019478 0.003261
# 6 -0.001890 -0.002875 -0.000682 -0.003769 0.003261 0.019048
#
#
# Mechanical properties :
#
#
# Convention : Reuss Voigt Hill
#
# Bulk Modulus (GPa) = 37.66180 73.51102 55.58641
# Shear Modulus (GPa) = 35.68629 53.98734 44.83681
#
# Velocity S-wave (km/s) = 3.49813 4.30261 3.92106
# Velocity P-wave (km/s) = 5.40650 7.06332 6.28970
#
# Compressibility (1/GPa) = 0.02655211
#
# Stress axis : x y z
#
# Youngs Moduli (GPa) = 102.86325 40.88525 175.05788
#
# Poissons Ratio (x) = 0.10298 0.22196
# Poissons Ratio (y) = 0.25908 0.50481
# Poissons Ratio (z) = 0.13042 0.11790
#
# Static dielectric constant tensor:
#      x y z
#    x 3.489680 1.407110 0.090970 
#    y 1.407110 4.507640 0.817260 
#    z 0.090970 0.817260 2.712710 
# 
# From -- ./inp_files/71312.got.cif
#   From: 2010.05.17/outbox.cif.g08.bks.cpg/sg2_36_cif.got.tgz:71312.got - 2010.06.03 11:33:40.
