data_PCOD9044405
_publ_section_title
;
Structure prediction by ZEFSAII (Michael W. Deem and Ramdas Pophale) SiO2 
 PCOD9044405
Probable space group: P -1
;
_chemical_formula_sum "Si O2"
_cell_formula_units_Z 16
_cell_length_a 21.146844
_cell_length_b 17.801205
_cell_length_c 11.924629
_cell_angle_alpha 28.433609
_cell_angle_beta 154.016671
_cell_angle_gamma 160.950069
_cell_volume 627.915590
_symmetry_space_group_name_H-M "P -1"
_symmetry_group_IT_number 2
_symmetry_cell_setting 'triclinic'
loop_
_space_group_symop_operation_xyz
x,y,z
-x,-y,-z
loop_
_atom_site_type_symbol
_atom_site_label
_atom_site_fract_x
_atom_site_fract_y
_atom_site_fract_z
Si Si1 0.911070 0.541145 0.211242
Si Si2 0.298144 0.221362 0.073294
Si Si3 0.327371 0.455170 0.004069
Si Si4 0.640858 0.049958 0.328209
Si Si5 0.028834 0.838216 0.735332
Si Si6 0.752572 0.106995 0.193076
Si Si7 0.560235 0.442194 0.565894
Si Si8 0.703391 0.953832 0.916009
O O1 0.717705 0.277723 0.202347
O O2 0.000000 0.500000 0.500000
O O3 0.814526 0.612686 0.027754
O O4 0.134333 0.771102 0.207101
O O5 0.199707 0.254857 0.969138
O O6 0.209821 0.103549 0.963525
O O7 0.343037 0.087729 0.381949
O O8 0.500000 0.500000 0.000000
O O9 0.509710 0.489694 0.305087
O O10 0.450406 0.711599 0.818237
O O11 0.800976 0.170246 0.317769
O O12 0.398213 0.877004 0.120151
O O13 0.056885 0.785318 0.728084
O O14 0.811204 0.597201 0.762159
O O15 0.000000 0.000000 0.500000
O O16 0.259043 0.013255 0.933689
O O17 0.598098 0.831097 0.318004
O O18 0.500000 0.500000 0.500000
#
# Coordination Sequence:
#
# PCOD9044405 Si02
#       8
#     2   2   2   2   2   2   2   2
#     4  12  26  46  69 102 142 188 239 289 354 435
#     4  10  23  46  74 103 139 188 240 292 359 432
#     4  11  24  44  71 102 137 189 234 290 358 421
#     4  11  23  49  72 104 146 196 236 293 377 416
#     4  12  23  40  68 110 137 184 240 286 358 424
#     4  11  25  44  73 101 150 189 235 303 353 435
#     4  12  21  40  72 104 140 183 234 297 353 421
#     4  11  23  45  69 101 142 175 238 294 349 424
#
# _framework density 25.481131999999999
#
# number of rings (size 3 to 8) (size 9 to 14) (size 15 to 20)
#    0.000    0.750    5.000    3.000    0.000    1.000 
#    6.750    6.875    0.000    0.000    0.000    0.000 
#    0.000    0.000    0.000    0.000    0.000    0.000 
#
# Total GULP energy -89132.503920 kJ/mol
# GULP energy per Si atom -5570.781495 kJ/mol
# Density = 2.542314 g / cm^3
# Si number density = 25.481132 Si / 1000 Ang^3
#
#
#
# Elastic Constant Matrix: (Units=GPa)
#
#
# Indices 1 2 3 4 5 6 
#
# 1 157.0347 16.7412 6.4475 0.6381 6.8453 5.6702
# 2 16.7412 114.1915 5.3421 -21.4474 4.4616 23.9230
# 3 6.4475 5.3421 59.5494 -6.0077 -0.9165 16.1966
# 4 0.6381 -21.4474 -6.0077 27.3517 -3.2633 -7.9454
# 5 6.8453 4.4616 -0.9165 -3.2633 25.4727 -2.1720
# 6 5.6702 23.9230 16.1966 -7.9454 -2.1720 36.4829
#
#
#
# Elastic Compliance Matrix: (Units=1/GPa)
#
#
# Indices 1 2 3 4 5 6 
#
# 1 0.006611 -0.001043 -0.000670 -0.001479 -0.001848 -0.000478
# 2 -0.001043 0.011682 0.001610 0.007442 -0.001323 -0.006671
# 3 -0.000670 0.001610 0.019453 0.002984 0.000219 -0.008925
# 4 -0.001479 0.007442 0.002984 0.044918 0.005307 0.004123
# 5 -0.001848 -0.001323 0.000219 0.005307 0.041071 0.004658
# 6 -0.000478 -0.006671 -0.008925 0.004123 0.004658 0.036996
#
#
# Mechanical properties :
#
#
# Convention : Reuss Voigt Hill
#
# Bulk Modulus (GPa) = 26.63911 43.09304 34.86607
# Shear Modulus (GPa) = 28.82694 38.01111 33.41903
#
# Velocity S-wave (km/s) = 3.36714 3.86649 3.62542
# Velocity P-wave (km/s) = 5.05905 6.07301 5.58907
#
# Compressibility (1/GPa) = 0.03753880
#
# Stress axis : x y z
#
# Youngs Moduli (GPa) = 151.27314 85.60278 51.40676
#
# Poissons Ratio (x) = 0.08930 0.03443
# Poissons Ratio (y) = 0.15780 -0.08275
# Poissons Ratio (z) = 0.10131 -0.13780
#
# Static dielectric constant tensor:
#      x y z
#    x 2.378730 0.019590 -0.031710 
#    y 0.019590 1.983900 0.053510 
#    z -0.031710 0.053510 2.123080 
# 
# From -- ./inp_files/472367.got.cif
#   From: 2010.05.17/outbox.cif.g08.bks.cpg/sg2_237_cif.got.tgz:472367.got - 2010.06.03 11:33:40.
