data_PCOD9044909
_publ_section_title
;
Structure prediction by ZEFSAII (Michael W. Deem and Ramdas Pophale) SiO2 
 PCOD9044909
Probable space group: P -1
;
_chemical_formula_sum "Si O2"
_cell_formula_units_Z 10
_cell_length_a 11.307795
_cell_length_b 4.833799
_cell_length_c 14.954204
_cell_angle_alpha 67.660052
_cell_angle_beta 26.276380
_cell_angle_gamma 71.240343
_cell_volume 334.331675
_symmetry_space_group_name_H-M "P -1"
_symmetry_group_IT_number 2
_symmetry_cell_setting 'triclinic'
loop_
_space_group_symop_operation_xyz
x,y,z
-x,-y,-z
loop_
_atom_site_type_symbol
_atom_site_label
_atom_site_fract_x
_atom_site_fract_y
_atom_site_fract_z
Si Si1 0.168530 0.150573 0.503998
Si Si2 0.936719 0.723523 0.255212
Si Si3 0.293011 0.182839 0.775865
Si Si4 0.741398 0.698146 0.021713
Si Si5 0.664634 0.788752 0.812629
O O1 0.112710 0.369299 0.597702
O O2 0.229763 0.290371 0.348154
O O3 0.438802 0.993778 0.369308
O O4 0.908512 0.931265 0.689382
O O5 0.715461 0.690023 0.333846
O O6 0.186719 0.573816 0.056296
O O7 0.998610 0.076556 0.182024
O O8 0.295696 0.387550 0.838386
O O9 0.000000 0.000000 0.000000
O O10 0.516465 0.920583 0.114946
O O11 0.500000 0.500000 0.000000
#
# Coordination Sequence:
#
# PCOD9044909 Si02
#       5
#     2   2   2   2   2
#     4  10  23  47  84 124 160 220 279 339 418 497
#     4  11  23  45  81 121 162 214 274 342 413 502
#     4   9  20  46  82 119 164 218 268 339 419 500
#     4  10  24  45  80 115 166 217 269 335 422 491
#     4  10  24  51  85 116 167 220 276 346 414 498
#
# _framework density 29.910415
#
# number of rings (size 3 to 8) (size 9 to 14) (size 15 to 20)
#    0.000    2.000    0.000    1.200    2.800    1.600 
#    0.000   23.000    0.000    1.200    0.000    0.000 
#    0.000    0.000    0.000    0.000    0.000    0.000 
#
# Total GULP energy -56084.460957 kJ/mol
# GULP energy per Si atom -5608.446096 kJ/mol
# Density = 2.984234 g / cm^3
# Si number density = 29.910415 Si / 1000 Ang^3
#
#
#
# Elastic Constant Matrix: (Units=GPa)
#
#
# Indices 1 2 3 4 5 6 
#
# 1 333.8955 98.6494 117.8015 29.9112 19.9817 24.4238
# 2 98.6494 165.2895 78.3148 28.6405 5.5213 23.9771
# 3 117.8015 78.3148 189.4125 -3.5153 -10.1787 38.8137
# 4 29.9112 28.6405 -3.5153 71.5609 19.5532 8.3958
# 5 19.9817 5.5213 -10.1787 19.5532 80.0906 24.0100
# 6 24.4238 23.9771 38.8137 8.3958 24.0100 42.6156
#
#
#
# Elastic Compliance Matrix: (Units=1/GPa)
#
#
# Indices 1 2 3 4 5 6 
#
# 1 0.004406 -0.001375 -0.002645 -0.001198 -0.001583 0.001785
# 2 -0.001375 0.008782 -0.002445 -0.003046 0.000684 -0.001711
# 3 -0.002645 -0.002445 0.010094 0.002495 0.004258 -0.009193
# 4 -0.001198 -0.003046 0.002495 0.016766 -0.002786 -0.001605
# 5 -0.001583 0.000684 0.004258 -0.002786 0.017924 -0.012905
# 6 0.001785 -0.001711 -0.009193 -0.001605 -0.012905 0.039364
#
#
# Mechanical properties :
#
#
# Convention : Reuss Voigt Hill
#
# Bulk Modulus (GPa) = 96.59531 142.01432 119.30481
# Shear Modulus (GPa) = 43.96863 65.10888 54.53876
#
# Velocity S-wave (km/s) = 3.83823 4.67068 4.27477
# Velocity P-wave (km/s) = 7.21163 8.75614 8.02115
#
# Compressibility (1/GPa) = 0.01035247
#
# Stress axis : x y z
#
# Youngs Moduli (GPa) = 226.97684 113.86429 99.06656
#
# Poissons Ratio (x) = 0.15655 0.26201
# Poissons Ratio (y) = 0.31207 0.24224
# Poissons Ratio (z) = 0.60031 0.27843
#
# Static dielectric constant tensor:
#      x y z
#    x 2.382680 -0.077160 0.060350 
#    y -0.077160 2.249390 -0.018420 
#    z 0.060350 -0.018420 2.420660 
# 
# From -- ./inp_files/510863.got.cif
#   From: 2010.05.17/outbox.cif.g08.bks.cpg/sg2_256_cif.got.tgz:510863.got - 2010.06.03 11:33:40.
