data_PCOD9044590
_publ_section_title
;
Structure prediction by ZEFSAII (Michael W. Deem and Ramdas Pophale) SiO2 
 PCOD9044590
Probable space group: P -1
;
_chemical_formula_sum "Si O2"
_cell_formula_units_Z 14
_cell_length_a 7.748205
_cell_length_b 12.996595
_cell_length_c 9.174655
_cell_angle_alpha 129.144883
_cell_angle_beta 124.520054
_cell_angle_gamma 64.740681
_cell_volume 586.916046
_symmetry_space_group_name_H-M "P -1"
_symmetry_group_IT_number 2
_symmetry_cell_setting 'triclinic'
loop_
_space_group_symop_operation_xyz
x,y,z
-x,-y,-z
loop_
_atom_site_type_symbol
_atom_site_label
_atom_site_fract_x
_atom_site_fract_y
_atom_site_fract_z
Si Si1 0.569716 0.124759 0.790512
Si Si2 0.856567 0.329516 0.176548
Si Si3 0.491621 0.248261 0.565716
Si Si4 0.084402 0.642922 0.182711
Si Si5 0.156342 0.085725 0.741662
Si Si6 0.941642 0.603446 0.384817
Si Si7 0.237165 0.097944 0.116550
O O1 0.562116 0.135359 0.620961
O O2 0.354309 0.105112 0.751418
O O3 0.739042 0.013589 0.844768
O O4 0.639483 0.269728 0.994673
O O5 0.899750 0.450537 0.200245
O O6 0.882026 0.392856 0.403623
O O7 0.037139 0.206400 0.140518
O O8 0.670600 0.345504 0.717448
O O9 0.277674 0.323524 0.595858
O O10 0.434806 0.180548 0.325793
O O11 0.961833 0.767294 0.152207
O O12 0.025227 0.676042 0.352128
O O13 0.000000 0.500000 0.000000
O O14 0.228845 0.037700 0.896471
O O15 0.000000 0.000000 0.500000
#
# Coordination Sequence:
#
# PCOD9044590 Si02
#       7
#     2   2   2   2   2   2   2
#     4  12  24  42  72 101 145 189 238 293 361 420
#     4  10  24  43  71 102 141 186 241 292 358 425
#     4  11  25  45  75 107 141 189 241 292 361 424
#     4  12  26  45  74 104 148 189 242 294 359 426
#     4  12  28  46  69 109 148 188 244 299 363 428
#     4  10  23  47  68 106 146 182 238 301 352 420
#     4  11  25  46  69 104 142 190 242 292 357 433
#
# _framework density 23.853494999999999
#
# number of rings (size 3 to 8) (size 9 to 14) (size 15 to 20)
#    0.000    0.857    1.429    4.714    6.000    2.286 
#    0.000    2.857    0.000    0.000    0.000    0.000 
#    0.000    0.000    0.000    0.000    0.000    0.000 
#
# Total GULP energy -78294.444879 kJ/mol
# GULP energy per Si atom -5592.460349 kJ/mol
# Density = 2.379920 g / cm^3
# Si number density = 23.853495 Si / 1000 Ang^3
#
#
#
# Elastic Constant Matrix: (Units=GPa)
#
#
# Indices 1 2 3 4 5 6 
#
# 1 106.4440 15.6990 52.7227 -1.2437 13.2493 21.2382
# 2 15.6990 101.6466 43.7702 -4.9034 0.6338 11.6692
# 3 52.7227 43.7702 164.5569 4.8956 13.5373 19.9472
# 4 -1.2437 -4.9034 4.8956 40.3107 5.8531 -2.6193
# 5 13.2493 0.6338 13.5373 5.8531 28.8144 11.1444
# 6 21.2382 11.6692 19.9472 -2.6193 11.1444 29.4484
#
#
#
# Elastic Compliance Matrix: (Units=1/GPa)
#
#
# Indices 1 2 3 4 5 6 
#
# 1 0.012390 0.000178 -0.003137 0.000686 -0.002025 -0.006054
# 2 0.000178 0.011502 -0.002914 0.001233 0.002097 -0.003396
# 3 -0.003137 -0.002914 0.008224 -0.001359 -0.001408 -0.001742
# 4 0.000686 0.001233 -0.001359 0.026480 -0.006993 0.004939
# 5 -0.002025 0.002097 -0.001408 -0.006993 0.043696 -0.015575
# 6 -0.006054 -0.003396 -0.001742 0.004939 -0.015575 0.047183
#
#
# Mechanical properties :
#
#
# Convention : Reuss Voigt Hill
#
# Bulk Modulus (GPa) = 49.09091 66.33681 57.71386
# Shear Modulus (GPa) = 29.76005 37.07842 33.41923
#
# Velocity S-wave (km/s) = 3.53600 3.94689 3.74708
# Velocity P-wave (km/s) = 6.10703 6.97432 6.55504
#
# Compressibility (1/GPa) = 0.02037037
#
# Stress axis : x y z
#
# Youngs Moduli (GPa) = 80.70919 86.94485 121.58914
#
# Poissons Ratio (x) = -0.01547 0.38142
# Poissons Ratio (y) = -0.01436 0.35429
# Poissons Ratio (z) = 0.25318 0.25334
#
# Static dielectric constant tensor:
#      x y z
#    x 1.899480 -0.009550 -0.050730 
#    y -0.009550 1.984610 -0.042010 
#    z -0.050730 -0.042010 2.040680 
# 
# From -- ./inp_files/190472.got.cif
#   From: 2010.05.17/outbox.cif.g08.bks.cpg/sg2_96_cif.got.tgz:190472.got - 2010.06.03 11:33:40.
