data_PCOD9044188
_publ_section_title
;
Structure prediction by ZEFSAII (Michael W. Deem and Ramdas Pophale) SiO2 
 PCOD9044188
Probable space group: P -1
;
_chemical_formula_sum "Si O2"
_cell_formula_units_Z 16
_cell_length_a 11.680836
_cell_length_b 20.843370
_cell_length_c 11.136688
_cell_angle_alpha 33.482497
_cell_angle_beta 140.990869
_cell_angle_gamma 151.910676
_cell_volume 695.386419
_symmetry_space_group_name_H-M "P -1"
_symmetry_group_IT_number 2
_symmetry_cell_setting 'triclinic'
loop_
_space_group_symop_operation_xyz
x,y,z
-x,-y,-z
loop_
_atom_site_type_symbol
_atom_site_label
_atom_site_fract_x
_atom_site_fract_y
_atom_site_fract_z
Si Si1 0.633949 0.974753 0.747962
Si Si2 0.366644 0.379530 0.967765
Si Si3 0.229404 0.112917 0.421107
Si Si4 0.256916 0.586341 0.504041
Si Si5 0.143069 0.581147 0.153884
Si Si6 0.938029 0.706613 0.457442
Si Si7 0.166418 0.831285 0.706289
Si Si8 0.503527 0.337830 0.906719
O O1 0.440640 0.896386 0.819387
O O2 0.500000 0.000000 0.500000
O O3 0.648071 0.848283 0.916936
O O4 0.891744 0.142637 0.724758
O O5 0.195656 0.205876 0.156255
O O6 0.500000 0.500000 0.000000
O O7 0.254343 0.444928 0.712186
O O8 0.537364 0.390761 0.990013
O O9 0.498111 0.258675 0.471038
O O10 0.218951 0.982262 0.557388
O O11 0.000000 0.000000 0.500000
O O12 0.275956 0.640964 0.297995
O O13 0.000000 0.500000 0.500000
O O14 0.984009 0.394559 0.331904
O O15 0.286353 0.603256 0.112583
O O16 0.036421 0.665042 0.923012
O O17 0.661386 0.629611 0.333275
O O18 0.018592 0.778426 0.544597
#
# Coordination Sequence:
#
# PCOD9044188 Si02
#       8
#     2   2   2   2   2   2   2   2
#     4   9  20  38  60  95 134 177 224 286 357 419
#     4  10  23  46  71 101 144 196 236 296 363 441
#     4  11  27  48  74 102 143 195 248 296 361 440
#     4  11  27  50  72 105 146 195 247 295 364 435
#     4  11  25  44  69 105 141 186 240 303 356 428
#     4  11  21  38  67 100 139 177 235 295 362 429
#     4  10  24  43  64 100 139 185 234 300 365 425
#     4  11  22  41  68 103 139 180 239 298 359 427
#
# _framework density 23.008790000000001
#
# number of rings (size 3 to 8) (size 9 to 14) (size 15 to 20)
#    0.000    1.500    1.250    2.625    5.250    1.500 
#    9.000    0.000    0.000    0.000    0.000    0.000 
#    0.000    0.000    0.000    0.000    0.000    0.000 
#
# Total GULP energy -89101.768248 kJ/mol
# GULP energy per Si atom -5568.860515 kJ/mol
# Density = 2.295642 g / cm^3
# Si number density = 23.008790 Si / 1000 Ang^3
#
#
#
# Elastic Constant Matrix: (Units=GPa)
#
#
# Indices 1 2 3 4 5 6 
#
# 1 58.9084 36.3141 45.5848 -21.7130 -0.1734 -15.9431
# 2 36.3141 91.1728 30.6779 -28.5657 -0.3538 -10.2011
# 3 45.5848 30.6779 134.4140 -35.4776 5.0478 -8.6709
# 4 -21.7130 -28.5657 -35.4776 44.0414 -13.7470 -0.0294
# 5 -0.1734 -0.3538 5.0478 -13.7470 43.3929 -11.6629
# 6 -15.9431 -10.2011 -8.6709 -0.0294 -11.6629 45.0820
#
#
#
# Elastic Compliance Matrix: (Units=1/GPa)
#
#
# Indices 1 2 3 4 5 6 
#
# 1 0.032126 -0.006930 -0.006860 0.007700 0.006006 0.010033
# 2 -0.006930 0.016576 0.001043 0.009296 0.003585 0.002434
# 3 -0.006860 0.001043 0.011256 0.006618 0.000820 0.000191
# 4 0.007700 0.009296 0.006618 0.042742 0.015610 0.010165
# 5 0.006006 0.003585 0.000820 0.015610 0.030933 0.011106
# 6 0.010033 0.002434 0.000191 0.010165 0.011106 0.029197
#
#
# Mechanical properties :
#
#
# Convention : Reuss Voigt Hill
#
# Bulk Modulus (GPa) = 29.01412 56.62763 42.82088
# Shear Modulus (GPa) = 25.02344 37.96451 31.49397
#
# Velocity S-wave (km/s) = 3.30140 4.06643 3.70372
# Velocity P-wave (km/s) = 5.21245 6.83465 6.07792
#
# Compressibility (1/GPa) = 0.03446598
#
# Stress axis : x y z
#
# Youngs Moduli (GPa) = 31.12708 60.32755 88.83792
#
# Poissons Ratio (x) = 0.41804 0.60941
# Poissons Ratio (y) = 0.21570 -0.09264
# Poissons Ratio (z) = 0.21352 -0.06291
#
# Static dielectric constant tensor:
#      x y z
#    x 2.005280 0.061880 -0.041220 
#    y 0.061880 2.045450 -0.043440 
#    z -0.041220 -0.043440 1.988670 
# 
# From -- ./inp_files/378247.got.cif
#   From: 2010.05.17/outbox.cif.g08.bks.cpg/sg2_190_cif.got.tgz:378247.got - 2010.06.03 11:33:40.
