data_PCOD9044993
_publ_section_title
;
Structure prediction by ZEFSAII (Michael W. Deem and Ramdas Pophale) SiO2 
 PCOD9044993
Probable space group: P -1
;
_chemical_formula_sum "Si O2"
_cell_formula_units_Z 16
_cell_length_a 16.245763
_cell_length_b 5.164758
_cell_length_c 16.043081
_cell_angle_alpha 120.204081
_cell_angle_beta 144.755689
_cell_angle_gamma 58.711752
_cell_volume 655.256385
_symmetry_space_group_name_H-M "P -1"
_symmetry_group_IT_number 2
_symmetry_cell_setting 'triclinic'
loop_
_space_group_symop_operation_xyz
x,y,z
-x,-y,-z
loop_
_atom_site_type_symbol
_atom_site_label
_atom_site_fract_x
_atom_site_fract_y
_atom_site_fract_z
Si Si1 0.504798 0.193584 0.217760
Si Si2 0.061673 0.221896 0.648283
Si Si3 0.817875 0.875380 0.840910
Si Si4 0.177625 0.300118 0.430697
Si Si5 0.368675 0.895206 0.923734
Si Si6 0.045466 0.833158 0.150973
Si Si7 0.252726 0.335666 0.692594
Si Si8 0.499319 0.885775 0.336805
O O1 0.471064 0.553992 0.231859
O O2 0.663701 0.020467 0.285947
O O3 0.511637 0.112134 0.307398
O O4 0.391436 0.016047 0.054080
O O5 0.122204 0.436588 0.666058
O O6 0.935761 0.385643 0.632427
O O7 0.207489 0.066177 0.790776
O O8 0.000000 0.000000 0.500000
O O9 0.897844 0.520939 0.834692
O O10 0.868803 0.092324 0.849541
O O11 0.643166 0.945258 0.704659
O O12 0.879457 0.921985 0.992778
O O13 0.207103 0.350040 0.561116
O O14 0.336962 0.211630 0.506148
O O15 0.089851 0.043600 0.293021
O O16 0.366957 0.544298 0.843971
O O17 0.500000 0.000000 0.000000
#
# Coordination Sequence:
#
# PCOD9044993 Si02
#       8
#     2   2   2   2   2   2   2   2
#     4  11  24  40  68 102 133 180 232 278 325 396
#     4  12  25  43  63  95 143 184 230 282 342 390
#     4  10  23  48  71  99 134 169 210 282 347 409
#     4  11  25  43  65 103 131 181 226 277 331 409
#     4  12  24  42  67  94 133 191 239 281 334 395
#     4  10  24  45  72 101 132 167 220 273 345 413
#     4  11  24  44  64  93 145 181 231 285 333 391
#     4  11  25  45  70 100 139 171 225 282 337 409
#
# _framework density 24.417922000000001
#
# number of rings (size 3 to 8) (size 9 to 14) (size 15 to 20)
#    0.000    1.000    2.500    3.750    3.500    4.000 
#    0.000    0.000    0.000    0.000    0.000    0.000 
#    0.000    0.000    0.000    0.000    0.000    0.000 
#
# Total GULP energy -89405.600858 kJ/mol
# GULP energy per Si atom -5587.850054 kJ/mol
# Density = 2.436235 g / cm^3
# Si number density = 24.417922 Si / 1000 Ang^3
#
#
#
# Elastic Constant Matrix: (Units=GPa)
#
#
# Indices 1 2 3 4 5 6 
#
# 1 62.9419 8.0231 11.6824 -11.2415 12.9092 0.0430
# 2 8.0231 85.9131 33.0476 -4.5848 9.3251 1.0595
# 3 11.6824 33.0476 122.6339 7.5354 9.5717 -15.4398
# 4 -11.2415 -4.5848 7.5354 53.7454 -10.1939 14.8086
# 5 12.9092 9.3251 9.5717 -10.1939 24.8486 1.6319
# 6 0.0430 1.0595 -15.4398 14.8086 1.6319 26.1990
#
#
#
# Elastic Compliance Matrix: (Units=1/GPa)
#
#
# Indices 1 2 3 4 5 6 
#
# 1 0.018304 -0.000065 -0.001669 0.003345 -0.007309 -0.002446
# 2 -0.000065 0.013690 -0.004216 0.002530 -0.002157 -0.004334
# 3 -0.001669 -0.004216 0.011644 -0.006387 -0.005377 0.010980
# 4 0.003345 0.002530 -0.006387 0.028601 0.012875 -0.020840
# 5 -0.007309 -0.002157 -0.005377 0.012875 0.053100 -0.013655
# 6 -0.002446 -0.004334 0.010980 -0.020840 -0.013655 0.057449
#
#
# Mechanical properties :
#
#
# Convention : Reuss Voigt Hill
#
# Bulk Modulus (GPa) = 31.50846 41.88836 36.69841
# Shear Modulus (GPa) = 24.35839 35.54100 29.94969
#
# Velocity S-wave (km/s) = 3.16185 3.81928 3.50601
# Velocity P-wave (km/s) = 5.12460 6.05320 5.60815
#
# Compressibility (1/GPa) = 0.03173751
#
# Stress axis : x y z
#
# Youngs Moduli (GPa) = 54.63332 73.04599 85.88140
#
# Poissons Ratio (x) = 0.00477 0.14335
# Poissons Ratio (y) = 0.00357 0.36205
# Poissons Ratio (z) = 0.09119 0.30794
#
# Static dielectric constant tensor:
#      x y z
#    x 1.989010 0.019440 -0.003670 
#    y 0.019440 1.972430 -0.027590 
#    z -0.003670 -0.027590 2.002630 
# 
# From -- ./inp_files/143050.got.cif
#   From: 2010.05.17/outbox.cif.g08.bks.cpg/sg2_72_cif.got.tgz:143050.got - 2010.06.03 11:33:40.
