data_PCOD9044229
_publ_section_title
;
Structure prediction by ZEFSAII (Michael W. Deem and Ramdas Pophale) SiO2 
 PCOD9044229
Probable space group: P -1
;
_chemical_formula_sum "Si O2"
_cell_formula_units_Z 13
_cell_length_a 13.425291
_cell_length_b 13.844816
_cell_length_c 5.138936
_cell_angle_alpha 83.932744
_cell_angle_beta 78.374735
_cell_angle_gamma 30.007320
_cell_volume 463.256792
_symmetry_space_group_name_H-M "P -1"
_symmetry_group_IT_number 2
_symmetry_cell_setting 'triclinic'
loop_
_space_group_symop_operation_xyz
x,y,z
-x,-y,-z
loop_
_atom_site_type_symbol
_atom_site_label
_atom_site_fract_x
_atom_site_fract_y
_atom_site_fract_z
Si Si1 0.416561 0.435252 0.881810
Si Si2 0.832024 0.179938 0.842373
Si Si3 0.916951 0.273773 0.404030
Si Si4 0.000000 0.500000 0.000000
Si Si5 0.504279 0.103624 0.589892
Si Si6 0.801782 0.543905 0.661599
Si Si7 0.756968 0.909460 0.034995
O O1 0.657661 0.250392 0.815910
O O2 0.317109 0.514456 0.624957
O O3 0.302868 0.624417 0.000787
O O4 0.342723 0.404565 0.097393
O O5 0.933162 0.157695 0.563517
O O6 0.000000 0.000000 0.000000
O O7 0.962782 0.329918 0.542047
O O8 0.066353 0.162505 0.117045
O O9 0.132799 0.420203 0.210910
O O10 0.132221 0.286565 0.952486
O O11 0.282760 0.336740 0.597229
O O12 0.500000 0.000000 0.500000
O O13 0.595286 0.035427 0.846160
O O14 0.645369 0.037354 0.317456
#
# Coordination Sequence:
#
# PCOD9044229 Si02
#       7
#     2   2   2   1   2   2   2
#     4  10  23  46  71 109 150 194 256 316 397 461
#     4  10  24  46  76 108 148 197 252 325 393 475
#     4  11  25  47  72 109 147 202 254 317 388 468
#     4  12  24  48  74 102 148 206 250 312 378 454
#     4  12  28  47  69 110 152 200 260 322 379 454
#     4  11  26  45  73 103 154 200 258 316 387 454
#     4  12  28  44  75 107 151 199 263 314 382 459
#
# _framework density 28.062190999999999
#
# number of rings (size 3 to 8) (size 9 to 14) (size 15 to 20)
#    0.000    0.923    3.077    1.846    8.615    1.846 
#    0.000    0.000    0.000    0.000    0.000    0.000 
#    0.000    0.000    0.000    0.000    0.000    0.000 
#
# Total GULP energy -72780.923704 kJ/mol
# GULP energy per Si atom -5598.532593 kJ/mol
# Density = 2.799832 g / cm^3
# Si number density = 28.062191 Si / 1000 Ang^3
#
#
#
# Elastic Constant Matrix: (Units=GPa)
#
#
# Indices 1 2 3 4 5 6 
#
# 1 101.3612 19.8090 10.9303 -5.4662 -3.2130 -5.7898
# 2 19.8090 140.1716 16.9025 -38.3282 -3.4441 1.5175
# 3 10.9303 16.9025 91.3669 -26.4309 -10.3938 -5.1884
# 4 -5.4662 -38.3282 -26.4309 66.7551 -1.3149 8.1646
# 5 -3.2130 -3.4441 -10.3938 -1.3149 57.9112 -4.4858
# 6 -5.7898 1.5175 -5.1884 8.1646 -4.4858 48.4445
#
#
#
# Elastic Compliance Matrix: (Units=1/GPa)
#
#
# Indices 1 2 3 4 5 6 
#
# 1 0.010323 -0.001496 -0.001002 -0.000562 0.000392 0.001304
# 2 -0.001496 0.008756 0.000006 0.005071 0.000456 -0.001265
# 3 -0.001002 0.000006 0.012809 0.004962 0.002406 0.000638
# 4 -0.000562 0.005071 0.004962 0.020201 0.001390 -0.002971
# 5 0.000392 0.000456 0.002406 0.001390 0.017913 0.001715
# 6 0.001304 -0.001265 0.000638 -0.002971 0.001715 0.021565
#
#
# Mechanical properties :
#
#
# Convention : Reuss Voigt Hill
#
# Bulk Modulus (GPa) = 37.16945 47.57594 42.37269
# Shear Modulus (GPa) = 47.38426 53.63934 50.51180
#
# Velocity S-wave (km/s) = 4.11365 4.37675 4.24724
# Velocity P-wave (km/s) = 5.98640 6.52164 6.25974
#
# Compressibility (1/GPa) = 0.02690381
#
# Stress axis : x y z
#
# Youngs Moduli (GPa) = 96.87300 114.20259 78.06945
#
# Poissons Ratio (x) = 0.17087 0.07824
# Poissons Ratio (y) = 0.14494 -0.00048
# Poissons Ratio (z) = 0.09708 -0.00070
#
# Static dielectric constant tensor:
#      x y z
#    x 1.873540 0.063530 0.348550 
#    y 0.063530 2.122640 -0.088750 
#    z 0.348550 -0.088750 2.054470 
# 
# From -- ./inp_files/96383.got.cif
#   From: 2010.05.17/outbox.cif.g08.bks.cpg/sg2_49_cif.got.tgz:96383.got - 2010.06.03 11:33:40.
