data_PCOD9044989
_publ_section_title
;
Structure prediction by ZEFSAII (Michael W. Deem and Ramdas Pophale) SiO2 
 PCOD9044989
Probable space group: P -1
;
_chemical_formula_sum "Si O2"
_cell_formula_units_Z 16
_cell_length_a 13.792470
_cell_length_b 11.996054
_cell_length_c 9.436252
_cell_angle_alpha 142.643261
_cell_angle_beta 108.076273
_cell_angle_gamma 52.700692
_cell_volume 704.485310
_symmetry_space_group_name_H-M "P -1"
_symmetry_group_IT_number 2
_symmetry_cell_setting 'triclinic'
loop_
_space_group_symop_operation_xyz
x,y,z
-x,-y,-z
loop_
_atom_site_type_symbol
_atom_site_label
_atom_site_fract_x
_atom_site_fract_y
_atom_site_fract_z
Si Si1 0.375730 0.262483 0.755249
Si Si2 0.703033 0.018472 0.939825
Si Si3 0.661982 0.160005 0.358045
Si Si4 0.491149 0.550326 0.882372
Si Si5 0.810737 0.348082 0.524108
Si Si6 0.843939 0.651625 0.057610
Si Si7 0.974985 0.893690 0.012197
Si Si8 0.761774 0.552409 0.392145
O O1 0.251433 0.294457 0.798710
O O2 0.328434 0.415117 0.743678
O O3 0.500000 0.000000 0.500000
O O4 0.423476 0.355704 0.987252
O O5 0.845625 0.922239 0.956249
O O6 0.714882 0.810561 0.662086
O O7 0.620727 0.111549 0.142622
O O8 0.645674 0.231551 0.022194
O O9 0.550801 0.320535 0.583878
O O10 0.707470 0.313783 0.493547
O O11 0.778191 0.909374 0.224383
O O12 0.500000 0.500000 0.000000
O O13 0.772592 0.448583 0.447424
O O14 0.826607 0.507583 0.789284
O O15 0.943641 0.074937 0.304529
O O16 0.000000 0.500000 0.000000
O O17 0.095865 0.622779 0.792078
O O18 0.000000 0.000000 0.000000
#
# Coordination Sequence:
#
# PCOD9044989 Si02
#       8
#     2   2   2   2   2   2   2   2
#     4  12  27  49  71 112 156 198 249 312 390 446
#     4  11  23  44  73 103 143 196 255 301 375 452
#     4  11  25  49  73 107 145 197 253 309 375 452
#     4  12  27  47  71 108 156 199 251 312 384 457
#     4  10  23  48  71 107 147 188 255 311 377 442
#     4  12  28  49  78 110 154 205 253 315 382 454
#     4   9  22  39  69 102 141 184 249 307 366 433
#     4  11  23  44  76 105 146 196 252 314 372 459
#
# _framework density 22.711617
#
# number of rings (size 3 to 8) (size 9 to 14) (size 15 to 20)
#    0.000    1.000    3.750    1.500    8.750    3.500 
#    2.250    1.875    0.000    0.000    0.000    0.000 
#    0.000    0.000    0.000    0.000    0.000    0.000 
#
# Total GULP energy -89348.120279 kJ/mol
# GULP energy per Si atom -5584.257517 kJ/mol
# Density = 2.265992 g / cm^3
# Si number density = 22.711617 Si / 1000 Ang^3
#
#
#
# Elastic Constant Matrix: (Units=GPa)
#
#
# Indices 1 2 3 4 5 6 
#
# 1 74.2370 34.5842 17.3635 -0.2935 -17.8963 -1.0054
# 2 34.5842 142.2768 56.5397 12.1328 -14.3009 2.5986
# 3 17.3635 56.5397 161.8816 8.4346 -17.1797 -10.2380
# 4 -0.2935 12.1328 8.4346 31.7666 -0.9901 1.7893
# 5 -17.8963 -14.3009 -17.1797 -0.9901 40.5529 -5.4648
# 6 -1.0054 2.5986 -10.2380 1.7893 -5.4648 31.2253
#
#
#
# Elastic Compliance Matrix: (Units=1/GPa)
#
#
# Indices 1 2 3 4 5 6 
#
# 1 0.016725 -0.003672 0.000217 0.001591 0.006481 0.001958
# 2 -0.003672 0.009317 -0.002799 -0.002752 0.000194 -0.001620
# 3 0.000217 -0.002799 0.007693 -0.001071 0.002788 0.003311
# 4 0.001591 -0.002752 -0.001071 0.032936 -0.000186 -0.001991
# 5 0.006481 0.000194 0.002788 -0.000186 0.029613 0.006300
# 6 0.001958 -0.001620 0.003311 -0.001991 0.006300 0.034525
#
#
# Mechanical properties :
#
#
# Convention : Reuss Voigt Hill
#
# Bulk Modulus (GPa) = 47.10687 66.15223 56.62955
# Shear Modulus (GPa) = 33.24632 38.70285 35.97458
#
# Velocity S-wave (km/s) = 3.83018 4.13255 3.98423
# Velocity P-wave (km/s) = 6.35190 7.20839 6.79366
#
# Compressibility (1/GPa) = 0.02122833
#
# Stress axis : x y z
#
# Youngs Moduli (GPa) = 59.78963 107.32985 129.99414
#
# Poissons Ratio (x) = 0.39410 -0.02824
# Poissons Ratio (y) = 0.21954 0.36382
# Poissons Ratio (z) = -0.01299 0.30039
#
# Static dielectric constant tensor:
#      x y z
#    x 1.942960 0.019610 -0.036530 
#    y 0.019610 1.830040 0.008120 
#    z -0.036530 0.008120 1.858590 
# 
# From -- ./inp_files/306316.got.cif
#   From: 2010.05.17/outbox.cif.g08.bks.cpg/sg2_154_cif.got.tgz:306316.got - 2010.06.03 11:33:40.
