data_PCOD9044975
_publ_section_title
;
Structure prediction by ZEFSAII (Michael W. Deem and Ramdas Pophale) SiO2 
 PCOD9044975
Probable space group: P -1
;
_chemical_formula_sum "Si O2"
_cell_formula_units_Z 16
_cell_length_a 10.693397
_cell_length_b 13.803562
_cell_length_c 11.273164
_cell_angle_alpha 123.098283
_cell_angle_beta 80.516705
_cell_angle_gamma 146.583728
_cell_volume 595.658696
_symmetry_space_group_name_H-M "P -1"
_symmetry_group_IT_number 2
_symmetry_cell_setting 'triclinic'
loop_
_space_group_symop_operation_xyz
x,y,z
-x,-y,-z
loop_
_atom_site_type_symbol
_atom_site_label
_atom_site_fract_x
_atom_site_fract_y
_atom_site_fract_z
Si Si1 0.316533 0.906523 0.198225
Si Si2 0.648351 0.652087 0.264337
Si Si3 0.067743 0.864743 0.736026
Si Si4 0.690845 0.355723 0.875639
Si Si5 0.966904 0.913614 0.140783
Si Si6 0.868189 0.619018 0.360558
Si Si7 0.478944 0.192478 0.555948
Si Si8 0.354782 0.036009 0.042973
O O1 0.339813 0.799698 0.179200
O O2 0.520962 0.165020 0.406664
O O3 0.385599 0.961294 0.085306
O O4 0.967826 0.645954 0.082913
O O5 0.881056 0.847415 0.249282
O O6 0.737032 0.626361 0.325795
O O7 0.611714 0.748273 0.393073
O O8 0.334516 0.366160 0.065127
O O9 0.383413 0.159755 0.826107
O O10 0.925168 0.872767 0.780199
O O11 0.153769 0.868565 0.844631
O O12 0.892927 0.652858 0.521425
O O13 0.720816 0.381370 0.746289
O O14 0.202740 0.012859 0.131599
O O15 0.670951 0.349525 0.172738
O O16 0.203891 0.892104 0.448583
#
# Coordination Sequence:
#
# PCOD9044975 Si02
#       8
#     2   2   2   2   2   2   2   2
#     4  11  25  42  73  96 121 167 216 275 314 378
#     4  11  22  40  67  95 126 175 214 258 315 379
#     4  11  24  44  62  90 136 174 205 263 314 380
#     4  10  23  48  70  94 121 164 225 269 318 362
#     4  11  23  41  65  93 132 171 212 264 313 373
#     4  11  24  39  62  94 133 175 204 251 324 386
#     4  11  22  43  66  97 126 164 219 268 314 371
#     4  12  26  41  59  99 136 167 210 256 323 386
#
# _framework density 26.86102
#
# number of rings (size 3 to 8) (size 9 to 14) (size 15 to 20)
#    0.000    1.000    3.750    3.375    3.500    3.000 
#    0.000    2.500    0.000    0.000    0.000    0.000 
#    0.000    0.000    0.000    0.000    0.000    0.000 
#
# Total GULP energy -89757.365004 kJ/mol
# GULP energy per Si atom -5609.835313 kJ/mol
# Density = 2.679988 g / cm^3
# Si number density = 26.861020 Si / 1000 Ang^3
#
#
#
# Elastic Constant Matrix: (Units=GPa)
#
#
# Indices 1 2 3 4 5 6 
#
# 1 54.9616 13.4167 39.9467 -14.5670 0.5701 -25.8745
# 2 13.4167 92.3148 17.7727 -16.8113 1.1757 -27.1023
# 3 39.9467 17.7727 149.6939 -34.7794 1.2918 -31.0356
# 4 -14.5670 -16.8113 -34.7794 42.6833 -1.6662 8.9948
# 5 0.5701 1.1757 1.2918 -1.6662 38.8966 -9.8982
# 6 -25.8745 -27.1023 -31.0356 8.9948 -9.8982 48.8506
#
#
#
# Elastic Compliance Matrix: (Units=1/GPa)
#
#
# Indices 1 2 3 4 5 6 
#
# 1 0.027884 0.001177 -0.003999 0.004156 0.003110 0.012746
# 2 0.001177 0.013799 0.000892 0.004881 0.001863 0.008324
# 3 -0.003999 0.000892 0.009852 0.006277 0.000906 0.003663
# 4 0.004156 0.004881 0.006277 0.031214 0.001815 0.003518
# 5 0.003110 0.001863 0.000906 0.001815 0.027834 0.008562
# 6 0.012746 0.008324 0.003663 0.003518 0.008562 0.035254
#
#
# Mechanical properties :
#
#
# Convention : Reuss Voigt Hill
#
# Bulk Modulus (GPa) = 20.97641 48.80472 34.89057
# Shear Modulus (GPa) = 30.19532 41.14172 35.66852
#
# Velocity S-wave (km/s) = 3.35644 3.91788 3.64798
# Velocity P-wave (km/s) = 4.77987 6.21893 5.54627
#
# Compressibility (1/GPa) = 0.04767259
#
# Stress axis : x y z
#
# Youngs Moduli (GPa) = 35.86318 72.46962 101.50537
#
# Poissons Ratio (x) = -0.08528 0.40594
# Poissons Ratio (y) = -0.04220 -0.09050
# Poissons Ratio (z) = 0.14342 -0.06461
#
# Static dielectric constant tensor:
#      x y z
#    x 2.102430 0.032510 -0.010050 
#    y 0.032510 2.171540 -0.071280 
#    z -0.010050 -0.071280 2.051990 
# 
# From -- ./inp_files/418612.got.cif
#   From: 2010.05.17/outbox.cif.g08.bks.cpg/sg2_210_cif.got.tgz:418612.got - 2010.06.03 11:33:40.
