data_PCOD9044488
_publ_section_title
;
Structure prediction by ZEFSAII (Michael W. Deem and Ramdas Pophale) SiO2 
 PCOD9044488
Probable space group: P -1
;
_chemical_formula_sum "Si O2"
_cell_formula_units_Z 8
_cell_length_a 6.781705
_cell_length_b 9.146963
_cell_length_c 5.056494
_cell_angle_alpha 75.577465
_cell_angle_beta 73.925003
_cell_angle_gamma 73.794021
_cell_volume 284.363545
_symmetry_space_group_name_H-M "P -1"
_symmetry_group_IT_number 2
_symmetry_cell_setting 'triclinic'
loop_
_space_group_symop_operation_xyz
x,y,z
-x,-y,-z
loop_
_atom_site_type_symbol
_atom_site_label
_atom_site_fract_x
_atom_site_fract_y
_atom_site_fract_z
Si Si1 0.832817 0.664784 0.729851
Si Si2 0.301348 0.569769 0.727821
Si Si3 0.141369 0.017713 0.187897
Si Si4 0.484230 0.836757 0.456694
O O1 0.811118 0.813090 0.866885
O O2 0.081158 0.598662 0.639769
O O3 0.727733 0.538559 0.968507
O O4 0.715619 0.731623 0.475033
O O5 0.500000 0.500000 0.500000
O O6 0.341129 0.737902 0.708746
O O7 0.357115 0.886410 0.209758
O O8 0.000000 0.000000 0.500000
O O9 0.000000 0.000000 0.000000
O O10 0.500000 0.000000 0.500000
#
# Coordination Sequence:
#
# PCOD9044488 Si02
#       4
#     2   2   2   2
#     4  10  24  48  77 113 158 208 260 329 398 473
#     4  11  24  46  75 114 160 206 265 324 401 475
#     4  11  24  48  81 114 157 207 267 329 397 474
#     4  10  23  46  77 109 155 202 264 324 391 468
#
# _framework density 28.133001
#
# number of rings (size 3 to 8) (size 9 to 14) (size 15 to 20)
#    0.000    1.500    2.500    0.750    0.000    7.000 
#    9.000    8.750    0.000    0.000    0.000    0.000 
#    0.000    0.000    0.000    0.000    0.000    0.000 
#
# Total GULP energy -44866.428383 kJ/mol
# GULP energy per Si atom -5608.303548 kJ/mol
# Density = 2.806897 g / cm^3
# Si number density = 28.133001 Si / 1000 Ang^3
#
#
#
# Elastic Constant Matrix: (Units=GPa)
#
#
# Indices 1 2 3 4 5 6 
#
# 1 281.8637 90.4300 101.5281 1.7714 26.5271 -41.3587
# 2 90.4300 190.4379 69.5376 -42.1651 -2.3545 7.4526
# 3 101.5281 69.5376 174.8563 -23.0062 -4.5743 -0.8778
# 4 1.7714 -42.1651 -23.0062 49.9104 9.7262 -16.1314
# 5 26.5271 -2.3545 -4.5743 9.7262 70.0609 -0.1838
# 6 -41.3587 7.4526 -0.8778 -16.1314 -0.1838 82.9407
#
#
#
# Elastic Compliance Matrix: (Units=1/GPa)
#
#
# Indices 1 2 3 4 5 6 
#
# 1 0.005975 -0.002435 -0.002843 -0.002270 -0.002207 0.002722
# 2 -0.002435 0.008196 -0.001020 0.006248 0.000262 -0.000746
# 3 -0.002843 -0.001020 0.008134 0.002508 0.001223 -0.000750
# 4 -0.002270 0.006248 0.002508 0.028314 -0.002687 0.003834
# 5 -0.002207 0.000262 0.001223 -0.002687 0.015567 -0.001599
# 6 0.002722 -0.000746 -0.000750 0.003834 -0.001599 0.014215
#
#
# Mechanical properties :
#
#
# Convention : Reuss Voigt Hill
#
# Bulk Modulus (GPa) = 103.02281 130.01660 116.51970
# Shear Modulus (GPa) = 51.95716 66.29322 59.12519
#
# Velocity S-wave (km/s) = 4.30215 4.85957 4.58933
# Velocity P-wave (km/s) = 7.83437 8.82057 8.34206
#
# Compressibility (1/GPa) = 0.00970659
#
# Stress axis : x y z
#
# Youngs Moduli (GPa) = 167.37222 122.01385 122.94272
#
# Poissons Ratio (x) = 0.29714 0.34958
# Poissons Ratio (y) = 0.40760 0.12542
# Poissons Ratio (z) = 0.47591 0.12447
#
# Static dielectric constant tensor:
#      x y z
#    x 2.231290 -0.000780 -0.086130 
#    y -0.000780 2.291530 0.033450 
#    z -0.086130 0.033450 2.203560 
# 
# From -- ./inp_files/16742.got.cif
#   From: 2010.05.17/outbox.cif.g08.bks.cpg/sg2_9_cif.got.tgz:16742.got - 2010.06.03 11:33:40.
