data_PCOD9044092
_publ_section_title
;
Structure prediction by ZEFSAII (Michael W. Deem and Ramdas Pophale) SiO2 
 PCOD9044092
Probable space group: P -1
;
_chemical_formula_sum "Si O2"
_cell_formula_units_Z 14
_cell_length_a 14.146466
_cell_length_b 10.760595
_cell_length_c 8.958762
_cell_angle_alpha 93.418390
_cell_angle_beta 129.675290
_cell_angle_gamma 124.677915
_cell_volume 642.273867
_symmetry_space_group_name_H-M "P -1"
_symmetry_group_IT_number 2
_symmetry_cell_setting 'triclinic'
loop_
_space_group_symop_operation_xyz
x,y,z
-x,-y,-z
loop_
_atom_site_type_symbol
_atom_site_label
_atom_site_fract_x
_atom_site_fract_y
_atom_site_fract_z
Si Si1 0.206113 0.455521 0.366653
Si Si2 0.164098 0.726632 0.840024
Si Si3 0.061893 0.696904 0.391782
Si Si4 0.699605 0.627884 0.806521
Si Si5 0.418120 0.406262 0.747484
Si Si6 0.580402 0.112899 0.430619
Si Si7 0.986822 0.050248 0.653645
O O1 0.167402 0.347679 0.168194
O O2 0.343889 0.478639 0.611216
O O3 0.331015 0.676975 0.461618
O O4 0.007673 0.333671 0.248985
O O5 0.138997 0.723028 0.637178
O O6 0.116156 0.545837 0.827865
O O7 0.384706 0.946915 0.118881
O O8 0.236334 0.816040 0.454234
O O9 0.005676 0.795618 0.343121
O O10 0.500000 0.500000 0.500000
O O11 0.593003 0.484797 0.832876
O O12 0.840751 0.844384 0.043556
O O13 0.227945 0.165977 0.524364
O O14 0.500000 0.500000 0.000000
O O15 0.500000 0.000000 0.500000
O O16 0.000000 0.000000 0.500000
#
# Coordination Sequence:
#
# PCOD9044092 Si02
#       7
#     2   2   2   2   2   2   2
#     4  10  25  43  68 102 138 182 230 289 352 421
#     4  10  23  46  69  97 140 177 229 295 345 408
#     4  10  25  43  69 103 135 179 234 287 345 415
#     4  10  25  44  65 102 144 180 232 284 351 417
#     4  11  24  43  68 102 141 184 233 290 345 417
#     4  11  26  43  70 101 136 186 230 282 354 417
#     4  12  25  42  73 104 136 187 235 282 348 422
#
# _framework density 21.797556
#
# number of rings (size 3 to 8) (size 9 to 14) (size 15 to 20)
#    0.000    1.429    1.429    1.286    8.000    5.714 
#    0.000    0.000    0.000    0.000    0.000    0.000 
#    0.000    0.000    0.000    0.000    0.000    0.000 
#
# Total GULP energy -78166.512478 kJ/mol
# GULP energy per Si atom -5583.322320 kJ/mol
# Density = 2.174794 g / cm^3
# Si number density = 21.797556 Si / 1000 Ang^3
#
#
#
# Elastic Constant Matrix: (Units=GPa)
#
#
# Indices 1 2 3 4 5 6 
#
# 1 111.2514 44.5024 20.8120 -2.9682 -14.5971 4.1202
# 2 44.5024 87.1806 20.0664 0.9491 5.0885 7.0384
# 3 20.8120 20.0664 132.7079 10.8103 -12.6063 4.8783
# 4 -2.9682 0.9491 10.8103 30.0695 10.3904 5.1852
# 5 -14.5971 5.0885 -12.6063 10.3904 32.6748 -3.5765
# 6 4.1202 7.0384 4.8783 5.1852 -3.5765 39.1085
#
#
#
# Elastic Compliance Matrix: (Units=1/GPa)
#
#
# Indices 1 2 3 4 5 6 
#
# 1 0.012643 -0.006859 -0.000222 -0.001006 0.007028 0.000706
# 2 -0.006859 0.016134 -0.002204 0.002753 -0.007627 -0.002969
# 3 -0.000222 -0.002204 0.008797 -0.005024 0.005287 0.000472
# 4 -0.001006 0.002753 -0.005024 0.041896 -0.016890 -0.006862
# 5 0.007028 -0.007627 0.005287 -0.016890 0.043015 0.006146
# 6 0.000706 -0.002969 0.000472 -0.006862 0.006146 0.027443
#
#
# Mechanical properties :
#
#
# Convention : Reuss Voigt Hill
#
# Bulk Modulus (GPa) = 52.61754 55.76684 54.19219
# Shear Modulus (GPa) = 28.59882 36.75450 32.67666
#
# Velocity S-wave (km/s) = 3.62611 4.11076 3.87602
# Velocity P-wave (km/s) = 6.45935 6.94051 6.70425
#
# Compressibility (1/GPa) = 0.01900507
#
# Stress axis : x y z
#
# Youngs Moduli (GPa) = 79.09532 61.98184 113.66886
#
# Poissons Ratio (x) = 0.42513 0.02524
# Poissons Ratio (y) = 0.54251 0.25048
# Poissons Ratio (z) = 0.01756 0.13658
#
# Static dielectric constant tensor:
#      x y z
#    x 1.820900 0.018020 0.022860 
#    y 0.018020 1.805620 -0.021260 
#    z 0.022860 -0.021260 1.892240 
# 
# From -- ./inp_files/305409.got.cif
#   From: 2010.05.17/outbox.cif.g08.bks.cpg/sg2_153_cif.got.tgz:305409.got - 2010.06.03 11:33:40.
