data_PCOD9044746
_publ_section_title
;
Structure prediction by ZEFSAII (Michael W. Deem and Ramdas Pophale) SiO2 
 PCOD9044746
Probable space group: P -1
;
_chemical_formula_sum "Si O2"
_cell_formula_units_Z 16
_cell_length_a 9.371837
_cell_length_b 24.914800
_cell_length_c 21.167500
_cell_angle_alpha 17.981343
_cell_angle_beta 152.576871
_cell_angle_gamma 153.888144
_cell_volume 650.748054
_symmetry_space_group_name_H-M "P -1"
_symmetry_group_IT_number 2
_symmetry_cell_setting 'triclinic'
loop_
_space_group_symop_operation_xyz
x,y,z
-x,-y,-z
loop_
_atom_site_type_symbol
_atom_site_label
_atom_site_fract_x
_atom_site_fract_y
_atom_site_fract_z
Si Si1 0.624370 0.695218 0.965243
Si Si2 0.883301 0.634375 0.011847
Si Si3 0.790911 0.660200 0.503187
Si Si4 0.218757 0.992905 0.676312
Si Si5 0.055819 0.530485 0.386368
Si Si6 0.114927 0.815457 0.205357
Si Si7 0.156537 0.836675 0.573656
Si Si8 0.727520 0.012793 0.756283
O O1 0.261899 0.663992 0.829608
O O2 0.671303 0.859100 0.850862
O O3 0.870023 0.752715 0.936856
O O4 0.727244 0.534409 0.217392
O O5 0.106970 0.516611 0.247145
O O6 0.500000 0.500000 0.000000
O O7 0.014280 0.773019 0.850002
O O8 0.600262 0.395830 0.599710
O O9 0.900475 0.772826 0.486594
O O10 0.021506 0.793447 0.391062
O O11 0.401433 0.034315 0.634244
O O12 0.517480 0.049384 0.781998
O O13 0.991186 0.098404 0.496217
O O14 0.013739 0.333286 0.621629
O O15 0.113188 0.682748 0.294206
O O16 0.893538 0.931587 0.967581
O O17 0.500000 0.000000 0.500000
#
# Coordination Sequence:
#
# PCOD9044746 Si02
#       8
#     2   2   2   2   2   2   2   2
#     4  11  25  47  73 104 145 188 244 297 355 430
#     4  12  26  47  73 101 147 192 241 297 358 429
#     4  12  24  44  76 108 142 190 243 296 355 429
#     4  12  25  46  75 101 146 199 233 295 368 426
#     4  10  24  45  78 109 144 186 246 300 356 424
#     4  10  23  47  72 107 151 189 233 300 370 422
#     4  12  22  47  72 100 143 192 236 290 361 429
#     4  11  26  43  73 113 144 184 246 295 360 432
#
# _framework density 24.587088999999999
#
# number of rings (size 3 to 8) (size 9 to 14) (size 15 to 20)
#    0.000    0.750    5.000    1.125    3.500    2.000 
#    0.000    1.250    0.000    0.000    0.000    0.000 
#    0.000    0.000    0.000    0.000    0.000    0.000 
#
# Total GULP energy -89556.979291 kJ/mol
# GULP energy per Si atom -5597.311206 kJ/mol
# Density = 2.453113 g / cm^3
# Si number density = 24.587089 Si / 1000 Ang^3
#
#
#
# Elastic Constant Matrix: (Units=GPa)
#
#
# Indices 1 2 3 4 5 6 
#
# 1 172.8936 26.8552 67.0674 -1.7384 16.9365 16.2609
# 2 26.8552 81.3467 26.9000 6.9676 -1.6287 5.8725
# 3 67.0674 26.9000 156.1105 11.9028 10.9109 20.3376
# 4 -1.7384 6.9676 11.9028 36.6777 -5.2517 -4.0348
# 5 16.9365 -1.6287 10.9109 -5.2517 44.9446 -0.6175
# 6 16.2609 5.8725 20.3376 -4.0348 -0.6175 44.2709
#
#
#
# Elastic Compliance Matrix: (Units=1/GPa)
#
#
# Indices 1 2 3 4 5 6 
#
# 1 0.007403 -0.001605 -0.002685 0.001097 -0.002084 -0.001202
# 2 -0.001605 0.013566 -0.001482 -0.002077 0.001204 -0.000701
# 3 -0.002685 -0.001482 0.008564 -0.003181 -0.001535 -0.003062
# 4 0.001097 -0.002077 -0.003181 0.029741 0.003815 0.004098
# 5 -0.002084 0.001204 -0.001535 0.003815 0.023924 0.001992
# 6 -0.001202 -0.000701 -0.003062 0.004098 0.001992 0.024931
#
#
# Mechanical properties :
#
#
# Convention : Reuss Voigt Hill
#
# Bulk Modulus (GPa) = 55.59552 72.44399 64.01976
# Shear Modulus (GPa) = 39.78696 44.48051 42.13374
#
# Velocity S-wave (km/s) = 4.02706 4.25797 4.14412
# Velocity P-wave (km/s) = 6.65460 7.32816 6.99949
#
# Compressibility (1/GPa) = 0.01798706
#
# Stress axis : x y z
#
# Youngs Moduli (GPa) = 135.07882 73.71496 116.77345
#
# Poissons Ratio (x) = 0.11831 0.31357
# Poissons Ratio (y) = 0.21679 0.17312
# Poissons Ratio (z) = 0.36272 0.10928
#
# Static dielectric constant tensor:
#      x y z
#    x 1.981110 -0.071560 0.007280 
#    y -0.071560 1.959840 0.011900 
#    z 0.007280 0.011900 1.938420 
# 
# From -- ./inp_files/591969.got.cif
#   From: 2010.05.17/outbox.cif.g08.bks.cpg/sg2_296_cif.got.tgz:591969.got - 2010.06.03 11:33:40.
