data_PCOD9044245
_publ_section_title
;
Structure prediction by ZEFSAII (Michael W. Deem and Ramdas Pophale) SiO2 
 PCOD9044245
Probable space group: P -1
;
_chemical_formula_sum "Si O2"
_cell_formula_units_Z 12
_cell_length_a 9.059766
_cell_length_b 11.182955
_cell_length_c 8.802058
_cell_angle_alpha 37.873905
_cell_angle_beta 104.083170
_cell_angle_gamma 86.808134
_cell_volume 482.885191
_symmetry_space_group_name_H-M "P -1"
_symmetry_group_IT_number 2
_symmetry_cell_setting 'triclinic'
loop_
_space_group_symop_operation_xyz
x,y,z
-x,-y,-z
loop_
_atom_site_type_symbol
_atom_site_label
_atom_site_fract_x
_atom_site_fract_y
_atom_site_fract_z
Si Si1 0.635680 0.082880 0.405411
Si Si2 0.675414 0.984718 0.001310
Si Si3 0.318560 0.701747 0.064684
Si Si4 0.371223 0.684937 0.552712
Si Si5 0.997600 0.735204 0.756963
Si Si6 0.014646 0.809853 0.321775
O O1 0.619302 0.289225 0.291753
O O2 0.500000 0.000000 0.500000
O O3 0.823292 0.898894 0.623697
O O4 0.593674 0.176676 0.132829
O O5 0.712554 0.167341 0.920267
O O6 0.664841 0.069796 0.744338
O O7 0.500000 0.000000 0.000000
O O8 0.847319 0.775619 0.276809
O O9 0.458230 0.461442 0.340599
O O10 0.153483 0.721715 0.913686
O O11 0.207740 0.644511 0.515673
O O12 0.004349 0.814785 0.503409
O O13 0.000000 0.500000 0.000000
O O14 0.000000 0.000000 0.000000
#
# Coordination Sequence:
#
# PCOD9044245 Si02
#       6
#     2   2   2   2   2   2
#     4  12  24  41  68 104 142 183 237 297 354 421
#     4  11  24  45  70  97 142 193 238 290 359 423
#     4  12  24  44  72 103 144 186 241 296 355 423
#     4  11  24  42  68 102 142 188 235 291 358 424
#     4  12  26  45  76 109 142 190 243 298 358 427
#     4  10  23  46  71  97 146 190 234 292 362 422
#
# _framework density 24.850628
#
# number of rings (size 3 to 8) (size 9 to 14) (size 15 to 20)
#    0.000    0.667    3.333    4.500    4.667    0.000 
#    0.000    0.833    0.000    0.000    0.000    0.000 
#    0.000    0.000    0.000    0.000    0.000    0.000 
#
# Total GULP energy -66829.352282 kJ/mol
# GULP energy per Si atom -5569.112690 kJ/mol
# Density = 2.479407 g / cm^3
# Si number density = 24.850628 Si / 1000 Ang^3
#
#
#
# Elastic Constant Matrix: (Units=GPa)
#
#
# Indices 1 2 3 4 5 6 
#
# 1 145.2455 14.3794 41.7259 32.5409 -2.4000 7.2915
# 2 14.3794 82.2503 28.0213 13.8775 -7.4364 6.4644
# 3 41.7259 28.0213 101.8540 8.3621 16.7596 5.8503
# 4 32.5409 13.8775 8.3621 19.3264 13.3224 -7.2001
# 5 -2.4000 -7.4364 16.7596 13.3224 26.9738 10.7943
# 6 7.2915 6.4644 5.8503 -7.2001 10.7943 37.7055
#
#
#
# Elastic Compliance Matrix: (Units=1/GPa)
#
#
# Indices 1 2 3 4 5 6 
#
# 1 -0.000921 -0.009422 0.003902 0.029045 -0.025010 0.013894
# 2 -0.009422 0.004389 0.002980 0.031717 -0.022375 0.013069
# 3 0.003902 0.002980 0.007947 -0.025447 0.013263 -0.011155
# 4 0.029045 0.031717 -0.025447 -0.092582 0.093495 -0.051551
# 5 -0.025010 -0.022375 0.013263 0.093495 -0.040128 0.035956
# 6 0.013894 0.013069 -0.011155 -0.051551 0.035956 0.003187
#
#
# Mechanical properties :
#
#
# Convention : Reuss Voigt Hill
#
# Bulk Modulus (GPa) = 157.88441 55.28922 106.58682
# Shear Modulus (GPa) = -45.07889 33.14933 -5.96478
#
# Velocity S-wave (km/s) = -4.26372 3.65628 -1.55096
# Velocity P-wave (km/s) = 6.27951 6.33415 6.30689
#
# Compressibility (1/GPa) = 0.00633375
#
# Stress axis : x y z
#
# Youngs Moduli (GPa) = -1085.21496 227.86043 125.83162
#
# Poissons Ratio (x) = 2.14694 -0.49103
# Poissons Ratio (y) = -10.22508 -0.37493
# Poissons Ratio (z) = 4.23479 -0.67894
#
# Static dielectric constant tensor:
#      x y z
#    x 1.991560 -0.035050 0.062690 
#    y -0.035050 2.077410 -0.074880 
#    z 0.062690 -0.074880 2.118430 
# 
# From -- ./inp_files/158574.got.cif
#   From: 2010.05.17/outbox.cif.g08.bks.cpg/sg2_80_cif.got.tgz:158574.got - 2010.06.03 11:33:40.
