data_PCOD9044794
_publ_section_title
;
Structure prediction by ZEFSAII (Michael W. Deem and Ramdas Pophale) SiO2 
 PCOD9044794
Probable space group: P -1
;
_chemical_formula_sum "Si O2"
_cell_formula_units_Z 16
_cell_length_a 18.678938
_cell_length_b 9.262630
_cell_length_c 4.993838
_cell_angle_alpha 56.730340
_cell_angle_beta 75.155910
_cell_angle_gamma 56.435462
_cell_volume 600.572549
_symmetry_space_group_name_H-M "P -1"
_symmetry_group_IT_number 2
_symmetry_cell_setting 'triclinic'
loop_
_space_group_symop_operation_xyz
x,y,z
-x,-y,-z
loop_
_atom_site_type_symbol
_atom_site_label
_atom_site_fract_x
_atom_site_fract_y
_atom_site_fract_z
Si Si1 0.593652 0.454552 0.376176
Si Si2 0.418981 0.138541 0.125287
Si Si3 0.252774 0.609935 0.328692
Si Si4 0.923165 0.089158 0.701288
Si Si5 0.963295 0.394717 0.456844
Si Si6 0.878048 0.791346 0.908544
Si Si7 0.319353 0.164799 0.681775
Si Si8 0.264812 0.914212 0.663663
O O1 0.500000 0.500000 0.500000
O O2 0.583506 0.651956 0.042095
O O3 0.659635 0.424961 0.582273
O O4 0.641809 0.246665 0.380474
O O5 0.343234 0.162632 0.971655
O O6 0.402541 0.072686 0.496157
O O7 0.500000 0.000000 0.000000
O O8 0.171283 0.726617 0.486662
O O9 0.268511 0.400136 0.420149
O O10 0.234131 0.765850 0.951694
O O11 0.945286 0.220995 0.748884
O O12 0.898654 0.921163 0.965563
O O13 0.000000 0.000000 0.500000
O O14 0.000000 0.500000 0.500000
O O15 0.036959 0.294708 0.267419
O O16 0.880403 0.593456 0.212496
O O17 0.798803 0.934966 0.650733
O O18 0.273241 0.043667 0.762300
#
# Coordination Sequence:
#
# PCOD9044794 Si02
#       8
#     2   2   2   2   2   2   2   2
#     4  11  25  46  74 106 153 203 256 323 376 463
#     4  11  24  48  71 110 156 202 264 322 392 466
#     4  11  26  47  69 110 150 196 260 316 388 465
#     4  10  23  47  74 101 145 196 243 320 381 457
#     4  10  24  44  69 107 140 184 243 307 373 460
#     4  10  24  44  67 103 142 185 245 300 375 457
#     4  11  27  45  75 111 152 206 255 326 393 459
#     4  12  26  45  75 107 148 200 256 319 385 465
#
# _framework density 26.641244
#
# number of rings (size 3 to 8) (size 9 to 14) (size 15 to 20)
#    0.000    1.250    2.500    1.125    7.000    5.000 
#    4.500    0.000    0.000    0.000    0.000    0.000 
#    0.000    0.000    0.000    0.000    0.000    0.000 
#
# Total GULP energy -89477.542651 kJ/mol
# GULP energy per Si atom -5592.346416 kJ/mol
# Density = 2.658061 g / cm^3
# Si number density = 26.641244 Si / 1000 Ang^3
#
#
#
# Elastic Constant Matrix: (Units=GPa)
#
#
# Indices 1 2 3 4 5 6 
#
# 1 142.3546 50.6155 30.1005 -11.9982 -17.7653 11.3928
# 2 50.6155 174.9599 21.2368 -27.3017 -10.1777 3.4067
# 3 30.1005 21.2368 67.3810 -8.8996 -11.7422 7.3100
# 4 -11.9982 -27.3017 -8.8996 42.1971 7.8662 -8.6675
# 5 -17.7653 -10.1777 -11.7422 7.8662 40.6357 -5.6977
# 6 11.3928 3.4067 7.3100 -8.6675 -5.6977 72.4227
#
#
#
# Elastic Compliance Matrix: (Units=1/GPa)
#
#
# Indices 1 2 3 4 5 6 
#
# 1 0.008687 -0.002031 -0.002740 -0.000034 0.002390 -0.000810
# 2 -0.002031 0.007000 -0.000854 0.003893 -0.000059 0.000538
# 3 -0.002740 -0.000854 0.017174 0.001535 0.003137 -0.000832
# 4 -0.000034 0.003893 0.001535 0.027756 -0.003590 0.002707
# 5 0.002390 -0.000059 0.003137 -0.003590 0.027385 0.001035
# 6 -0.000810 0.000538 -0.000832 0.002707 0.001035 0.014399
#
#
# Mechanical properties :
#
#
# Convention : Reuss Voigt Hill
#
# Bulk Modulus (GPa) = 46.27282 65.40010 55.83646
# Shear Modulus (GPa) = 41.37180 49.90062 45.63621
#
# Velocity S-wave (km/s) = 3.94499 4.33258 4.14332
# Velocity P-wave (km/s) = 6.17715 7.04486 6.62523
#
# Compressibility (1/GPa) = 0.02161096
#
# Stress axis : x y z
#
# Youngs Moduli (GPa) = 115.12099 142.85059 58.22802
#
# Poissons Ratio (x) = 0.29011 0.15957
# Poissons Ratio (y) = 0.23379 0.04970
# Poissons Ratio (z) = 0.31548 0.12193
#
# Static dielectric constant tensor:
#      x y z
#    x 2.348880 0.204510 0.054120 
#    y 0.204510 2.568590 0.040160 
#    z 0.054120 0.040160 2.099980 
# 
# From -- ./inp_files/106276.got.cif
#   From: 2010.05.17/outbox.cif.g08.bks.cpg/sg2_54_cif.got.tgz:106276.got - 2010.06.03 11:33:40.
