data_PCOD9044498
_publ_section_title
;
Structure prediction by ZEFSAII (Michael W. Deem and Ramdas Pophale) SiO2 
 PCOD9044498
Probable space group: P -1
;
_chemical_formula_sum "Si O2"
_cell_formula_units_Z 12
_cell_length_a 4.874821
_cell_length_b 11.011141
_cell_length_c 9.520711
_cell_angle_alpha 109.998436
_cell_angle_beta 90.592794
_cell_angle_gamma 111.554186
_cell_volume 441.209270
_symmetry_space_group_name_H-M "P -1"
_symmetry_group_IT_number 2
_symmetry_cell_setting 'triclinic'
loop_
_space_group_symop_operation_xyz
x,y,z
-x,-y,-z
loop_
_atom_site_type_symbol
_atom_site_label
_atom_site_fract_x
_atom_site_fract_y
_atom_site_fract_z
Si Si1 0.298156 0.685826 0.455824
Si Si2 0.727699 0.146274 0.999835
Si Si3 0.085000 0.142875 0.393708
Si Si4 0.139415 0.444746 0.848894
Si Si5 0.451790 0.666384 0.736515
Si Si6 0.234631 0.168085 0.825180
O O1 0.157103 0.794809 0.548382
O O2 0.312245 0.596768 0.558520
O O3 0.109968 0.601419 0.292662
O O4 0.641898 0.785660 0.468145
O O5 0.560383 0.176256 0.873485
O O6 0.036751 0.142125 0.955810
O O7 0.745479 0.260776 0.160609
O O8 0.500000 0.000000 0.000000
O O9 0.251700 0.211054 0.275161
O O10 0.943811 0.975595 0.317564
O O11 0.432828 0.556395 0.814002
O O12 0.221827 0.313863 0.835873
O O13 0.000000 0.500000 0.000000
#
# Coordination Sequence:
#
# PCOD9044498 Si02
#       6
#     2   2   2   2   2   2
#     4  10  25  49  76 106 141 196 253 293 359 440
#     4  12  23  43  76 109 146 190 246 301 358 437
#     4  10  23  46  78 103 140 190 254 300 352 428
#     4  12  27  50  72 110 157 194 234 309 372 435
#     4  10  24  45  74 105 144 197 244 290 358 440
#     4  12  26  44  73 116 144 187 244 308 367 421
#
# _framework density 27.197977999999999
#
# number of rings (size 3 to 8) (size 9 to 14) (size 15 to 20)
#    1.000    0.000    3.333    3.000    2.333    4.000 
#    6.000    0.000    0.000    0.000    0.000    0.000 
#    0.000    0.000    0.000    0.000    0.000    0.000 
#
# Total GULP energy -67228.847890 kJ/mol
# GULP energy per Si atom -5602.403991 kJ/mol
# Density = 2.713607 g / cm^3
# Si number density = 27.197978 Si / 1000 Ang^3
#
#
#
# Elastic Constant Matrix: (Units=GPa)
#
#
# Indices 1 2 3 4 5 6 
#
# 1 91.6045 15.2743 8.7288 6.2609 -4.6907 -8.8867
# 2 15.2743 197.4336 50.6873 -15.0013 -11.9687 -1.1936
# 3 8.7288 50.6873 146.3073 3.0378 12.2465 -11.6467
# 4 6.2609 -15.0013 3.0378 36.9866 5.7017 -11.5114
# 5 -4.6907 -11.9687 12.2465 5.7017 52.2972 6.9250
# 6 -8.8867 -1.1936 -11.6467 -11.5114 6.9250 30.1366
#
#
#
# Elastic Compliance Matrix: (Units=1/GPa)
#
#
# Indices 1 2 3 4 5 6 
#
# 1 0.011475 -0.000901 -0.000201 -0.001630 0.000719 0.002483
# 2 -0.000901 0.005985 -0.002230 0.002414 0.001592 -0.000334
# 3 -0.000201 -0.002230 0.008159 0.000066 -0.002937 0.003705
# 4 -0.001630 0.002414 0.000066 0.033262 -0.005023 0.013500
# 5 0.000719 0.001592 -0.002937 -0.005023 0.021817 -0.007792
# 6 0.002483 -0.000334 0.003705 0.013500 -0.007792 0.042280
#
#
# Mechanical properties :
#
#
# Convention : Reuss Voigt Hill
#
# Bulk Modulus (GPa) = 52.75764 64.96956 58.86360
# Shear Modulus (GPa) = 36.77522 47.92776 42.35149
#
# Velocity S-wave (km/s) = 3.68112 4.20239 3.95036
# Velocity P-wave (km/s) = 6.12432 6.89103 6.51895
#
# Compressibility (1/GPa) = 0.01895460
#
# Stress axis : x y z
#
# Youngs Moduli (GPa) = 87.14610 167.08289 122.56704
#
# Poissons Ratio (x) = 0.15060 0.02464
# Poissons Ratio (y) = 0.07855 0.27329
# Poissons Ratio (z) = 0.01752 0.37255
#
# Static dielectric constant tensor:
#      x y z
#    x 2.097390 -0.000360 0.106230 
#    y -0.000360 2.170780 -0.062570 
#    z 0.106230 -0.062570 2.156920 
# 
# From -- ./inp_files/365170.got.cif
#   From: 2010.05.17/outbox.cif.g08.bks.cpg/sg2_183_cif.got.tgz:365170.got - 2010.06.03 11:33:40.
