data_PCOD9044872
_publ_section_title
;
Structure prediction by ZEFSAII (Michael W. Deem and Ramdas Pophale) SiO2 
 PCOD9044872
Probable space group: P -1
;
_chemical_formula_sum "Si O2"
_cell_formula_units_Z 16
_cell_length_a 9.596013
_cell_length_b 14.624176
_cell_length_c 7.343837
_cell_angle_alpha 63.292425
_cell_angle_beta 112.997544
_cell_angle_gamma 139.374925
_cell_volume 597.251368
_symmetry_space_group_name_H-M "P -1"
_symmetry_group_IT_number 2
_symmetry_cell_setting 'triclinic'
loop_
_space_group_symop_operation_xyz
x,y,z
-x,-y,-z
loop_
_atom_site_type_symbol
_atom_site_label
_atom_site_fract_x
_atom_site_fract_y
_atom_site_fract_z
Si Si1 0.890486 0.267603 0.860275
Si Si2 0.376972 0.513008 0.774295
Si Si3 0.840003 0.337283 0.145532
Si Si4 0.509055 0.694417 0.099902
Si Si5 0.498617 0.214206 0.588064
Si Si6 0.936200 0.082833 0.460731
Si Si7 0.192700 0.385303 0.397282
Si Si8 0.972592 0.867743 0.118120
O O1 0.724405 0.262375 0.676548
O O2 0.137451 0.418976 0.817007
O O3 0.899017 0.151364 0.918818
O O4 0.819557 0.247765 0.049900
O O5 0.479952 0.673234 0.626662
O O6 0.318491 0.440733 0.603330
O O7 0.500000 0.500000 0.000000
O O8 0.972596 0.342868 0.361442
O O9 0.611379 0.279158 0.107519
O O10 0.000000 0.500000 0.000000
O O11 0.562133 0.773103 0.250845
O O12 0.335909 0.526825 0.218182
O O13 0.717100 0.746449 0.069447
O O14 0.316396 0.044259 0.595065
O O15 0.876963 0.745025 0.647081
O O16 0.000000 0.000000 0.500000
O O17 0.960136 0.119585 0.652967
O O18 0.000000 0.000000 0.000000
#
# Coordination Sequence:
#
# PCOD9044872 Si02
#       8
#     2   2   2   2   2   2   2   2
#     4  11  25  48  72 113 156 202 259 319 387 449
#     4  11  25  47  78 115 152 198 255 330 388 448
#     4   9  21  44  76 108 145 196 257 315 377 458
#     4   9  21  48  75 110 148 207 257 314 375 465
#     4  10  24  46  79 107 154 206 260 311 385 468
#     4  12  26  45  72 107 153 208 258 307 380 458
#     4  10  23  47  77 108 150 199 264 303 381 471
#     4  12  28  46  69 111 164 195 260 318 386 446
#
# _framework density 26.789389
#
# number of rings (size 3 to 8) (size 9 to 14) (size 15 to 20)
#    0.000    1.500    2.500    1.125    3.500    5.000 
#    2.250    2.500    0.000    0.000    0.000    0.000 
#    0.000    0.000    0.000    0.000    0.000    0.000 
#
# Total GULP energy -89367.057122 kJ/mol
# GULP energy per Si atom -5585.441070 kJ/mol
# Density = 2.672842 g / cm^3
# Si number density = 26.789389 Si / 1000 Ang^3
#
#
#
# Elastic Constant Matrix: (Units=GPa)
#
#
# Indices 1 2 3 4 5 6 
#
# 1 143.7306 61.0654 75.5141 27.6522 32.5030 -7.4438
# 2 61.0654 186.2020 42.5370 14.5021 18.6828 -18.2351
# 3 75.5141 42.5370 115.8239 18.3173 45.4447 0.7520
# 4 27.6522 14.5021 18.3173 46.8590 -6.0654 4.3683
# 5 32.5030 18.6828 45.4447 -6.0654 55.2443 12.2196
# 6 -7.4438 -18.2351 0.7520 4.3683 12.2196 49.5416
#
#
#
# Elastic Compliance Matrix: (Units=1/GPa)
#
#
# Indices 1 2 3 4 5 6 
#
# 1 0.012484 -0.001859 -0.005174 -0.005490 -0.003651 0.002655
# 2 -0.001859 0.006581 -0.000459 -0.001194 -0.001465 0.002617
# 3 -0.005174 -0.000459 0.018140 -0.005797 -0.012907 0.002473
# 4 -0.005490 -0.001194 -0.005797 0.029582 0.013208 -0.007043
# 5 -0.003651 -0.001465 -0.012907 0.013208 0.035187 -0.010735
# 6 0.002655 0.002617 0.002473 -0.007043 -0.010735 0.024778
#
#
# Mechanical properties :
#
#
# Convention : Reuss Voigt Hill
#
# Bulk Modulus (GPa) = 44.99604 89.33218 67.16411
# Shear Modulus (GPa) = 33.52493 48.10497 40.81495
#
# Velocity S-wave (km/s) = 3.54139 4.24213 3.90750
# Velocity P-wave (km/s) = 5.79263 7.57712 6.74416
#
# Compressibility (1/GPa) = 0.02222418
#
# Stress axis : x y z
#
# Youngs Moduli (GPa) = 80.09958 151.95198 55.12621
#
# Poissons Ratio (x) = 0.28241 0.28520
# Poissons Ratio (y) = 0.14887 0.02528
# Poissons Ratio (z) = 0.41440 0.06969
#
# Static dielectric constant tensor:
#      x y z
#    x 2.179710 -0.000440 0.010870 
#    y -0.000440 2.536220 -0.071360 
#    z 0.010870 -0.071360 2.145750 
# 
# From -- ./inp_files/200972.got.cif
#   From: 2010.05.17/outbox.cif.g08.bks.cpg/sg2_101_cif.got.tgz:200972.got - 2010.06.03 11:33:40.
