data_PCOD9044321
_publ_section_title
;
Structure prediction by ZEFSAII (Michael W. Deem and Ramdas Pophale) SiO2 
 PCOD9044321
Probable space group: P -1
;
_chemical_formula_sum "Si O2"
_cell_formula_units_Z 14
_cell_length_a 12.948688
_cell_length_b 7.993470
_cell_length_c 9.307023
_cell_angle_alpha 103.614519
_cell_angle_beta 134.495860
_cell_angle_gamma 63.986632
_cell_volume 613.619531
_symmetry_space_group_name_H-M "P -1"
_symmetry_group_IT_number 2
_symmetry_cell_setting 'triclinic'
loop_
_space_group_symop_operation_xyz
x,y,z
-x,-y,-z
loop_
_atom_site_type_symbol
_atom_site_label
_atom_site_fract_x
_atom_site_fract_y
_atom_site_fract_z
Si Si1 0.157501 0.536971 0.652270
Si Si2 0.447051 0.184579 0.887486
Si Si3 0.876604 0.493358 0.712230
Si Si4 0.196138 0.222959 0.068758
Si Si5 0.328697 0.655604 0.326424
Si Si6 0.451309 0.944057 0.593925
Si Si7 0.748841 0.194920 0.036433
O O1 0.305323 0.371334 0.836428
O O2 0.190548 0.527885 0.511561
O O3 0.140884 0.729421 0.750651
O O4 0.000000 0.500000 0.500000
O O5 0.388137 0.118780 0.671706
O O6 0.598134 0.225071 0.996550
O O7 0.500000 0.000000 0.000000
O O8 0.838747 0.697618 0.785736
O O9 0.801552 0.399891 0.737371
O O10 0.063883 0.376685 0.875492
O O11 0.376079 0.192048 0.204863
O O12 0.185897 0.023611 0.989623
O O13 0.500000 0.500000 0.500000
O O14 0.334504 0.842770 0.438408
O O15 0.303869 0.690906 0.140044
O O16 0.500000 0.000000 0.500000
#
# Coordination Sequence:
#
# PCOD9044321 Si02
#       7
#     2   2   2   2   2   2   2
#     4  12  30  48  69 104 149 186 233 293 352 416
#     4  11  26  45  75  98 145 188 232 285 353 416
#     4  11  26  44  72 102 142 183 234 286 360 411
#     4  10  23  46  72  99 141 180 235 290 345 419
#     4  12  24  40  74 101 135 178 234 288 343 413
#     4  11  21  44  71 101 135 180 239 286 340 412
#     4  11  27  47  71 105 143 179 240 288 353 419
#
# _framework density 22.815439000000001
#
# number of rings (size 3 to 8) (size 9 to 14) (size 15 to 20)
#    0.000    0.857    4.286    2.143   12.000    2.286 
#    0.000    0.000    0.000    0.000    0.000    0.000 
#    0.000    0.000    0.000    0.000    0.000    0.000 
#
# Total GULP energy -78301.012884 kJ/mol
# GULP energy per Si atom -5592.929492 kJ/mol
# Density = 2.276351 g / cm^3
# Si number density = 22.815439 Si / 1000 Ang^3
#
#
#
# Elastic Constant Matrix: (Units=GPa)
#
#
# Indices 1 2 3 4 5 6 
#
# 1 100.2015 25.7955 25.4052 2.0169 5.7726 17.7423
# 2 25.7955 111.1081 47.0821 26.3609 5.3642 -4.0969
# 3 25.4052 47.0821 116.1763 28.0134 -2.0200 9.8352
# 4 2.0169 26.3609 28.0134 57.5826 6.4676 6.5426
# 5 5.7726 5.3642 -2.0200 6.4676 39.8054 2.7506
# 6 17.7423 -4.0969 9.8352 6.5426 2.7506 28.2536
#
#
#
# Elastic Compliance Matrix: (Units=1/GPa)
#
#
# Indices 1 2 3 4 5 6 
#
# 1 0.012711 -0.003263 -0.001456 0.002873 -0.001358 -0.008482
# 2 -0.003263 0.012776 -0.003967 -0.004402 -0.001178 0.006417
# 3 -0.001456 -0.003967 0.011733 -0.003732 0.002161 -0.003091
# 4 0.002873 -0.004402 -0.003732 0.022133 -0.003197 -0.005957
# 5 -0.001358 -0.001178 0.002161 -0.003197 0.026237 -0.001884
# 6 -0.008482 0.006417 -0.003091 -0.005957 -0.001884 0.044289
#
#
# Mechanical properties :
#
#
# Convention : Reuss Voigt Hill
#
# Bulk Modulus (GPa) = 50.37818 58.22796 54.30307
# Shear Modulus (GPa) = 32.49564 40.40853 36.45208
#
# Velocity S-wave (km/s) = 3.77806 4.21301 4.00145
# Velocity P-wave (km/s) = 6.41563 7.01731 6.72321
#
# Compressibility (1/GPa) = 0.01984986
#
# Stress axis : x y z
#
# Youngs Moduli (GPa) = 78.67059 78.26891 85.23177
#
# Poissons Ratio (x) = 0.25540 0.12406
# Poissons Ratio (y) = 0.25671 0.33808
# Poissons Ratio (z) = 0.11451 0.31046
#
# Static dielectric constant tensor:
#      x y z
#    x 1.839110 -0.013100 -0.006410 
#    y -0.013100 1.880070 0.023410 
#    z -0.006410 0.023410 1.757000 
# 
# From -- ./inp_files/235757.got.cif
#   From: 2010.05.17/outbox.cif.g08.bks.cpg/sg2_118_cif.got.tgz:235757.got - 2010.06.03 11:33:40.
