data_PCOD9044093
_publ_section_title
;
Structure prediction by ZEFSAII (Michael W. Deem and Ramdas Pophale) SiO2 
 PCOD9044093
Probable space group: P -1
;
_chemical_formula_sum "Si O2"
_cell_formula_units_Z 14
_cell_length_a 14.848099
_cell_length_b 7.428562
_cell_length_c 14.909319
_cell_angle_alpha 61.178289
_cell_angle_beta 30.056006
_cell_angle_gamma 47.684065
_cell_volume 586.132165
_symmetry_space_group_name_H-M "P -1"
_symmetry_group_IT_number 2
_symmetry_cell_setting 'triclinic'
loop_
_space_group_symop_operation_xyz
x,y,z
-x,-y,-z
loop_
_atom_site_type_symbol
_atom_site_label
_atom_site_fract_x
_atom_site_fract_y
_atom_site_fract_z
Si Si1 0.212440 0.100633 0.853558
Si Si2 0.020593 0.075677 0.202204
Si Si3 0.835323 0.999265 0.707762
Si Si4 0.748601 0.404197 0.091743
Si Si5 0.440596 0.828389 0.397789
Si Si6 0.760649 0.735327 0.681799
Si Si7 0.381850 0.475069 0.014213
O O1 0.295799 0.810543 0.835276
O O2 0.403270 0.145079 0.676044
O O3 0.100739 0.176405 0.031417
O O4 0.006399 0.262740 0.925894
O O5 0.054300 0.129014 0.261808
O O6 0.194313 0.772610 0.116269
O O7 0.770450 0.156585 0.385839
O O8 0.764686 0.854939 0.743376
O O9 0.641060 0.293734 0.814542
O O10 0.000000 0.000000 0.500000
O O11 0.595923 0.581287 0.262120
O O12 0.696798 0.558480 0.007783
O O13 0.341150 0.062793 0.357845
O O14 0.618172 0.641706 0.862110
O O15 0.000000 0.500000 0.500000
#
# Coordination Sequence:
#
# PCOD9044093 Si02
#       7
#     2   2   2   2   2   2   2
#     4  10  25  46  71  95 135 180 227 287 340 382
#     4  11  24  42  66  99 133 177 227 273 338 408
#     4  12  22  39  63  95 134 172 217 278 337 401
#     4  10  23  46  69  98 132 177 233 281 333 405
#     4  12  23  45  67 100 136 176 228 280 335 410
#     4  12  24  40  63  97 136 174 221 271 339 407
#     4  11  22  42  65  93 136 171 225 277 335 405
#
# _framework density 23.885396
#
# number of rings (size 3 to 8) (size 9 to 14) (size 15 to 20)
#    0.000    0.857    4.286    2.143    2.000    5.143 
#    0.000    6.429    0.000    0.000    0.000    0.000 
#    0.000    0.000    0.000    0.000    0.000    0.000 
#
# Total GULP energy -78205.540157 kJ/mol
# GULP energy per Si atom -5586.110011 kJ/mol
# Density = 2.383103 g / cm^3
# Si number density = 23.885396 Si / 1000 Ang^3
#
#
#
# Elastic Constant Matrix: (Units=GPa)
#
#
# Indices 1 2 3 4 5 6 
#
# 1 114.5617 11.0660 21.5995 10.9035 -12.3451 16.4679
# 2 11.0660 44.7308 28.8632 16.3312 4.7465 7.4867
# 3 21.5995 28.8632 130.0678 26.8527 -9.1812 12.3853
# 4 10.9035 16.3312 26.8527 23.7561 -4.1596 15.4777
# 5 -12.3451 4.7465 -9.1812 -4.1596 28.8548 3.8016
# 6 16.4679 7.4867 12.3853 15.4777 3.8016 44.6544
#
#
#
# Elastic Compliance Matrix: (Units=1/GPa)
#
#
# Indices 1 2 3 4 5 6 
#
# 1 0.010108 -0.002444 -0.000657 0.001338 0.005244 -0.004046
# 2 -0.002444 0.034505 -0.003632 -0.024230 -0.012102 0.005552
# 3 -0.000657 -0.003632 0.010619 -0.009473 0.002197 0.001002
# 4 0.001338 -0.024230 -0.009473 0.089022 0.017826 -0.026177
# 5 0.005244 -0.012102 0.002197 0.017826 0.043529 -0.010399
# 6 -0.004046 0.005552 0.001002 -0.026177 -0.010399 0.032636
#
#
# Mechanical properties :
#
#
# Convention : Reuss Voigt Hill
#
# Bulk Modulus (GPa) = 23.94277 45.82419 34.88348
# Shear Modulus (GPa) = 20.17699 34.64182 27.40941
#
# Velocity S-wave (km/s) = 2.90960 3.81246 3.39121
# Velocity P-wave (km/s) = 4.61882 6.21341 5.47448
#
# Compressibility (1/GPa) = 0.04176627
#
# Stress axis : x y z
#
# Youngs Moduli (GPa) = 98.92961 28.98098 94.17366
#
# Poissons Ratio (x) = 0.07084 0.06187
# Poissons Ratio (y) = 0.24182 0.34201
# Poissons Ratio (z) = 0.06499 0.10525
#
# Static dielectric constant tensor:
#      x y z
#    x 1.898260 0.009410 0.101360 
#    y 0.009410 1.938890 0.153200 
#    z 0.101360 0.153200 1.951420 
# 
# From -- ./inp_files/178412.got.cif
#   From: 2010.05.17/outbox.cif.g08.bks.cpg/sg2_90_cif.got.tgz:178412.got - 2010.06.03 11:33:40.
