data_PCOD9044891
_publ_section_title
;
Structure prediction by ZEFSAII (Michael W. Deem and Ramdas Pophale) SiO2 
 PCOD9044891
Probable space group: P -1
;
_chemical_formula_sum "Si O2"
_cell_formula_units_Z 10
_cell_length_a 10.720914
_cell_length_b 5.309486
_cell_length_c 7.515095
_cell_angle_alpha 93.441950
_cell_angle_beta 88.763817
_cell_angle_gamma 95.127124
_cell_volume 425.241631
_symmetry_space_group_name_H-M "P -1"
_symmetry_group_IT_number 2
_symmetry_cell_setting 'triclinic'
loop_
_space_group_symop_operation_xyz
x,y,z
-x,-y,-z
loop_
_atom_site_type_symbol
_atom_site_label
_atom_site_fract_x
_atom_site_fract_y
_atom_site_fract_z
Si Si1 0.381857 0.315661 0.552288
Si Si2 0.421141 0.231804 0.955653
Si Si3 0.885716 0.653711 0.462195
Si Si4 0.756838 0.954708 0.749918
Si Si5 0.976758 0.236999 0.887474
O O1 0.500000 0.500000 0.500000
O O2 0.392702 0.218051 0.747085
O O3 0.256659 0.469393 0.554901
O O4 0.351060 0.088195 0.399837
O O5 0.500000 0.500000 0.000000
O O6 0.299773 0.197478 0.084910
O O7 0.500000 0.000000 0.000000
O O8 0.869005 0.839717 0.634641
O O9 0.000000 0.500000 0.500000
O O10 0.925058 0.769291 0.276864
O O11 0.830600 0.212732 0.824975
O O12 0.000000 0.500000 0.000000
O O13 0.000000 0.000000 0.000000
#
# Coordination Sequence:
#
# PCOD9044891 Si02
#       5
#     2   2   2   2   2
#     4  10  23  48  78 116 161 208 267 325 405 468
#     4  12  26  50  78 117 162 210 265 332 402 479
#     4  10  23  47  78 113 162 209 267 324 400 473
#     4  10  25  47  78 114 163 204 276 320 406 469
#     4  12  26  47  74 113 152 206 262 325 388 467
#
# _framework density 23.516044000000001
#
# number of rings (size 3 to 8) (size 9 to 14) (size 15 to 20)
#    1.200    0.000    2.000    3.000    0.000    7.200 
#    3.600    0.000    0.000    0.000    0.000    0.000 
#    0.000    0.000    0.000    0.000    0.000    0.000 
#
# Total GULP energy -55841.906016 kJ/mol
# GULP energy per Si atom -5584.190602 kJ/mol
# Density = 2.346252 g / cm^3
# Si number density = 23.516044 Si / 1000 Ang^3
#
#
#
# Elastic Constant Matrix: (Units=GPa)
#
#
# Indices 1 2 3 4 5 6 
#
# 1 139.3720 70.2301 65.2427 -1.3125 -4.6123 31.3367
# 2 70.2301 149.1545 69.1409 12.2511 1.4215 30.0812
# 3 65.2427 69.1409 217.9956 -3.0637 -7.9724 21.6662
# 4 -1.3125 12.2511 -3.0637 30.4911 9.6591 11.1888
# 5 -4.6123 1.4215 -7.9724 9.6591 58.6305 -2.3155
# 6 31.3367 30.0812 21.6662 11.1888 -2.3155 58.6399
#
#
#
# Elastic Compliance Matrix: (Units=1/GPa)
#
#
# Indices 1 2 3 4 5 6 
#
# 1 0.010722 -0.003817 -0.001574 0.003219 0.000041 -0.003803
# 2 -0.003817 0.010049 -0.001937 -0.003685 -0.000268 -0.001707
# 3 -0.001574 -0.001937 0.005761 0.001337 0.000465 -0.000531
# 4 0.003219 -0.003685 0.001337 0.039526 -0.006308 -0.008115
# 5 0.000041 -0.000268 0.000465 -0.006308 0.018242 0.001867
# 6 -0.003803 -0.001707 -0.000531 -0.008115 0.001867 0.021779
#
#
# Mechanical properties :
#
#
# Convention : Reuss Voigt Hill
#
# Bulk Modulus (GPa) = 84.19373 101.74996 92.97185
# Shear Modulus (GPa) = 40.09873 49.67953 44.88913
#
# Velocity S-wave (km/s) = 4.13384 4.60127 4.37380
# Velocity P-wave (km/s) = 7.65933 8.46115 8.07021
#
# Compressibility (1/GPa) = 0.01187737
#
# Stress axis : x y z
#
# Youngs Moduli (GPa) = 93.26897 99.51296 173.57987
#
# Poissons Ratio (x) = 0.37982 0.27314
# Poissons Ratio (y) = 0.35599 0.33619
# Poissons Ratio (z) = 0.14676 0.19274
#
# Static dielectric constant tensor:
#      x y z
#    x 1.941370 0.010760 0.003610 
#    y 0.010760 1.942570 0.123920 
#    z 0.003610 0.123920 1.979130 
# 
# From -- ./inp_files/228147.got.cif
#   From: 2010.05.17/outbox.cif.g08.bks.cpg/sg2_115_cif.got.tgz:228147.got - 2010.06.03 11:33:40.
