data_PCOD9044279
_publ_section_title
;
Structure prediction by ZEFSAII (Michael W. Deem and Ramdas Pophale) SiO2 
 PCOD9044279
Probable space group: P -1
;
_chemical_formula_sum "Si O2"
_cell_formula_units_Z 10
_cell_length_a 9.388880
_cell_length_b 12.397352
_cell_length_c 8.452614
_cell_angle_alpha 32.757672
_cell_angle_beta 138.885424
_cell_angle_gamma 133.636051
_cell_volume 345.617857
_symmetry_space_group_name_H-M "P -1"
_symmetry_group_IT_number 2
_symmetry_cell_setting 'triclinic'
loop_
_space_group_symop_operation_xyz
x,y,z
-x,-y,-z
loop_
_atom_site_type_symbol
_atom_site_label
_atom_site_fract_x
_atom_site_fract_y
_atom_site_fract_z
Si Si1 0.952444 0.774803 0.663469
Si Si2 0.452662 0.148389 0.634167
Si Si3 0.855202 0.792540 0.190296
Si Si4 0.737149 0.432433 0.319764
Si Si5 0.332591 0.769838 0.815850
O O1 0.719757 0.704025 0.641664
O O2 0.901131 0.782806 0.427226
O O3 0.180501 0.682884 0.948918
O O4 0.000000 0.000000 0.500000
O O5 0.677893 0.271780 0.609607
O O6 0.349996 0.010007 0.571744
O O7 0.500000 0.000000 0.000000
O O8 0.879476 0.629563 0.273075
O O9 0.588667 0.763946 0.018783
O O10 0.000000 0.000000 0.000000
O O11 0.775697 0.321574 0.324291
O O12 0.500000 0.500000 0.000000
#
# Coordination Sequence:
#
# PCOD9044279 Si02
#       5
#     2   2   2   2   2
#     4  10  24  40  72 105 140 190 235 294 366 423
#     4  11  22  45  75 107 145 186 233 303 363 422
#     4  11  25  45  71 103 144 191 245 295 352 427
#     4  10  25  45  74 107 143 191 246 290 356 440
#     4  10  23  46  72 104 142 193 238 294 356 439
#
# _framework density 28.933689000000001
#
# number of rings (size 3 to 8) (size 9 to 14) (size 15 to 20)
#    0.000    1.600    2.000    0.600   14.000    1.600 
#    0.000    4.000    0.000    0.000    0.000    0.000 
#    0.000    0.000    0.000    0.000    0.000    0.000 
#
# Total GULP energy -55877.126144 kJ/mol
# GULP energy per Si atom -5587.712614 kJ/mol
# Density = 2.886783 g / cm^3
# Si number density = 28.933689 Si / 1000 Ang^3
#
#
#
# Elastic Constant Matrix: (Units=GPa)
#
#
# Indices 1 2 3 4 5 6 
#
# 1 280.5976 98.7350 32.6858 -28.7375 19.8580 -24.4217
# 2 98.7350 276.1288 54.9238 10.1104 -9.5227 -26.9497
# 3 32.6858 54.9238 75.4206 -12.6996 -19.3730 -23.5960
# 4 -28.7375 10.1104 -12.6996 44.5405 -3.8717 -3.6798
# 5 19.8580 -9.5227 -19.3730 -3.8717 53.9888 -22.6631
# 6 -24.4217 -26.9497 -23.5960 -3.6798 -22.6631 70.3477
#
#
#
# Elastic Compliance Matrix: (Units=1/GPa)
#
#
# Indices 1 2 3 4 5 6 
#
# 1 0.004723 -0.001702 -0.000695 0.003090 -0.001944 0.000290
# 2 -0.001702 0.005039 -0.003446 -0.003217 0.000063 0.000035
# 3 -0.000695 -0.003446 0.025201 0.009772 0.014453 0.012059
# 4 0.003090 -0.003217 0.009772 0.029112 0.006751 0.006816
# 5 -0.001944 0.000063 0.014453 0.006751 0.031025 0.014545
# 6 0.000290 0.000035 0.012059 0.006816 0.014545 0.023416
#
#
# Mechanical properties :
#
#
# Convention : Reuss Voigt Hill
#
# Bulk Modulus (GPa) = 42.96557 111.64847 77.30702
# Shear Modulus (GPa) = 36.24184 63.49555 49.86869
#
# Velocity S-wave (km/s) = 3.54302 4.68965 4.15607
# Velocity P-wave (km/s) = 5.62310 8.24592 7.05743
#
# Compressibility (1/GPa) = 0.02327445
#
# Stress axis : x y z
#
# Youngs Moduli (GPa) = 211.72186 198.44725 39.68145
#
# Poissons Ratio (x) = 0.33785 0.02760
# Poissons Ratio (y) = 0.36045 0.13676
# Poissons Ratio (z) = 0.14725 0.68392
#
# Static dielectric constant tensor:
#      x y z
#    x 2.545830 0.271090 0.142160 
#    y 0.271090 2.351000 -0.012440 
#    z 0.142160 -0.012440 2.482160 
# 
# From -- ./inp_files/173907.got.cif
#   From: 2010.05.17/outbox.cif.g08.bks.cpg/sg2_87_cif.got.tgz:173907.got - 2010.06.03 11:33:40.
