data_PCOD9044091
_publ_section_title
;
Structure prediction by ZEFSAII (Michael W. Deem and Ramdas Pophale) SiO2 
 PCOD9044091
Probable space group: P -1
;
_chemical_formula_sum "Si O2"
_cell_formula_units_Z 16
_cell_length_a 8.667177
_cell_length_b 23.695665
_cell_length_c 8.305009
_cell_angle_alpha 58.322486
_cell_angle_beta 59.986421
_cell_angle_gamma 30.219728
_cell_volume 726.273459
_symmetry_space_group_name_H-M "P -1"
_symmetry_group_IT_number 2
_symmetry_cell_setting 'triclinic'
loop_
_space_group_symop_operation_xyz
x,y,z
-x,-y,-z
loop_
_atom_site_type_symbol
_atom_site_label
_atom_site_fract_x
_atom_site_fract_y
_atom_site_fract_z
Si Si1 0.050971 0.911271 0.173224
Si Si2 0.696479 0.985724 0.548666
Si Si3 0.839776 0.383068 0.057777
Si Si4 0.836678 0.381878 0.433923
Si Si5 0.866118 0.234428 0.133918
Si Si6 0.280731 0.353492 0.729437
Si Si7 0.116789 0.174199 0.739782
Si Si8 0.794574 0.608930 0.660521
O O1 0.390825 0.775106 0.194476
O O2 0.924815 0.953718 0.357088
O O3 0.868173 0.909418 0.174941
O O4 0.000000 0.000000 0.000000
O O5 0.912917 0.884451 0.716563
O O6 0.500000 0.000000 0.500000
O O7 0.447243 0.099495 0.616819
O O8 0.867737 0.391647 0.216868
O O9 0.890161 0.290431 0.151832
O O10 0.500000 0.500000 0.000000
O O11 0.059209 0.358307 0.866004
O O12 0.500000 0.500000 0.500000
O O13 0.891156 0.287248 0.578405
O O14 0.085947 0.352812 0.435006
O O15 0.509552 0.318420 0.188160
O O16 0.000105 0.215650 0.919868
O O17 0.302286 0.368881 0.509314
O O18 0.090708 0.470598 0.741178
#
# Coordination Sequence:
#
# PCOD9044091 Si02
#       8
#     2   2   2   2   2   2   2   2
#     4  11  25  44  71 106 142 187 237 293 352 423
#     4  10  23  46  69  97 135 190 233 286 348 417
#     4  12  25  43  71 103 140 191 229 285 358 429
#     4  12  27  46  72 104 146 183 237 291 357 424
#     4  12  24  46  72 103 144 184 241 292 351 424
#     4  11  24  43  71 102 147 182 235 287 363 419
#     4  11  26  45  70 103 141 184 240 288 356 414
#     4  11  25  44  73 107 141 185 234 299 354 417
#
# _framework density 22.030266999999998
#
# number of rings (size 3 to 8) (size 9 to 14) (size 15 to 20)
#    0.000    0.750    2.500    4.875    8.750    0.500 
#    2.250    1.250    0.000    0.000    0.000    0.000 
#    0.000    0.000    0.000    0.000    0.000    0.000 
#
# Total GULP energy -89335.198870 kJ/mol
# GULP energy per Si atom -5583.449929 kJ/mol
# Density = 2.198013 g / cm^3
# Si number density = 22.030267 Si / 1000 Ang^3
#
#
#
# Elastic Constant Matrix: (Units=GPa)
#
#
# Indices 1 2 3 4 5 6 
#
# 1 31.8254 5.3459 -4.7746 5.4965 -5.8763 6.4475
# 2 5.3459 142.6074 47.5096 5.3089 0.1858 -6.2283
# 3 -4.7746 47.5096 86.6918 1.7018 7.2960 -8.5163
# 4 5.4965 5.3089 1.7018 51.3909 4.8746 -7.2147
# 5 -5.8763 0.1858 7.2960 4.8746 36.7229 -2.5557
# 6 6.4475 -6.2283 -8.5163 -7.2147 -2.5557 23.9379
#
#
#
# Elastic Compliance Matrix: (Units=1/GPa)
#
#
# Indices 1 2 3 4 5 6 
#
# 1 0.036268 -0.002228 0.001805 -0.005751 0.005464 -0.010856
# 2 -0.002228 0.008784 -0.004879 -0.000420 0.000701 0.001098
# 3 0.001805 -0.004879 0.014842 0.000534 -0.002468 0.003422
# 4 -0.005751 -0.000420 0.000534 0.021505 -0.003339 0.007755
# 5 0.005464 0.000701 -0.002468 -0.003339 0.029030 -0.000074
# 6 -0.010856 0.001098 0.003422 0.007755 -0.000074 0.048531
#
#
# Mechanical properties :
#
#
# Convention : Reuss Voigt Hill
#
# Bulk Modulus (GPa) = 20.28851 39.69851 29.99351
# Shear Modulus (GPa) = 26.88252 36.61327 31.74789
#
# Velocity S-wave (km/s) = 3.49700 4.08113 3.80031
# Velocity P-wave (km/s) = 5.05319 6.34560 5.73591
#
# Compressibility (1/GPa) = 0.04928897
#
# Stress axis : x y z
#
# Youngs Moduli (GPa) = 27.57262 113.84273 67.37633
#
# Poissons Ratio (x) = 0.25365 -0.12162
# Poissons Ratio (y) = 0.06143 0.32876
# Poissons Ratio (z) = -0.04977 0.55549
#
# Static dielectric constant tensor:
#      x y z
#    x 1.847520 -0.051020 -0.002340 
#    y -0.051020 1.881930 0.024450 
#    z -0.002340 0.024450 1.781790 
# 
# From -- ./inp_files/226082.got.cif
#   From: 2010.05.17/outbox.cif.g08.bks.cpg/sg2_114_cif.got.tgz:226082.got - 2010.06.03 11:33:40.
