data_PCOD9044810
_publ_section_title
;
Structure prediction by ZEFSAII (Michael W. Deem and Ramdas Pophale) SiO2 
 PCOD9044810
Probable space group: P -1
;
_chemical_formula_sum "Si O2"
_cell_formula_units_Z 14
_cell_length_a 11.888707
_cell_length_b 6.777364
_cell_length_c 11.484664
_cell_angle_alpha 73.207046
_cell_angle_beta 41.436950
_cell_angle_gamma 65.501467
_cell_volume 556.899239
_symmetry_space_group_name_H-M "P -1"
_symmetry_group_IT_number 2
_symmetry_cell_setting 'triclinic'
loop_
_space_group_symop_operation_xyz
x,y,z
-x,-y,-z
loop_
_atom_site_type_symbol
_atom_site_label
_atom_site_fract_x
_atom_site_fract_y
_atom_site_fract_z
Si Si1 0.861087 0.466893 0.971333
Si Si2 0.722686 0.332266 0.567167
Si Si3 0.459810 0.977275 0.317390
Si Si4 0.737695 0.622140 0.289511
Si Si5 0.640110 0.288519 0.986449
Si Si6 0.861986 0.872083 0.757937
Si Si7 0.198755 0.339561 0.389934
O O1 0.852516 0.710433 0.897539
O O2 0.072820 0.342205 0.834393
O O3 0.776954 0.485670 0.161442
O O4 0.762244 0.369235 0.968230
O O5 0.690879 0.478789 0.450592
O O6 0.710041 0.494300 0.654588
O O7 0.928510 0.176927 0.426358
O O8 0.580696 0.204329 0.700971
O O9 0.550855 0.131760 0.152983
O O10 0.261021 0.143139 0.468673
O O11 0.582762 0.845207 0.346316
O O12 0.500000 0.500000 0.000000
O O13 0.765287 0.118358 0.826218
O O14 0.771032 0.785962 0.735209
O O15 0.000000 0.500000 0.500000
#
# Coordination Sequence:
#
# PCOD9044810 Si02
#       7
#     2   2   2   2   2   2   2
#     4  10  23  47  74 107 149 188 245 305 368 430
#     4  10  25  48  72 105 150 193 239 305 363 438
#     4  12  26  43  72 110 146 187 249 298 371 428
#     4  10  23  48  74 104 149 193 245 301 356 447
#     4  12  28  45  76 112 147 189 248 310 367 432
#     4  10  23  49  75 105 141 196 245 301 371 435
#     4  10  25  45  72 105 148 197 242 294 367 436
#
# _framework density 25.139199999999999
#
# number of rings (size 3 to 8) (size 9 to 14) (size 15 to 20)
#    0.000    1.429    1.429    1.286    4.000   10.286 
#    2.571    0.714    0.000    0.000    0.000    0.000 
#    0.000    0.000    0.000    0.000    0.000    0.000 
#
# Total GULP energy -78334.583389 kJ/mol
# GULP energy per Si atom -5595.327385 kJ/mol
# Density = 2.508198 g / cm^3
# Si number density = 25.139200 Si / 1000 Ang^3
#
#
#
# Elastic Constant Matrix: (Units=GPa)
#
#
# Indices 1 2 3 4 5 6 
#
# 1 203.1574 117.5175 43.7707 10.5999 -6.7467 -7.0834
# 2 117.5175 180.3049 60.5741 9.1833 -3.0500 -16.0319
# 3 43.7707 60.5741 89.4355 10.2194 14.4361 -1.0343
# 4 10.5999 9.1833 10.2194 46.8238 2.9748 -1.4444
# 5 -6.7467 -3.0500 14.4361 2.9748 36.9145 -1.3854
# 6 -7.0834 -16.0319 -1.0343 -1.4444 -1.3854 73.8972
#
#
#
# Elastic Compliance Matrix: (Units=1/GPa)
#
#
# Indices 1 2 3 4 5 6 
#
# 1 0.008014 -0.004949 -0.000707 -0.000787 0.001384 -0.000305
# 2 -0.004949 0.010690 -0.005136 0.000071 0.002049 0.001813
# 3 -0.000707 -0.005136 0.016321 -0.001996 -0.006817 -0.001120
# 4 -0.000787 0.000071 -0.001996 0.022038 -0.001121 0.000322
# 5 0.001384 0.002049 -0.006817 -0.001121 0.030307 0.001028
# 6 -0.000305 0.001813 -0.001120 0.000322 0.001028 0.013906
#
#
# Mechanical properties :
#
#
# Convention : Reuss Voigt Hill
#
# Bulk Modulus (GPa) = 74.40085 101.84693 88.12389
# Shear Modulus (GPa) = 39.26501 48.26280 43.76391
#
# Velocity S-wave (km/s) = 3.95638 4.38633 4.17689
# Velocity P-wave (km/s) = 7.10847 8.13968 7.64149
#
# Compressibility (1/GPa) = 0.01344071
#
# Stress axis : x y z
#
# Youngs Moduli (GPa) = 124.78155 93.54884 61.27028
#
# Poissons Ratio (x) = 0.46301 0.04332
# Poissons Ratio (y) = 0.61759 0.31466
# Poissons Ratio (z) = 0.08822 0.48043
#
# Static dielectric constant tensor:
#      x y z
#    x 2.006350 -0.055720 -0.071330 
#    y -0.055720 1.980230 0.027800 
#    z -0.071330 0.027800 2.101740 
# 
# From -- ./inp_files/410168.got.cif
#   From: 2010.05.17/outbox.cif.g08.bks.cpg/sg2_206_cif.got.tgz:410168.got - 2010.06.03 11:33:40.
