data_PCOD9044698
_publ_section_title
;
Structure prediction by ZEFSAII (Michael W. Deem and Ramdas Pophale) SiO2 
 PCOD9044698
Probable space group: P -1
;
_chemical_formula_sum "Si O2"
_cell_formula_units_Z 16
_cell_length_a 12.468381
_cell_length_b 16.259940
_cell_length_c 14.883975
_cell_angle_alpha 37.835016
_cell_angle_beta 123.282092
_cell_angle_gamma 152.319444
_cell_volume 729.864850
_symmetry_space_group_name_H-M "P -1"
_symmetry_group_IT_number 2
_symmetry_cell_setting 'triclinic'
loop_
_space_group_symop_operation_xyz
x,y,z
-x,-y,-z
loop_
_atom_site_type_symbol
_atom_site_label
_atom_site_fract_x
_atom_site_fract_y
_atom_site_fract_z
Si Si1 0.767812 0.677995 0.010427
Si Si2 0.000330 0.382782 0.849083
Si Si3 0.572382 0.759581 0.430192
Si Si4 0.574782 0.556128 0.214871
Si Si5 0.991544 0.012429 0.655413
Si Si6 0.864396 0.556107 0.642790
Si Si7 0.505339 0.773297 0.066042
Si Si8 0.973420 0.619484 0.927003
O O1 0.769208 0.727894 0.070201
O O2 0.770962 0.518666 0.151456
O O3 0.500000 0.500000 0.000000
O O4 0.982552 0.927555 0.819842
O O5 0.027289 0.567786 0.691961
O O6 0.948031 0.311000 0.992898
O O7 0.743356 0.096220 0.919451
O O8 0.412544 0.561575 0.614180
O O9 0.369871 0.641662 0.368980
O O10 0.728765 0.775092 0.446342
O O11 0.821538 0.089783 0.278124
O O12 0.615741 0.725347 0.147359
O O13 0.264538 0.268731 0.280394
O O14 0.973055 0.154663 0.535729
O O15 0.711203 0.411266 0.793535
O O16 0.341174 0.638799 0.013647
O O17 0.000000 0.500000 0.000000
#
# Coordination Sequence:
#
# PCOD9044698 Si02
#       8
#     2   2   2   2   2   2   2   2
#     4  10  23  47  71  92 132 180 229 272 330 404
#     4  12  25  44  65  99 141 178 217 276 341 398
#     4  12  22  39  64 103 135 172 225 279 331 391
#     4  11  24  40  67  99 126 175 234 274 325 394
#     4  11  21  42  68  98 130 175 225 284 329 391
#     4  12  24  38  65 101 138 173 217 280 345 388
#     4  12  22  40  67 102 133 172 223 277 333 393
#     4  12  22  37  67  98 138 173 219 273 336 399
#
# _framework density 21.921868
#
# number of rings (size 3 to 8) (size 9 to 14) (size 15 to 20)
#    0.000    0.500    6.250    3.375    1.750    0.500 
#    0.000    3.125    2.750    0.000    0.000    0.000 
#    0.000    0.000    0.000    0.000    0.000    0.000 
#
# Total GULP energy -89396.288225 kJ/mol
# GULP energy per Si atom -5587.268014 kJ/mol
# Density = 2.187197 g / cm^3
# Si number density = 21.921868 Si / 1000 Ang^3
#
#
#
# Elastic Constant Matrix: (Units=GPa)
#
#
# Indices 1 2 3 4 5 6 
#
# 1 114.7048 14.7959 37.0809 3.8832 41.9417 -1.3059
# 2 14.7959 88.7620 21.7070 3.0205 15.4889 -1.2698
# 3 37.0809 21.7070 67.5050 12.5976 25.7740 -9.1211
# 4 3.8832 3.0205 12.5976 31.7460 -7.0271 4.9488
# 5 41.9417 15.4889 25.7740 -7.0271 48.9290 3.5137
# 6 -1.3059 -1.2698 -9.1211 4.9488 3.5137 34.7043
#
#
#
# Elastic Compliance Matrix: (Units=1/GPa)
#
#
# Indices 1 2 3 4 5 6 
#
# 1 0.013687 0.000423 -0.002599 -0.003363 -0.011084 0.001449
# 2 0.000423 0.012450 -0.003035 -0.000661 -0.002804 0.000052
# 3 -0.002599 -0.003035 0.026483 -0.014497 -0.013576 0.010193
# 4 -0.003363 -0.000661 -0.014497 0.043543 0.017841 -0.011976
# 5 -0.011084 -0.002804 -0.013576 0.017841 0.041317 -0.010815
# 6 0.001449 0.000052 0.010193 -0.011976 -0.010815 0.034353
#
#
# Mechanical properties :
#
#
# Convention : Reuss Voigt Hill
#
# Bulk Modulus (GPa) = 23.69731 46.45993 35.07862
# Shear Modulus (GPa) = 25.46841 36.23506 30.85173
#
# Velocity S-wave (km/s) = 3.41219 4.07002 3.75554
# Velocity P-wave (km/s) = 5.13395 6.58226 5.90269
#
# Compressibility (1/GPa) = 0.04219887
#
# Stress axis : x y z
#
# Youngs Moduli (GPa) = 73.06240 80.31939 37.75963
#
# Poissons Ratio (x) = -0.03401 0.09814
# Poissons Ratio (y) = -0.03094 0.11461
# Poissons Ratio (z) = 0.18989 0.24379
#
# Static dielectric constant tensor:
#      x y z
#    x 1.854050 0.063140 0.013350 
#    y 0.063140 1.921790 0.014570 
#    z 0.013350 0.014570 1.795350 
# 
# From -- ./inp_files/406755.got.cif
#   From: 2010.05.17/outbox.cif.g08.bks.cpg/sg2_204_cif.got.tgz:406755.got - 2010.06.03 11:33:40.
