data_PCOD9044322
_publ_section_title
;
Structure prediction by ZEFSAII (Michael W. Deem and Ramdas Pophale) SiO2 
 PCOD9044322
Probable space group: P -1
;
_chemical_formula_sum "Si O2"
_cell_formula_units_Z 16
_cell_length_a 6.087362
_cell_length_b 11.079315
_cell_length_c 13.929314
_cell_angle_alpha 130.264638
_cell_angle_beta 63.584206
_cell_angle_gamma 98.135148
_cell_volume 627.184517
_symmetry_space_group_name_H-M "P -1"
_symmetry_group_IT_number 2
_symmetry_cell_setting 'triclinic'
loop_
_space_group_symop_operation_xyz
x,y,z
-x,-y,-z
loop_
_atom_site_type_symbol
_atom_site_label
_atom_site_fract_x
_atom_site_fract_y
_atom_site_fract_z
Si Si1 0.071067 0.742920 0.150221
Si Si2 0.753343 0.021783 0.621026
Si Si3 0.761506 0.191647 0.215032
Si Si4 0.427714 0.426691 0.127161
Si Si5 0.445972 0.268773 0.678749
Si Si6 0.646634 0.682570 0.494917
Si Si7 0.131596 0.177455 0.970546
Si Si8 0.064673 0.404507 0.339395
O O1 0.212555 0.859955 0.239810
O O2 0.857427 0.685338 0.225049
O O3 0.921351 0.830925 0.134487
O O4 0.291354 0.614962 0.990555
O O5 0.536483 0.098547 0.627418
O O6 0.743690 0.846749 0.570890
O O7 0.000000 0.000000 0.500000
O O8 0.528419 0.309639 0.372747
O O9 0.987269 0.231040 0.259105
O O10 0.730008 0.006289 0.124829
O O11 0.873473 0.214810 0.100724
O O12 0.392634 0.619647 0.239483
O O13 0.339553 0.385032 0.229927
O O14 0.273679 0.321647 0.039639
O O15 0.491805 0.291294 0.568205
O O16 0.870438 0.525614 0.369321
O O17 0.000000 0.500000 0.500000
#
# Coordination Sequence:
#
# PCOD9044322 Si02
#       8
#     2   2   2   2   2   2   2   2
#     4  12  26  44  76 103 143 196 236 300 364 426
#     4  12  27  48  72 111 147 188 245 292 366 433
#     4  10  23  46  72  99 146 185 240 294 364 427
#     4  11  26  46  71 105 144 186 247 295 358 429
#     4  12  27  46  74 107 147 192 242 299 354 436
#     4  12  25  45  77 104 148 194 235 301 368 422
#     4  10  25  47  71 107 142 190 240 302 360 431
#     4  11  26  45  72 110 145 189 245 301 360 430
#
# _framework density 25.510833999999999
#
# number of rings (size 3 to 8) (size 9 to 14) (size 15 to 20)
#    0.000    0.750    1.250    4.875    8.750    2.000 
#    0.000    2.500    0.000    0.000    0.000    0.000 
#    0.000    0.000    0.000    0.000    0.000    0.000 
#
# Total GULP energy -89391.807314 kJ/mol
# GULP energy per Si atom -5586.987957 kJ/mol
# Density = 2.545277 g / cm^3
# Si number density = 25.510834 Si / 1000 Ang^3
#
#
#
# Elastic Constant Matrix: (Units=GPa)
#
#
# Indices 1 2 3 4 5 6 
#
# 1 73.0349 32.3336 36.2640 3.9214 13.5583 6.6820
# 2 32.3336 63.7640 20.2955 2.5800 12.8483 15.0461
# 3 36.2640 20.2955 146.2204 -18.6320 -2.9683 -0.0303
# 4 3.9214 2.5800 -18.6320 47.5115 14.8302 8.5108
# 5 13.5583 12.8483 -2.9683 14.8302 58.3083 -0.8073
# 6 6.6820 15.0461 -0.0303 8.5108 -0.8073 39.7667
#
#
#
# Elastic Compliance Matrix: (Units=1/GPa)
#
#
# Indices 1 2 3 4 5 6 
#
# 1 0.019952 -0.008257 -0.004115 -0.002059 -0.002504 0.000158
# 2 -0.008257 0.022634 -0.000970 0.001560 -0.003619 -0.007585
# 3 -0.004115 -0.000970 0.008444 0.003411 0.000738 0.000350
# 4 -0.002059 0.001560 0.003411 0.025463 -0.006248 -0.005818
# 5 -0.002504 -0.003619 0.000738 -0.006248 0.020205 0.003538
# 6 0.000158 -0.007585 0.000350 -0.005818 0.003538 0.029307
#
#
# Mechanical properties :
#
#
# Convention : Reuss Voigt Hill
#
# Bulk Modulus (GPa) = 41.07567 51.20060 46.13814
# Shear Modulus (GPa) = 31.09356 42.05903 36.57630
#
# Velocity S-wave (km/s) = 3.49497 4.06479 3.79060
# Velocity P-wave (km/s) = 5.69409 6.49182 6.10600
#
# Compressibility (1/GPa) = 0.02434531
#
# Stress axis : x y z
#
# Youngs Moduli (GPa) = 50.12093 44.18076 118.42826
#
# Poissons Ratio (x) = 0.36480 0.48737
# Poissons Ratio (y) = 0.41384 0.11489
# Poissons Ratio (z) = 0.20626 0.04286
#
# Static dielectric constant tensor:
#      x y z
#    x 2.123230 -0.007320 -0.016800 
#    y -0.007320 2.055000 0.006710 
#    z -0.016800 0.006710 2.030540 
# 
# From -- ./inp_files/482318.got.cif
#   From: 2010.05.17/outbox.cif.g08.bks.cpg/sg2_242_cif.got.tgz:482318.got - 2010.06.03 11:33:40.
