data_PCOD9044842
_publ_section_title
;
Structure prediction by ZEFSAII (Michael W. Deem and Ramdas Pophale) SiO2 
 PCOD9044842
Probable space group: P -1
;
_chemical_formula_sum "Si O2"
_cell_formula_units_Z 13
_cell_length_a 15.239877
_cell_length_b 12.282338
_cell_length_c 9.248024
_cell_angle_alpha 51.040787
_cell_angle_beta 40.128564
_cell_angle_gamma 28.812116
_cell_volume 532.941058
_symmetry_space_group_name_H-M "P -1"
_symmetry_group_IT_number 2
_symmetry_cell_setting 'triclinic'
loop_
_space_group_symop_operation_xyz
x,y,z
-x,-y,-z
loop_
_atom_site_type_symbol
_atom_site_label
_atom_site_fract_x
_atom_site_fract_y
_atom_site_fract_z
Si Si1 0.271448 0.372539 0.453193
Si Si2 0.178008 0.976718 0.283513
Si Si3 0.394730 0.504095 0.993207
Si Si4 0.123034 0.547650 0.808332
Si Si5 0.253502 0.084083 0.655400
Si Si6 0.000000 0.000000 0.000000
Si Si7 0.562736 0.084904 0.755974
O O1 0.206825 0.499337 0.578258
O O2 0.156906 0.314041 0.630426
O O3 0.533111 0.124596 0.339695
O O4 0.240242 0.506712 0.251704
O O5 0.405777 0.729684 0.145842
O O6 0.241851 0.993795 0.341666
O O7 0.000000 0.000000 0.500000
O O8 0.061185 0.186268 0.153743
O O9 0.500000 0.500000 0.000000
O O10 0.253740 0.731305 0.894935
O O11 0.340979 0.358512 0.789238
O O12 0.000000 0.500000 0.000000
O O13 0.097546 0.076916 0.855780
O O14 0.355307 0.021873 0.417508
O O15 0.500000 0.000000 0.000000
#
# Coordination Sequence:
#
# PCOD9044842 Si02
#       7
#     2   2   2   2   2   1   2
#     4  10  23  47  75 107 145 194 246 303 363 439
#     4  12  29  47  73 109 150 198 241 309 379 437
#     4  12  27  49  75 106 150 192 249 309 370 438
#     4  11  25  46  77 108 148 195 247 305 370 443
#     4  10  24  44  76 108 143 191 249 301 364 439
#     4  12  28  46  74 110 144 190 252 306 372 434
#     4  11  24  47  72 107 149 192 250 302 365 441
#
# _framework density 24.392939999999999
#
# number of rings (size 3 to 8) (size 9 to 14) (size 15 to 20)
#    0.000    0.923    3.077    1.846   10.769    3.692 
#    0.000    0.000    0.000    0.000    0.000    0.000 
#    0.000    0.000    0.000    0.000    0.000    0.000 
#
# Total GULP energy -72587.582220 kJ/mol
# GULP energy per Si atom -5583.660171 kJ/mol
# Density = 2.433742 g / cm^3
# Si number density = 24.392940 Si / 1000 Ang^3
#
#
#
# Elastic Constant Matrix: (Units=GPa)
#
#
# Indices 1 2 3 4 5 6 
#
# 1 105.6226 32.0319 29.5366 -14.0640 -26.8418 -6.9223
# 2 32.0319 181.9370 18.7369 -4.3633 4.6148 -11.9091
# 3 29.5366 18.7369 55.6007 -3.8430 -15.9064 0.4940
# 4 -14.0640 -4.3633 -3.8430 32.6092 10.4501 -6.9805
# 5 -26.8418 4.6148 -15.9064 10.4501 51.4799 1.4971
# 6 -6.9223 -11.9091 0.4940 -6.9805 1.4971 36.5708
#
#
#
# Elastic Compliance Matrix: (Units=1/GPa)
#
#
# Indices 1 2 3 4 5 6 
#
# 1 0.013221 -0.001680 -0.004874 0.003964 0.004658 0.002587
# 2 -0.001680 0.006190 -0.001784 0.001047 -0.002253 0.002014
# 3 -0.004874 -0.001784 0.022504 -0.001797 0.005005 -0.002355
# 4 0.003964 0.001047 -0.001797 0.036036 -0.006137 0.008245
# 5 0.004658 -0.002253 0.005005 -0.006137 0.024910 -0.002111
# 6 0.002587 0.002014 -0.002355 0.008245 -0.002111 0.030182
#
#
# Mechanical properties :
#
#
# Convention : Reuss Voigt Hill
#
# Bulk Modulus (GPa) = 39.61783 55.97457 47.79620
# Shear Modulus (GPa) = 31.61946 41.65564 36.63755
#
# Velocity S-wave (km/s) = 3.60426 4.13691 3.87973
# Velocity P-wave (km/s) = 5.79635 6.76872 6.30132
#
# Compressibility (1/GPa) = 0.02524116
#
# Stress axis : x y z
#
# Youngs Moduli (GPa) = 75.63633 161.55427 44.43594
#
# Poissons Ratio (x) = 0.27133 0.21657
# Poissons Ratio (y) = 0.12703 0.07926
# Poissons Ratio (z) = 0.36864 0.28817
#
# Static dielectric constant tensor:
#      x y z
#    x 1.806990 0.064530 0.023010 
#    y 0.064530 1.901210 -0.001530 
#    z 0.023010 -0.001530 1.966450 
# 
# From -- ./inp_files/306407.got.cif
#   From: 2010.05.17/outbox.cif.g08.bks.cpg/sg2_154_cif.got.tgz:306407.got - 2010.06.03 11:33:40.
