data_PCOD9044827
_publ_section_title
;
Structure prediction by ZEFSAII (Michael W. Deem and Ramdas Pophale) SiO2 
 PCOD9044827
Probable space group: P -1
;
_chemical_formula_sum "Si O2"
_cell_formula_units_Z 15
_cell_length_a 17.588353
_cell_length_b 9.118024
_cell_length_c 8.283485
_cell_angle_alpha 46.712542
_cell_angle_beta 130.501867
_cell_angle_gamma 129.840368
_cell_volume 687.979191
_symmetry_space_group_name_H-M "P -1"
_symmetry_group_IT_number 2
_symmetry_cell_setting 'triclinic'
loop_
_space_group_symop_operation_xyz
x,y,z
-x,-y,-z
loop_
_atom_site_type_symbol
_atom_site_label
_atom_site_fract_x
_atom_site_fract_y
_atom_site_fract_z
Si Si1 0.245361 0.964949 0.020532
Si Si2 0.241900 0.801915 0.806334
Si Si3 0.292099 0.421663 0.861945
Si Si4 0.107404 0.341050 0.880241
Si Si5 0.519528 0.467769 0.737106
Si Si6 0.866336 0.108156 0.727690
Si Si7 0.408349 0.771180 0.516626
Si Si8 0.500000 0.000000 0.000000
O O1 0.174948 0.902908 0.135551
O O2 0.324500 0.831029 0.247305
O O3 0.203834 0.913145 0.820070
O O4 0.298642 0.222628 0.917762
O O5 0.174667 0.547338 0.921046
O O6 0.210042 0.864973 0.538555
O O7 0.369700 0.864642 0.932665
O O8 0.170201 0.384507 0.763016
O O9 0.348563 0.649031 0.683974
O O10 0.359175 0.424318 0.114412
O O11 0.982164 0.293671 0.735142
O O12 0.118512 0.117922 0.119053
O O13 0.500000 0.500000 0.500000
O O14 0.457584 0.604103 0.637154
O O15 0.482350 0.212099 0.900439
O O16 0.500000 0.000000 0.500000
#
# Coordination Sequence:
#
# PCOD9044827 Si02
#       8
#     2   2   2   2   2   2   2   1
#     4  11  26  43  69 107 141 183 244 294 362 429
#     4  12  25  43  71 102 143 186 238 294 358 430
#     4  11  24  46  67  99 142 190 235 297 358 427
#     4  10  23  47  75 101 136 188 244 292 360 420
#     4  12  27  41  68  98 141 193 234 288 353 431
#     4  10  25  49  74 100 142 187 239 306 356 416
#     4  12  26  42  66  99 142 191 236 288 352 428
#     4  12  28  40  68 108 146 190 240 288 360 438
#
# _framework density 21.802983999999999
#
# number of rings (size 3 to 8) (size 9 to 14) (size 15 to 20)
#    0.000    0.800    2.667    3.200    7.467    1.600 
#    0.000    6.000    0.000    0.000    0.000    0.000 
#    0.000    0.000    0.000    0.000    0.000    0.000 
#
# Total GULP energy -83512.397358 kJ/mol
# GULP energy per Si atom -5567.493157 kJ/mol
# Density = 2.175336 g / cm^3
# Si number density = 21.802984 Si / 1000 Ang^3
#
#
#
# Elastic Constant Matrix: (Units=GPa)
#
#
# Indices 1 2 3 4 5 6 
#
# 1 114.3900 63.8641 55.5192 5.6039 -9.3061 0.6576
# 2 63.8641 185.5218 36.6180 -14.4517 0.5625 -6.0038
# 3 55.5192 36.6180 66.6729 -1.9698 -7.4163 5.2311
# 4 5.6039 -14.4517 -1.9698 35.5260 -7.6818 3.5152
# 5 -9.3061 0.5625 -7.4163 -7.6818 26.2316 -6.0949
# 6 0.6576 -6.0038 5.2311 3.5152 -6.0949 53.1621
#
#
#
# Elastic Compliance Matrix: (Units=1/GPa)
#
#
# Indices 1 2 3 4 5 6 
#
# 1 0.017180 -0.003835 -0.012246 -0.004711 0.001580 0.001052
# 2 -0.003835 0.007135 -0.000748 0.003269 -0.000619 0.000640
# 3 -0.012246 -0.000748 0.026335 0.004139 0.003780 -0.002365
# 4 -0.004711 0.003269 0.004139 0.032436 0.008664 -0.001131
# 5 0.001580 -0.000619 0.003780 0.008664 0.043212 0.003920
# 6 0.001052 0.000640 -0.002365 -0.001131 0.003920 0.019626
#
#
# Mechanical properties :
#
#
# Convention : Reuss Voigt Hill
#
# Bulk Modulus (GPa) = 58.84840 75.39860 67.12350
# Shear Modulus (GPa) = 26.99124 37.02283 32.00703
#
# Velocity S-wave (km/s) = 3.52228 4.12523 3.83562
# Velocity P-wave (km/s) = 6.60239 7.57277 7.10417
#
# Compressibility (1/GPa) = 0.01699281
#
# Stress axis : x y z
#
# Youngs Moduli (GPa) = 58.20863 140.15215 37.97268
#
# Poissons Ratio (x) = 0.53743 0.46500
# Poissons Ratio (y) = 0.22321 0.02841
# Poissons Ratio (z) = 0.71280 0.10484
#
# Static dielectric constant tensor:
#      x y z
#    x 1.868440 -0.023760 -0.015010 
#    y -0.023760 1.804120 -0.011890 
#    z -0.015010 -0.011890 1.836320 
# 
# From -- ./inp_files/324422.got.cif
#   From: 2010.05.17/outbox.cif.g08.bks.cpg/sg2_163_cif.got.tgz:324422.got - 2010.06.03 11:33:40.
