data_PCOD9044604
_publ_section_title
;
Structure prediction by ZEFSAII (Michael W. Deem and Ramdas Pophale) SiO2 
 PCOD9044604
Probable space group: P -1
;
_chemical_formula_sum "Si O2"
_cell_formula_units_Z 14
_cell_length_a 8.276732
_cell_length_b 14.217386
_cell_length_c 18.818369
_cell_angle_alpha 30.074986
_cell_angle_beta 37.093551
_cell_angle_gamma 54.083715
_cell_volume 628.696382
_symmetry_space_group_name_H-M "P -1"
_symmetry_group_IT_number 2
_symmetry_cell_setting 'triclinic'
loop_
_space_group_symop_operation_xyz
x,y,z
-x,-y,-z
loop_
_atom_site_type_symbol
_atom_site_label
_atom_site_fract_x
_atom_site_fract_y
_atom_site_fract_z
Si Si1 0.171343 0.969843 0.134311
Si Si2 0.332051 0.240264 0.651131
Si Si3 0.190275 0.322631 0.801749
Si Si4 0.857802 0.152677 0.482313
Si Si5 0.132555 0.119245 0.553216
Si Si6 0.765080 0.289402 0.203371
Si Si7 0.223699 0.563286 0.049390
O O1 0.953021 0.812919 0.260385
O O2 0.053652 0.906857 0.294805
O O3 0.500000 0.000000 0.000000
O O4 0.175320 0.183512 0.965154
O O5 0.241054 0.218843 0.779792
O O6 0.549012 0.468327 0.419963
O O7 0.521893 0.108976 0.642162
O O8 0.888794 0.359954 0.890445
O O9 0.994690 0.190683 0.488236
O O10 0.970130 0.351496 0.265031
O O11 0.000000 0.000000 0.500000
O O12 0.454299 0.264452 0.358639
O O13 0.156696 0.900400 0.674639
O O14 0.729169 0.289330 0.130154
O O15 0.000000 0.500000 0.000000
O O16 0.500000 0.500000 0.000000
#
# Coordination Sequence:
#
# PCOD9044604 Si02
#       7
#     2   2   2   2   2   2   2
#     4  12  26  45  70 101 142 186 234 289 363 416
#     4  10  25  46  73  98 138 189 235 296 345 420
#     4  10  23  47  69 100 140 180 246 284 344 425
#     4  11  24  42  71 103 134 184 238 282 350 419
#     4  11  25  42  66 101 142 174 231 294 340 419
#     4  11  24  43  65  98 140 182 222 284 354 410
#     4  11  22  42  68  99 136 181 226 287 344 414
#
# _framework density 22.268301999999998
#
# number of rings (size 3 to 8) (size 9 to 14) (size 15 to 20)
#    0.000    1.143    2.857    2.143   10.000    0.571 
#    2.571    0.000    0.000    0.000    0.000    0.000 
#    0.000    0.000    0.000    0.000    0.000    0.000 
#
# Total GULP energy -78187.750598 kJ/mol
# GULP energy per Si atom -5584.839328 kJ/mol
# Density = 2.221762 g / cm^3
# Si number density = 22.268302 Si / 1000 Ang^3
#
#
#
# Elastic Constant Matrix: (Units=GPa)
#
#
# Indices 1 2 3 4 5 6 
#
# 1 85.7523 23.3132 37.3440 20.3345 -4.7895 -9.8657
# 2 23.3132 102.4972 45.0601 44.9534 -10.7276 1.5589
# 3 37.3440 45.0601 144.6441 27.6653 -8.6026 3.3949
# 4 20.3345 44.9534 27.6653 53.9714 -5.5841 3.4034
# 5 -4.7895 -10.7276 -8.6026 -5.5841 51.2534 1.9727
# 6 -9.8657 1.5589 3.3949 3.4034 1.9727 21.0237
#
#
#
# Elastic Compliance Matrix: (Units=1/GPa)
#
#
# Indices 1 2 3 4 5 6 
#
# 1 0.015112 -0.000238 -0.003182 -0.004387 0.000030 0.008331
# 2 -0.000238 0.016468 -0.002670 -0.012148 0.001618 0.000913
# 3 -0.003182 -0.002670 0.008834 -0.000873 0.000633 -0.002640
# 4 -0.004387 -0.012148 -0.000873 0.031187 0.000534 -0.006116
# 5 0.000030 0.001618 0.000633 0.000534 0.020101 -0.002181
# 6 0.008331 0.000913 -0.002640 -0.006116 -0.002181 0.053028
#
#
# Mechanical properties :
#
#
# Convention : Reuss Voigt Hill
#
# Bulk Modulus (GPa) = 35.42063 60.48088 47.95076
# Shear Modulus (GPa) = 30.06222 40.39479 35.22851
#
# Velocity S-wave (km/s) = 3.67822 4.26373 3.98175
# Velocity P-wave (km/s) = 5.82923 7.17344 6.53598
#
# Compressibility (1/GPa) = 0.02823214
#
# Stress axis : x y z
#
# Youngs Moduli (GPa) = 66.17120 60.72486 113.20462
#
# Poissons Ratio (x) = 0.01446 0.36025
# Poissons Ratio (y) = 0.01575 0.30230
# Poissons Ratio (z) = 0.21058 0.16216
#
# Static dielectric constant tensor:
#      x y z
#    x 1.791710 -0.005090 -0.015770 
#    y -0.005090 1.919090 -0.015420 
#    z -0.015770 -0.015420 1.826400 
# 
# From -- ./inp_files/519498.got.cif
#   From: 2010.05.17/outbox.cif.g08.bks.cpg/sg2_260_cif.got.tgz:519498.got - 2010.06.03 11:33:40.
