data_PCOD9044496
_publ_section_title
;
Structure prediction by ZEFSAII (Michael W. Deem and Ramdas Pophale) SiO2 
 PCOD9044496
Probable space group: P -1
;
_chemical_formula_sum "Si O2"
_cell_formula_units_Z 14
_cell_length_a 8.573475
_cell_length_b 4.962358
_cell_length_c 15.216827
_cell_angle_alpha 111.120687
_cell_angle_beta 116.759508
_cell_angle_gamma 80.371732
_cell_volume 539.219471
_symmetry_space_group_name_H-M "P -1"
_symmetry_group_IT_number 2
_symmetry_cell_setting 'triclinic'
loop_
_space_group_symop_operation_xyz
x,y,z
-x,-y,-z
loop_
_atom_site_type_symbol
_atom_site_label
_atom_site_fract_x
_atom_site_fract_y
_atom_site_fract_z
Si Si1 0.635665 0.722502 0.752258
Si Si2 0.711831 0.388191 0.152777
Si Si3 0.725006 0.377198 0.355655
Si Si4 0.098344 0.132547 0.456961
Si Si5 0.068815 0.683195 0.251812
Si Si6 0.645964 0.363355 0.881174
Si Si7 0.910190 0.872883 0.051324
O O1 0.449832 0.755308 0.659527
O O2 0.815515 0.608762 0.741810
O O3 0.614494 0.451394 0.781712
O O4 0.662960 0.019405 0.846360
O O5 0.687536 0.295004 0.235881
O O6 0.530263 0.541631 0.102849
O O7 0.870617 0.612655 0.220687
O O8 0.775731 0.121415 0.079089
O O9 0.741489 0.688279 0.442844
O O10 0.932190 0.307130 0.398273
O O11 0.146658 0.909951 0.366636
O O12 0.000000 0.000000 0.500000
O O13 0.038796 0.796928 0.157571
O O14 0.802159 0.575909 0.974925
O O15 0.000000 0.000000 0.000000
#
# Coordination Sequence:
#
# PCOD9044496 Si02
#       7
#     2   2   2   2   2   2   2
#     4  11  28  48  77 116 163 210 255 332 396 475
#     4  11  24  48  80 114 154 212 263 328 392 474
#     4  10  23  46  77 114 160 199 267 322 398 472
#     4  11  22  45  82 117 147 209 260 330 392 475
#     4  12  27  47  81 114 166 202 269 320 406 466
#     4  11  28  50  77 115 159 211 270 321 393 471
#     4  12  29  51  79 118 161 212 266 329 393 472
#
# _framework density 25.963453000000001
#
# number of rings (size 3 to 8) (size 9 to 14) (size 15 to 20)
#    0.000    0.857    2.857    2.143   10.000    2.857 
#    0.000    0.714    0.000    0.000    0.000    0.000 
#    0.000    0.000    0.000    0.000    0.000    0.000 
#
# Total GULP energy -78159.080681 kJ/mol
# GULP energy per Si atom -5582.791477 kJ/mol
# Density = 2.590436 g / cm^3
# Si number density = 25.963453 Si / 1000 Ang^3
#
#
#
# Elastic Constant Matrix: (Units=GPa)
#
#
# Indices 1 2 3 4 5 6 
#
# 1 145.1495 45.1029 59.7508 24.1743 17.7534 -23.9250
# 2 45.1029 98.9314 55.4483 36.2656 -6.5909 -18.3584
# 3 59.7508 55.4483 182.2163 49.0607 -1.7988 -10.2591
# 4 24.1743 36.2656 49.0607 37.7245 6.2380 -9.8046
# 5 17.7534 -6.5909 -1.7988 6.2380 40.7885 11.6592
# 6 -23.9250 -18.3584 -10.2591 -9.8046 11.6592 43.0338
#
#
#
# Elastic Compliance Matrix: (Units=1/GPa)
#
#
# Indices 1 2 3 4 5 6 
#
# 1 0.010807 -0.003925 -0.003117 0.003952 -0.007982 0.006654
# 2 -0.003925 0.018329 0.000264 -0.016662 0.007247 -0.000060
# 3 -0.003117 0.000264 0.009639 -0.012465 0.004714 -0.003440
# 4 0.003952 -0.016662 -0.012465 0.061971 -0.017584 0.011000
# 5 -0.007982 0.007247 0.004714 -0.017584 0.036060 -0.013998
# 6 0.006654 -0.000060 -0.003440 0.011000 -0.013998 0.032390
#
#
# Mechanical properties :
#
#
# Convention : Reuss Voigt Hill
#
# Bulk Modulus (GPa) = 39.65457 82.98902 61.32180
# Shear Modulus (GPa) = 26.15598 42.04237 34.09918
#
# Velocity S-wave (km/s) = 3.17742 4.02841 3.62795
# Velocity P-wave (km/s) = 5.36356 7.32602 6.42022
#
# Compressibility (1/GPa) = 0.02521777
#
# Stress axis : x y z
#
# Youngs Moduli (GPa) = 92.52922 54.55737 103.74613
#
# Poissons Ratio (x) = 0.21416 0.32343
# Poissons Ratio (y) = 0.36322 -0.02739
# Poissons Ratio (z) = 0.28846 -0.01440
#
# Static dielectric constant tensor:
#      x y z
#    x 2.168290 -0.029990 0.011260 
#    y -0.029990 2.131310 -0.004090 
#    z 0.011260 -0.004090 2.057000 
# 
# From -- ./inp_files/77516.got.cif
#   From: 2010.05.17/outbox.cif.g08.bks.cpg/sg2_39_cif.got.tgz:77516.got - 2010.06.03 11:33:40.
