data_PCOD9044139
_publ_section_title
;
Structure prediction by ZEFSAII (Michael W. Deem and Ramdas Pophale) SiO2 
 PCOD9044139
Probable space group: P -1
;
_chemical_formula_sum "Si O2"
_cell_formula_units_Z 12
_cell_length_a 7.590352
_cell_length_b 5.980302
_cell_length_c 15.577790
_cell_angle_alpha 88.677167
_cell_angle_beta 54.825982
_cell_angle_gamma 119.835764
_cell_volume 451.041320
_symmetry_space_group_name_H-M "P -1"
_symmetry_group_IT_number 2
_symmetry_cell_setting 'triclinic'
loop_
_space_group_symop_operation_xyz
x,y,z
-x,-y,-z
loop_
_atom_site_type_symbol
_atom_site_label
_atom_site_fract_x
_atom_site_fract_y
_atom_site_fract_z
Si Si1 0.104987 0.882601 0.405135
Si Si2 0.413769 0.706106 0.830902
Si Si3 0.609848 0.181940 0.879540
Si Si4 0.812220 0.759625 0.983367
Si Si5 0.414995 0.771916 0.450338
Si Si6 0.867665 0.748640 0.240874
O O1 0.328976 0.874482 0.393234
O O2 0.856199 0.555660 0.453266
O O3 0.259287 0.118102 0.283708
O O4 0.000000 0.000000 0.500000
O O5 0.236556 0.517895 0.965861
O O6 0.282215 0.490988 0.790278
O O7 0.446699 0.988150 0.842948
O O8 0.504797 0.361997 0.917868
O O9 0.922172 0.305697 0.783354
O O10 0.500000 0.000000 0.000000
O O11 0.000000 0.000000 0.000000
O O12 0.950332 0.936587 0.857015
O O13 0.650053 0.742140 0.360263
O O14 0.500000 0.000000 0.500000
#
# Coordination Sequence:
#
# PCOD9044139 Si02
#       6
#     2   2   2   2   2   2
#     4  11  26  48  73 103 143 190 246 299 363 420
#     4  11  24  45  71 100 148 185 232 297 357 427
#     4  10  24  43  67 107 142 187 232 289 357 427
#     4   9  22  43  70 103 142 182 229 286 357 427
#     4  11  27  49  74 105 142 190 247 303 355 427
#     4  10  23  46  70 106 139 189 241 290 360 426
#
# _framework density 26.605103
#
# number of rings (size 3 to 8) (size 9 to 14) (size 15 to 20)
#    0.000    1.667    1.667    0.000    7.000   10.667 
#    6.000    0.000    0.000    0.000    0.000    0.000 
#    0.000    0.000    0.000    0.000    0.000    0.000 
#
# Total GULP energy -66947.282358 kJ/mol
# GULP energy per Si atom -5578.940197 kJ/mol
# Density = 2.654455 g / cm^3
# Si number density = 26.605103 Si / 1000 Ang^3
#
#
#
# Elastic Constant Matrix: (Units=GPa)
#
#
# Indices 1 2 3 4 5 6 
#
# 1 114.7160 43.7666 53.2867 3.7014 -28.3023 1.3182
# 2 43.7666 183.8747 52.3461 6.1888 -5.0245 51.7050
# 3 53.2867 52.3461 137.5252 -3.8952 -5.8195 8.8409
# 4 3.7014 6.1888 -3.8952 62.4843 -11.4710 1.2656
# 5 -28.3023 -5.0245 -5.8195 -11.4710 48.0870 4.2971
# 6 1.3182 51.7050 8.8409 1.2656 4.2971 41.4323
#
#
#
# Elastic Compliance Matrix: (Units=1/GPa)
#
#
# Indices 1 2 3 4 5 6 
#
# 1 0.013252 -0.002713 -0.003999 0.000431 0.006859 0.003092
# 2 -0.002713 0.010074 -0.002024 -0.000697 0.000121 -0.012045
# 3 -0.003999 -0.002024 0.009511 0.000778 -0.001294 0.000734
# 4 0.000431 -0.000697 0.000778 0.016897 0.004330 -0.000275
# 5 0.006859 0.000121 -0.001294 0.004330 0.025983 -0.002920
# 6 0.003092 -0.012045 0.000734 -0.000275 -0.002920 0.039223
#
#
# Mechanical properties :
#
#
# Convention : Reuss Voigt Hill
#
# Bulk Modulus (GPa) = 65.07257 81.65720 73.36489
# Shear Modulus (GPa) = 36.35502 49.51515 42.93509
#
# Velocity S-wave (km/s) = 3.70059 4.31874 4.02156
# Velocity P-wave (km/s) = 6.53995 7.45840 7.01422
#
# Compressibility (1/GPa) = 0.01536746
#
# Stress axis : x y z
#
# Youngs Moduli (GPa) = 75.45863 99.26501 105.13957
#
# Poissons Ratio (x) = 0.26927 0.42042
# Poissons Ratio (y) = 0.20469 0.21277
# Poissons Ratio (z) = 0.30174 0.20088
#
# Static dielectric constant tensor:
#      x y z
#    x 2.395530 0.022360 0.078010 
#    y 0.022360 2.087250 0.011570 
#    z 0.078010 0.011570 2.141390 
# 
# From -- ./inp_files/35668.got.cif
#   From: 2010.05.17/outbox.cif.g08.bks.cpg/sg2_18_cif.got.tgz:35668.got - 2010.06.03 11:33:40.
