data_PCOD9044472
_publ_section_title
;
Structure prediction by ZEFSAII (Michael W. Deem and Ramdas Pophale) SiO2 
 PCOD9044472
Probable space group: P -1
;
_chemical_formula_sum "Si O2"
_cell_formula_units_Z 13
_cell_length_a 9.683661
_cell_length_b 15.206529
_cell_length_c 7.716252
_cell_angle_alpha 68.231240
_cell_angle_beta 113.256853
_cell_angle_gamma 151.038474
_cell_volume 504.669489
_symmetry_space_group_name_H-M "P -1"
_symmetry_group_IT_number 2
_symmetry_cell_setting 'triclinic'
loop_
_space_group_symop_operation_xyz
x,y,z
-x,-y,-z
loop_
_atom_site_type_symbol
_atom_site_label
_atom_site_fract_x
_atom_site_fract_y
_atom_site_fract_z
Si Si1 0.270906 0.120000 0.666399
Si Si2 0.329254 0.943186 0.720088
Si Si3 0.915115 0.180233 0.683840
Si Si4 0.151624 0.493626 0.489174
Si Si5 0.027830 0.404326 0.119932
Si Si6 0.411350 0.351340 0.980094
Si Si7 0.000000 0.000000 0.000000
O O1 0.536225 0.323007 0.571430
O O2 0.194706 0.088052 0.853395
O O3 0.380561 0.071966 0.733349
O O4 0.000000 0.000000 0.500000
O O5 0.131280 0.864211 0.509792
O O6 0.183977 0.794086 0.895230
O O7 0.613973 0.046706 0.713164
O O8 0.123460 0.383067 0.665349
O O9 0.075732 0.180321 0.859414
O O10 0.964237 0.369280 0.318278
O O11 0.000000 0.500000 0.500000
O O12 0.336115 0.532613 0.115497
O O13 0.000000 0.500000 0.000000
O O14 0.322756 0.204555 0.129908
O O15 0.500000 0.500000 0.000000
#
# Coordination Sequence:
#
# PCOD9044472 Si02
#       7
#     2   2   2   2   2   2   1
#     4  12  26  46  80 111 155 202 257 327 396 472
#     4  10  23  46  76 111 146 208 253 329 397 469
#     4  10  24  45  74 109 152 195 265 318 395 480
#     4  11  24  46  73 108 147 197 254 316 389 466
#     4  11  27  46  71 108 153 198 258 318 392 469
#     4  12  28  48  75 112 155 212 256 332 395 467
#     4  12  28  50  72 118 156 200 274 312 396 480
#
# _framework density 25.759433999999999
#
# number of rings (size 3 to 8) (size 9 to 14) (size 15 to 20)
#    0.000    0.923    3.077    1.846    8.615    1.231 
#    0.000    2.308    0.000    0.000    0.000    0.000 
#    0.000    0.000    0.000    0.000    0.000    0.000 
#
# Total GULP energy -72434.040249 kJ/mol
# GULP energy per Si atom -5571.849250 kJ/mol
# Density = 2.570080 g / cm^3
# Si number density = 25.759434 Si / 1000 Ang^3
#
#
#
# Elastic Constant Matrix: (Units=GPa)
#
#
# Indices 1 2 3 4 5 6 
#
# 1 121.2199 25.5690 25.6969 1.3932 -19.8910 15.9201
# 2 25.5690 167.4913 10.7055 -41.5572 -12.1066 7.1057
# 3 25.6969 10.7055 91.6224 -4.1206 3.3749 17.6146
# 4 1.3932 -41.5572 -4.1206 39.2947 7.1135 -3.7110
# 5 -19.8910 -12.1066 3.3749 7.1135 41.7888 -1.4894
# 6 15.9201 7.1057 17.6146 -3.7110 -1.4894 35.6796
#
#
#
# Elastic Compliance Matrix: (Units=1/GPa)
#
#
# Indices 1 2 3 4 5 6 
#
# 1 0.010497 -0.001894 -0.002458 -0.003883 0.005190 -0.003280
# 2 -0.001894 0.008511 -0.000083 0.009067 0.000032 0.000135
# 3 -0.002458 -0.000083 0.012762 0.001328 -0.002634 -0.005159
# 4 -0.003883 0.009067 0.001328 0.036570 -0.005452 0.002847
# 5 0.005190 0.000032 -0.002634 -0.005452 0.027535 -0.000439
# 6 -0.003280 0.000135 -0.005159 0.002847 -0.000439 0.032289
#
#
# Mechanical properties :
#
#
# Convention : Reuss Voigt Hill
#
# Bulk Modulus (GPa) = 43.66751 56.03073 49.84912
# Shear Modulus (GPa) = 34.56199 44.57677 39.56938
#
# Velocity S-wave (km/s) = 3.66693 4.16444 3.92358
# Velocity P-wave (km/s) = 5.90909 6.70240 6.31821
#
# Compressibility (1/GPa) = 0.02290032
#
# Stress axis : x y z
#
# Youngs Moduli (GPa) = 95.26331 117.49381 78.35776
#
# Poissons Ratio (x) = 0.22259 0.19260
# Poissons Ratio (y) = 0.18047 0.00647
# Poissons Ratio (z) = 0.23415 0.00971
#
# Static dielectric constant tensor:
#      x y z
#    x 2.919890 -1.072170 0.226310 
#    y -1.072170 3.120910 -0.255200 
#    z 0.226310 -0.255200 1.935360 
# 
# From -- ./inp_files/153507.got.cif
#   From: 2010.05.17/outbox.cif.g08.bks.cpg/sg2_77_cif.got.tgz:153507.got - 2010.06.03 11:33:40.
