data_PCOD9044757
_publ_section_title
;
Structure prediction by ZEFSAII (Michael W. Deem and Ramdas Pophale) SiO2 
 PCOD9044757
Probable space group: P -1
;
_chemical_formula_sum "Si O2"
_cell_formula_units_Z 16
_cell_length_a 10.632151
_cell_length_b 6.643011
_cell_length_c 11.583357
_cell_angle_alpha 123.768940
_cell_angle_beta 96.719482
_cell_angle_gamma 87.683411
_cell_volume 675.125191
_symmetry_space_group_name_H-M "P -1"
_symmetry_group_IT_number 2
_symmetry_cell_setting 'triclinic'
loop_
_space_group_symop_operation_xyz
x,y,z
-x,-y,-z
loop_
_atom_site_type_symbol
_atom_site_label
_atom_site_fract_x
_atom_site_fract_y
_atom_site_fract_z
Si Si1 0.296980 0.472882 0.597361
Si Si2 0.783370 0.467232 0.127488
Si Si3 0.966562 0.228902 0.729242
Si Si4 0.491140 0.203019 0.217938
Si Si5 0.250822 0.056755 0.287460
Si Si6 0.346139 0.240791 0.977459
Si Si7 0.856922 0.929957 0.943564
Si Si8 0.914782 0.278879 0.469615
O O1 0.245834 0.479302 0.724539
O O2 0.442622 0.560433 0.644191
O O3 0.265981 0.213961 0.454501
O O4 0.224148 0.665310 0.572490
O O5 0.673600 0.576829 0.071370
O O6 0.926961 0.574324 0.157157
O O7 0.783398 0.181444 0.016223
O O8 0.930226 0.270142 0.605548
O O9 0.834838 0.182966 0.769683
O O10 0.036976 0.972184 0.656768
O O11 0.388175 0.068196 0.245913
O O12 0.598670 0.009556 0.142421
O O13 0.429586 0.285429 0.116114
O O14 0.168835 0.188161 0.221008
O O15 0.204769 0.216316 0.006096
O O16 0.000000 0.000000 0.000000
O O17 0.000000 0.500000 0.500000
#
# Coordination Sequence:
#
# PCOD9044757 Si02
#       8
#     2   2   2   2   2   2   2   2
#     4  12  23  43  74 101 136 188 234 289 356 415
#     4  12  25  43  77 105 135 185 239 288 357 431
#     4  11  23  39  68 107 137 178 234 284 358 427
#     4  10  23  47  72  98 142 191 238 292 346 406
#     4  11  25  44  65 104 147 175 235 291 345 415
#     4  10  23  48  74 100 138 190 242 288 343 431
#     4  11  26  46  72 105 146 182 227 298 365 420
#     4  11  21  41  67 101 144 181 222 289 363 419
#
# _framework density 23.699307000000001
#
# number of rings (size 3 to 8) (size 9 to 14) (size 15 to 20)
#    0.000    1.000    3.750    2.625    3.500    2.500 
#    2.250    2.500    0.000    0.000    0.000    0.000 
#    0.000    0.000    0.000    0.000    0.000    0.000 
#
# Total GULP energy -89511.828081 kJ/mol
# GULP energy per Si atom -5594.489255 kJ/mol
# Density = 2.364537 g / cm^3
# Si number density = 23.699307 Si / 1000 Ang^3
#
#
#
# Elastic Constant Matrix: (Units=GPa)
#
#
# Indices 1 2 3 4 5 6 
#
# 1 87.4345 13.6998 22.0045 -5.0750 10.0438 23.7623
# 2 13.6998 83.1146 22.8169 -7.7760 -4.1730 -1.8917
# 3 22.0045 22.8169 99.2042 -5.8425 1.6734 -0.9891
# 4 -5.0750 -7.7760 -5.8425 41.9929 7.8728 7.5706
# 5 10.0438 -4.1730 1.6734 7.8728 32.7388 -6.3526
# 6 23.7623 -1.8917 -0.9891 7.5706 -6.3526 44.6643
#
#
#
# Elastic Compliance Matrix: (Units=1/GPa)
#
#
# Indices 1 2 3 4 5 6 
#
# 1 0.016816 -0.002208 -0.002902 0.004846 -0.008621 -0.011152
# 2 -0.002208 0.013366 -0.002550 0.001020 0.002632 0.001886
# 3 -0.002902 -0.002550 0.011348 0.000421 0.000203 0.001645
# 4 0.004846 0.001020 0.000421 0.028049 -0.009807 -0.008675
# 5 -0.008621 0.002632 0.000203 -0.009807 0.038161 0.011793
# 6 -0.011152 0.001886 0.001645 -0.008675 0.011793 0.031586
#
#
# Mechanical properties :
#
#
# Convention : Reuss Voigt Hill
#
# Bulk Modulus (GPa) = 38.15452 42.97730 40.56591
# Shear Modulus (GPa) = 30.60256 37.96133 34.28195
#
# Velocity S-wave (km/s) = 3.59734 4.00658 3.80746
# Velocity P-wave (km/s) = 5.77831 6.29105 6.04013
#
# Compressibility (1/GPa) = 0.02620922
#
# Stress axis : x y z
#
# Youngs Moduli (GPa) = 59.46696 74.81624 88.11917
#
# Poissons Ratio (x) = 0.16522 0.25576
# Poissons Ratio (y) = 0.13132 0.22470
# Poissons Ratio (z) = 0.17260 0.19077
#
# Static dielectric constant tensor:
#      x y z
#    x 1.944050 0.015760 0.000300 
#    y 0.015760 1.883350 -0.005510 
#    z 0.000300 -0.005510 1.896340 
# 
# From -- ./inp_files/411135.got.cif
#   From: 2010.05.17/outbox.cif.g08.bks.cpg/sg2_206_cif.got.tgz:411135.got - 2010.06.03 11:33:40.
