data_PCOD9044784
_publ_section_title
;
Structure prediction by ZEFSAII (Michael W. Deem and Ramdas Pophale) SiO2 
 PCOD9044784
Probable space group: P -1
;
_chemical_formula_sum "Si O2"
_cell_formula_units_Z 16
_cell_length_a 14.412302
_cell_length_b 9.919815
_cell_length_c 8.099969
_cell_angle_alpha 49.500670
_cell_angle_beta 123.384900
_cell_angle_gamma 137.181980
_cell_volume 592.359776
_symmetry_space_group_name_H-M "P -1"
_symmetry_group_IT_number 2
_symmetry_cell_setting 'triclinic'
loop_
_space_group_symop_operation_xyz
x,y,z
-x,-y,-z
loop_
_atom_site_type_symbol
_atom_site_label
_atom_site_fract_x
_atom_site_fract_y
_atom_site_fract_z
Si Si1 0.718941 0.650416 0.254586
Si Si2 0.748518 0.503642 0.904473
Si Si3 0.970633 0.201918 0.551587
Si Si4 0.771758 0.013773 0.798932
Si Si5 0.549402 0.147290 0.767842
Si Si6 0.974132 0.384510 0.894061
Si Si7 0.625638 0.212982 0.343292
Si Si8 0.309887 0.199508 0.543873
O O1 0.641063 0.391729 0.342518
O O2 0.881745 0.755460 0.352959
O O3 0.671549 0.702880 0.333120
O O4 0.700505 0.768806 0.989236
O O5 0.698608 0.358327 0.802395
O O6 0.690315 0.642125 0.713445
O O7 0.911222 0.659543 0.958647
O O8 0.696230 0.355448 0.132931
O O9 0.905922 0.102258 0.746697
O O10 0.000953 0.438374 0.357994
O O11 0.843842 0.030109 0.441350
O O12 0.701217 0.103296 0.554704
O O13 0.827968 0.159024 0.904018
O O14 0.436205 0.195971 0.618842
O O15 0.522177 0.992901 0.708734
O O16 0.500000 0.000000 0.000000
O O17 0.000000 0.500000 0.000000
#
# Coordination Sequence:
#
# PCOD9044784 Si02
#       8
#     2   2   2   2   2   2   2   2
#     4  12  26  41  68 105 148 174 225 290 351 401
#     4  11  23  43  72  97 134 184 233 280 332 415
#     4  12  21  41  65 101 141 182 230 275 338 419
#     4  12  23  42  69 103 142 184 229 277 344 416
#     4  10  23  47  73  94 131 186 241 278 331 415
#     4  12  23  39  68 105 143 178 220 284 350 405
#     4  11  23  46  70 103 134 185 233 280 337 412
#     4  12  24  44  68 106 136 179 231 292 344 400
#
# _framework density 27.010611000000001
#
# number of rings (size 3 to 8) (size 9 to 14) (size 15 to 20)
#    0.000    0.500    3.750    6.000    0.000    0.000 
#    0.000    3.125    0.000    0.000    0.000    0.000 
#    0.000    0.000    0.000    0.000    0.000    0.000 
#
# Total GULP energy -89685.165183 kJ/mol
# GULP energy per Si atom -5605.322824 kJ/mol
# Density = 2.694913 g / cm^3
# Si number density = 27.010611 Si / 1000 Ang^3
#
#
#
# Elastic Constant Matrix: (Units=GPa)
#
#
# Indices 1 2 3 4 5 6 
#
# 1 107.6998 23.6357 40.5278 8.5727 1.3128 -15.4658
# 2 23.6357 168.8759 36.9626 19.7566 -1.2970 -12.0980
# 3 40.5278 36.9626 173.0811 -19.7213 21.7328 -1.5731
# 4 8.5727 19.7566 -19.7213 57.1918 -6.2204 -13.5036
# 5 1.3128 -1.2970 21.7328 -6.2204 39.7955 6.5603
# 6 -15.4658 -12.0980 -1.5731 -13.5036 6.5603 40.7490
#
#
#
# Elastic Compliance Matrix: (Units=1/GPa)
#
#
# Indices 1 2 3 4 5 6 
#
# 1 0.010999 -0.000537 -0.002640 -0.001552 0.000266 0.003356
# 2 -0.000537 0.006724 -0.001674 -0.002568 0.000621 0.000777
# 3 -0.002640 -0.001674 0.007596 0.003307 -0.003679 0.000482
# 4 -0.001552 -0.002568 0.003307 0.021148 0.000528 0.005699
# 5 0.000266 0.000621 -0.003679 0.000528 0.027920 -0.004177
# 6 0.003356 0.000777 0.000482 0.005699 -0.004177 0.028624
#
#
# Mechanical properties :
#
#
# Convention : Reuss Voigt Hill
#
# Bulk Modulus (GPa) = 64.03642 72.43432 68.23537
# Shear Modulus (GPa) = 42.40153 50.78263 46.59208
#
# Velocity S-wave (km/s) = 3.96638 4.34072 4.15776
# Velocity P-wave (km/s) = 6.68847 7.21094 6.95461
#
# Compressibility (1/GPa) = 0.01561611
#
# Stress axis : x y z
#
# Youngs Moduli (GPa) = 90.91885 148.72246 131.64051
#
# Poissons Ratio (x) = 0.07993 0.34758
# Poissons Ratio (y) = 0.04886 0.22033
# Poissons Ratio (z) = 0.24006 0.24892
#
# Static dielectric constant tensor:
#      x y z
#    x 2.088880 -0.040620 -0.007120 
#    y -0.040620 2.179570 0.032520 
#    z -0.007120 0.032520 2.132520 
# 
# From -- ./inp_files/345002.got.cif
#   From: 2010.05.17/outbox.cif.g08.bks.cpg/sg2_173_cif.got.tgz:345002.got - 2010.06.03 11:33:40.
