data_PCOD9045669
_publ_section_title
;
Structure prediction by ZEFSAII (Michael W. Deem and Ramdas Pophale) SiO2 
 PCOD9045669
Probable space group: P -1
;
_chemical_formula_sum "Si O2"
_cell_formula_units_Z 16
_cell_length_a 9.109061
_cell_length_b 8.148339
_cell_length_c 10.391777
_cell_angle_alpha 58.131410
_cell_angle_beta 72.256351
_cell_angle_gamma 74.125676
_cell_volume 617.810821
_symmetry_space_group_name_H-M "P -1"
_symmetry_group_IT_number 2
_symmetry_cell_setting 'triclinic'
loop_
_space_group_symop_operation_xyz
x,y,z
-x,-y,-z
loop_
_atom_site_type_symbol
_atom_site_label
_atom_site_fract_x
_atom_site_fract_y
_atom_site_fract_z
Si Si1 0.429266 0.496267 0.376453
Si Si2 0.606654 0.900348 0.362356
Si Si3 0.068821 0.698563 0.924939
Si Si4 0.020210 0.718950 0.641751
Si Si5 0.595118 0.327152 0.174291
Si Si6 0.682405 0.854403 0.759218
Si Si7 0.094557 0.251583 0.797593
Si Si8 0.158592 0.850943 0.292716
O O1 0.500000 0.500000 0.500000
O O2 0.369442 0.285194 0.476107
O O3 0.554022 0.481735 0.234455
O O4 0.292856 0.668193 0.314871
O O5 0.729404 0.844522 0.237896
O O6 0.633395 0.110614 0.318855
O O7 0.427283 0.953374 0.345594
O O8 0.245528 0.650092 0.946408
O O9 0.070231 0.778911 0.746348
O O10 0.971748 0.799177 0.026386
O O11 0.000000 0.500000 0.000000
O O12 0.832293 0.757101 0.680671
O O13 0.078493 0.488248 0.698637
O O14 0.093886 0.832927 0.462547
O O15 0.446883 0.294085 0.139123
O O16 0.760439 0.951613 0.818720
O O17 0.983588 0.180399 0.748096
#
# Coordination Sequence:
#
# PCOD9045669 Si02
#       8
#     2   2   2   2   2   2   2   2
#     4  12  21  39  69 105 137 180 228 281 345 406
#     4  10  24  41  66 100 141 177 224 282 352 403
#     4  10  25  46  72  96 133 190 231 273 342 422
#     4  11  23  45  69 101 140 181 230 282 343 406
#     4  10  24  42  66  97 140 180 220 282 344 410
#     4  10  25  42  64 107 138 179 221 288 349 400
#     4  11  25  45  68 102 136 182 236 281 335 407
#     4  12  24  40  72 105 141 175 235 288 334 402
#
# _framework density 25.897898000000001
#
# number of rings (size 3 to 8) (size 9 to 14) (size 15 to 20)
#    0.750    0.500    2.500    2.625    5.250    0.500 
#    0.000    8.125    0.000    0.000    0.000    0.000 
#    0.000    0.000    0.000    0.000    0.000    0.000 
#
# Total GULP energy -89470.254624 kJ/mol
# GULP energy per Si atom -5591.890914 kJ/mol
# Density = 2.583895 g / cm^3
# Si number density = 25.897898 Si / 1000 Ang^3
#
#
#
# Elastic Constant Matrix: (Units=GPa)
#
#
# Indices 1 2 3 4 5 6 
#
# 1 153.8144 47.1523 41.7481 11.4894 -16.2549 -3.1031
# 2 47.1523 118.3238 30.1829 18.4506 -3.5498 -22.5219
# 3 41.7481 30.1829 99.0807 32.7763 0.9920 -4.1815
# 4 11.4894 18.4506 32.7763 47.1856 -5.2206 -10.0044
# 5 -16.2549 -3.5498 0.9920 -5.2206 44.5523 12.0474
# 6 -3.1031 -22.5219 -4.1815 -10.0044 12.0474 59.3961
#
#
#
# Elastic Compliance Matrix: (Units=1/GPa)
#
#
# Indices 1 2 3 4 5 6 
#
# 1 0.008523 -0.002944 -0.003263 0.001438 0.003485 -0.001365
# 2 -0.002944 0.010952 -0.001242 -0.002045 -0.001458 0.003863
# 3 -0.003263 -0.001242 0.015010 -0.009573 -0.002562 -0.000677
# 4 0.001438 -0.002045 -0.009573 0.029264 0.003219 0.002902
# 5 0.003485 -0.001458 -0.002562 0.003219 0.025433 -0.005167
# 6 -0.001365 0.003863 -0.000677 0.002902 -0.005167 0.019719
#
#
# Mechanical properties :
#
#
# Convention : Reuss Voigt Hill
#
# Bulk Modulus (GPa) = 51.05127 67.70951 59.38039
# Shear Modulus (GPa) = 38.36596 47.03583 42.70089
#
# Velocity S-wave (km/s) = 3.85311 4.26632 4.06497
# Velocity P-wave (km/s) = 6.28893 7.10423 6.70898
#
# Compressibility (1/GPa) = 0.01958815
#
# Stress axis : x y z
#
# Youngs Moduli (GPa) = 117.33520 91.31114 66.62368
#
# Poissons Ratio (x) = 0.26878 0.21737
# Poissons Ratio (y) = 0.34539 0.08272
# Poissons Ratio (z) = 0.38282 0.11337
#
# Static dielectric constant tensor:
#      x y z
#    x 2.071360 -0.017180 0.011660 
#    y -0.017180 2.075900 -0.073630 
#    z 0.011660 -0.073630 2.092770 
# 
# From -- ./inp_files/378229.got.cif
#   From: 2010.05.17/outbox.cif.g08.bks.cpg/sg2_190_cif.got.tgz:378229.got - 2010.06.03 11:33:40.
