data_PCOD9045500
_publ_section_title
;
Structure prediction by ZEFSAII (Michael W. Deem and Ramdas Pophale) SiO2 
 PCOD9045500
Probable space group: P -1
;
_chemical_formula_sum "Si O2"
_cell_formula_units_Z 14
_cell_length_a 8.901328
_cell_length_b 9.656226
_cell_length_c 18.545596
_cell_angle_alpha 48.340425
_cell_angle_beta 110.554719
_cell_angle_gamma 72.070919
_cell_volume 706.519250
_symmetry_space_group_name_H-M "P -1"
_symmetry_group_IT_number 2
_symmetry_cell_setting 'triclinic'
loop_
_space_group_symop_operation_xyz
x,y,z
-x,-y,-z
loop_
_atom_site_type_symbol
_atom_site_label
_atom_site_fract_x
_atom_site_fract_y
_atom_site_fract_z
Si Si1 0.768479 0.932248 0.806263
Si Si2 0.174168 0.678421 0.611687
Si Si3 0.278101 0.651813 0.180154
Si Si4 0.796399 0.723687 0.159440
Si Si5 0.815618 0.488399 0.479349
Si Si6 0.896040 0.236372 0.734496
Si Si7 0.908951 0.535856 0.851471
O O1 0.781957 0.826224 0.766584
O O2 0.477943 0.200883 0.687418
O O3 0.907639 0.006391 0.803230
O O4 0.900914 0.700091 0.972529
O O5 0.472273 0.452296 0.755471
O O6 0.125521 0.521372 0.693758
O O7 0.122446 0.704549 0.508833
O O8 0.000000 0.000000 0.500000
O O9 0.290815 0.583885 0.290239
O O10 0.277947 0.468056 0.195274
O O11 0.000000 0.000000 0.000000
O O12 0.942885 0.570346 0.161397
O O13 0.871803 0.849445 0.167049
O O14 0.500000 0.000000 0.000000
O O15 0.826330 0.388239 0.594490
O O16 0.000000 0.500000 0.500000
#
# Coordination Sequence:
#
# PCOD9045500 Si02
#       7
#     2   2   2   2   2   2   2
#     4  11  23  44  65  98 126 172 222 276 323 392
#     4  12  27  43  66 102 140 171 221 285 337 395
#     4  11  21  44  70  94 127 180 223 269 333 408
#     4  11  24  44  68  99 133 180 220 272 339 402
#     4  12  25  44  63  91 135 174 213 267 341 401
#     4  11  23  40  72  88 122 180 219 260 332 398
#     4  10  24  40  69  96 129 163 229 278 317 390
#
# _framework density 19.815453999999999
#
# number of rings (size 3 to 8) (size 9 to 14) (size 15 to 20)
#    0.000    0.857    4.286    3.000    4.000    0.000 
#    0.000    3.571    0.000    0.000    0.000    0.000 
#    0.000    0.000    0.000    0.000    0.000    0.000 
#
# Total GULP energy -78125.414121 kJ/mol
# GULP energy per Si atom -5580.386723 kJ/mol
# Density = 1.977035 g / cm^3
# Si number density = 19.815454 Si / 1000 Ang^3
#
#
#
# Elastic Constant Matrix: (Units=GPa)
#
#
# Indices 1 2 3 4 5 6 
#
# 1 103.9009 36.2581 30.8112 1.8206 5.9005 11.9187
# 2 36.2581 167.5106 27.9826 13.8658 10.8411 15.9219
# 3 30.8112 27.9826 53.0669 5.7318 -4.1318 -4.6253
# 4 1.8206 13.8658 5.7318 30.1591 -4.5664 -6.6131
# 5 5.9005 10.8411 -4.1318 -4.5664 31.3624 13.2598
# 6 11.9187 15.9219 -4.6253 -6.6131 13.2598 32.1948
#
#
#
# Elastic Compliance Matrix: (Units=1/GPa)
#
#
# Indices 1 2 3 4 5 6 
#
# 1 0.012786 -0.000989 -0.007393 -0.000141 -0.000972 -0.004935
# 2 -0.000989 0.007580 -0.003485 -0.003900 -0.001793 -0.003946
# 3 -0.007393 -0.003485 0.025898 -0.000937 0.003019 0.006745
# 4 -0.000141 -0.003900 -0.000937 0.037425 0.003232 0.008202
# 5 -0.000972 -0.001793 0.003019 0.003232 0.039431 -0.013896
# 6 -0.004935 -0.003946 0.006745 0.008202 -0.013896 0.043217
#
#
# Mechanical properties :
#
#
# Convention : Reuss Voigt Hill
#
# Bulk Modulus (GPa) = 44.38385 57.17581 50.77983
# Shear Modulus (GPa) = 25.30618 34.03836 29.67227
#
# Velocity S-wave (km/s) = 3.57752 4.14909 3.87386
# Velocity P-wave (km/s) = 6.28587 7.20209 6.75952
#
# Compressibility (1/GPa) = 0.02253072
#
# Stress axis : x y z
#
# Youngs Moduli (GPa) = 78.21271 131.92855 38.61259
#
# Poissons Ratio (x) = 0.13046 0.28545
# Poissons Ratio (y) = 0.07734 0.13457
# Poissons Ratio (z) = 0.57819 0.45978
#
# Static dielectric constant tensor:
#      x y z
#    x 1.714020 0.011950 -0.010690 
#    y 0.011950 1.720720 0.004110 
#    z -0.010690 0.004110 1.710510 
# 
# From -- ./inp_files/159920.got.cif
#   From: 2010.05.17/outbox.cif.g08.bks.cpg/sg2_80_cif.got.tgz:159920.got - 2010.06.03 11:33:40.
