data_PCOD9045836
_publ_section_title
;
Structure prediction by ZEFSAII (Michael W. Deem and Ramdas Pophale) SiO2 
 PCOD9045836
Probable space group: P -1
;
_chemical_formula_sum "Si O2"
_cell_formula_units_Z 16
_cell_length_a 21.173363
_cell_length_b 18.263201
_cell_length_c 6.020090
_cell_angle_alpha 68.807679
_cell_angle_beta 111.350145
_cell_angle_gamma 160.599022
_cell_volume 718.982330
_symmetry_space_group_name_H-M "P -1"
_symmetry_group_IT_number 2
_symmetry_cell_setting 'triclinic'
loop_
_space_group_symop_operation_xyz
x,y,z
-x,-y,-z
loop_
_atom_site_type_symbol
_atom_site_label
_atom_site_fract_x
_atom_site_fract_y
_atom_site_fract_z
Si Si1 0.082770 0.949162 0.285288
Si Si2 0.936469 0.239714 0.619695
Si Si3 0.655317 0.960922 0.934251
Si Si4 0.014922 0.423914 0.132061
Si Si5 0.708278 0.546905 0.490147
Si Si6 0.678610 0.652823 0.673797
Si Si7 0.254302 0.564654 0.029522
Si Si8 0.416881 0.281453 0.062566
O O1 0.168911 0.114066 0.353189
O O2 0.208819 0.090999 0.064706
O O3 0.111276 0.888019 0.450098
O O4 0.858529 0.714592 0.295827
O O5 0.034148 0.414419 0.417670
O O6 0.751767 0.072807 0.692236
O O7 0.082539 0.363963 0.855582
O O8 0.613565 0.822086 0.037962
O O9 0.454452 0.784178 0.917109
O O10 0.817521 0.170269 0.073089
O O11 0.187582 0.572274 0.053709
O O12 0.000000 0.500000 0.000000
O O13 0.746177 0.654405 0.605376
O O14 0.727082 0.484147 0.709518
O O15 0.506313 0.344083 0.336545
O O16 0.500000 0.500000 0.500000
O O17 0.578480 0.513287 0.922447
#
# Coordination Sequence:
#
# PCOD9045836 Si02
#       8
#     2   2   2   2   2   2   2   2
#     4  11  24  42  66  95 134 182 222 279 337 377
#     4  10  24  44  69  99 137 176 223 277 332 402
#     4  10  24  41  72  99 131 181 219 269 335 401
#     4  11  26  47  72 104 137 170 215 277 342 407
#     4  12  25  43  68  97 132 183 231 277 329 395
#     4  12  26  43  63  95 140 178 231 285 327 385
#     4  11  24  44  72 103 133 174 233 270 329 411
#     4  11  25  44  65  98 137 177 230 279 329 390
#
# _framework density 22.253677
#
# number of rings (size 3 to 8) (size 9 to 14) (size 15 to 20)
#    0.000    1.000    3.750    1.500    5.250    4.000 
#    0.000    1.250    0.000    0.000    0.000    0.000 
#    0.000    0.000    0.000    0.000    0.000    0.000 
#
# Total GULP energy -89306.769113 kJ/mol
# GULP energy per Si atom -5581.673070 kJ/mol
# Density = 2.220303 g / cm^3
# Si number density = 22.253677 Si / 1000 Ang^3
#
#
#
# Elastic Constant Matrix: (Units=GPa)
#
#
# Indices 1 2 3 4 5 6 
#
# 1 143.4318 31.8408 36.3095 -10.8930 -4.7916 21.9832
# 2 31.8408 77.7445 20.1420 -9.3425 -9.1961 24.8598
# 3 36.3095 20.1420 73.8933 -3.4810 8.9512 -3.7736
# 4 -10.8930 -9.3425 -3.4810 21.2838 5.3780 -12.9546
# 5 -4.7916 -9.1961 8.9512 5.3780 26.2360 -17.8531
# 6 21.9832 24.8598 -3.7736 -12.9546 -17.8531 48.2843
#
#
#
# Elastic Compliance Matrix: (Units=1/GPa)
#
#
# Indices 1 2 3 4 5 6 
#
# 1 0.008928 -0.001365 -0.004130 0.001256 0.000034 -0.003335
# 2 -0.001365 0.017461 -0.004680 0.000991 0.002007 -0.007727
# 3 -0.004130 -0.004680 0.017947 0.002875 -0.006292 0.004138
# 4 0.001256 0.000991 0.002875 0.057481 -0.003041 0.013440
# 5 0.000034 0.002007 -0.006292 -0.003041 0.053437 0.017402
# 6 -0.003335 -0.007727 0.004138 0.013440 0.017402 0.036571
#
#
# Mechanical properties :
#
#
# Convention : Reuss Voigt Hill
#
# Bulk Modulus (GPa) = 41.69086 52.40603 47.04844
# Shear Modulus (GPa) = 22.70951 32.94596 27.82774
#
# Velocity S-wave (km/s) = 3.19797 3.85187 3.54005
# Velocity P-wave (km/s) = 5.69307 6.58658 6.15605
#
# Compressibility (1/GPa) = 0.02398607
#
# Stress axis : x y z
#
# Youngs Moduli (GPa) = 112.00330 57.26946 55.71905
#
# Poissons Ratio (x) = 0.07818 0.23014
# Poissons Ratio (y) = 0.15289 0.26076
# Poissons Ratio (z) = 0.46262 0.26802
#
# Static dielectric constant tensor:
#      x y z
#    x 1.805550 0.010380 -0.051150 
#    y 0.010380 1.738900 0.041770 
#    z -0.051150 0.041770 1.853070 
# 
# From -- ./inp_files/120019.got.cif
#   From: 2010.05.17/outbox.cif.g08.bks.cpg/sg2_61_cif.got.tgz:120019.got - 2010.06.03 11:33:40.
