data_PCOD9045339
_publ_section_title
;
Structure prediction by ZEFSAII (Michael W. Deem and Ramdas Pophale) SiO2 
 PCOD9045339
Probable space group: P -1
;
_chemical_formula_sum "Si O2"
_cell_formula_units_Z 14
_cell_length_a 8.186291
_cell_length_b 20.575664
_cell_length_c 4.809475
_cell_angle_alpha 84.188626
_cell_angle_beta 108.824990
_cell_angle_gamma 136.249856
_cell_volume 519.363089
_symmetry_space_group_name_H-M "P -1"
_symmetry_group_IT_number 2
_symmetry_cell_setting 'triclinic'
loop_
_space_group_symop_operation_xyz
x,y,z
-x,-y,-z
loop_
_atom_site_type_symbol
_atom_site_label
_atom_site_fract_x
_atom_site_fract_y
_atom_site_fract_z
Si Si1 0.192123 0.611299 0.219004
Si Si2 0.245042 0.486442 0.588545
Si Si3 0.178988 0.341303 0.252622
Si Si4 0.684353 0.910875 0.144822
Si Si5 0.483966 0.736064 0.821524
Si Si6 0.808957 0.026316 0.634295
Si Si7 0.044242 0.219781 0.755993
O O1 0.211116 0.542989 0.368275
O O2 0.281805 0.641791 0.941039
O O3 0.921429 0.559762 0.205049
O O4 0.395695 0.708880 0.469129
O O5 0.154222 0.400018 0.394191
O O6 0.544713 0.571685 0.771867
O O7 0.159939 0.281669 0.511478
O O8 0.002142 0.265461 0.939382
O O9 0.493467 0.811368 0.917802
O O10 0.914650 0.924417 0.334189
O O11 0.619890 0.934450 0.370117
O O12 0.778320 0.990941 0.942226
O O13 0.745445 0.769205 0.988329
O O14 0.820400 0.107510 0.600432
#
# Coordination Sequence:
#
# PCOD9045339 Si02
#       7
#     2   2   2   2   2   2   2
#     4  11  23  38  57  82 112 151 184 235 269 332
#     4  10  24  40  58  80 112 148 196 226 280 318
#     4  11  23  38  57  82 112 151 184 235 269 332
#     4   9  17  29  49  78 112 142 174 220 275 328
#     4  11  20  35  56  84 115 146 183 228 281 328
#     4   9  17  29  49  78 112 142 174 220 275 328
#     4  11  20  35  56  84 115 146 183 228 281 328
#
# _framework density 26.956091000000001
#
# number of rings (size 3 to 8) (size 9 to 14) (size 15 to 20)
#    0.000    1.714    2.857    1.714    0.000   12.571 
#    0.000    0.000    0.000    0.000    0.000   20.000 
#    0.000    0.000    0.000    0.000    0.000    0.000 
#
# Total GULP energy -78449.496536 kJ/mol
# GULP energy per Si atom -5603.535467 kJ/mol
# Density = 2.689474 g / cm^3
# Si number density = 26.956091 Si / 1000 Ang^3
#
#
#
# Elastic Constant Matrix: (Units=GPa)
#
#
# Indices 1 2 3 4 5 6 
#
# 1 72.2105 21.4787 8.3886 7.2750 -19.3304 -14.9491
# 2 21.4787 112.4900 34.5558 22.0953 -10.1607 -40.8010
# 3 8.3886 34.5558 112.7175 19.1818 -29.7773 -20.3572
# 4 7.2750 22.0953 19.1818 53.9408 -9.0082 -15.2775
# 5 -19.3304 -10.1607 -29.7773 -9.0082 32.5539 9.9983
# 6 -14.9491 -40.8010 -20.3572 -15.2775 9.9983 34.7884
#
#
#
# Elastic Compliance Matrix: (Units=1/GPa)
#
#
# Indices 1 2 3 4 5 6 
#
# 1 0.018001 -0.001904 0.003003 0.000390 0.011700 0.004069
# 2 -0.001904 0.016190 -0.002564 -0.001246 -0.004079 0.017295
# 3 0.003003 -0.002564 0.013223 -0.001505 0.012082 0.001888
# 4 0.000390 -0.001246 -0.001505 0.021842 0.002449 0.006714
# 5 0.011700 -0.004079 0.012082 0.002449 0.049955 -0.005968
# 6 0.004069 0.017295 0.001888 0.006714 -0.005968 0.056547
#
#
# Mechanical properties :
#
#
# Convention : Reuss Voigt Hill
#
# Bulk Modulus (GPa) = 22.47913 47.36269 34.92091
# Shear Modulus (GPa) = 25.83789 39.78962 32.81376
#
# Velocity S-wave (km/s) = 3.09935 3.84616 3.49277
# Velocity P-wave (km/s) = 4.60057 6.11002 5.40822
#
# Compressibility (1/GPa) = 0.04448570
#
# Stress axis : x y z
#
# Youngs Moduli (GPa) = 55.55303 61.76615 75.62555
#
# Poissons Ratio (x) = 0.11759 -0.22712
# Poissons Ratio (y) = 0.10576 0.19388
# Poissons Ratio (z) = -0.16684 0.15835
#
# Static dielectric constant tensor:
#      x y z
#    x 2.166450 0.008880 0.079240 
#    y 0.008880 2.083170 0.116610 
#    z 0.079240 0.116610 2.085320 
# 
# From -- ./inp_files/51721.got.cif
#   From: 2010.05.17/outbox.cif.g08.bks.cpg/sg2_26_cif.got.tgz:51721.got - 2010.06.03 11:33:40.
