data_PCOD9045514
_publ_section_title
;
Structure prediction by ZEFSAII (Michael W. Deem and Ramdas Pophale) SiO2 
 PCOD9045514
Probable space group: P -1
;
_chemical_formula_sum "Si O2"
_cell_formula_units_Z 15
_cell_length_a 15.946849
_cell_length_b 9.929896
_cell_length_c 20.272624
_cell_angle_alpha 27.389370
_cell_angle_beta 29.552205
_cell_angle_gamma 26.531130
_cell_volume 613.511153
_symmetry_space_group_name_H-M "P -1"
_symmetry_group_IT_number 2
_symmetry_cell_setting 'triclinic'
loop_
_space_group_symop_operation_xyz
x,y,z
-x,-y,-z
loop_
_atom_site_type_symbol
_atom_site_label
_atom_site_fract_x
_atom_site_fract_y
_atom_site_fract_z
Si Si1 0.832716 0.823093 0.280484
Si Si2 0.410797 0.200696 0.852843
Si Si3 0.232566 0.890969 0.198831
Si Si4 0.880025 0.866731 0.683205
Si Si5 0.000000 0.000000 0.000000
Si Si6 0.872034 0.008956 0.308243
Si Si7 0.563686 0.894580 0.624165
Si Si8 0.643279 0.114578 0.098943
O O1 0.806651 0.156296 0.117280
O O2 0.003203 0.548794 0.230791
O O3 0.911749 0.761585 0.326432
O O4 0.628981 0.830098 0.407857
O O5 0.286564 0.606534 0.775867
O O6 0.646437 0.046054 0.746474
O O7 0.320302 0.144031 0.872767
O O8 0.372735 0.011762 0.020323
O O9 0.357355 0.477547 0.299913
O O10 0.124177 0.064925 0.266095
O O11 0.066535 0.973894 0.220721
O O12 0.000000 0.000000 0.500000
O O13 0.845234 0.053328 0.019440
O O14 0.750068 0.940075 0.475852
O O15 0.480572 0.925790 0.740310
O O16 0.500000 0.500000 0.000000
#
# Coordination Sequence:
#
# PCOD9045514 Si02
#       8
#     2   2   2   2   1   2   2   2
#     4  11  25  44  73 103 142 194 247 300 380 448
#     4  12  27  47  76 106 152 190 254 313 377 445
#     4  12  27  47  73 109 144 195 251 308 376 446
#     4  12  28  47  74 109 151 193 248 316 383 452
#     4  10  24  40  70 104 144 188 244 302 368 450
#     4  12  27  46  74 105 151 191 249 310 381 452
#     4  11  25  46  75 102 149 197 248 304 385 453
#     4  11  23  45  74 111 146 199 253 310 380 451
#
# _framework density 24.449435000000001
#
# number of rings (size 3 to 8) (size 9 to 14) (size 15 to 20)
#    0.000    0.533    1.333    5.600   11.200    0.533 
#    0.000    0.000    0.000    0.000    0.000    0.000 
#    0.000    0.000    0.000    0.000    0.000    0.000 
#
# Total GULP energy -83838.578912 kJ/mol
# GULP energy per Si atom -5589.238594 kJ/mol
# Density = 2.439379 g / cm^3
# Si number density = 24.449435 Si / 1000 Ang^3
#
#
#
# Elastic Constant Matrix: (Units=GPa)
#
#
# Indices 1 2 3 4 5 6 
#
# 1 152.0391 37.3892 30.7547 20.7996 -8.6214 3.8107
# 2 37.3892 108.2017 16.2618 8.9804 -10.5083 2.8203
# 3 30.7547 16.2618 129.3499 33.1499 -1.3556 2.6374
# 4 20.7996 8.9804 33.1499 38.8157 -4.6573 -1.0007
# 5 -8.6214 -10.5083 -1.3556 -4.6573 27.1647 18.8099
# 6 3.8107 2.8203 2.6374 -1.0007 18.8099 51.5501
#
#
#
# Elastic Compliance Matrix: (Units=1/GPa)
#
#
# Indices 1 2 3 4 5 6 
#
# 1 0.007785 -0.002114 -0.000831 -0.002768 0.001957 -0.001185
# 2 -0.002114 0.010623 -0.000683 -0.000213 0.004871 -0.002171
# 3 -0.000831 -0.000683 0.010100 -0.008190 -0.001376 -0.000075
# 4 -0.002768 -0.000213 -0.008190 0.034871 0.004951 -0.000494
# 5 0.001957 0.004871 -0.001376 0.004951 0.053882 -0.019905
# 6 -0.001185 -0.002171 -0.000075 -0.000494 -0.019905 0.026862
#
#
# Mechanical properties :
#
#
# Convention : Reuss Voigt Hill
#
# Bulk Modulus (GPa) = 47.05577 62.04469 54.55023
# Shear Modulus (GPa) = 31.55310 43.85177 37.70243
#
# Velocity S-wave (km/s) = 3.59631 4.23965 3.93116
# Velocity P-wave (km/s) = 6.04422 7.02837 6.55479
#
# Compressibility (1/GPa) = 0.02125138
#
# Stress axis : x y z
#
# Youngs Moduli (GPa) = 128.45671 94.13883 99.00607
#
# Poissons Ratio (x) = 0.19905 0.08227
# Poissons Ratio (y) = 0.27161 0.06761
# Poissons Ratio (z) = 0.10674 0.06428
#
# Static dielectric constant tensor:
#      x y z
#    x 1.906250 0.050200 -0.058100 
#    y 0.050200 1.908690 0.141850 
#    z -0.058100 0.141850 1.673100 
# 
# From -- ./inp_files/597293.got.cif
#   From: 2010.05.17/outbox.cif.g08.bks.cpg/sg2_299_cif.got.tgz:597293.got - 2010.06.03 11:33:40.
