data_PCOD9045418
_publ_section_title
;
Structure prediction by ZEFSAII (Michael W. Deem and Ramdas Pophale) SiO2 
 PCOD9045418
Probable space group: P -1
;
_chemical_formula_sum "Si O2"
_cell_formula_units_Z 16
_cell_length_a 15.070922
_cell_length_b 14.593755
_cell_length_c 10.586180
_cell_angle_alpha 37.624890
_cell_angle_beta 136.498289
_cell_angle_gamma 152.342547
_cell_volume 657.467258
_symmetry_space_group_name_H-M "P -1"
_symmetry_group_IT_number 2
_symmetry_cell_setting 'triclinic'
loop_
_space_group_symop_operation_xyz
x,y,z
-x,-y,-z
loop_
_atom_site_type_symbol
_atom_site_label
_atom_site_fract_x
_atom_site_fract_y
_atom_site_fract_z
Si Si1 0.218680 0.002741 0.962370
Si Si2 0.614183 0.006286 0.218449
Si Si3 0.027238 0.686641 0.889164
Si Si4 0.335537 0.634428 0.999016
Si Si5 0.574696 0.365892 0.375010
Si Si6 0.213007 0.632726 0.616258
Si Si7 0.077823 0.133397 0.798695
Si Si8 0.762620 0.025218 0.687481
O O1 0.442261 0.222544 0.919467
O O2 0.213316 0.971968 0.140889
O O3 0.075587 0.023451 0.794818
O O4 0.134871 0.796172 0.016876
O O5 0.486621 0.770875 0.411352
O O6 0.809591 0.101238 0.262886
O O7 0.665450 0.188737 0.163277
O O8 0.500000 0.000000 0.000000
O O9 0.000000 0.500000 0.000000
O O10 0.814487 0.561977 0.839269
O O11 0.248765 0.547970 0.861587
O O12 0.695453 0.355966 0.425479
O O13 0.703766 0.622894 0.239189
O O14 0.383018 0.219551 0.254817
O O15 0.000000 0.500000 0.500000
O O16 0.311256 0.869883 0.504912
O O17 0.945405 0.166579 0.629974
O O18 0.000000 0.000000 0.000000
#
# Coordination Sequence:
#
# PCOD9045418 Si02
#       8
#     2   2   2   2   2   2   2   2
#     4  11  22  42  67  96 137 182 237 279 345 424
#     4  11  23  41  66  99 136 176 228 286 347 408
#     4  10  24  40  65  98 131 175 231 286 344 404
#     4  11  22  40  68 101 132 175 224 289 361 405
#     4  12  24  42  64 101 146 180 226 290 355 413
#     4  12  22  37  68 105 139 171 216 298 367 411
#     4  10  26  43  65  99 139 193 229 280 344 426
#     4  11  22  40  65 104 142 174 228 286 360 420
#
# _framework density 24.335813000000002
#
# number of rings (size 3 to 8) (size 9 to 14) (size 15 to 20)
#    0.000    1.000    5.000    1.875    3.500    3.000 
#    2.250    0.625    0.000    1.500    0.000    0.000 
#    0.000    0.000    0.000    0.000    0.000    0.000 
#
# Total GULP energy -89156.116216 kJ/mol
# GULP energy per Si atom -5572.257263 kJ/mol
# Density = 2.428042 g / cm^3
# Si number density = 24.335813 Si / 1000 Ang^3
#
#
#
# Elastic Constant Matrix: (Units=GPa)
#
#
# Indices 1 2 3 4 5 6 
#
# 1 160.9787 49.6105 29.9242 -6.1774 -14.4183 24.1885
# 2 49.6105 129.3601 17.5128 -11.2760 -16.1738 -1.8417
# 3 29.9242 17.5128 53.9586 -12.6135 -21.1159 -2.5812
# 4 -6.1774 -11.2760 -12.6135 33.6009 1.3227 -5.4726
# 5 -14.4183 -16.1738 -21.1159 1.3227 31.6553 -1.3778
# 6 24.1885 -1.8417 -2.5812 -5.4726 -1.3778 51.1362
#
#
#
# Elastic Compliance Matrix: (Units=1/GPa)
#
#
# Indices 1 2 3 4 5 6 
#
# 1 0.008569 -0.002990 -0.004845 -0.001964 -0.000977 -0.004642
# 2 -0.002990 0.009576 0.001070 0.003271 0.004207 0.002276
# 3 -0.004845 0.001070 0.031201 0.011353 0.018923 0.005630
# 4 -0.001964 0.003271 0.011353 0.035391 0.007114 0.005599
# 5 -0.000977 0.004207 0.018923 0.007114 0.045776 0.003563
# 6 -0.004642 0.002276 0.005630 0.005599 0.003563 0.022813
#
#
# Mechanical properties :
#
#
# Convention : Reuss Voigt Hill
#
# Bulk Modulus (GPa) = 27.92085 59.82138 43.87112
# Shear Modulus (GPa) = 27.96527 39.76179 33.86353
#
# Velocity S-wave (km/s) = 3.39358 4.04651 3.73434
# Velocity P-wave (km/s) = 5.18201 6.81670 6.05477
#
# Compressibility (1/GPa) = 0.03581553
#
# Stress axis : x y z
#
# Youngs Moduli (GPa) = 116.70474 104.43284 32.05021
#
# Poissons Ratio (x) = 0.31221 0.15529
# Poissons Ratio (y) = 0.34890 -0.03429
# Poissons Ratio (z) = 0.56544 -0.11173
#
# Static dielectric constant tensor:
#      x y z
#    x 1.948240 0.051360 0.076800 
#    y 0.051360 2.116820 0.110030 
#    z 0.076800 0.110030 2.302010 
# 
# From -- ./inp_files/454530.got.cif
#   From: 2010.05.17/outbox.cif.g08.bks.cpg/sg2_228_cif.got.tgz:454530.got - 2010.06.03 11:33:40.
