data_PCOD9045539
_publ_section_title
;
Structure prediction by ZEFSAII (Michael W. Deem and Ramdas Pophale) SiO2 
 PCOD9045539
Probable space group: P -1
;
_chemical_formula_sum "Si O2"
_cell_formula_units_Z 16
_cell_length_a 11.770935
_cell_length_b 8.335196
_cell_length_c 7.779595
_cell_angle_alpha 71.831342
_cell_angle_beta 69.208601
_cell_angle_gamma 71.795598
_cell_volume 660.282632
_symmetry_space_group_name_H-M "P -1"
_symmetry_group_IT_number 2
_symmetry_cell_setting 'triclinic'
loop_
_space_group_symop_operation_xyz
x,y,z
-x,-y,-z
loop_
_atom_site_type_symbol
_atom_site_label
_atom_site_fract_x
_atom_site_fract_y
_atom_site_fract_z
Si Si1 0.925455 0.446863 0.400007
Si Si2 0.466406 0.640056 0.125664
Si Si3 0.842967 0.596357 0.926355
Si Si4 0.744211 0.859799 0.600896
Si Si5 0.229863 0.791586 0.403428
Si Si6 0.755940 0.769766 0.260883
Si Si7 0.669155 0.361470 0.236537
Si Si8 0.539208 0.084152 0.212782
O O1 0.901014 0.260829 0.516996
O O2 0.791300 0.575541 0.388783
O O3 0.000000 0.500000 0.500000
O O4 0.012882 0.450134 0.188947
O O5 0.324151 0.690506 0.244204
O O6 0.558415 0.535513 0.254345
O O7 0.500000 0.500000 0.000000
O O8 0.491348 0.822206 0.987587
O O9 0.778709 0.687132 0.755350
O O10 0.818905 0.731531 0.053085
O O11 0.778940 0.436958 0.061578
O O12 0.801111 0.858428 0.378091
O O13 0.595395 0.901408 0.636890
O O14 0.777576 0.006170 0.654475
O O15 0.287686 0.725038 0.578141
O O16 0.622261 0.891160 0.246612
O O17 0.618257 0.212866 0.212574
#
# Coordination Sequence:
#
# PCOD9045539 Si02
#       8
#     2   2   2   2   2   2   2   2
#     4  12  29  51  78 100 147 203 260 311 361 439
#     4  10  24  40  71 109 148 189 239 298 368 442
#     4  12  27  50  76 109 149 202 257 302 365 442
#     4  12  27  49  75 114 161 191 240 309 381 448
#     4  12  27  46  73 109 149 196 252 304 374 445
#     4  12  26  47  76 110 148 196 250 311 369 438
#     4  11  24  43  76 108 151 191 247 297 375 444
#     4  11  25  45  72 115 155 190 236 305 382 448
#
# _framework density 24.232043999999998
#
# number of rings (size 3 to 8) (size 9 to 14) (size 15 to 20)
#    0.000    0.500    5.000    1.875    8.750    1.500 
#    0.000    1.250    0.000    0.000    0.000    0.000 
#    0.000    0.000    0.000    0.000    0.000    0.000 
#
# Total GULP energy -89324.658515 kJ/mol
# GULP energy per Si atom -5582.791157 kJ/mol
# Density = 2.417689 g / cm^3
# Si number density = 24.232044 Si / 1000 Ang^3
#
#
#
# Elastic Constant Matrix: (Units=GPa)
#
#
# Indices 1 2 3 4 5 6 
#
# 1 73.1380 33.4959 22.5458 -0.2256 -4.1414 11.5909
# 2 33.4959 104.0669 36.8530 0.0435 -10.9336 3.5242
# 3 22.5458 36.8530 112.1672 12.2195 3.7618 16.7000
# 4 -0.2256 0.0435 12.2195 41.3399 0.6455 6.3630
# 5 -4.1414 -10.9336 3.7618 0.6455 50.0015 -11.7804
# 6 11.5909 3.5242 16.7000 6.3630 -11.7804 41.4753
#
#
#
# Elastic Compliance Matrix: (Units=1/GPa)
#
#
# Indices 1 2 3 4 5 6 
#
# 1 0.016948 -0.004923 -0.001276 0.001120 -0.000566 -0.004137
# 2 -0.004923 0.012790 -0.003785 0.000619 0.003291 0.002653
# 3 -0.001276 -0.003785 0.011441 -0.002679 -0.002774 -0.004305
# 4 0.001120 0.000619 -0.002679 0.025522 -0.000701 -0.003402
# 5 -0.000566 0.003291 -0.002774 -0.000701 0.022667 0.007541
# 6 -0.004137 0.002653 -0.004305 -0.003402 0.007541 0.029439
#
#
# Mechanical properties :
#
#
# Convention : Reuss Voigt Hill
#
# Bulk Modulus (GPa) = 47.14771 52.79572 49.97171
# Shear Modulus (GPa) = 34.28294 39.66183 36.97239
#
# Velocity S-wave (km/s) = 3.76543 4.05007 3.91034
# Velocity P-wave (km/s) = 6.19707 6.61102 6.40739
#
# Compressibility (1/GPa) = 0.02120994
#
# Stress axis : x y z
#
# Youngs Moduli (GPa) = 59.00474 78.18682 87.40171
#
# Poissons Ratio (x) = 0.38490 0.11155
# Poissons Ratio (y) = 0.29047 0.33085
# Poissons Ratio (z) = 0.07531 0.29597
#
# Static dielectric constant tensor:
#      x y z
#    x 2.073730 0.032040 0.034000 
#    y 0.032040 2.011030 0.032630 
#    z 0.034000 0.032630 1.958250 
# 
# From -- ./inp_files/242436.got.cif
#   From: 2010.05.17/outbox.cif.g08.bks.cpg/sg2_122_cif.got.tgz:242436.got - 2010.06.03 11:33:40.
