data_PCOD9045260
_publ_section_title
;
Structure prediction by ZEFSAII (Michael W. Deem and Ramdas Pophale) SiO2 
 PCOD9045260
Probable space group: P -1
;
_chemical_formula_sum "Si O2"
_cell_formula_units_Z 14
_cell_length_a 5.248492
_cell_length_b 9.024082
_cell_length_c 16.704364
_cell_angle_alpha 53.061647
_cell_angle_beta 97.196409
_cell_angle_gamma 81.677478
_cell_volume 602.749526
_symmetry_space_group_name_H-M "P -1"
_symmetry_group_IT_number 2
_symmetry_cell_setting 'triclinic'
loop_
_space_group_symop_operation_xyz
x,y,z
-x,-y,-z
loop_
_atom_site_type_symbol
_atom_site_label
_atom_site_fract_x
_atom_site_fract_y
_atom_site_fract_z
Si Si1 0.274376 0.680990 0.895377
Si Si2 0.605894 0.086691 0.554143
Si Si3 0.698540 0.971250 0.940612
Si Si4 0.232942 0.089046 0.790642
Si Si5 0.028570 0.687050 0.146203
Si Si6 0.943163 0.724544 0.445175
Si Si7 0.274564 0.293033 0.215165
O O1 0.443329 0.724986 0.811393
O O2 0.989549 0.655350 0.867624
O O3 0.190520 0.880417 0.879020
O O4 0.500000 0.500000 0.000000
O O5 0.337328 0.220103 0.538577
O O6 0.829387 0.204619 0.520972
O O7 0.500000 0.000000 0.500000
O O8 0.717572 0.903001 0.675665
O O9 0.553553 0.019422 0.834195
O O10 0.826820 0.145061 0.899979
O O11 0.500000 0.000000 0.000000
O O12 0.858963 0.751699 0.036890
O O13 0.140186 0.262178 0.795127
O O14 0.105127 0.161429 0.678206
O O15 0.215340 0.473964 0.215136
O O16 0.000000 0.500000 0.500000
#
# Coordination Sequence:
#
# PCOD9045260 Si02
#       7
#     2   2   2   2   2   2   2
#     4  12  27  44  71 104 151 192 236 297 364 425
#     4  12  27  53  77 108 150 193 245 318 379 453
#     4   9  21  40  62  99 141 187 241 286 342 426
#     4  11  24  43  70  99 144 181 243 294 358 420
#     4  10  24  38  69  97 143 192 241 280 357 432
#     4  12  28  51  79 111 143 190 250 312 380 442
#     4  12  26  47  68 107 145 190 243 291 368 442
#
# _framework density 23.226894000000001
#
# number of rings (size 3 to 8) (size 9 to 14) (size 15 to 20)
#    0.000    0.857    2.857    2.143   16.000    1.143 
#    0.000    0.000    0.000    0.000    0.000    0.000 
#    0.000    0.000    0.000    0.000    0.000    0.000 
#
# Total GULP energy -78104.197210 kJ/mol
# GULP energy per Si atom -5578.871229 kJ/mol
# Density = 2.317403 g / cm^3
# Si number density = 23.226894 Si / 1000 Ang^3
#
#
#
# Elastic Constant Matrix: (Units=GPa)
#
#
# Indices 1 2 3 4 5 6 
#
# 1 86.1348 17.2139 4.7465 -4.8706 19.3526 -0.7967
# 2 17.2139 128.4674 21.8169 -24.3967 26.4497 -15.0059
# 3 4.7465 21.8169 59.0977 -5.8619 21.4084 0.0617
# 4 -4.8706 -24.3967 -5.8619 45.4308 3.5402 11.9198
# 5 19.3526 26.4497 21.4084 3.5402 24.0745 1.8473
# 6 -0.7967 -15.0059 0.0617 11.9198 1.8473 42.1092
#
#
#
# Elastic Compliance Matrix: (Units=1/GPa)
#
#
# Indices 1 2 3 4 5 6 
#
# 1 0.016029 0.002392 0.006321 0.005376 -0.021969 0.000588
# 2 0.002392 0.013206 0.003359 0.008562 -0.020926 0.003241
# 3 0.006321 0.003359 0.029099 0.008957 -0.035990 0.000317
# 4 0.005376 0.008562 0.008957 0.031589 -0.025981 -0.004662
# 5 -0.021969 -0.020926 -0.035990 -0.025981 0.118448 -0.005662
# 6 0.000588 0.003241 0.000317 -0.004662 -0.005662 0.026481
#
#
# Mechanical properties :
#
#
# Convention : Reuss Voigt Hill
#
# Bulk Modulus (GPa) = 12.12464 40.13939 26.13202
# Shear Modulus (GPa) = 20.99061 37.65109 29.32085
#
# Velocity S-wave (km/s) = 3.00946 4.03055 3.55683
# Velocity P-wave (km/s) = 4.16019 6.24335 5.30502
#
# Compressibility (1/GPa) = 0.08247665
#
# Stress axis : x y z
#
# Youngs Moduli (GPa) = 62.38773 75.72233 34.36558
#
# Poissons Ratio (x) = -0.18109 -0.21721
# Poissons Ratio (y) = -0.14920 -0.11544
# Poissons Ratio (z) = -0.39433 -0.25437
#
# Static dielectric constant tensor:
#      x y z
#    x 2.036160 0.055020 0.034990 
#    y 0.055020 2.030870 0.076170 
#    z 0.034990 0.076170 1.901350 
# 
# From -- ./inp_files/54870.got.cif
#   From: 2010.05.17/outbox.cif.g08.bks.cpg/sg2_28_cif.got.tgz:54870.got - 2010.06.03 11:33:40.
