data_PCOD9045660
_publ_section_title
;
Structure prediction by ZEFSAII (Michael W. Deem and Ramdas Pophale) SiO2 
 PCOD9045660
Probable space group: P -1
;
_chemical_formula_sum "Si O2"
_cell_formula_units_Z 16
_cell_length_a 14.597430
_cell_length_b 9.918148
_cell_length_c 26.966309
_cell_angle_alpha 35.109875
_cell_angle_beta 159.783586
_cell_angle_gamma 134.786651
_cell_volume 735.703710
_symmetry_space_group_name_H-M "P -1"
_symmetry_group_IT_number 2
_symmetry_cell_setting 'triclinic'
loop_
_space_group_symop_operation_xyz
x,y,z
-x,-y,-z
loop_
_atom_site_type_symbol
_atom_site_label
_atom_site_fract_x
_atom_site_fract_y
_atom_site_fract_z
Si Si1 0.240033 0.745753 0.355253
Si Si2 0.280470 0.635191 0.516791
Si Si3 0.264630 0.274494 0.220593
Si Si4 0.321173 0.700190 0.662703
Si Si5 0.367510 0.124274 0.149080
Si Si6 0.791081 0.326882 0.748847
Si Si7 0.324651 0.088003 0.731048
Si Si8 0.685093 0.860649 0.180951
O O1 0.186163 0.623331 0.415578
O O2 0.567382 0.597237 0.556527
O O3 0.107463 0.725037 0.240991
O O4 0.178625 0.029601 0.252556
O O5 0.569430 0.693311 0.655193
O O6 0.339832 0.365278 0.650858
O O7 0.013049 0.826175 0.349909
O O8 0.498316 0.237569 0.308017
O O9 0.000000 0.500000 0.000000
O O10 0.470660 0.733379 0.779068
O O11 0.322072 0.420791 0.738685
O O12 0.003645 0.877863 0.449370
O O13 0.352804 0.878592 0.244968
O O14 0.510386 0.054956 0.189026
O O15 0.049013 0.287370 0.928323
O O16 0.419406 0.008625 0.859032
O O17 0.500000 0.000000 0.000000
#
# Coordination Sequence:
#
# PCOD9045660 Si02
#       8
#     2   2   2   2   2   2   2   2
#     4  11  24  42  62 101 138 167 221 274 335 393
#     4  11  23  42  67  97 131 174 219 273 339 397
#     4  12  26  39  69  99 136 175 221 280 336 396
#     4  11  23  45  63  98 132 173 222 276 329 394
#     4  11  23  42  71  94 130 179 228 264 336 400
#     4  10  24  41  65  97 134 180 213 277 330 402
#     4  11  22  45  70  91 131 178 219 271 334 398
#     4  11  25  43  71  95 131 173 223 281 332 399
#
# _framework density 21.747886000000001
#
# number of rings (size 3 to 8) (size 9 to 14) (size 15 to 20)
#    0.000    1.000    5.000    1.500    7.000    1.000 
#    0.000    0.625    0.000    0.000    0.000    0.000 
#    0.000    0.000    0.000    0.000    0.000    0.000 
#
# Total GULP energy -89411.731239 kJ/mol
# GULP energy per Si atom -5588.233202 kJ/mol
# Density = 2.169839 g / cm^3
# Si number density = 21.747886 Si / 1000 Ang^3
#
#
#
# Elastic Constant Matrix: (Units=GPa)
#
#
# Indices 1 2 3 4 5 6 
#
# 1 116.5484 3.6937 3.7362 10.7467 -14.6514 -26.7569
# 2 3.6937 44.3968 25.3336 17.0957 -7.6912 -19.8717
# 3 3.7362 25.3336 65.1142 8.5243 -13.4421 -3.8418
# 4 10.7467 17.0957 8.5243 22.0259 -5.5821 -7.1997
# 5 -14.6514 -7.6912 -13.4421 -5.5821 35.7382 2.6324
# 6 -26.7569 -19.8717 -3.8418 -7.1997 2.6324 28.8680
#
#
#
# Elastic Compliance Matrix: (Units=1/GPa)
#
#
# Indices 1 2 3 4 5 6 
#
# 1 0.013981 0.012854 -0.002594 -0.008385 0.004818 0.018931
# 2 0.012854 0.067076 -0.018739 -0.034912 0.003776 0.046542
# 3 -0.002594 -0.018739 0.022538 0.004542 0.004946 -0.011622
# 4 -0.008385 -0.034912 0.004542 0.071069 0.002870 -0.013736
# 5 0.004818 0.003776 0.004946 0.002870 0.032676 0.005459
# 6 0.018931 0.046542 -0.011622 -0.013736 0.005459 0.078754
#
#
# Mechanical properties :
#
#
# Convention : Reuss Voigt Hill
#
# Bulk Modulus (GPa) = 11.54240 32.39851 21.97046
# Shear Modulus (GPa) = 15.06340 30.21279 22.63810
#
# Velocity S-wave (km/s) = 2.63466 3.73128 3.22985
# Velocity P-wave (km/s) = 3.81760 5.78731 4.90240
#
# Compressibility (1/GPa) = 0.08663709
#
# Stress axis : x y z
#
# Youngs Moduli (GPa) = 71.52664 14.90837 44.36976
#
# Poissons Ratio (x) = -0.19163 0.11509
# Poissons Ratio (y) = -0.91937 0.83143
# Poissons Ratio (z) = 0.18553 0.27936
#
# Static dielectric constant tensor:
#      x y z
#    x 1.845130 -0.017020 -0.005750 
#    y -0.017020 1.792290 0.030010 
#    z -0.005750 0.030010 1.789260 
# 
# From -- ./inp_files/238898.got.cif
#   From: 2010.05.17/outbox.cif.g08.bks.cpg/sg2_120_cif.got.tgz:238898.got - 2010.06.03 11:33:40.
