data_PCOD9045001
_publ_section_title
;
Structure prediction by ZEFSAII (Michael W. Deem and Ramdas Pophale) SiO2 
 PCOD9045001
Probable space group: P -1
;
_chemical_formula_sum "Si O2"
_cell_formula_units_Z 14
_cell_length_a 13.463028
_cell_length_b 12.594657
_cell_length_c 5.177472
_cell_angle_alpha 106.029082
_cell_angle_beta 125.069274
_cell_angle_gamma 48.459689
_cell_volume 529.867107
_symmetry_space_group_name_H-M "P -1"
_symmetry_group_IT_number 2
_symmetry_cell_setting 'triclinic'
loop_
_space_group_symop_operation_xyz
x,y,z
-x,-y,-z
loop_
_atom_site_type_symbol
_atom_site_label
_atom_site_fract_x
_atom_site_fract_y
_atom_site_fract_z
Si Si1 0.891117 0.487085 0.150263
Si Si2 0.809807 0.717973 0.772921
Si Si3 0.706697 0.180740 0.724942
Si Si4 0.503947 0.920163 0.195514
Si Si5 0.821909 0.245442 0.440085
Si Si6 0.614524 0.534121 0.617498
Si Si7 0.190713 0.049056 0.910292
O O1 0.000000 0.500000 0.500000
O O2 0.030828 0.327762 0.150151
O O3 0.836858 0.595073 0.902592
O O4 0.737412 0.506458 0.997817
O O5 0.678241 0.768188 0.397370
O O6 0.779641 0.837745 0.995956
O O7 0.782084 0.189241 0.586871
O O8 0.514888 0.294765 0.512806
O O9 0.753473 0.233354 0.069261
O O10 0.783393 0.018692 0.811313
O O11 0.500000 0.000000 0.500000
O O12 0.500000 0.000000 0.000000
O O13 0.361825 0.914962 0.954359
O O14 0.730858 0.412482 0.493005
O O15 0.012195 0.134099 0.616511
O O16 0.500000 0.500000 0.500000
#
# Coordination Sequence:
#
# PCOD9045001 Si02
#       7
#     2   2   2   2   2   2   2
#     4  11  24  46  74 106 146 194 255 311 373 451
#     4  10  24  44  66 105 143 194 246 307 379 446
#     4  11  25  44  71 110 146 193 249 306 369 453
#     4  10  24  42  66  99 138 185 238 291 368 441
#     4  11  24  45  71 107 146 196 249 303 369 448
#     4  10  23  48  72 107 146 195 249 307 375 441
#     4  11  23  45  72 101 149 191 245 309 378 442
#
# _framework density 26.421720000000001
#
# number of rings (size 3 to 8) (size 9 to 14) (size 15 to 20)
#    0.000    1.429    1.429    2.143    4.000    6.857 
#   15.429    0.000    0.000    0.000    0.000    0.000 
#    0.000    0.000    0.000    0.000    0.000    0.000 
#
# Total GULP energy -78143.119149 kJ/mol
# GULP energy per Si atom -5581.651368 kJ/mol
# Density = 2.636158 g / cm^3
# Si number density = 26.421720 Si / 1000 Ang^3
#
#
#
# Elastic Constant Matrix: (Units=GPa)
#
#
# Indices 1 2 3 4 5 6 
#
# 1 127.3084 23.1992 95.9148 -14.0525 25.5908 -14.2110
# 2 23.1992 87.3624 31.3433 -8.0988 12.8774 -3.2845
# 3 95.9148 31.3433 187.2619 -20.2160 36.5421 -34.8792
# 4 -14.0525 -8.0988 -20.2160 50.0384 -9.8685 11.6947
# 5 25.5908 12.8774 36.5421 -9.8685 66.3711 -16.8077
# 6 -14.2110 -3.2845 -34.8792 11.6947 -16.8077 31.6455
#
#
#
# Elastic Compliance Matrix: (Units=1/GPa)
#
#
# Indices 1 2 3 4 5 6 
#
# 1 0.013221 -0.000841 -0.006694 0.001201 -0.001814 -0.002935
# 2 -0.000841 0.012525 -0.001624 0.001339 -0.001569 -0.002196
# 3 -0.006694 -0.001624 0.010752 0.000114 -0.000948 0.008131
# 4 0.001201 0.001339 0.000114 0.022385 0.000753 -0.007069
# 5 -0.001814 -0.001569 -0.000948 0.000753 0.018627 0.007593
# 6 -0.002935 -0.002196 0.008131 -0.007069 0.007593 0.045661
#
#
# Mechanical properties :
#
#
# Convention : Reuss Voigt Hill
#
# Bulk Modulus (GPa) = 55.00402 78.09414 66.54908
# Shear Modulus (GPa) = 33.88666 46.37602 40.13134
#
# Velocity S-wave (km/s) = 3.58513 4.19408 3.90151
# Velocity P-wave (km/s) = 6.16445 7.28524 6.74816
#
# Compressibility (1/GPa) = 0.01818049
#
# Stress axis : x y z
#
# Youngs Moduli (GPa) = 75.63665 79.83825 93.00236
#
# Poissons Ratio (x) = 0.06713 0.62258
# Poissons Ratio (y) = 0.06360 0.15104
# Poissons Ratio (z) = 0.50633 0.12966
#
# Static dielectric constant tensor:
#      x y z
#    x 2.038060 -0.193550 0.039520 
#    y -0.193550 2.485070 -0.043430 
#    z 0.039520 -0.043430 2.109850 
# 
# From -- ./inp_files/97230.got.cif
#   From: 2010.05.17/outbox.cif.g08.bks.cpg/sg2_49_cif.got.tgz:97230.got - 2010.06.03 11:33:40.
