data_PCOD9045232
_publ_section_title
;
Structure prediction by ZEFSAII (Michael W. Deem and Ramdas Pophale) SiO2 
 PCOD9045232
Probable space group: P -1
;
_chemical_formula_sum "Si O2"
_cell_formula_units_Z 14
_cell_length_a 12.386278
_cell_length_b 12.013904
_cell_length_c 9.541948
_cell_angle_alpha 130.636022
_cell_angle_beta 108.710662
_cell_angle_gamma 34.185006
_cell_volume 520.355126
_symmetry_space_group_name_H-M "P -1"
_symmetry_group_IT_number 2
_symmetry_cell_setting 'triclinic'
loop_
_space_group_symop_operation_xyz
x,y,z
-x,-y,-z
loop_
_atom_site_type_symbol
_atom_site_label
_atom_site_fract_x
_atom_site_fract_y
_atom_site_fract_z
Si Si1 0.988830 0.515188 0.802078
Si Si2 0.317335 0.672242 0.276204
Si Si3 0.196425 0.065404 0.717559
Si Si4 0.005111 0.282287 0.277110
Si Si5 0.387870 0.226532 0.281182
Si Si6 0.512480 0.797287 0.126459
Si Si7 0.253147 0.649812 0.931148
O O1 0.149388 0.212540 0.678612
O O2 0.045784 0.521294 0.682060
O O3 0.737544 0.724547 0.855033
O O4 0.977565 0.665744 0.027793
O O5 0.560103 0.480389 0.194503
O O6 0.192736 0.902291 0.531807
O O7 0.360646 0.451140 0.135187
O O8 0.212396 0.788333 0.169927
O O9 0.432439 0.842977 0.705666
O O10 0.828859 0.471658 0.482210
O O11 0.963516 0.180647 0.088981
O O12 0.259938 0.019043 0.206259
O O13 0.498100 0.979366 0.223353
O O14 0.618953 0.635822 0.185923
#
# Coordination Sequence:
#
# PCOD9045232 Si02
#       7
#     2   2   2   2   2   2   2
#     4  10  24  38  60  85 116 144 197 234 273 346
#     4   9  20  37  55  83 117 151 182 232 283 337
#     4  11  22  42  59  81 117 156 183 232 289 332
#     4  11  21  35  61  90 110 150 189 237 282 325
#     4  11  22  36  64  85 113 148 193 233 283 330
#     4   9  20  35  53  88 118 139 187 241 270 335
#     4   9  19  35  54  85 118 145 183 237 275 336
#
# _framework density 26.904702
#
# number of rings (size 3 to 8) (size 9 to 14) (size 15 to 20)
#    0.857    1.143    1.429    3.000    4.000    1.714 
#    2.571    3.571    0.000    0.000    0.000    0.000 
#    0.000    0.000    0.000    0.000    0.000    0.000 
#
# Total GULP energy -78327.947083 kJ/mol
# GULP energy per Si atom -5594.853363 kJ/mol
# Density = 2.684347 g / cm^3
# Si number density = 26.904702 Si / 1000 Ang^3
#
#
#
# Elastic Constant Matrix: (Units=GPa)
#
#
# Indices 1 2 3 4 5 6 
#
# 1 57.0012 21.8237 -6.7981 -2.3649 12.0617 -20.7337
# 2 21.8237 51.6813 8.9159 1.0465 13.1624 -22.7076
# 3 -6.7981 8.9159 129.8006 -8.5053 21.6891 -5.8661
# 4 -2.3649 1.0465 -8.5053 34.8813 -3.1790 10.5658
# 5 12.0617 13.1624 21.6891 -3.1790 37.6904 -7.6291
# 6 -20.7337 -22.7076 -5.8661 10.5658 -7.6291 47.4206
#
#
#
# Elastic Compliance Matrix: (Units=1/GPa)
#
#
# Indices 1 2 3 4 5 6 
#
# 1 0.024016 -0.006058 0.002963 -0.000138 -0.005859 0.007054
# 2 -0.006058 0.028558 -0.001206 -0.005459 -0.005533 0.011203
# 3 0.002963 -0.001206 0.008992 0.001764 -0.005439 0.000562
# 4 -0.000138 -0.005459 0.001764 0.032248 0.001762 -0.009358
# 5 -0.005859 -0.005533 -0.005439 0.001762 0.033436 -0.000897
# 6 0.007054 0.011203 0.000562 -0.009358 -0.000897 0.031547
#
#
# Mechanical properties :
#
#
# Convention : Reuss Voigt Hill
#
# Bulk Modulus (GPa) = 18.88091 31.81846 25.34969
# Shear Modulus (GPa) = 27.01906 38.30122 32.66014
#
# Velocity S-wave (km/s) = 3.17243 3.77714 3.48791
# Velocity P-wave (km/s) = 4.52239 5.55648 5.06589
#
# Compressibility (1/GPa) = 0.05296354
#
# Stress axis : x y z
#
# Youngs Moduli (GPa) = 41.63853 35.01674 111.21129
#
# Poissons Ratio (x) = 0.21213 -0.32948
# Poissons Ratio (y) = 0.25225 0.13409
# Poissons Ratio (z) = -0.12336 0.04222
#
# Static dielectric constant tensor:
#      x y z
#    x 2.098420 0.009490 0.020590 
#    y 0.009490 2.109540 -0.048980 
#    z 0.020590 -0.048980 2.156030 
# 
# From -- ./inp_files/277207.got.cif
#   From: 2010.05.17/outbox.cif.g08.bks.cpg/sg2_139_cif.got.tgz:277207.got - 2010.06.03 11:33:40.
