data_PCOD9045112
_publ_section_title
;
Structure prediction by ZEFSAII (Michael W. Deem and Ramdas Pophale) SiO2 
 PCOD9045112
Probable space group: P -1
;
_chemical_formula_sum "Si O2"
_cell_formula_units_Z 15
_cell_length_a 5.017969
_cell_length_b 19.168561
_cell_length_c 8.741877
_cell_angle_alpha 128.809796
_cell_angle_beta 70.726432
_cell_angle_gamma 118.516096
_cell_volume 575.146733
_symmetry_space_group_name_H-M "P -1"
_symmetry_group_IT_number 2
_symmetry_cell_setting 'triclinic'
loop_
_space_group_symop_operation_xyz
x,y,z
-x,-y,-z
loop_
_atom_site_type_symbol
_atom_site_label
_atom_site_fract_x
_atom_site_fract_y
_atom_site_fract_z
Si Si1 0.774941 0.176146 0.201218
Si Si2 0.448440 0.291031 0.238950
Si Si3 0.864595 0.335792 0.748852
Si Si4 0.794513 0.863635 0.159014
Si Si5 0.220238 0.202715 0.592126
Si Si6 0.404876 0.519126 0.870846
Si Si7 0.163735 0.961884 0.783736
Si Si8 0.500000 0.500000 0.500000
O O1 0.590997 0.234552 0.244767
O O2 0.094087 0.255378 0.305604
O O3 0.649621 0.092622 0.236414
O O4 0.890355 0.126402 0.970493
O O5 0.376335 0.461481 0.289385
O O6 0.587067 0.404491 0.372431
O O7 0.431012 0.237267 0.006631
O O8 0.576913 0.270002 0.614172
O O9 0.026645 0.272145 0.715357
O O10 0.730248 0.398229 0.967605
O O11 0.817762 0.853106 0.318008
O O12 0.696739 0.949467 0.235775
O O13 0.077549 0.122850 0.382592
O O14 0.132884 0.421813 0.731790
O O15 0.500000 0.500000 0.000000
O O16 0.000000 0.000000 0.000000
#
# Coordination Sequence:
#
# PCOD9045112 Si02
#       8
#     2   2   2   2   2   2   2   1
#     4   9  23  43  68  99 148 194 241 318 382 446
#     4  10  24  45  69 107 152 193 252 321 379 471
#     4  11  27  50  78 109 162 207 264 322 402 470
#     4   9  23  45  73 107 147 198 259 318 383 466
#     4  12  25  45  78 110 147 213 255 321 400 475
#     4  11  26  52  79 115 163 208 268 333 390 480
#     4  10  23  49  72 111 151 201 258 333 390 472
#     4  12  28  48  80 124 154 212 266 328 402 472
#
# _framework density 26.080300999999999
#
# number of rings (size 3 to 8) (size 9 to 14) (size 15 to 20)
#    0.800    0.800    1.333    1.200    5.600    3.200 
#    9.600    1.333    0.000    0.000    0.000    0.000 
#    0.000    0.000    0.000    0.000    0.000    0.000 
#
# Total GULP energy -83659.325836 kJ/mol
# GULP energy per Si atom -5577.288389 kJ/mol
# Density = 2.602094 g / cm^3
# Si number density = 26.080301 Si / 1000 Ang^3
#
#
#
# Elastic Constant Matrix: (Units=GPa)
#
#
# Indices 1 2 3 4 5 6 
#
# 1 117.4377 48.1805 29.5941 13.9598 2.5366 -32.9438
# 2 48.1805 167.4133 51.0839 23.3496 0.9031 -38.5514
# 3 29.5941 51.0839 125.1976 8.6112 24.3783 -16.7290
# 4 13.9598 23.3496 8.6112 56.1130 -3.2096 6.4243
# 5 2.5366 0.9031 24.3783 -3.2096 29.9048 5.7344
# 6 -32.9438 -38.5514 -16.7290 6.4243 5.7344 41.8045
#
#
#
# Elastic Compliance Matrix: (Units=1/GPa)
#
#
# Indices 1 2 3 4 5 6 
#
# 1 0.012189 -0.000467 -0.000493 -0.004079 -0.002976 0.010013
# 2 -0.000467 0.009223 -0.002205 -0.004322 -0.000436 0.007979
# 3 -0.000493 -0.002205 0.011670 -0.001795 -0.010354 0.003945
# 4 -0.004079 -0.004322 -0.001795 0.022707 0.006742 -0.012332
# 5 -0.002976 -0.000436 -0.010354 0.006742 0.045588 -0.014180
# 6 0.010013 0.007979 0.003945 -0.012332 -0.014180 0.044588
#
#
# Mechanical properties :
#
#
# Convention : Reuss Voigt Hill
#
# Bulk Modulus (GPa) = 37.37873 74.19618 55.78745
# Shear Modulus (GPa) = 31.01521 44.31048 37.66284
#
# Velocity S-wave (km/s) = 3.45225 4.12637 3.80427
# Velocity P-wave (km/s) = 5.50036 7.15636 6.38230
#
# Compressibility (1/GPa) = 0.02675318
#
# Stress axis : x y z
#
# Youngs Moduli (GPa) = 82.04274 108.42774 85.68925
#
# Poissons Ratio (x) = 0.05062 0.04223
# Poissons Ratio (y) = 0.03830 0.18891
# Poissons Ratio (z) = 0.04043 0.23903
#
# Static dielectric constant tensor:
#      x y z
#    x 2.089390 0.085470 -0.046880 
#    y 0.085470 2.069260 -0.088640 
#    z -0.046880 -0.088640 2.180750 
# 
# From -- ./inp_files/140353.got.cif
#   From: 2010.05.17/outbox.cif.g08.bks.cpg/sg2_71_cif.got.tgz:140353.got - 2010.06.03 11:33:40.
