data_PCOD9045763
_publ_section_title
;
Structure prediction by ZEFSAII (Michael W. Deem and Ramdas Pophale) SiO2 
 PCOD9045763
Probable space group: P -1
;
_chemical_formula_sum "Si O2"
_cell_formula_units_Z 16
_cell_length_a 9.464991
_cell_length_b 13.496423
_cell_length_c 24.247804
_cell_angle_alpha 163.430851
_cell_angle_beta 48.825395
_cell_angle_gamma 130.102050
_cell_volume 663.636356
_symmetry_space_group_name_H-M "P -1"
_symmetry_group_IT_number 2
_symmetry_cell_setting 'triclinic'
loop_
_space_group_symop_operation_xyz
x,y,z
-x,-y,-z
loop_
_atom_site_type_symbol
_atom_site_label
_atom_site_fract_x
_atom_site_fract_y
_atom_site_fract_z
Si Si1 0.009390 0.335593 0.637743
Si Si2 0.497754 0.616198 0.325804
Si Si3 0.422697 0.272791 0.507174
Si Si4 0.086408 0.513343 0.369257
Si Si5 0.712465 0.361829 0.042688
Si Si6 0.356690 0.446577 0.100459
Si Si7 0.727569 0.075476 0.251882
Si Si8 0.057309 0.013365 0.739989
O O1 0.229243 0.457039 0.645672
O O2 0.948093 0.225256 0.532812
O O3 0.849393 0.578574 0.830844
O O4 0.000000 0.000000 0.500000
O O5 0.515637 0.652993 0.406228
O O6 0.298670 0.418183 0.257953
O O7 0.656852 0.409278 0.145394
O O8 0.500000 0.000000 0.500000
O O9 0.578210 0.338257 0.454494
O O10 0.385194 0.851652 0.291110
O O11 0.913401 0.237781 0.260881
O O12 0.071773 0.670385 0.517494
O O13 0.523934 0.367895 0.057772
O O14 0.852515 0.690356 0.165590
O O15 0.840762 0.048617 0.829539
O O16 0.362671 0.205270 0.916668
O O17 0.816042 0.936926 0.211834
#
# Coordination Sequence:
#
# PCOD9045763 Si02
#       8
#     2   2   2   2   2   2   2   2
#     4  10  24  41  68  97 123 167 224 274 318 384
#     4  12  19  42  70  93 124 169 223 270 321 378
#     4  11  23  40  67  97 126 176 220 272 316 387
#     4  12  24  45  67  92 135 176 215 268 332 390
#     4  11  23  40  71  98 125 167 225 278 318 375
#     4  11  22  43  64  95 132 171 220 271 321 381
#     4  12  26  42  63  95 141 176 207 269 335 393
#     4  11  25  41  68 101 130 167 218 274 326 387
#
# _framework density 24.109589
#
# number of rings (size 3 to 8) (size 9 to 14) (size 15 to 20)
#    0.000    0.750    6.250    1.500    3.500    3.000 
#    0.000    0.625    0.000    0.000    0.000    0.000 
#    0.000    0.000    0.000    0.000    0.000    0.000 
#
# Total GULP energy -89477.208508 kJ/mol
# GULP energy per Si atom -5592.325532 kJ/mol
# Density = 2.405471 g / cm^3
# Si number density = 24.109589 Si / 1000 Ang^3
#
#
#
# Elastic Constant Matrix: (Units=GPa)
#
#
# Indices 1 2 3 4 5 6 
#
# 1 107.0424 38.0115 47.2715 -26.6243 9.3607 11.4364
# 2 38.0115 97.1135 39.3807 -31.1499 -2.6843 18.7788
# 3 47.2715 39.3807 81.6074 -35.2884 13.0142 3.6897
# 4 -26.6243 -31.1499 -35.2884 41.8279 8.0839 -8.4652
# 5 9.3607 -2.6843 13.0142 8.0839 43.4924 -17.4766
# 6 11.4364 18.7788 3.6897 -8.4652 -17.4766 48.3086
#
#
#
# Elastic Compliance Matrix: (Units=1/GPa)
#
#
# Indices 1 2 3 4 5 6 
#
# 1 0.013540 -0.001846 -0.004964 0.003127 -0.003219 -0.002725
# 2 -0.001846 0.015277 -0.002952 0.006991 -0.000823 -0.004349
# 3 -0.004964 -0.002952 0.026476 0.018993 -0.010658 -0.000227
# 4 0.003127 0.006991 0.018993 0.049818 -0.015970 -0.001956
# 5 -0.003219 -0.000823 -0.010658 -0.015970 0.034435 0.011555
# 6 -0.002725 -0.004349 -0.000227 -0.001956 0.011555 0.026891
#
#
# Mechanical properties :
#
#
# Convention : Reuss Voigt Hill
#
# Bulk Modulus (GPa) = 27.95645 59.45452 43.70548
# Shear Modulus (GPa) = 25.26722 37.46575 31.36649
#
# Velocity S-wave (km/s) = 3.24082 3.94633 3.61085
# Velocity P-wave (km/s) = 5.06208 6.74376 5.96251
#
# Compressibility (1/GPa) = 0.03576992
#
# Stress axis : x y z
#
# Youngs Moduli (GPa) = 73.85497 65.45583 37.76959
#
# Poissons Ratio (x) = 0.12083 0.18748
# Poissons Ratio (y) = 0.13633 0.11151
# Poissons Ratio (z) = 0.36660 0.19324
#
# Static dielectric constant tensor:
#      x y z
#    x 1.926250 -0.007850 -0.053470 
#    y -0.007850 2.056710 0.041920 
#    z -0.053470 0.041920 1.914760 
# 
# From -- ./inp_files/495922.got.cif
#   From: 2010.05.17/outbox.cif.g08.bks.cpg/sg2_248_cif.got.tgz:495922.got - 2010.06.03 11:33:40.
