data_PCOD9045355
_publ_section_title
;
Structure prediction by ZEFSAII (Michael W. Deem and Ramdas Pophale) SiO2 
 PCOD9045355
Probable space group: P -1
;
_chemical_formula_sum "Si O2"
_cell_formula_units_Z 16
_cell_length_a 13.650844
_cell_length_b 10.310522
_cell_length_c 8.984650
_cell_angle_alpha 108.605533
_cell_angle_beta 140.895220
_cell_angle_gamma 54.708456
_cell_volume 630.172448
_symmetry_space_group_name_H-M "P -1"
_symmetry_group_IT_number 2
_symmetry_cell_setting 'triclinic'
loop_
_space_group_symop_operation_xyz
x,y,z
-x,-y,-z
loop_
_atom_site_type_symbol
_atom_site_label
_atom_site_fract_x
_atom_site_fract_y
_atom_site_fract_z
Si Si1 0.680167 0.407395 0.463852
Si Si2 0.736655 0.076566 0.729085
Si Si3 0.351187 0.266511 0.496295
Si Si4 0.008317 0.690244 0.959524
Si Si5 0.209828 0.794199 0.869646
Si Si6 0.296369 0.485586 0.982662
Si Si7 0.489993 0.154486 0.917014
Si Si8 0.213387 0.935715 0.564874
O O1 0.650529 0.569724 0.413426
O O2 0.473030 0.453546 0.275688
O O3 0.759142 0.235019 0.408265
O O4 0.829992 0.362968 0.751515
O O5 0.525733 0.145996 0.554195
O O6 0.741899 0.100291 0.569653
O O7 0.888289 0.887222 0.873543
O O8 0.788510 0.174893 0.937682
O O9 0.160075 0.329862 0.208497
O O10 0.366669 0.171673 0.634475
O O11 0.109716 0.580586 0.892986
O O12 0.275521 0.606712 0.871055
O O13 0.353101 0.836074 0.990772
O O14 0.998208 0.917064 0.615482
O O15 0.356358 0.313741 0.918642
O O16 0.641152 0.028933 0.173660
#
# Coordination Sequence:
#
# PCOD9045355 Si02
#       8
#     2   2   2   2   2   2   2   2
#     4  11  23  38  65 100 122 160 212 270 315 363
#     4  11  22  41  66  97 125 165 215 264 318 370
#     4  11  26  44  64  90 138 171 206 259 318 384
#     4  12  24  42  66  96 127 173 212 258 318 379
#     4  11  19  39  65  96 129 159 208 274 320 363
#     4  11  22  38  70  91 129 161 217 263 317 365
#     4  10  24  40  61  93 131 171 207 260 318 379
#     4  11  22  37  69  98 125 162 215 270 314 371
#
# _framework density 25.389876999999998
#
# number of rings (size 3 to 8) (size 9 to 14) (size 15 to 20)
#    0.000    1.000    5.000    3.000    5.250    0.500 
#    0.000    0.625    0.000    0.000    0.000    0.000 
#    0.000    0.000    0.000    0.000    0.000    0.000 
#
# Total GULP energy -89383.416410 kJ/mol
# GULP energy per Si atom -5586.463526 kJ/mol
# Density = 2.533209 g / cm^3
# Si number density = 25.389877 Si / 1000 Ang^3
#
#
#
# Elastic Constant Matrix: (Units=GPa)
#
#
# Indices 1 2 3 4 5 6 
#
# 1 33.0028 1.1932 14.3849 0.0307 10.3164 -41.7793
# 2 1.1932 97.4356 19.9506 -18.5418 12.8778 -23.0506
# 3 14.3849 19.9506 130.9764 -21.3963 5.0149 -22.2923
# 4 0.0307 -18.5418 -21.3963 48.9443 -6.8348 5.9673
# 5 10.3164 12.8778 5.0149 -6.8348 49.3200 -10.5015
# 6 -41.7793 -23.0506 -22.2923 5.9673 -10.5015 40.1007
#
#
#
# Elastic Compliance Matrix: (Units=1/GPa)
#
#
# Indices 1 2 3 4 5 6 
#
# 1 -0.058196 -0.015329 -0.003139 0.001742 0.001613 -0.071025
# 2 -0.015329 0.008649 -0.001028 0.004214 -0.001017 -0.012464
# 3 -0.003139 -0.001028 0.008794 0.003465 0.000657 0.000683
# 4 0.001742 0.004214 0.003465 0.023444 0.002120 0.003230
# 5 0.001613 -0.001017 0.000657 0.002120 0.021896 0.006879
# 6 -0.071025 -0.012464 0.000683 0.003230 0.006879 -0.054525
#
#
# Mechanical properties :
#
#
# Convention : Reuss Voigt Hill
#
# Bulk Modulus (GPa) = -12.53989 36.94136 12.20074
# Shear Modulus (GPa) = -133.23216 42.73207 -45.25005
#
# Velocity S-wave (km/s) = -7.25179 4.10693 -4.22620
# Velocity P-wave (km/s) = 8.66415 6.08855 4.35874
#
# Compressibility (1/GPa) = -0.07974552
#
# Stress axis : x y z
#
# Youngs Moduli (GPa) = -17.18328 115.61712 113.72028
#
# Poissons Ratio (x) = 1.77229 0.35700
# Poissons Ratio (y) = -0.26340 0.11689
# Poissons Ratio (z) = -0.05394 0.11884
#
# Static dielectric constant tensor:
#      x y z
#    x 2.131590 0.106850 -0.101220 
#    y 0.106850 2.010380 0.041560 
#    z -0.101220 0.041560 2.105010 
# 
# From -- ./inp_files/205198.got.cif
#   From: 2010.05.17/outbox.cif.g08.bks.cpg/sg2_103_cif.got.tgz:205198.got - 2010.06.03 11:33:40.
