data_PCOD9045775
_publ_section_title
;
Structure prediction by ZEFSAII (Michael W. Deem and Ramdas Pophale) SiO2 
 PCOD9045775
Probable space group: P -1
;
_chemical_formula_sum "Si O2"
_cell_formula_units_Z 16
_cell_length_a 9.130617
_cell_length_b 13.928333
_cell_length_c 11.963277
_cell_angle_alpha 79.880024
_cell_angle_beta 67.690794
_cell_angle_gamma 31.342203
_cell_volume 696.396857
_symmetry_space_group_name_H-M "P -1"
_symmetry_group_IT_number 2
_symmetry_cell_setting 'triclinic'
loop_
_space_group_symop_operation_xyz
x,y,z
-x,-y,-z
loop_
_atom_site_type_symbol
_atom_site_label
_atom_site_fract_x
_atom_site_fract_y
_atom_site_fract_z
Si Si1 0.298003 0.405745 0.034860
Si Si2 0.273478 0.192723 0.592227
Si Si3 0.862707 0.100497 0.639874
Si Si4 0.577823 0.557819 0.783647
Si Si5 0.574992 0.837469 0.197440
Si Si6 0.697542 0.484280 0.220246
Si Si7 0.529111 0.175568 0.343268
Si Si8 0.402449 0.142282 0.152897
O O1 0.434386 0.406669 0.089376
O O2 0.438587 0.221768 0.050705
O O3 0.918374 0.607605 0.122166
O O4 0.342029 0.429710 0.897533
O O5 0.427961 0.141272 0.673599
O O6 0.272817 0.282186 0.487897
O O7 0.930903 0.336728 0.694532
O O8 0.500000 0.000000 0.500000
O O9 0.711549 0.085535 0.747335
O O10 0.582456 0.327888 0.659334
O O11 0.000000 0.000000 0.500000
O O12 0.133382 0.002810 0.657829
O O13 0.343191 0.602805 0.795814
O O14 0.527793 0.686120 0.711101
O O15 0.556522 0.954356 0.121367
O O16 0.029789 0.321387 0.216694
O O17 0.507491 0.118880 0.251436
#
# Coordination Sequence:
#
# PCOD9045775 Si02
#       8
#     2   2   2   2   2   2   2   2
#     4  10  24  48  71 100 136 182 230 285 345 401
#     4  11  20  39  68  95 135 181 218 278 347 399
#     4  12  26  43  68 103 138 179 227 280 342 405
#     4  10  24  41  69 101 133 178 231 283 339 405
#     4  11  23  43  70 100 138 178 230 280 339 408
#     4  12  25  47  70  98 142 179 228 289 339 402
#     4  11  23  44  65 101 138 178 228 277 343 411
#     4  11  24  43  72 104 131 184 233 277 343 405
#
# _framework density 22.975407000000001
#
# number of rings (size 3 to 8) (size 9 to 14) (size 15 to 20)
#    0.000    1.000    3.750    2.625    1.750    1.500 
#    2.250    3.125    0.000    0.000    0.000    0.000 
#    0.000    0.000    0.000    0.000    0.000    0.000 
#
# Total GULP energy -89480.499937 kJ/mol
# GULP energy per Si atom -5592.531246 kJ/mol
# Density = 2.292311 g / cm^3
# Si number density = 22.975407 Si / 1000 Ang^3
#
#
#
# Elastic Constant Matrix: (Units=GPa)
#
#
# Indices 1 2 3 4 5 6 
#
# 1 141.2135 21.6299 21.4633 -7.5930 0.5167 4.6414
# 2 21.6299 66.5637 -0.3731 -10.1326 9.5568 13.4841
# 3 21.4633 -0.3731 69.7691 -11.8158 7.9136 8.4534
# 4 -7.5930 -10.1326 -11.8158 27.9244 1.3869 -0.1894
# 5 0.5167 9.5568 7.9136 1.3869 14.9518 -2.7073
# 6 4.6414 13.4841 8.4534 -0.1894 -2.7073 52.1953
#
#
#
# Elastic Compliance Matrix: (Units=1/GPa)
#
#
# Indices 1 2 3 4 5 6 
#
# 1 0.008005 -0.003420 -0.003108 -0.000561 0.003764 0.000868
# 2 -0.003420 0.022066 0.006062 0.010561 -0.019505 -0.007351
# 3 -0.003108 0.006062 0.019532 0.010379 -0.016017 -0.005246
# 4 -0.000561 0.010561 0.010379 0.044707 -0.017293 -0.005094
# 5 0.003764 -0.019505 -0.016017 -0.017293 0.091470 0.011980
# 6 0.000868 -0.007351 -0.005246 -0.005094 0.011980 0.022433
#
#
# Mechanical properties :
#
#
# Convention : Reuss Voigt Hill
#
# Bulk Modulus (GPa) = 20.54673 40.33184 30.43929
# Shear Modulus (GPa) = 22.18588 34.66938 28.42763
#
# Velocity S-wave (km/s) = 3.11084 3.88877 3.52135
# Velocity P-wave (km/s) = 4.67605 6.14458 5.45991
#
# Compressibility (1/GPa) = 0.04866954
#
# Stress axis : x y z
#
# Youngs Moduli (GPa) = 124.91689 45.31904 51.19885
#
# Poissons Ratio (x) = 0.15501 0.15913
# Poissons Ratio (y) = 0.42726 -0.31036
# Poissons Ratio (z) = 0.38825 -0.27471
#
# Static dielectric constant tensor:
#      x y z
#    x 1.900660 0.053660 -0.013490 
#    y 0.053660 1.884510 -0.016490 
#    z -0.013490 -0.016490 1.868410 
# 
# From -- ./inp_files/333202.got.cif
#   From: 2010.05.17/outbox.cif.g08.bks.cpg/sg2_167_cif.got.tgz:333202.got - 2010.06.03 11:33:40.
