data_PCOD9045721
_publ_section_title
;
Structure prediction by ZEFSAII (Michael W. Deem and Ramdas Pophale) SiO2 
 PCOD9045721
Probable space group: P -1
;
_chemical_formula_sum "Si O2"
_cell_formula_units_Z 16
_cell_length_a 9.384052
_cell_length_b 26.676375
_cell_length_c 15.616343
_cell_angle_alpha 152.353995
_cell_angle_beta 29.265957
_cell_angle_gamma 134.127160
_cell_volume 834.802457
_symmetry_space_group_name_H-M "P -1"
_symmetry_group_IT_number 2
_symmetry_cell_setting 'triclinic'
loop_
_space_group_symop_operation_xyz
x,y,z
-x,-y,-z
loop_
_atom_site_type_symbol
_atom_site_label
_atom_site_fract_x
_atom_site_fract_y
_atom_site_fract_z
Si Si1 0.918047 0.759125 0.551044
Si Si2 0.656615 0.229219 0.344199
Si Si3 0.049074 0.118808 0.636141
Si Si4 0.299339 0.707375 0.770777
Si Si5 0.750359 0.017868 0.083901
Si Si6 0.630883 0.532741 0.568961
Si Si7 0.064168 0.737420 0.249601
Si Si8 0.792965 0.385915 0.656915
O O1 0.655132 0.700470 0.587981
O O2 0.083398 0.757264 0.370526
O O3 0.131615 0.691864 0.414611
O O4 0.756703 0.892972 0.861662
O O5 0.785124 0.241472 0.201929
O O6 0.729816 0.310474 0.499043
O O7 0.281747 0.267605 0.591080
O O8 0.792841 0.097728 0.105630
O O9 0.929725 0.164860 0.673457
O O10 0.414937 0.091396 0.406333
O O11 0.000000 0.000000 0.500000
O O12 0.885153 0.212757 0.934962
O O13 0.260320 0.584232 0.611206
O O14 0.000000 0.000000 0.000000
O O15 0.500000 0.500000 0.500000
O O16 0.908298 0.579579 0.472663
O O17 0.344114 0.625738 0.906609
O O18 0.500000 0.500000 0.000000
#
# Coordination Sequence:
#
# PCOD9045721 Si02
#       8
#     2   2   2   2   2   2   2   2
#     4  11  23  42  68  95 128 167 213 256 320 375
#     4  10  25  43  64  95 131 162 214 259 321 371
#     4  11  22  39  67  92 126 163 217 260 310 367
#     4  11  24  42  68  96 123 171 213 264 310 372
#     4  11  23  42  65  91 131 169 203 261 319 378
#     4  12  23  43  68  91 129 167 217 258 310 378
#     4  10  24  41  67  96 123 168 216 260 308 378
#     4  12  26  43  65  93 132 169 208 263 320 371
#
# _framework density 19.166211000000001
#
# number of rings (size 3 to 8) (size 9 to 14) (size 15 to 20)
#    0.000    1.000    5.000    0.750    5.250    3.000 
#    2.250    0.625    0.000    0.000    0.000    0.000 
#    0.000    0.000    0.000    0.000    0.000    0.000 
#
# Total GULP energy -89380.236705 kJ/mol
# GULP energy per Si atom -5586.264794 kJ/mol
# Density = 1.912259 g / cm^3
# Si number density = 19.166211 Si / 1000 Ang^3
#
#
#
# Elastic Constant Matrix: (Units=GPa)
#
#
# Indices 1 2 3 4 5 6 
#
# 1 78.7441 35.5567 5.5789 0.6137 -2.6312 -28.6277
# 2 35.5567 117.2061 29.1949 19.0722 -1.8438 -31.8365
# 3 5.5789 29.1949 91.4763 3.4921 1.4207 -25.7524
# 4 0.6137 19.0722 3.4921 29.2437 -8.2357 3.2026
# 5 -2.6312 -1.8438 1.4207 -8.2357 23.5978 3.1776
# 6 -28.6277 -31.8365 -25.7524 3.2026 3.1776 40.7705
#
#
#
# Elastic Compliance Matrix: (Units=1/GPa)
#
#
# Indices 1 2 3 4 5 6 
#
# 1 0.018457 -0.002880 0.003459 -0.000414 -0.000263 0.012948
# 2 -0.002880 0.013994 -0.001153 -0.011175 -0.004323 0.009392
# 3 0.003459 -0.001153 0.014385 -0.003146 -0.003164 0.011108
# 4 -0.000414 -0.011175 -0.003146 0.048866 0.018518 -0.016286
# 5 -0.000263 -0.004323 -0.003164 0.018518 0.050133 -0.010921
# 6 0.012948 0.009392 0.011108 -0.016286 -0.010921 0.050100
#
#
# Mechanical properties :
#
#
# Convention : Reuss Voigt Hill
#
# Bulk Modulus (GPa) = 21.88792 47.56528 34.72660
# Shear Modulus (GPa) = 23.54993 33.19548 28.37271
#
# Velocity S-wave (km/s) = 3.50912 4.16622 3.85171
# Velocity P-wave (km/s) = 5.27858 6.92924 6.15945
#
# Compressibility (1/GPa) = 0.04568730
#
# Stress axis : x y z
#
# Youngs Moduli (GPa) = 54.18063 71.45674 69.51526
#
# Poissons Ratio (x) = 0.20583 -0.24044
# Poissons Ratio (y) = 0.15606 0.08015
# Poissons Ratio (z) = -0.18740 0.08239
#
# Static dielectric constant tensor:
#      x y z
#    x 1.649720 -0.009520 -0.018180 
#    y -0.009520 1.751710 -0.012750 
#    z -0.018180 -0.012750 1.653280 
# 
# From -- ./inp_files/177376.got.cif
#   From: 2010.05.17/outbox.cif.g08.bks.cpg/sg2_89_cif.got.tgz:177376.got - 2010.06.03 11:33:40.
