data_PCOD9045652
_publ_section_title
;
Structure prediction by ZEFSAII (Michael W. Deem and Ramdas Pophale) SiO2 
 PCOD9045652
Probable space group: P -1
;
_chemical_formula_sum "Si O2"
_cell_formula_units_Z 16
_cell_length_a 7.267274
_cell_length_b 9.765863
_cell_length_c 14.753701
_cell_angle_alpha 37.822808
_cell_angle_beta 82.134378
_cell_angle_gamma 80.199153
_cell_volume 632.720759
_symmetry_space_group_name_H-M "P -1"
_symmetry_group_IT_number 2
_symmetry_cell_setting 'triclinic'
loop_
_space_group_symop_operation_xyz
x,y,z
-x,-y,-z
loop_
_atom_site_type_symbol
_atom_site_label
_atom_site_fract_x
_atom_site_fract_y
_atom_site_fract_z
Si Si1 0.276891 0.541142 0.260807
Si Si2 0.302725 0.625280 0.698561
Si Si3 0.620837 0.824173 0.801206
Si Si4 0.802640 0.900597 0.568323
Si Si5 0.231722 0.650374 0.886276
Si Si6 0.221154 0.226339 0.824059
Si Si7 0.025591 0.834661 0.975298
Si Si8 0.416644 0.722591 0.332478
O O1 0.494791 0.511259 0.230218
O O2 0.214797 0.291448 0.402894
O O3 0.157376 0.687507 0.116954
O O4 0.278070 0.644421 0.306880
O O5 0.180760 0.650159 0.784545
O O6 0.201718 0.496561 0.694177
O O7 0.339500 0.875457 0.542214
O O8 0.745965 0.786089 0.723764
O O9 0.401558 0.807380 0.804144
O O10 0.655906 0.065710 0.712317
O O11 0.681575 0.603979 0.970398
O O12 0.000000 0.000000 0.500000
O O13 0.073852 0.733349 0.926424
O O14 0.421088 0.178818 0.789896
O O15 0.177423 0.161909 0.965426
O O16 0.090208 0.083004 0.849176
O O17 0.500000 0.500000 0.500000
#
# Coordination Sequence:
#
# PCOD9045652 Si02
#       8
#     2   2   2   2   2   2   2   2
#     4  11  23  41  69  95 128 179 222 263 334 398
#     4  11  24  39  68 100 128 176 224 271 325 405
#     4  11  22  43  65 100 131 173 221 273 331 387
#     4  12  25  45  67  97 139 174 216 275 343 397
#     4  11  22  39  71  97 130 167 228 280 312 392
#     4  10  24  41  65  94 139 169 214 270 342 385
#     4  11  22  44  65  97 134 175 210 279 334 393
#     4  11  25  42  68  96 133 176 227 274 318 404
#
# _framework density 25.287617999999998
#
# number of rings (size 3 to 8) (size 9 to 14) (size 15 to 20)
#    0.000    1.000    3.750    3.375    3.500    1.500 
#    0.000    2.500    0.000    0.000    0.000    0.000 
#    0.000    0.000    0.000    0.000    0.000    0.000 
#
# Total GULP energy -89472.524853 kJ/mol
# GULP energy per Si atom -5592.032803 kJ/mol
# Density = 2.523006 g / cm^3
# Si number density = 25.287618 Si / 1000 Ang^3
#
#
#
# Elastic Constant Matrix: (Units=GPa)
#
#
# Indices 1 2 3 4 5 6 
#
# 1 81.0819 15.2602 26.1310 -5.0126 -10.9726 -8.8748
# 2 15.2602 155.6553 17.2533 -31.9799 3.8700 11.9341
# 3 26.1310 17.2533 81.4406 -21.8713 1.6403 12.4918
# 4 -5.0126 -31.9799 -21.8713 51.9178 2.3348 -14.9300
# 5 -10.9726 3.8700 1.6403 2.3348 46.0136 -1.3483
# 6 -8.8748 11.9341 12.4918 -14.9300 -1.3483 27.7106
#
#
#
# Elastic Compliance Matrix: (Units=1/GPa)
#
#
# Indices 1 2 3 4 5 6 
#
# 1 0.016303 -0.001645 -0.006286 0.000347 0.004501 0.009170
# 2 -0.001645 0.007579 0.000347 0.004214 -0.001307 -0.001741
# 3 -0.006286 0.000347 0.016637 0.004635 -0.002570 -0.007291
# 4 0.000347 0.004214 0.004635 0.026978 -0.001493 0.010670
# 5 0.004501 -0.001307 -0.002570 -0.001493 0.023186 0.003487
# 6 0.009170 -0.001741 -0.007291 0.010670 0.003487 0.048978
#
#
# Mechanical properties :
#
#
# Convention : Reuss Voigt Hill
#
# Bulk Modulus (GPa) = 39.44703 48.38519 43.91611
# Shear Modulus (GPa) = 30.62215 42.43064 36.52640
#
# Velocity S-wave (km/s) = 3.48365 4.10069 3.80470
# Velocity P-wave (km/s) = 5.64042 6.44952 6.05849
#
# Compressibility (1/GPa) = 0.02535045
#
# Stress axis : x y z
#
# Youngs Moduli (GPa) = 61.33808 131.94344 60.10656
#
# Poissons Ratio (x) = 0.21707 0.37786
# Poissons Ratio (y) = 0.10091 -0.02087
# Poissons Ratio (z) = 0.38560 -0.04582
#
# Static dielectric constant tensor:
#      x y z
#    x 2.060740 0.015870 0.017680 
#    y 0.015870 1.989000 -0.030610 
#    z 0.017680 -0.030610 2.000550 
# 
# From -- ./inp_files/206930.got.cif
#   From: 2010.05.17/outbox.cif.g08.bks.cpg/sg2_104_cif.got.tgz:206930.got - 2010.06.03 11:33:40.
