data_PCOD9045924
_publ_section_title
;
Structure prediction by ZEFSAII (Michael W. Deem and Ramdas Pophale) SiO2 
 PCOD9045924
Probable space group: P -1
;
_chemical_formula_sum "Si O2"
_cell_formula_units_Z 14
_cell_length_a 10.979930
_cell_length_b 7.416110
_cell_length_c 15.149168
_cell_angle_alpha 129.732799
_cell_angle_beta 35.270125
_cell_angle_gamma 122.347624
_cell_volume 547.544454
_symmetry_space_group_name_H-M "P -1"
_symmetry_group_IT_number 2
_symmetry_cell_setting 'triclinic'
loop_
_space_group_symop_operation_xyz
x,y,z
-x,-y,-z
loop_
_atom_site_type_symbol
_atom_site_label
_atom_site_fract_x
_atom_site_fract_y
_atom_site_fract_z
Si Si1 0.431673 0.022463 0.341355
Si Si2 0.794532 0.026308 0.254439
Si Si3 0.717728 0.247034 0.913734
Si Si4 0.812862 0.263330 0.490009
Si Si5 0.293934 0.299326 0.237104
Si Si6 0.166975 0.458691 0.690724
Si Si7 0.227106 0.762062 0.912755
O O1 0.600038 0.923661 0.281682
O O2 0.332922 0.270937 0.502410
O O3 0.579498 0.074391 0.186692
O O4 0.237368 0.838117 0.413643
O O5 0.756899 0.057374 0.390111
O O6 0.811301 0.293909 0.294034
O O7 0.008373 0.894224 0.069486
O O8 0.929068 0.360959 0.785400
O O9 0.704929 0.969307 0.816632
O O10 0.483719 0.341824 0.069082
O O11 0.745969 0.276726 0.012251
O O12 0.695303 0.507321 0.631585
O O13 0.058924 0.318668 0.344614
O O14 0.208684 0.529380 0.790724
#
# Coordination Sequence:
#
# PCOD9045924 Si02
#       7
#     2   2   2   2   2   2   2
#     4  11  23  40  64  96 123 156 201 253 310 368
#     4  11  23  40  64  96 123 156 201 253 310 368
#     4  11  23  44  65  86 126 162 206 249 305 351
#     4  11  23  44  65  86 126 162 206 249 305 351
#     4  10  24  42  64  88 120 168 210 248 286 368
#     4  11  23  40  64  96 123 156 201 253 310 368
#     4  11  23  40  64  96 123 156 201 253 310 368
#
# _framework density 25.5687
#
# number of rings (size 3 to 8) (size 9 to 14) (size 15 to 20)
#    0.000    1.143    2.857    4.286    8.000    0.000 
#    0.000    8.571    0.000    0.000    0.000    0.000 
#    0.000    0.000    0.000    0.000    0.000    0.000 
#
# Total GULP energy -78330.657023 kJ/mol
# GULP energy per Si atom -5595.046930 kJ/mol
# Density = 2.551050 g / cm^3
# Si number density = 25.568700 Si / 1000 Ang^3
#
#
#
# Elastic Constant Matrix: (Units=GPa)
#
#
# Indices 1 2 3 4 5 6 
#
# 1 36.0351 3.0554 19.0558 -3.3496 -5.8247 5.5951
# 2 3.0554 82.4654 21.6400 -20.7006 -5.7690 6.1248
# 3 19.0558 21.6400 158.6070 -4.7391 -25.6766 0.2438
# 4 -3.3496 -20.7006 -4.7391 53.9021 7.9131 -0.3439
# 5 -5.8247 -5.7690 -25.6766 7.9131 31.0742 -3.6353
# 6 5.5951 6.1248 0.2438 -0.3439 -3.6353 20.7801
#
#
#
# Elastic Compliance Matrix: (Units=1/GPa)
#
#
# Indices 1 2 3 4 5 6 
#
# 1 0.031271 0.000933 -0.003546 0.001687 0.001701 -0.008328
# 2 0.000933 0.014265 -0.002010 0.005441 -0.000746 -0.004473
# 3 -0.003546 -0.002010 0.007959 -0.001177 0.006131 0.002507
# 4 0.001687 0.005441 -0.001177 0.021420 -0.005409 -0.002636
# 5 0.001701 -0.000746 0.006131 -0.005409 0.039568 0.006523
# 6 -0.008328 -0.004473 0.002507 -0.002636 0.006523 0.052752
#
#
# Mechanical properties :
#
#
# Convention : Reuss Voigt Hill
#
# Bulk Modulus (GPa) = 22.59904 40.51220 31.55562
# Shear Modulus (GPa) = 26.14650 36.70837 31.42743
#
# Velocity S-wave (km/s) = 3.20128 3.79314 3.50971
# Velocity P-wave (km/s) = 4.74573 5.92138 5.36585
#
# Compressibility (1/GPa) = 0.04424967
#
# Stress axis : x y z
#
# Youngs Moduli (GPa) = 31.97800 70.10275 125.64894
#
# Poissons Ratio (x) = -0.06539 0.44552
# Poissons Ratio (y) = -0.02983 0.25251
# Poissons Ratio (z) = 0.11339 0.14088
#
# Static dielectric constant tensor:
#      x y z
#    x 2.123030 0.061500 0.015200 
#    y 0.061500 2.029400 -0.012240 
#    z 0.015200 -0.012240 1.983880 
# 
# From -- ./inp_files/221940.got.cif
#   From: 2010.05.17/outbox.cif.g08.bks.cpg/sg2_111_cif.got.tgz:221940.got - 2010.06.03 11:33:40.
