data_PCOD9045966
_publ_section_title
;
Structure prediction by ZEFSAII (Michael W. Deem and Ramdas Pophale) SiO2 
 PCOD9045966
Probable space group: P -1
;
_chemical_formula_sum "Si O2"
_cell_formula_units_Z 13
_cell_length_a 14.414428
_cell_length_b 6.707725
_cell_length_c 14.563277
_cell_angle_alpha 50.658457
_cell_angle_beta 31.069199
_cell_angle_gamma 68.086051
_cell_volume 508.613117
_symmetry_space_group_name_H-M "P -1"
_symmetry_group_IT_number 2
_symmetry_cell_setting 'triclinic'
loop_
_space_group_symop_operation_xyz
x,y,z
-x,-y,-z
loop_
_atom_site_type_symbol
_atom_site_label
_atom_site_fract_x
_atom_site_fract_y
_atom_site_fract_z
Si Si1 0.500000 0.000000 0.500000
Si Si2 0.485365 0.266967 0.814071
Si Si3 0.153311 0.710898 0.733973
Si Si4 0.113757 0.023906 0.089560
Si Si5 0.075208 0.436010 0.359347
Si Si6 0.688713 0.883912 0.791321
Si Si7 0.203793 0.257883 0.692591
O O1 0.649100 0.103664 0.432490
O O2 0.345012 0.114134 0.646990
O O3 0.677788 0.558548 0.552004
O O4 0.540849 0.999404 0.837825
O O5 0.388993 0.234075 0.006033
O O6 0.328267 0.256096 0.871922
O O7 0.190606 0.510998 0.687924
O O8 0.038702 0.897858 0.741797
O O9 0.000000 0.500000 0.000000
O O10 0.127739 0.726985 0.176686
O O11 0.008355 0.977406 0.093790
O O12 0.253979 0.342204 0.242418
O O13 0.000000 0.500000 0.500000
O O14 0.891295 0.171812 0.547946
#
# Coordination Sequence:
#
# PCOD9045966 Si02
#       7
#     1   2   2   2   2   2   2
#     4  10  24  48  70 102 124 176 216 274 344 402
#     4  11  23  44  64 101 134 181 222 272 327 387
#     4  11  26  47  72  99 134 171 217 282 338 399
#     4  11  25  41  67 104 128 180 224 265 338 393
#     4  11  22  43  66  96 136 180 224 269 327 388
#     4  10  24  42  65  93 144 178 221 278 318 380
#     4  11  25  46  70  98 138 168 222 281 330 401
#
# _framework density 25.559702999999999
#
# number of rings (size 3 to 8) (size 9 to 14) (size 15 to 20)
#    0.000    1.231    3.077    1.385    4.308    4.308 
#    8.308    0.000    0.000    0.000    0.000    0.000 
#    0.000    0.000    0.000    0.000    0.000    0.000 
#
# Total GULP energy -72482.884229 kJ/mol
# GULP energy per Si atom -5575.606479 kJ/mol
# Density = 2.550153 g / cm^3
# Si number density = 25.559703 Si / 1000 Ang^3
#
#
#
# Elastic Constant Matrix: (Units=GPa)
#
#
# Indices 1 2 3 4 5 6 
#
# 1 97.5726 38.9376 21.8881 18.7089 -38.5109 -9.4394
# 2 38.9376 210.0107 40.8697 44.3447 -21.5662 -9.2588
# 3 21.8881 40.8697 63.5410 18.9654 -7.9789 -10.2343
# 4 18.7089 44.3447 18.9654 48.8474 -14.2692 -14.7076
# 5 -38.5109 -21.5662 -7.9789 -14.2692 39.3908 2.1061
# 6 -9.4394 -9.2588 -10.2343 -14.7076 2.1061 36.6842
#
#
#
# Elastic Compliance Matrix: (Units=1/GPa)
#
#
# Indices 1 2 3 4 5 6 
#
# 1 0.018063 -0.001106 -0.003277 0.001103 0.016632 0.002942
# 2 -0.001106 0.006429 -0.002510 -0.004741 0.000281 -0.001279
# 3 -0.003277 -0.002510 0.019823 -0.004021 -0.002156 0.002566
# 4 0.001103 -0.004741 -0.004021 0.031438 0.008517 0.010081
# 5 0.016632 0.000281 -0.002156 0.008517 0.044202 0.004626
# 6 0.002942 -0.001279 0.002566 0.010081 0.004626 0.032186
#
#
# Mechanical properties :
#
#
# Convention : Reuss Voigt Hill
#
# Bulk Modulus (GPa) = 32.75619 63.83503 48.29561
# Shear Modulus (GPa) = 28.39224 42.94641 35.66933
#
# Velocity S-wave (km/s) = 3.33651 4.10352 3.73973
# Velocity P-wave (km/s) = 5.26179 6.89064 6.13055
#
# Compressibility (1/GPa) = 0.03052858
#
# Stress axis : x y z
#
# Youngs Moduli (GPa) = 55.36101 155.55199 50.44523
#
# Poissons Ratio (x) = 0.17211 0.16533
# Poissons Ratio (y) = 0.06125 0.12659
# Poissons Ratio (z) = 0.18144 0.39036
#
# Static dielectric constant tensor:
#      x y z
#    x 2.205720 -0.104580 0.168070 
#    y -0.104580 2.103660 -0.050980 
#    z 0.168070 -0.050980 2.128270 
# 
# From -- ./inp_files/525194.got.cif
#   From: 2010.05.17/outbox.cif.g08.bks.cpg/sg2_263_cif.got.tgz:525194.got - 2010.06.03 11:33:40.
