data_PCOD9045331
_publ_section_title
;
Structure prediction by ZEFSAII (Michael W. Deem and Ramdas Pophale) SiO2 
 PCOD9045331
Probable space group: P -1
;
_chemical_formula_sum "Si O2"
_cell_formula_units_Z 10
_cell_length_a 5.015364
_cell_length_b 11.373332
_cell_length_c 11.163310
_cell_angle_alpha 49.665365
_cell_angle_beta 58.545026
_cell_angle_gamma 87.594445
_cell_volume 368.751768
_symmetry_space_group_name_H-M "P -1"
_symmetry_group_IT_number 2
_symmetry_cell_setting 'triclinic'
loop_
_space_group_symop_operation_xyz
x,y,z
-x,-y,-z
loop_
_atom_site_type_symbol
_atom_site_label
_atom_site_fract_x
_atom_site_fract_y
_atom_site_fract_z
Si Si1 0.662753 0.750471 0.297223
Si Si2 0.439107 0.944195 0.914469
Si Si3 0.067653 0.492707 0.141870
Si Si4 0.800510 0.815701 0.739420
Si Si5 0.650652 0.512990 0.659798
O O1 0.743815 0.682310 0.446475
O O2 0.391072 0.620443 0.349519
O O3 0.529661 0.888709 0.272644
O O4 0.024288 0.820516 0.092076
O O5 0.696631 0.872845 0.851919
O O6 0.500000 0.000000 0.000000
O O7 0.000269 0.302723 0.236920
O O8 0.136125 0.487205 0.272977
O O9 0.734380 0.524822 0.179143
O O10 0.411030 0.658754 0.900476
O O11 0.000000 0.000000 0.500000
#
# Coordination Sequence:
#
# PCOD9045331 Si02
#       5
#     2   2   2   2   2
#     4  10  24  39  73 102 141 188 236 295 362 420
#     4  11  23  45  68 106 144 182 242 298 351 428
#     4  11  26  49  72 105 147 185 243 294 353 428
#     4  11  25  46  74 106 145 193 238 294 359 425
#     4  11  24  47  73 105 140 190 238 297 357 423
#
# _framework density 27.118514999999999
#
# number of rings (size 3 to 8) (size 9 to 14) (size 15 to 20)
#    0.000    1.200    2.000    2.400    5.600    4.800 
#    7.200    3.000    0.000    0.000    0.000    0.000 
#    0.000    0.000    0.000    0.000    0.000    0.000 
#
# Total GULP energy -55936.675522 kJ/mol
# GULP energy per Si atom -5593.667552 kJ/mol
# Density = 2.705679 g / cm^3
# Si number density = 27.118515 Si / 1000 Ang^3
#
#
#
# Elastic Constant Matrix: (Units=GPa)
#
#
# Indices 1 2 3 4 5 6 
#
# 1 114.3128 44.4596 25.1278 8.7386 38.0523 16.8599
# 2 44.4596 178.8796 55.9499 -0.3823 10.1955 -10.5252
# 3 25.1278 55.9499 153.5613 -12.8516 15.4546 4.6848
# 4 8.7386 -0.3823 -12.8516 51.0271 -5.3040 6.9804
# 5 38.0523 10.1955 15.4546 -5.3040 35.6178 8.7644
# 6 16.8599 -10.5252 4.6848 6.9804 8.7644 41.4756
#
#
#
# Elastic Compliance Matrix: (Units=1/GPa)
#
#
# Indices 1 2 3 4 5 6 
#
# 1 0.016214 -0.003294 -0.000066 -0.004039 -0.016132 -0.003331
# 2 -0.003294 0.007243 -0.002384 -0.000236 0.001675 0.003132
# 3 -0.000066 -0.002384 0.007797 0.001934 -0.002008 -0.001360
# 4 -0.004039 -0.000236 0.001934 0.022138 0.007829 -0.004017
# 5 -0.016132 0.001675 -0.002008 0.007829 0.047910 -0.004232
# 6 -0.003331 0.003132 -0.001360 -0.004017 -0.004232 0.027983
#
#
# Mechanical properties :
#
#
# Convention : Reuss Voigt Hill
#
# Bulk Modulus (GPa) = 50.59212 77.53649 64.06431
# Shear Modulus (GPa) = 33.93023 47.03854 40.48438
#
# Velocity S-wave (km/s) = 3.54104 4.16932 3.86796
# Velocity P-wave (km/s) = 5.95106 7.19940 6.60479
#
# Compressibility (1/GPa) = 0.01976592
#
# Stress axis : x y z
#
# Youngs Moduli (GPa) = 61.67578 138.06168 128.25771
#
# Poissons Ratio (x) = 0.45484 0.00842
# Poissons Ratio (y) = 0.20319 0.30574
# Poissons Ratio (z) = 0.00405 0.32912
#
# Static dielectric constant tensor:
#      x y z
#    x 2.144770 0.003680 -0.065040 
#    y 0.003680 2.182940 -0.058780 
#    z -0.065040 -0.058780 2.257000 
# 
# From -- ./inp_files/72338.got.cif
#   From: 2010.05.17/outbox.cif.g08.bks.cpg/sg2_37_cif.got.tgz:72338.got - 2010.06.03 11:33:40.
