data_PCOD9045756
_publ_section_title
;
Structure prediction by ZEFSAII (Michael W. Deem and Ramdas Pophale) SiO2 
 PCOD9045756
Probable space group: P -1
;
_chemical_formula_sum "Si O2"
_cell_formula_units_Z 16
_cell_length_a 8.582861
_cell_length_b 15.521077
_cell_length_c 21.543682
_cell_angle_alpha 158.987612
_cell_angle_beta 74.329240
_cell_angle_gamma 116.604495
_cell_volume 816.299452
_symmetry_space_group_name_H-M "P -1"
_symmetry_group_IT_number 2
_symmetry_cell_setting 'triclinic'
loop_
_space_group_symop_operation_xyz
x,y,z
-x,-y,-z
loop_
_atom_site_type_symbol
_atom_site_label
_atom_site_fract_x
_atom_site_fract_y
_atom_site_fract_z
Si Si1 0.413496 0.718046 0.058902
Si Si2 0.586935 0.334299 0.410205
Si Si3 0.870404 0.810731 0.788250
Si Si4 0.845703 0.951107 0.200194
Si Si5 0.106725 0.335850 0.734647
Si Si6 0.929903 0.455133 0.361633
Si Si7 0.726237 0.228701 0.107430
Si Si8 0.869100 0.470332 0.935769
O O1 0.624852 0.773443 0.079333
O O2 0.344026 0.710987 0.131898
O O3 0.432126 0.993976 0.209753
O O4 0.261858 0.441626 0.846425
O O5 0.500000 0.500000 0.500000
O O6 0.681984 0.502566 0.577421
O O7 0.755229 0.356809 0.363961
O O8 0.989084 0.748234 0.782161
O O9 0.011392 0.933688 0.796202
O O10 0.808556 0.028235 0.955466
O O11 0.898234 0.766934 0.111732
O O12 0.896023 0.227463 0.420719
O O13 0.224047 0.569862 0.823371
O O14 0.934454 0.361258 0.798127
O O15 0.000000 0.000000 0.500000
O O16 0.843027 0.443887 0.296871
O O17 0.500000 0.000000 0.000000
O O18 0.000000 0.500000 0.000000
#
# Coordination Sequence:
#
# PCOD9045756 Si02
#       8
#     2   2   2   2   2   2   2   2
#     4  11  22  42  69  95 127 169 228 267 317 396
#     4  11  21  36  66 102 129 163 222 277 320 381
#     4  11  21  42  64  97 135 171 207 277 340 381
#     4  11  21  43  68  95 129 167 221 274 325 385
#     4  11  26  47  63  95 137 177 216 269 333 388
#     4  11  23  39  66  98 135 170 210 270 343 384
#     4  12  26  43  67  97 136 178 222 267 328 401
#     4  10  24  41  68  92 124 173 219 271 320 380
#
# _framework density 19.600650999999999
#
# number of rings (size 3 to 8) (size 9 to 14) (size 15 to 20)
#    0.000    1.000    3.750    3.750    8.750    1.000 
#    0.000    0.625    0.000    0.000    0.000    0.000 
#    0.000    0.000    0.000    0.000    0.000    0.000 
#
# Total GULP energy -89268.000642 kJ/mol
# GULP energy per Si atom -5579.250040 kJ/mol
# Density = 1.955604 g / cm^3
# Si number density = 19.600651 Si / 1000 Ang^3
#
#
#
# Elastic Constant Matrix: (Units=GPa)
#
#
# Indices 1 2 3 4 5 6 
#
# 1 89.2852 24.7285 37.8591 5.1953 -7.6775 -2.4574
# 2 24.7285 92.6161 36.5756 0.7690 0.3687 -0.9143
# 3 37.8591 36.5756 104.0394 0.7150 -3.0924 6.9110
# 4 5.1953 0.7690 0.7150 24.4916 -5.1845 -4.4286
# 5 -7.6775 0.3687 -3.0924 -5.1845 38.7300 0.2991
# 6 -2.4574 -0.9143 6.9110 -4.4286 0.2991 32.3190
#
#
#
# Elastic Compliance Matrix: (Units=1/GPa)
#
#
# Indices 1 2 3 4 5 6 
#
# 1 0.013967 -0.001956 -0.004427 -0.002017 0.002151 0.001657
# 2 -0.001956 0.012877 -0.003912 0.000148 -0.000811 0.001080
# 3 -0.004427 -0.003912 0.012814 0.000164 0.000229 -0.003167
# 4 -0.002017 0.000148 0.000164 0.043421 0.005380 0.005716
# 5 0.002151 -0.000811 0.000229 0.005380 0.026988 0.000579
# 6 0.001657 0.001080 -0.003167 0.005716 0.000579 0.032553
#
#
# Mechanical properties :
#
#
# Convention : Reuss Voigt Hill
#
# Bulk Modulus (GPa) = 52.44520 53.80746 53.12633
# Shear Modulus (GPa) = 29.48684 31.55994 30.52339
#
# Velocity S-wave (km/s) = 3.88284 4.01702 3.95050
# Velocity P-wave (km/s) = 6.84959 7.00191 6.92617
#
# Compressibility (1/GPa) = 0.01906752
#
# Stress axis : x y z
#
# Youngs Moduli (GPa) = 71.59744 77.65675 78.03952
#
# Poissons Ratio (x) = 0.15193 0.34548
# Poissons Ratio (y) = 0.14007 0.30529
# Poissons Ratio (z) = 0.31696 0.30379
#
# Static dielectric constant tensor:
#      x y z
#    x 1.751990 -0.007040 0.013440 
#    y -0.007040 1.736950 0.009840 
#    z 0.013440 0.009840 1.684080 
# 
# From -- ./inp_files/222861.got.cif
#   From: 2010.05.17/outbox.cif.g08.bks.cpg/sg2_112_cif.got.tgz:222861.got - 2010.06.03 11:33:40.
