data_PCOD9045249
_publ_section_title
;
Structure prediction by ZEFSAII (Michael W. Deem and Ramdas Pophale) SiO2 
 PCOD9045249
Probable space group: P -1
;
_chemical_formula_sum "Si O2"
_cell_formula_units_Z 13
_cell_length_a 9.906092
_cell_length_b 9.371362
_cell_length_c 15.933411
_cell_angle_alpha 54.146431
_cell_angle_beta 129.752516
_cell_angle_gamma 149.904858
_cell_volume 568.208700
_symmetry_space_group_name_H-M "P -1"
_symmetry_group_IT_number 2
_symmetry_cell_setting 'triclinic'
loop_
_space_group_symop_operation_xyz
x,y,z
-x,-y,-z
loop_
_atom_site_type_symbol
_atom_site_label
_atom_site_fract_x
_atom_site_fract_y
_atom_site_fract_z
Si Si1 0.977491 0.508381 0.823264
Si Si2 0.456926 0.116706 0.871984
Si Si3 0.000000 0.000000 0.500000
Si Si4 0.544190 0.824873 0.585059
Si Si5 0.823926 0.703819 0.070640
Si Si6 0.180012 0.279795 0.740101
Si Si7 0.614290 0.377514 0.594340
O O1 0.798356 0.372904 0.712774
O O2 0.231621 0.846012 0.814495
O O3 0.104045 0.414390 0.911192
O O4 0.755172 0.377993 0.853293
O O5 0.330740 0.207140 0.817580
O O6 0.500000 0.000000 0.000000
O O7 0.295314 0.122066 0.590523
O O8 0.201421 0.302573 0.425076
O O9 0.381721 0.591603 0.674288
O O10 0.403619 0.646391 0.504672
O O11 0.500000 0.000000 0.500000
O O12 0.881015 0.049334 0.649484
O O13 0.880833 0.730644 0.183198
O O14 0.500000 0.500000 0.000000
O O15 0.000000 0.000000 0.000000
#
# Coordination Sequence:
#
# PCOD9045249 Si02
#       7
#     2   2   1   2   2   2   2
#     4  12  26  44  75 102 143 189 240 295 364 430
#     4  12  27  47  71 109 145 182 242 312 368 427
#     4  10  24  38  66  92 140 174 230 278 334 414
#     4  12  27  46  71 105 151 188 243 299 357 444
#     4  12  26  49  75 104 141 192 251 303 357 439
#     4  12  27  46  76 106 145 199 238 297 383 430
#     4  11  25  42  68 101 141 181 238 279 354 422
#
# _framework density 22.878917999999999
#
# number of rings (size 3 to 8) (size 9 to 14) (size 15 to 20)
#    0.000    0.308    0.000    8.308   12.923    2.462 
#    0.000    0.000    0.000    0.000    0.000    0.000 
#    0.000    0.000    0.000    0.000    0.000    0.000 
#
# Total GULP energy -72504.587043 kJ/mol
# GULP energy per Si atom -5577.275926 kJ/mol
# Density = 2.282684 g / cm^3
# Si number density = 22.878918 Si / 1000 Ang^3
#
#
#
# Elastic Constant Matrix: (Units=GPa)
#
#
# Indices 1 2 3 4 5 6 
#
# 1 101.9606 16.5257 32.3749 -13.5764 27.3148 0.7448
# 2 16.5257 91.3348 26.8302 -18.9771 -3.4316 23.3598
# 3 32.3749 26.8302 128.0233 -7.8840 11.7050 5.2237
# 4 -13.5764 -18.9771 -7.8840 52.9446 4.3846 5.1099
# 5 27.3148 -3.4316 11.7050 4.3846 29.9417 -0.1046
# 6 0.7448 23.3598 5.2237 5.1099 -0.1046 37.7970
#
#
#
# Elastic Compliance Matrix: (Units=1/GPa)
#
#
# Indices 1 2 3 4 5 6 
#
# 1 0.014905 -0.002014 -0.001885 0.003888 -0.013658 0.000648
# 2 -0.002014 0.015915 -0.002415 0.005500 0.003764 -0.010195
# 3 -0.001885 -0.002415 0.008982 0.000136 -0.002087 0.000264
# 4 0.003888 0.005500 0.000136 0.023043 -0.006367 -0.006628
# 5 -0.013658 0.003764 -0.002087 -0.006367 0.048035 -0.000775
# 6 0.000648 -0.010195 0.000264 -0.006628 -0.000775 0.033603
#
#
# Mechanical properties :
#
#
# Convention : Reuss Voigt Hill
#
# Bulk Modulus (GPa) = 36.80262 52.53115 44.66689
# Shear Modulus (GPa) = 30.08976 40.50919 35.29948
#
# Velocity S-wave (km/s) = 3.63047 4.21240 3.93222
# Velocity P-wave (km/s) = 5.80469 6.83151 6.33893
#
# Compressibility (1/GPa) = 0.02717198
#
# Stress axis : x y z
#
# Youngs Moduli (GPa) = 67.09335 62.83566 111.32809
#
# Poissons Ratio (x) = 0.12656 0.20989
# Poissons Ratio (y) = 0.13513 0.26890
# Poissons Ratio (z) = 0.12649 0.15177
#
# Static dielectric constant tensor:
#      x y z
#    x 1.884540 -0.053400 0.027160 
#    y -0.053400 1.777810 0.034930 
#    z 0.027160 0.034930 1.963380 
# 
# From -- ./inp_files/494540.got.cif
#   From: 2010.05.17/outbox.cif.g08.bks.cpg/sg2_248_cif.got.tgz:494540.got - 2010.06.03 11:33:40.
