data_PCOD9045866
_publ_section_title
;
Structure prediction by ZEFSAII (Michael W. Deem and Ramdas Pophale) SiO2 
 PCOD9045866
Probable space group: P -1
;
_chemical_formula_sum "Si O2"
_cell_formula_units_Z 14
_cell_length_a 8.145726
_cell_length_b 13.594252
_cell_length_c 11.327079
_cell_angle_alpha 85.105317
_cell_angle_beta 121.563001
_cell_angle_gamma 48.691602
_cell_volume 593.676452
_symmetry_space_group_name_H-M "P -1"
_symmetry_group_IT_number 2
_symmetry_cell_setting 'triclinic'
loop_
_space_group_symop_operation_xyz
x,y,z
-x,-y,-z
loop_
_atom_site_type_symbol
_atom_site_label
_atom_site_fract_x
_atom_site_fract_y
_atom_site_fract_z
Si Si1 0.180698 0.615872 0.783369
Si Si2 0.924884 0.926119 0.629002
Si Si3 0.727387 0.242222 0.791486
Si Si4 0.668806 0.662741 0.585428
Si Si5 0.853308 0.789206 0.174888
Si Si6 0.363405 0.825462 0.997682
Si Si7 0.760248 0.300825 0.438291
O O1 0.283465 0.598012 0.689009
O O2 0.904910 0.822472 0.682591
O O3 0.012711 0.580490 0.736978
O O4 0.500000 0.500000 0.000000
O O5 0.998257 0.880107 0.523096
O O6 0.619874 0.128956 0.523832
O O7 0.261175 0.826540 0.832303
O O8 0.414638 0.346447 0.574856
O O9 0.648819 0.249689 0.895411
O O10 0.880483 0.284646 0.815202
O O11 0.047668 0.034074 0.893727
O O12 0.565587 0.620827 0.642680
O O13 0.717292 0.736040 0.136075
O O14 0.034239 0.742956 0.369568
O O15 0.500000 0.000000 0.000000
#
# Coordination Sequence:
#
# PCOD9045866 Si02
#       7
#     2   2   2   2   2   2   2
#     4  10  22  36  51  76 106 144 180 208 260 316
#     4   9  20  34  51  83 109 132 173 219 265 306
#     4   8  16  26  46  72  99 135 164 197 258 315
#     4  10  17  34  55  77 105 135 171 225 263 298
#     4   9  16  28  47  74 104 135 163 203 264 312
#     4   9  15  29  44  70 108 129 161 207 251 304
#     4   9  20  33  53  80 108 136 173 213 263 315
#
# _framework density 23.581869000000001
#
# number of rings (size 3 to 8) (size 9 to 14) (size 15 to 20)
#    0.857    2.000    0.000    2.571    0.000    1.714 
#    2.571    0.000    0.000    3.429    0.000    4.000 
#    0.000    0.000    0.000    0.000    0.000    0.000 
#
# Total GULP energy -78211.093691 kJ/mol
# GULP energy per Si atom -5586.506692 kJ/mol
# Density = 2.352820 g / cm^3
# Si number density = 23.581869 Si / 1000 Ang^3
#
#
#
# Elastic Constant Matrix: (Units=GPa)
#
#
# Indices 1 2 3 4 5 6 
#
# 1 182.6049 32.3494 103.5179 15.5902 26.4428 36.8881
# 2 32.3494 76.7733 15.1505 -7.6260 5.9539 13.4443
# 3 103.5179 15.1505 123.7172 5.4531 26.8968 2.3084
# 4 15.5902 -7.6260 5.4531 24.0745 8.4317 -2.6558
# 5 26.4428 5.9539 26.8968 8.4317 45.0508 -1.2664
# 6 36.8881 13.4443 2.3084 -2.6558 -1.2664 37.8565
#
#
#
# Elastic Compliance Matrix: (Units=1/GPa)
#
#
# Indices 1 2 3 4 5 6 
#
# 1 0.018571 -0.003175 -0.014265 -0.011571 -0.000274 -0.016919
# 2 -0.003175 0.015413 0.000956 0.007257 -0.002159 -0.002001
# 3 -0.014265 0.000956 0.020416 0.008105 -0.005103 0.012713
# 4 -0.011571 0.007257 0.008105 0.053850 -0.008756 0.011689
# 5 -0.000274 -0.002159 -0.005103 -0.008756 0.027375 0.001646
# 6 -0.016919 -0.002001 0.012713 0.011689 0.001646 0.043712
#
#
# Mechanical properties :
#
#
# Convention : Reuss Voigt Hill
#
# Bulk Modulus (GPa) = 46.65728 76.12565 61.39146
# Shear Modulus (GPa) = 22.78422 36.86823 29.82622
#
# Velocity S-wave (km/s) = 3.11171 3.95829 3.56025
# Velocity P-wave (km/s) = 5.72176 7.29673 6.55671
#
# Compressibility (1/GPa) = 0.02143288
#
# Stress axis : x y z
#
# Youngs Moduli (GPa) = 53.84779 64.87867 48.98042
#
# Poissons Ratio (x) = 0.20601 0.69869
# Poissons Ratio (y) = 0.17099 -0.04683
# Poissons Ratio (z) = 0.76812 -0.06203
#
# Static dielectric constant tensor:
#      x y z
#    x 1.850250 0.113810 -0.017440 
#    y 0.113810 1.675040 0.031800 
#    z -0.017440 0.031800 1.793410 
# 
# From -- ./inp_files/264965.got.cif
#   From: 2010.05.17/outbox.cif.g08.bks.cpg/sg2_133_cif.got.tgz:264965.got - 2010.06.03 11:33:40.
