data_PCOD9045093
_publ_section_title
;
Structure prediction by ZEFSAII (Michael W. Deem and Ramdas Pophale) SiO2 
 PCOD9045093
Probable space group: P -1
;
_chemical_formula_sum "Si O2"
_cell_formula_units_Z 14
_cell_length_a 8.250039
_cell_length_b 11.282940
_cell_length_c 16.188541
_cell_angle_alpha 147.107437
_cell_angle_beta 58.390728
_cell_angle_gamma 102.061258
_cell_volume 603.658460
_symmetry_space_group_name_H-M "P -1"
_symmetry_group_IT_number 2
_symmetry_cell_setting 'triclinic'
loop_
_space_group_symop_operation_xyz
x,y,z
-x,-y,-z
loop_
_atom_site_type_symbol
_atom_site_label
_atom_site_fract_x
_atom_site_fract_y
_atom_site_fract_z
Si Si1 0.395609 0.289235 0.521490
Si Si2 0.399737 0.255754 0.123130
Si Si3 0.255019 0.871223 0.336942
Si Si4 0.163890 0.759800 0.594795
Si Si5 0.784770 0.244158 0.899807
Si Si6 0.575671 0.708780 0.298370
Si Si7 0.008843 0.758960 0.812681
O O1 0.333735 0.071571 0.411958
O O2 0.650451 0.196333 0.385154
O O3 0.372192 0.389243 0.679791
O O4 0.229669 0.511527 0.637698
O O5 0.282167 0.499552 0.358661
O O6 0.206039 0.262499 0.122827
O O7 0.599544 0.237715 0.004386
O O8 0.500000 0.000000 0.000000
O O9 0.283609 0.729204 0.161043
O O10 0.382781 0.728861 0.302155
O O11 0.000000 0.000000 0.500000
O O12 0.019788 0.763714 0.712884
O O13 0.011699 0.990492 0.709992
O O14 0.786001 0.498416 0.071597
O O15 0.500000 0.000000 0.500000
O O16 0.000000 0.000000 0.000000
#
# Coordination Sequence:
#
# PCOD9045093 Si02
#       7
#     2   2   2   2   2   2   2
#     4  11  24  45  73 102 148 189 232 305 364 421
#     4  12  26  46  76 107 153 192 242 292 362 443
#     4  11  26  46  74 107 140 189 252 306 358 429
#     4  12  25  47  74 108 154 188 243 294 365 449
#     4  12  25  47  79 105 142 197 238 302 373 420
#     4  10  23  49  70 101 141 181 246 301 353 426
#     4  12  26  43  71 114 149 192 239 292 364 445
#
# _framework density 23.191922999999999
#
# number of rings (size 3 to 8) (size 9 to 14) (size 15 to 20)
#    0.000    0.571    2.857    4.714    6.000    0.000 
#    0.000   10.000    0.000    0.000    0.000    0.000 
#    0.000    0.000    0.000    0.000    0.000    0.000 
#
# Total GULP energy -78190.401969 kJ/mol
# GULP energy per Si atom -5585.028712 kJ/mol
# Density = 2.313914 g / cm^3
# Si number density = 23.191923 Si / 1000 Ang^3
#
#
#
# Elastic Constant Matrix: (Units=GPa)
#
#
# Indices 1 2 3 4 5 6 
#
# 1 79.0613 24.9309 29.4774 9.3851 -21.4630 -4.2040
# 2 24.9309 51.3871 31.8422 -1.8385 -4.7397 -3.9536
# 3 29.4774 31.8422 135.1213 11.7026 5.0421 -1.3603
# 4 9.3851 -1.8385 11.7026 43.5983 -9.5341 -5.4176
# 5 -21.4630 -4.7397 5.0421 -9.5341 51.1033 -3.2320
# 6 -4.2040 -3.9536 -1.3603 -5.4176 -3.2320 62.1237
#
#
#
# Elastic Compliance Matrix: (Units=1/GPa)
#
#
# Indices 1 2 3 4 5 6 
#
# 1 0.017697 -0.006450 -0.002426 -0.001830 0.006791 0.000928
# 2 -0.006450 0.026164 -0.005159 0.004316 0.001130 0.001551
# 3 -0.002426 -0.005159 0.009512 -0.003001 -0.003040 -0.000704
# 4 -0.001830 0.004316 -0.003001 0.025708 0.004887 0.002581
# 5 0.006791 0.001130 -0.003040 0.004887 0.023872 0.002133
# 6 0.000928 0.001551 -0.000704 0.002581 0.002133 0.016579
#
#
# Mechanical properties :
#
#
# Convention : Reuss Voigt Hill
#
# Bulk Modulus (GPa) = 39.52173 48.67452 44.09813
# Shear Modulus (GPa) = 32.04361 43.31967 37.68164
#
# Velocity S-wave (km/s) = 3.72112 4.32658 4.03522
# Velocity P-wave (km/s) = 5.96158 6.78177 6.38486
#
# Compressibility (1/GPa) = 0.02530253
#
# Stress axis : x y z
#
# Youngs Moduli (GPa) = 56.50621 38.21999 105.12934
#
# Poissons Ratio (x) = 0.24653 0.25507
# Poissons Ratio (y) = 0.36448 0.54237
# Poissons Ratio (z) = 0.13710 0.19718
#
# Static dielectric constant tensor:
#      x y z
#    x 1.886700 0.055490 0.014240 
#    y 0.055490 1.901220 0.045650 
#    z 0.014240 0.045650 1.879600 
# 
# From -- ./inp_files/24554.got.cif
#   From: 2010.05.17/outbox.cif.g08.bks.cpg/sg2_13_cif.got.tgz:24554.got - 2010.06.03 11:33:40.
