data_PCOD9045691
_publ_section_title
;
Structure prediction by ZEFSAII (Michael W. Deem and Ramdas Pophale) SiO2 
 PCOD9045691
Probable space group: P -1
;
_chemical_formula_sum "Si O2"
_cell_formula_units_Z 14
_cell_length_a 6.685596
_cell_length_b 7.906223
_cell_length_c 18.007794
_cell_angle_alpha 137.965757
_cell_angle_beta 69.860088
_cell_angle_gamma 121.591222
_cell_volume 541.212053
_symmetry_space_group_name_H-M "P -1"
_symmetry_group_IT_number 2
_symmetry_cell_setting 'triclinic'
loop_
_space_group_symop_operation_xyz
x,y,z
-x,-y,-z
loop_
_atom_site_type_symbol
_atom_site_label
_atom_site_fract_x
_atom_site_fract_y
_atom_site_fract_z
Si Si1 0.960042 0.590811 0.163166
Si Si2 0.293526 0.282884 0.006421
Si Si3 0.966324 0.988064 0.181421
Si Si4 0.444857 0.357361 0.176240
Si Si5 0.329918 0.856626 0.405752
Si Si6 0.829126 0.439630 0.396896
Si Si7 0.307450 0.188169 0.377080
O O1 0.713709 0.434393 0.184804
O O2 0.106801 0.412270 0.085630
O O3 0.895117 0.679103 0.120348
O O4 0.127745 0.898199 0.271647
O O5 0.385237 0.245858 0.062904
O O6 0.500000 0.500000 0.000000
O O7 0.155992 0.021369 0.885196
O O8 0.245548 0.137450 0.181927
O O9 0.879984 0.167377 0.304422
O O10 0.411681 0.642409 0.283584
O O11 0.058407 0.671716 0.403397
O O12 0.500000 0.000000 0.500000
O O13 0.341267 0.091713 0.423973
O O14 0.569846 0.328860 0.356056
O O15 0.796237 0.585566 0.523774
#
# Coordination Sequence:
#
# PCOD9045691 Si02
#       7
#     2   2   2   2   2   2   2
#     4  12  25  45  72 100 135 183 228 280 344 406
#     4  12  24  48  72  97 142 180 228 283 341 402
#     4  11  25  44  67 102 136 181 230 281 337 405
#     4  11  25  45  70 103 137 181 227 284 341 398
#     4  11  23  43  68  99 139 181 225 281 339 409
#     4  10  24  41  66  98 138 176 225 280 338 398
#     4  11  23  42  68 100 137 181 226 281 343 401
#
# _framework density 25.867864999999998
#
# number of rings (size 3 to 8) (size 9 to 14) (size 15 to 20)
#    0.000    0.857    2.857    3.857    0.000    7.429 
#    2.571    0.000    0.000    0.000    0.000    0.000 
#    0.000    0.000    0.000    0.000    0.000    0.000 
#
# Total GULP energy -78455.793262 kJ/mol
# GULP energy per Si atom -5603.985233 kJ/mol
# Density = 2.580899 g / cm^3
# Si number density = 25.867865 Si / 1000 Ang^3
#
#
#
# Elastic Constant Matrix: (Units=GPa)
#
#
# Indices 1 2 3 4 5 6 
#
# 1 130.3053 55.4267 51.3999 -8.2384 4.1835 39.4224
# 2 55.4267 103.5250 -2.3162 3.0917 -7.2400 32.7806
# 3 51.3999 -2.3162 105.7277 -0.7906 13.1053 10.1167
# 4 -8.2384 3.0917 -0.7906 27.9446 4.8710 0.4360
# 5 4.1835 -7.2400 13.1053 4.8710 58.0485 -5.6444
# 6 39.4224 32.7806 10.1167 0.4360 -5.6444 65.0335
#
#
#
# Elastic Compliance Matrix: (Units=1/GPa)
#
#
# Indices 1 2 3 4 5 6 
#
# 1 0.015207 -0.007047 -0.006888 0.005374 -0.001332 -0.004747
# 2 -0.007047 0.014905 0.003898 -0.003811 0.001447 -0.003697
# 3 -0.006888 0.003898 0.013103 -0.001774 -0.001824 0.000026
# 4 0.005374 -0.003811 -0.001774 0.038438 -0.003848 -0.001653
# 5 -0.001332 0.001447 -0.001824 -0.003848 0.018431 0.001988
# 6 -0.004747 -0.003697 0.000026 -0.001653 0.001988 0.020297
#
#
# Mechanical properties :
#
#
# Convention : Reuss Voigt Hill
#
# Bulk Modulus (GPa) = 43.21146 60.95319 52.08232
# Shear Modulus (GPa) = 33.74554 45.87515 39.81034
#
# Velocity S-wave (km/s) = 3.61575 4.21579 3.92725
# Velocity P-wave (km/s) = 5.84573 6.87835 6.38295
#
# Compressibility (1/GPa) = 0.02314201
#
# Stress axis : x y z
#
# Youngs Moduli (GPa) = 65.75807 67.09162 76.32054
#
# Poissons Ratio (x) = 0.47277 0.52569
# Poissons Ratio (y) = 0.46337 -0.29751
# Poissons Ratio (z) = 0.45294 -0.26153
#
# Static dielectric constant tensor:
#      x y z
#    x 2.064690 -0.026860 0.063800 
#    y -0.026860 1.995980 -0.030020 
#    z 0.063800 -0.030020 2.034620 
# 
# From -- ./inp_files/340728.got.cif
#   From: 2010.05.17/outbox.cif.g08.bks.cpg/sg2_171_cif.got.tgz:340728.got - 2010.06.03 11:33:40.
