data_PCOD9045931
_publ_section_title
;
Structure prediction by ZEFSAII (Michael W. Deem and Ramdas Pophale) SiO2 
 PCOD9045931
Probable space group: P -1
;
_chemical_formula_sum "Si O2"
_cell_formula_units_Z 15
_cell_length_a 12.280746
_cell_length_b 26.978278
_cell_length_c 12.150936
_cell_angle_alpha 29.923146
_cell_angle_beta 23.088248
_cell_angle_gamma 26.575496
_cell_volume 683.715107
_symmetry_space_group_name_H-M "P -1"
_symmetry_group_IT_number 2
_symmetry_cell_setting 'triclinic'
loop_
_space_group_symop_operation_xyz
x,y,z
-x,-y,-z
loop_
_atom_site_type_symbol
_atom_site_label
_atom_site_fract_x
_atom_site_fract_y
_atom_site_fract_z
Si Si1 0.096830 0.885118 0.066468
Si Si2 0.618526 0.833501 0.497916
Si Si3 0.730518 0.270365 0.238969
Si Si4 0.442645 0.121383 0.779158
Si Si5 0.411580 0.564257 0.750082
Si Si6 0.144402 0.407682 0.352578
Si Si7 0.701284 0.345377 0.558733
Si Si8 0.000000 0.500000 0.000000
O O1 0.169299 0.784577 0.278193
O O2 0.821153 0.891859 0.231578
O O3 0.383443 0.853117 0.777657
O O4 0.000000 0.000000 0.000000
O O5 0.465926 0.883748 0.424293
O O6 0.828309 0.697516 0.540461
O O7 0.645711 0.174047 0.545191
O O8 0.744922 0.347102 0.175785
O O9 0.425513 0.352638 0.287795
O O10 0.064337 0.210841 0.977201
O O11 0.500000 0.000000 0.000000
O O12 0.399646 0.627594 0.527030
O O13 0.785192 0.479149 0.593592
O O14 0.226146 0.492430 0.044184
O O15 0.388120 0.421486 0.775245
O O16 0.961763 0.384439 0.258994
#
# Coordination Sequence:
#
# PCOD9045931 Si02
#       8
#     2   2   2   2   2   2   2   1
#     4  12  27  46  68  95 137 180 229 283 336 402
#     4  11  25  44  68  96 127 178 227 273 336 408
#     4  11  23  43  63 101 139 171 219 277 340 421
#     4  11  24  44  70  99 127 177 227 281 333 398
#     4  12  24  38  66 100 136 179 214 277 347 397
#     4  11  23  40  66  98 135 177 220 270 341 418
#     4  11  26  41  65 100 130 177 229 272 347 386
#     4  10  24  42  64  92 138 162 226 292 322 392
#
# _framework density 21.938962
#
# number of rings (size 3 to 8) (size 9 to 14) (size 15 to 20)
#    0.000    0.800    0.000    8.000   11.200    2.133 
#    0.000    0.000    0.000    0.000    0.000    0.000 
#    0.000    0.000    0.000    0.000    0.000    0.000 
#
# Total GULP energy -83721.088473 kJ/mol
# GULP energy per Si atom -5581.405898 kJ/mol
# Density = 2.188903 g / cm^3
# Si number density = 21.938962 Si / 1000 Ang^3
#
#
#
# Elastic Constant Matrix: (Units=GPa)
#
#
# Indices 1 2 3 4 5 6 
#
# 1 66.2600 32.6753 13.7245 -13.9636 8.7930 18.1790
# 2 32.6753 111.7916 42.1144 -22.7091 10.8107 20.9840
# 3 13.7245 42.1144 163.7171 -12.3838 -11.9220 14.5254
# 4 -13.9636 -22.7091 -12.3838 48.7852 -7.9855 -2.9999
# 5 8.7930 10.8107 -11.9220 -7.9855 29.2306 -6.4439
# 6 18.1790 20.9840 14.5254 -2.9999 -6.4439 34.3626
#
#
#
# Elastic Compliance Matrix: (Units=1/GPa)
#
#
# Indices 1 2 3 4 5 6 
#
# 1 0.020860 -0.002787 -0.000416 0.002812 -0.006896 -0.010206
# 2 -0.002787 0.013180 -0.002766 0.003338 -0.005612 -0.006166
# 3 -0.000416 -0.002766 0.007282 0.001143 0.004375 -0.000249
# 4 0.002812 0.003338 0.001143 0.023846 0.004669 -0.001051
# 5 -0.006896 -0.005612 0.004375 0.004669 0.044502 0.013978
# 6 -0.010206 -0.006166 -0.000249 -0.001051 0.013978 0.040901
#
#
# Mechanical properties :
#
#
# Convention : Reuss Voigt Hill
#
# Bulk Modulus (GPa) = 34.03167 57.64414 45.83790
# Shear Modulus (GPa) = 29.01887 39.35931 34.18909
#
# Velocity S-wave (km/s) = 3.64085 4.24020 3.95191
# Velocity P-wave (km/s) = 5.76369 7.09255 6.46236
#
# Compressibility (1/GPa) = 0.02938439
#
# Stress axis : x y z
#
# Youngs Moduli (GPa) = 47.93836 75.87391 137.33324
#
# Poissons Ratio (x) = 0.21145 0.05711
# Poissons Ratio (y) = 0.13360 0.37984
# Poissons Ratio (z) = 0.01993 0.20986
#
# Static dielectric constant tensor:
#      x y z
#    x 1.860640 -0.023850 0.017790 
#    y -0.023850 1.801250 -0.033410 
#    z 0.017790 -0.033410 1.763520 
# 
# From -- ./inp_files/439535.got.cif
#   From: 2010.05.17/outbox.cif.g08.bks.cpg/sg2_220_cif.got.tgz:439535.got - 2010.06.03 11:33:40.
