data_PCOD9045350
_publ_section_title
;
Structure prediction by ZEFSAII (Michael W. Deem and Ramdas Pophale) SiO2 
 PCOD9045350
Probable space group: P -1
;
_chemical_formula_sum "Si O2"
_cell_formula_units_Z 12
_cell_length_a 4.985839
_cell_length_b 16.350046
_cell_length_c 8.618176
_cell_angle_alpha 41.492488
_cell_angle_beta 107.930184
_cell_angle_gamma 110.104715
_cell_volume 435.652357
_symmetry_space_group_name_H-M "P -1"
_symmetry_group_IT_number 2
_symmetry_cell_setting 'triclinic'
loop_
_space_group_symop_operation_xyz
x,y,z
-x,-y,-z
loop_
_atom_site_type_symbol
_atom_site_label
_atom_site_fract_x
_atom_site_fract_y
_atom_site_fract_z
Si Si1 0.311802 0.647828 0.391511
Si Si2 0.430711 0.978374 0.196662
Si Si3 0.588407 0.233458 0.062533
Si Si4 0.029244 0.231984 0.628419
Si Si5 0.787964 0.458503 0.165291
Si Si6 0.857332 0.857009 0.636385
O O1 0.084275 0.740408 0.257685
O O2 0.213968 0.529370 0.658670
O O3 0.638147 0.710477 0.409644
O O4 0.346504 0.648435 0.210312
O O5 0.102134 0.907331 0.249560
O O6 0.634899 0.886639 0.427341
O O7 0.488866 0.108101 0.116906
O O8 0.500000 0.000000 0.000000
O O9 0.337599 0.223902 0.154201
O O10 0.875705 0.213299 0.230140
O O11 0.838237 0.316670 0.384696
O O12 0.500000 0.500000 0.000000
O O13 0.000000 0.500000 0.000000
O O14 0.000000 0.000000 0.500000
#
# Coordination Sequence:
#
# PCOD9045350 Si02
#       6
#     2   2   2   2   2   2
#     4  10  20  33  54  84 108 143 186 220 284 325
#     4  11  21  38  56  84 117 152 186 236 270 323
#     4  11  22  40  54  78 120 154 191 222 264 339
#     4  10  21  32  52  87 110 139 186 224 288 318
#     4  10  17  34  53  81 114 135 173 237 289 331
#     4  10  23  38  53  77 111 162 195 219 268 322
#
# _framework density 27.544896999999999
#
# number of rings (size 3 to 8) (size 9 to 14) (size 15 to 20)
#    1.000    0.667    3.333    3.000    2.333    4.667 
#    0.000    0.000    0.000    0.000    0.000    7.000 
#    0.000    0.000    0.000    0.000    0.000    0.000 
#
# Total GULP energy -66976.593603 kJ/mol
# GULP energy per Si atom -5581.382800 kJ/mol
# Density = 2.748220 g / cm^3
# Si number density = 27.544897 Si / 1000 Ang^3
#
#
#
# Elastic Constant Matrix: (Units=GPa)
#
#
# Indices 1 2 3 4 5 6 
#
# 1 188.7744 33.2897 38.7199 -4.0497 -20.0874 36.7524
# 2 33.2897 54.8042 16.9032 -4.6005 -3.8843 23.0272
# 3 38.7199 16.9032 201.0759 -2.9797 -4.7219 13.4479
# 4 -4.0497 -4.6005 -2.9797 20.2816 3.6048 -13.4793
# 5 -20.0874 -3.8843 -4.7219 3.6048 63.8189 -0.8730
# 6 36.7524 23.0272 13.4479 -13.4793 -0.8730 41.3391
#
#
#
# Elastic Compliance Matrix: (Units=1/GPa)
#
#
# Indices 1 2 3 4 5 6 
#
# 1 0.007135 -0.001562 -0.000820 -0.003667 0.002210 -0.006355
# 2 -0.001562 0.024857 -0.000927 -0.003895 0.000989 -0.013405
# 3 -0.000820 -0.000927 0.005240 0.000103 0.000062 -0.000425
# 4 -0.003667 -0.003895 0.000103 0.066479 -0.004770 0.026972
# 5 0.002210 0.000989 0.000062 -0.004770 0.016648 -0.003740
# 6 -0.006355 -0.013405 -0.000425 0.026972 -0.003740 0.046161
#
#
# Mechanical properties :
#
#
# Convention : Reuss Voigt Hill
#
# Bulk Modulus (GPa) = 32.66363 69.16446 50.91404
# Shear Modulus (GPa) = 27.27140 48.80403 38.03771
#
# Velocity S-wave (km/s) = 3.14995 4.21384 3.72012
# Velocity P-wave (km/s) = 5.01135 6.98853 6.08084
#
# Compressibility (1/GPa) = 0.03061509
#
# Stress axis : x y z
#
# Youngs Moduli (GPa) = 140.15858 40.23013 190.82409
#
# Poissons Ratio (x) = 0.06283 0.15648
# Poissons Ratio (y) = 0.21890 0.17685
# Poissons Ratio (z) = 0.11493 0.03728
#
# Static dielectric constant tensor:
#      x y z
#    x 2.286110 -0.132860 -0.197940 
#    y -0.132860 2.274070 0.117660 
#    z -0.197940 0.117660 2.266870 
# 
# From -- ./inp_files/110067.got.cif
#   From: 2010.05.17/outbox.cif.g08.bks.cpg/sg2_56_cif.got.tgz:110067.got - 2010.06.03 11:33:40.
