data_PCOD9045855
_publ_section_title
;
Structure prediction by ZEFSAII (Michael W. Deem and Ramdas Pophale) SiO2 
 PCOD9045855
Probable space group: P -1
;
_chemical_formula_sum "Si O2"
_cell_formula_units_Z 16
_cell_length_a 21.670843
_cell_length_b 16.931773
_cell_length_c 8.260225
_cell_angle_alpha 31.548949
_cell_angle_beta 151.922661
_cell_angle_gamma 149.403753
_cell_volume 669.491675
_symmetry_space_group_name_H-M "P -1"
_symmetry_group_IT_number 2
_symmetry_cell_setting 'triclinic'
loop_
_space_group_symop_operation_xyz
x,y,z
-x,-y,-z
loop_
_atom_site_type_symbol
_atom_site_label
_atom_site_fract_x
_atom_site_fract_y
_atom_site_fract_z
Si Si1 0.404853 0.082318 0.555432
Si Si2 0.172119 0.640727 0.355706
Si Si3 0.848361 0.087118 0.963062
Si Si4 0.724439 0.750160 0.430607
Si Si5 0.417538 0.637752 0.751931
Si Si6 0.938761 0.359158 0.460518
Si Si7 0.320099 0.612202 0.078939
Si Si8 0.661810 0.733762 0.682786
O O1 0.505316 0.271263 0.392616
O O2 0.289199 0.106592 0.364246
O O3 0.316473 0.976299 0.381047
O O4 0.500000 0.000000 0.000000
O O5 0.126695 0.784559 0.054851
O O6 0.286261 0.687038 0.395418
O O7 0.035408 0.455502 0.363260
O O8 0.268991 0.628967 0.751137
O O9 0.942962 0.197934 0.836890
O O10 0.836785 0.914295 0.308973
O O11 0.732103 0.585195 0.669521
O O12 0.737865 0.761281 0.636524
O O13 0.555358 0.710505 0.068131
O O14 0.347594 0.435657 0.959745
O O15 0.000000 0.500000 0.500000
O O16 0.771748 0.328600 0.116259
O O17 0.493569 0.698448 0.326294
#
# Coordination Sequence:
#
# PCOD9045855 Si02
#       8
#     2   2   2   2   2   2   2   2
#     4  11  23  32  49  78 110 138 156 210 264 307
#     4  10  17  34  55  75  97 135 176 211 243 296
#     4   9  20  33  50  77 105 130 164 214 255 297
#     4  10  18  29  54  81 103 129 163 220 255 290
#     4  10  20  34  54  76 103 135 172 207 251 302
#     4   8  17  32  52  75  96 137 170 214 243 291
#     4   9  15  31  51  75 101 131 171 206 244 296
#     4  11  19  33  51  79 107 136 165 201 258 311
#
# _framework density 23.898728999999999
#
# number of rings (size 3 to 8) (size 9 to 14) (size 15 to 20)
#    0.000    2.500    2.500    2.625    1.750    1.000 
#    0.000    5.625    0.000    3.750    0.000    0.000 
#    0.000    0.000    0.000    0.000    0.000    0.000 
#
# Total GULP energy -89217.125938 kJ/mol
# GULP energy per Si atom -5576.070371 kJ/mol
# Density = 2.384433 g / cm^3
# Si number density = 23.898729 Si / 1000 Ang^3
#
#
#
# Elastic Constant Matrix: (Units=GPa)
#
#
# Indices 1 2 3 4 5 6 
#
# 1 87.1045 11.5103 6.8161 -8.4082 -3.0593 8.4763
# 2 11.5103 72.5884 16.0658 -24.1253 -3.8360 10.5093
# 3 6.8161 16.0658 54.5563 -20.9529 -13.3594 -0.2463
# 4 -8.4082 -24.1253 -20.9529 44.1354 9.6275 2.6346
# 5 -3.0593 -3.8360 -13.3594 9.6275 29.0614 -1.6632
# 6 8.4763 10.5093 -0.2463 2.6346 -1.6632 24.3702
#
#
#
# Elastic Compliance Matrix: (Units=1/GPa)
#
#
# Indices 1 2 3 4 5 6 
#
# 1 0.012204 -0.000520 -0.000618 0.001994 0.000029 -0.004240
# 2 -0.000520 0.019005 -0.002220 0.010343 -0.002527 -0.009328
# 3 -0.000618 -0.002220 0.024254 0.008356 0.008084 0.001066
# 4 0.001994 0.010343 0.008356 0.034650 -0.006593 -0.009265
# 5 0.000029 -0.002527 0.008084 -0.006593 0.040244 0.004621
# 6 -0.004240 -0.009328 0.001066 -0.009265 0.004621 0.047859
#
#
# Mechanical properties :
#
#
# Convention : Reuss Voigt Hill
#
# Bulk Modulus (GPa) = 20.51416 31.44818 25.98117
# Shear Modulus (GPa) = 24.85339 31.50389 28.17864
#
# Velocity S-wave (km/s) = 3.22832 3.63468 3.43751
# Velocity P-wave (km/s) = 4.74326 5.54995 5.16239
#
# Compressibility (1/GPa) = 0.04874681
#
# Stress axis : x y z
#
# Youngs Moduli (GPa) = 81.94265 52.61839 41.22978
#
# Poissons Ratio (x) = 0.02737 0.02547
# Poissons Ratio (y) = 0.04263 0.09153
# Poissons Ratio (z) = 0.05062 0.11681
#
# Static dielectric constant tensor:
#      x y z
#    x 1.946790 0.006380 0.008590 
#    y 0.006380 2.037260 0.023100 
#    z 0.008590 0.023100 1.962570 
# 
# From -- ./inp_files/239870.got.cif
#   From: 2010.05.17/outbox.cif.g08.bks.cpg/sg2_120_cif.got.tgz:239870.got - 2010.06.03 11:33:40.
