data_PCOD9045395
_publ_section_title
;
Structure prediction by ZEFSAII (Michael W. Deem and Ramdas Pophale) SiO2 
 PCOD9045395
Probable space group: P -1
;
_chemical_formula_sum "Si O2"
_cell_formula_units_Z 16
_cell_length_a 20.595457
_cell_length_b 11.896491
_cell_length_c 14.188548
_cell_angle_alpha 29.594468
_cell_angle_beta 151.915017
_cell_angle_gamma 143.267043
_cell_volume 799.423585
_symmetry_space_group_name_H-M "P -1"
_symmetry_group_IT_number 2
_symmetry_cell_setting 'triclinic'
loop_
_space_group_symop_operation_xyz
x,y,z
-x,-y,-z
loop_
_atom_site_type_symbol
_atom_site_label
_atom_site_fract_x
_atom_site_fract_y
_atom_site_fract_z
Si Si1 0.708401 0.958123 0.084536
Si Si2 0.860567 0.742584 0.591180
Si Si3 0.850107 0.423086 0.983385
Si Si4 0.504156 0.778264 0.801861
Si Si5 0.281455 0.993736 0.248590
Si Si6 0.959100 0.368235 0.774863
Si Si7 0.962953 0.882629 0.345684
Si Si8 0.964579 0.748729 0.241218
O O1 0.751742 0.772004 0.349118
O O2 0.826826 0.982941 0.135306
O O3 0.564670 0.876035 0.908180
O O4 0.733437 0.199887 0.995522
O O5 0.812795 0.577219 0.736708
O O6 0.914205 0.990761 0.525016
O O7 0.999611 0.658617 0.788390
O O8 0.895745 0.573616 0.024710
O O9 0.363104 0.875923 0.520867
O O10 0.611307 0.893265 0.775102
O O11 0.500000 0.500000 0.000000
O O12 0.168791 0.776517 0.227820
O O13 0.193871 0.199974 0.011876
O O14 0.927807 0.614913 0.520453
O O15 0.969501 0.224662 0.797188
O O16 0.005247 0.899766 0.277634
O O17 0.000000 0.500000 0.500000
#
# Coordination Sequence:
#
# PCOD9045395 Si02
#       8
#     2   2   2   2   2   2   2   2
#     4  11  19  36  56  82 122 158 195 247 300 358
#     4  10  19  29  52  81 120 156 186 245 300 362
#     4  10  20  30  55  88 117 155 189 246 314 362
#     4  11  26  41  63  83 124 171 204 258 287 358
#     4  11  24  41  59  92 122 161 211 243 307 363
#     4  11  20  36  60  91 128 153 190 253 309 367
#     4  10  17  34  53  89 124 153 196 239 309 361
#     4  10  22  36  64  91 124 163 195 255 307 363
#
# _framework density 20.014420999999999
#
# number of rings (size 3 to 8) (size 9 to 14) (size 15 to 20)
#    0.000    1.500    3.750    2.625    5.250    1.000 
#    0.000    0.000    0.000    0.750    0.000    4.375 
#    0.000    0.000    0.000    0.000    0.000    0.000 
#
# Total GULP energy -89085.527774 kJ/mol
# GULP energy per Si atom -5567.845486 kJ/mol
# Density = 1.996887 g / cm^3
# Si number density = 20.014421 Si / 1000 Ang^3
#
#
#
# Elastic Constant Matrix: (Units=GPa)
#
#
# Indices 1 2 3 4 5 6 
#
# 1 66.6550 12.5701 13.0582 1.5989 -17.3269 -15.5533
# 2 12.5701 95.6427 51.9012 -1.7728 -17.1044 -5.4294
# 3 13.0582 51.9012 134.4934 6.9040 -21.5959 -1.8579
# 4 1.5989 -1.7728 6.9040 35.7328 -5.7407 -12.3765
# 5 -17.3269 -17.1044 -21.5959 -5.7407 33.7328 2.9720
# 6 -15.5533 -5.4294 -1.8579 -12.3765 2.9720 23.9581
#
#
#
# Elastic Compliance Matrix: (Units=1/GPa)
#
#
# Indices 1 2 3 4 5 6 
#
# 1 0.021316 0.000451 -0.000677 0.006378 0.010430 0.015889
# 2 0.000451 0.014229 -0.004944 0.003973 0.004550 0.004622
# 3 -0.000677 -0.004944 0.010043 -0.002471 0.003373 -0.002476
# 4 0.006378 0.003973 -0.002471 0.037762 0.008077 0.023355
# 5 0.010430 0.004550 0.003373 0.008077 0.040205 0.007249
# 6 0.015889 0.004622 -0.002476 0.023355 0.007249 0.064076
#
#
# Mechanical properties :
#
#
# Convention : Reuss Voigt Hill
#
# Bulk Modulus (GPa) = 28.37002 50.20556 39.28779
# Shear Modulus (GPa) = 23.84140 33.30216 28.57178
#
# Velocity S-wave (km/s) = 3.45514 4.08353 3.78241
# Velocity P-wave (km/s) = 5.48843 6.88279 6.22477
#
# Compressibility (1/GPa) = 0.03524848
#
# Stress axis : x y z
#
# Youngs Moduli (GPa) = 46.91326 70.27846 99.56935
#
# Poissons Ratio (x) = -0.03172 0.06740
# Poissons Ratio (y) = -0.02117 0.49230
# Poissons Ratio (z) = 0.03176 0.34748
#
# Static dielectric constant tensor:
#      x y z
#    x 1.756500 -0.024350 -0.035050 
#    y -0.024350 1.753560 -0.020940 
#    z -0.035050 -0.020940 1.767830 
# 
# From -- ./inp_files/540934.got.cif
#   From: 2010.05.17/outbox.cif.g08.bks.cpg/sg2_271_cif.got.tgz:540934.got - 2010.06.03 11:33:40.
