data_PCOD9045413
_publ_section_title
;
Structure prediction by ZEFSAII (Michael W. Deem and Ramdas Pophale) SiO2 
 PCOD9045413
Probable space group: P -1
;
_chemical_formula_sum "Si O2"
_cell_formula_units_Z 14
_cell_length_a 8.530545
_cell_length_b 12.451391
_cell_length_c 8.511403
_cell_angle_alpha 117.872705
_cell_angle_beta 95.056106
_cell_angle_gamma 52.710579
_cell_volume 610.856536
_symmetry_space_group_name_H-M "P -1"
_symmetry_group_IT_number 2
_symmetry_cell_setting 'triclinic'
loop_
_space_group_symop_operation_xyz
x,y,z
-x,-y,-z
loop_
_atom_site_type_symbol
_atom_site_label
_atom_site_fract_x
_atom_site_fract_y
_atom_site_fract_z
Si Si1 0.379837 0.877333 0.688634
Si Si2 0.611751 0.562111 0.629007
Si Si3 0.938587 0.128106 0.948407
Si Si4 0.743473 0.848066 0.568228
Si Si5 0.046286 0.526256 0.195585
Si Si6 0.771307 0.099340 0.616204
Si Si7 0.052755 0.643672 0.720262
O O1 0.455892 0.751504 0.747174
O O2 0.543047 0.897604 0.670290
O O3 0.362623 0.800490 0.478245
O O4 0.159008 0.041143 0.823413
O O5 0.500000 0.500000 0.500000
O O6 0.751905 0.492691 0.752464
O O7 0.780101 0.508387 0.472220
O O8 0.780211 0.161031 0.825426
O O9 0.857224 0.293308 0.125058
O O10 0.000000 0.000000 0.000000
O O11 0.850003 0.699677 0.358168
O O12 0.908598 0.781979 0.676556
O O13 0.715942 0.987771 0.572934
O O14 0.063742 0.395806 0.212239
O O15 0.000000 0.500000 0.000000
O O16 0.000000 0.000000 0.500000
#
# Coordination Sequence:
#
# PCOD9045413 Si02
#       7
#     2   2   2   2   2   2   2
#     4  11  23  42  65  96 130 176 226 267 328 402
#     4  11  23  44  70  98 133 178 222 274 337 398
#     4  11  23  42  64 100 133 174 218 277 335 391
#     4  11  21  46  66  93 130 182 222 265 333 408
#     4  11  25  43  70  97 135 176 223 277 336 394
#     4  10  24  40  65  93 136 175 214 272 344 391
#     4  11  22  45  67  93 136 174 218 267 342 402
#
# _framework density 22.918638999999999
#
# number of rings (size 3 to 8) (size 9 to 14) (size 15 to 20)
#    0.000    1.143    4.286    2.143   10.000    0.571 
#    5.143    1.429    0.000    0.000    0.000    0.000 
#    0.000    0.000    0.000    0.000    0.000    0.000 
#
# Total GULP energy -78164.630010 kJ/mol
# GULP energy per Si atom -5583.187858 kJ/mol
# Density = 2.286648 g / cm^3
# Si number density = 22.918639 Si / 1000 Ang^3
#
#
#
# Elastic Constant Matrix: (Units=GPa)
#
#
# Indices 1 2 3 4 5 6 
#
# 1 82.1551 2.3373 10.3040 -8.7835 6.8946 4.9221
# 2 2.3373 45.4265 11.5507 -10.6053 0.8463 -5.9329
# 3 10.3040 11.5507 113.5232 -19.1607 26.2800 1.4197
# 4 -8.7835 -10.6053 -19.1607 35.6412 -5.1389 6.3912
# 5 6.8946 0.8463 26.2800 -5.1389 32.0487 1.3100
# 6 4.9221 -5.9329 1.4197 6.3912 1.3100 29.5985
#
#
#
# Elastic Compliance Matrix: (Units=1/GPa)
#
#
# Indices 1 2 3 4 5 6 
#
# 1 0.012878 -0.000204 -0.000085 0.003272 -0.002057 -0.002794
# 2 -0.000204 0.024304 -0.001941 0.005732 0.001762 0.003683
# 3 -0.000085 -0.001941 0.011893 0.004805 -0.008847 -0.001591
# 4 0.003272 0.005732 0.004805 0.034583 0.001042 -0.007139
# 5 -0.002057 0.001762 -0.008847 0.001042 0.039054 -0.000834
# 6 -0.002794 0.003683 -0.001591 -0.007139 -0.000834 0.036643
#
#
# Mechanical properties :
#
#
# Convention : Reuss Voigt Hill
#
# Bulk Modulus (GPa) = 22.41345 32.16543 27.28944
# Shear Modulus (GPa) = 27.98196 33.91854 30.95025
#
# Velocity S-wave (km/s) = 3.49797 3.85119 3.67882
# Velocity P-wave (km/s) = 5.11030 5.81727 5.47521
#
# Compressibility (1/GPa) = 0.04461606
#
# Stress axis : x y z
#
# Youngs Moduli (GPa) = 77.64976 41.14563 84.08361
#
# Poissons Ratio (x) = 0.00838 0.00714
# Poissons Ratio (y) = 0.01582 0.16320
# Poissons Ratio (z) = 0.00659 0.07986
#
# Static dielectric constant tensor:
#      x y z
#    x 1.896720 -0.032480 0.029630 
#    y -0.032480 1.836890 -0.046760 
#    z 0.029630 -0.046760 1.892460 
# 
# From -- ./inp_files/149238.got.cif
#   From: 2010.05.17/outbox.cif.g08.bks.cpg/sg2_75_cif.got.tgz:149238.got - 2010.06.03 11:33:40.
