data_PCOD9045151
_publ_section_title
;
Structure prediction by ZEFSAII (Michael W. Deem and Ramdas Pophale) SiO2 
 PCOD9045151
Probable space group: P -1
;
_chemical_formula_sum "Si O2"
_cell_formula_units_Z 16
_cell_length_a 12.492024
_cell_length_b 11.660553
_cell_length_c 16.932935
_cell_angle_alpha 42.066452
_cell_angle_beta 140.825644
_cell_angle_gamma 157.959506
_cell_volume 581.725462
_symmetry_space_group_name_H-M "P -1"
_symmetry_group_IT_number 2
_symmetry_cell_setting 'triclinic'
loop_
_space_group_symop_operation_xyz
x,y,z
-x,-y,-z
loop_
_atom_site_type_symbol
_atom_site_label
_atom_site_fract_x
_atom_site_fract_y
_atom_site_fract_z
Si Si1 0.502412 0.102532 0.366362
Si Si2 0.884639 0.182766 0.992765
Si Si3 0.542345 0.422296 0.986411
Si Si4 0.200444 0.905552 0.722133
Si Si5 0.645375 0.310128 0.631011
Si Si6 0.943908 0.761812 0.286782
Si Si7 0.219020 0.266585 0.625085
Si Si8 0.453383 0.745063 0.114576
O O1 0.404215 0.894356 0.347809
O O2 0.252881 0.037770 0.274601
O O3 0.500000 0.000000 0.500000
O O4 0.814859 0.463841 0.347166
O O5 0.132010 0.306810 0.007943
O O6 0.144369 0.523705 0.006075
O O7 0.581122 0.877874 0.923052
O O8 0.736841 0.007550 0.083960
O O9 0.294711 0.305159 0.848770
O O10 0.500000 0.500000 0.000000
O O11 0.359955 0.087434 0.638716
O O12 0.068584 0.972074 0.649841
O O13 0.469223 0.090122 0.844424
O O14 0.937968 0.551119 0.733223
O O15 0.695739 0.517187 0.498835
O O16 0.965713 0.806079 0.370786
O O17 0.522949 0.432683 0.751380
#
# Coordination Sequence:
#
# PCOD9045151 Si02
#       8
#     2   2   2   2   2   2   2   2
#     4  12  27  41  58  80 116 177 217 231 265 343
#     4  10  17  34  52  84 118 148 172 226 292 385
#     4  11  22  36  60  90 122 150 189 249 318 361
#     4  10  23  35  55  83 114 151 195 263 308 321
#     4  12  23  38  52  78 119 156 212 245 278 343
#     4  12  24  40  62  83 120 158 206 244 285 363
#     4  10  22  34  61  79 120 148 205 246 312 334
#     4   9  20  31  55  81 114 150 191 227 311 355
#
# _framework density 27.504383000000001
#
# number of rings (size 3 to 8) (size 9 to 14) (size 15 to 20)
#    0.750    0.500    3.750    3.750    1.750    2.000 
#    0.000    0.000    0.000    0.000    0.000    0.000 
#    0.000  116.000    0.000    0.000    0.000    0.000 
#
# Total GULP energy -89376.744483 kJ/mol
# GULP energy per Si atom -5586.046530 kJ/mol
# Density = 2.744178 g / cm^3
# Si number density = 27.504383 Si / 1000 Ang^3
#
#
#
# Elastic Constant Matrix: (Units=GPa)
#
#
# Indices 1 2 3 4 5 6 
#
# 1 184.0671 54.9259 30.5179 -8.5821 -50.9824 -36.3447
# 2 54.9259 162.9276 19.6065 0.1700 -17.4441 -3.6686
# 3 30.5179 19.6065 90.1167 5.2385 -4.5829 -1.3133
# 4 -8.5821 0.1700 5.2385 25.3127 0.9881 -9.6068
# 5 -50.9824 -17.4441 -4.5829 0.9881 50.5130 -0.9801
# 6 -36.3447 -3.6686 -1.3133 -9.6068 -0.9801 64.0531
#
#
#
# Elastic Compliance Matrix: (Units=1/GPa)
#
#
# Indices 1 2 3 4 5 6 
#
# 1 0.011214 -0.002146 -0.003097 0.006849 0.010305 0.007361
# 2 -0.002146 0.006946 -0.000732 -0.001002 0.000167 -0.000982
# 3 -0.003097 -0.000732 0.012414 -0.004376 -0.002210 -0.002235
# 4 0.006849 -0.001002 -0.004376 0.046632 0.005467 0.010817
# 5 0.010305 0.000167 -0.002210 0.005467 0.030085 0.007092
# 6 0.007361 -0.000982 -0.002235 0.010817 0.007092 0.021418
#
#
# Mechanical properties :
#
#
# Convention : Reuss Voigt Hill
#
# Bulk Modulus (GPa) = 53.69585 71.91245 62.80415
# Shear Modulus (GPa) = 34.04434 50.11316 42.07875
#
# Velocity S-wave (km/s) = 3.52202 4.27313 3.91563
# Velocity P-wave (km/s) = 6.00871 7.10976 6.58230
#
# Compressibility (1/GPa) = 0.01862341
#
# Stress axis : x y z
#
# Youngs Moduli (GPa) = 89.17723 143.96813 80.55180
#
# Poissons Ratio (x) = 0.30891 0.24950
# Poissons Ratio (y) = 0.19135 0.05898
# Poissons Ratio (z) = 0.27622 0.10541
#
# Static dielectric constant tensor:
#      x y z
#    x 2.298930 -0.101900 0.184740 
#    y -0.101900 2.114850 0.029200 
#    z 0.184740 0.029200 2.333660 
# 
# From -- ./inp_files/569157.got.cif
#   From: 2010.05.17/outbox.cif.g08.bks.cpg/sg2_285_cif.got.tgz:569157.got - 2010.06.03 11:33:40.
