data_PCOD9045939
_publ_section_title
;
Structure prediction by ZEFSAII (Michael W. Deem and Ramdas Pophale) SiO2 
 PCOD9045939
Probable space group: P -1
;
_chemical_formula_sum "Si O2"
_cell_formula_units_Z 13
_cell_length_a 14.360773
_cell_length_b 5.955560
_cell_length_c 17.268693
_cell_angle_alpha 68.711442
_cell_angle_beta 21.312643
_cell_angle_gamma 70.767148
_cell_volume 500.001058
_symmetry_space_group_name_H-M "P -1"
_symmetry_group_IT_number 2
_symmetry_cell_setting 'triclinic'
loop_
_space_group_symop_operation_xyz
x,y,z
-x,-y,-z
loop_
_atom_site_type_symbol
_atom_site_label
_atom_site_fract_x
_atom_site_fract_y
_atom_site_fract_z
Si Si1 0.408201 0.142624 0.937884
Si Si2 0.213711 0.438986 0.458114
Si Si3 0.556742 0.023408 0.229185
Si Si4 0.825265 0.323705 0.212714
Si Si5 0.699798 0.475424 0.449925
Si Si6 0.718424 0.707330 0.817803
Si Si7 0.000000 0.000000 0.000000
O O1 0.549980 0.384874 0.769007
O O2 0.306788 0.016414 0.954113
O O3 0.617635 0.952885 0.828940
O O4 0.243891 0.217304 0.130313
O O5 0.307529 0.183701 0.387957
O O6 0.182030 0.413226 0.578474
O O7 0.965738 0.582211 0.606724
O O8 0.451286 0.767909 0.375318
O O9 0.742548 0.115042 0.142210
O O10 0.879333 0.404072 0.248588
O O11 0.525232 0.362521 0.429024
O O12 0.892953 0.067243 0.159837
O O13 0.000000 0.500000 0.000000
O O14 0.500000 0.500000 0.000000
#
# Coordination Sequence:
#
# PCOD9045939 Si02
#       7
#     2   2   2   2   2   2   1
#     4  10  25  47  70  99 140 178 225 281 346 407
#     4  11  24  45  70 100 138 179 225 283 339 410
#     4  11  24  44  66 104 137 180 229 280 333 398
#     4  11  23  43  65  91 137 180 229 280 330 393
#     4  10  24  42  64  97 133 182 227 276 339 397
#     4  11  25  46  73 105 132 178 227 283 348 410
#     4  12  24  40  70 100 136 182 228 276 330 396
#
# _framework density 25.999946999999999
#
# number of rings (size 3 to 8) (size 9 to 14) (size 15 to 20)
#    0.000    1.231    3.077    1.385    2.154    9.231 
#    5.538    0.000    0.000    0.000    0.000    0.000 
#    0.000    0.000    0.000    0.000    0.000    0.000 
#
# Total GULP energy -72473.047651 kJ/mol
# GULP energy per Si atom -5574.849819 kJ/mol
# Density = 2.594077 g / cm^3
# Si number density = 25.999947 Si / 1000 Ang^3
#
#
#
# Elastic Constant Matrix: (Units=GPa)
#
#
# Indices 1 2 3 4 5 6 
#
# 1 131.5240 5.8805 29.6843 8.3446 39.5086 17.8326
# 2 5.8805 76.1377 33.0450 32.0921 7.1801 6.8171
# 3 29.6843 33.0450 65.8159 31.3593 16.1609 7.8687
# 4 8.3446 32.0921 31.3593 60.8566 4.2048 8.6371
# 5 39.5086 7.1801 16.1609 4.2048 46.7944 14.7466
# 6 17.8326 6.8171 7.8687 8.6371 14.7466 31.3644
#
#
#
# Elastic Compliance Matrix: (Units=1/GPa)
#
#
# Indices 1 2 3 4 5 6 
#
# 1 0.010909 0.001502 -0.003818 0.000508 -0.007476 -0.002196
# 2 0.001502 0.018835 -0.006694 -0.006476 -0.000935 -0.001045
# 3 -0.003818 -0.006694 0.025396 -0.008985 -0.004258 0.001731
# 4 0.000508 -0.006476 -0.008985 0.024894 0.002968 -0.004878
# 5 -0.007476 -0.000935 -0.004258 0.002968 0.032338 -0.010500
# 6 -0.002196 -0.001045 0.001731 -0.004878 -0.010500 0.039205
#
#
# Mechanical properties :
#
#
# Convention : Reuss Voigt Hill
#
# Bulk Modulus (GPa) = 26.93919 45.63300 36.28610
# Shear Modulus (GPa) = 27.47695 41.46092 34.46893
#
# Velocity S-wave (km/s) = 3.25438 3.99764 3.64501
# Velocity P-wave (km/s) = 4.95026 6.23679 5.63039
#
# Compressibility (1/GPa) = 0.03712064
#
# Stress axis : x y z
#
# Youngs Moduli (GPa) = 91.66776 53.09335 39.37568
#
# Poissons Ratio (x) = -0.07976 0.15034
# Poissons Ratio (y) = -0.13770 0.26358
# Poissons Ratio (z) = 0.34999 0.35540
#
# Static dielectric constant tensor:
#      x y z
#    x 2.083970 0.015310 0.000060 
#    y 0.015310 2.093420 0.019540 
#    z 0.000060 0.019540 1.979940 
# 
# From -- ./inp_files/8299.got.cif
#   From: 2010.05.17/outbox.cif.g08.bks.cpg/sg2_5_cif.got.tgz:8299.got - 2010.06.03 11:33:40.
