data_PCOD9045483
_publ_section_title
;
Structure prediction by ZEFSAII (Michael W. Deem and Ramdas Pophale) SiO2 
 PCOD9045483
Probable space group: P -1
;
_chemical_formula_sum "Si O2"
_cell_formula_units_Z 10
_cell_length_a 9.639389
_cell_length_b 7.075723
_cell_length_c 10.172162
_cell_angle_alpha 106.510330
_cell_angle_beta 138.408911
_cell_angle_gamma 98.626803
_cell_volume 362.916357
_symmetry_space_group_name_H-M "P -1"
_symmetry_group_IT_number 2
_symmetry_cell_setting 'triclinic'
loop_
_space_group_symop_operation_xyz
x,y,z
-x,-y,-z
loop_
_atom_site_type_symbol
_atom_site_label
_atom_site_fract_x
_atom_site_fract_y
_atom_site_fract_z
Si Si1 0.549675 0.867266 0.316984
Si Si2 0.721480 0.648268 0.012409
Si Si3 0.766688 0.603812 0.526943
Si Si4 0.230339 0.923445 0.737060
Si Si5 0.962500 0.209603 0.985433
O O1 0.403944 0.619605 0.075753
O O2 0.690577 0.797647 0.504373
O O3 0.738277 0.084497 0.398168
O O4 0.326208 0.877263 0.219005
O O5 0.494868 0.624341 0.757826
O O6 0.926216 0.689432 0.058713
O O7 0.799514 0.859828 0.208116
O O8 0.862877 0.600970 0.738050
O O9 0.995114 0.701405 0.603884
O O10 0.500000 0.000000 0.000000
O O11 0.000000 0.000000 0.000000
#
# Coordination Sequence:
#
# PCOD9045483 Si02
#       5
#     2   2   2   2   2
#     4  10  24  41  66  93 129 166 209 259 314 373
#     4  10  24  41  66  93 129 166 209 259 314 373
#     4  10  24  40  68  92 126 166 218 244 326 368
#     4  12  21  45  65  94 130 164 211 264 308 373
#     4  12  21  45  65  94 130 164 211 264 308 373
#
# _framework density 27.554556999999999
#
# number of rings (size 3 to 8) (size 9 to 14) (size 15 to 20)
#    1.200    0.000    4.000    2.400    0.000    1.600 
#    0.000    0.000    0.000    0.000    0.000    0.000 
#    0.000    0.000    0.000    0.000    0.000    0.000 
#
# Total GULP energy -56002.686478 kJ/mol
# GULP energy per Si atom -5600.268648 kJ/mol
# Density = 2.749184 g / cm^3
# Si number density = 27.554557 Si / 1000 Ang^3
#
#
#
# Elastic Constant Matrix: (Units=GPa)
#
#
# Indices 1 2 3 4 5 6 
#
# 1 195.5279 34.5103 64.9821 -9.0244 34.5281 9.1763
# 2 34.5103 70.5755 2.9662 -20.9816 3.5401 -14.3512
# 3 64.9821 2.9662 121.9138 -36.3988 27.1089 -10.8752
# 4 -9.0244 -20.9816 -36.3988 52.3179 -13.8973 2.1090
# 5 34.5281 3.5401 27.1089 -13.8973 56.6545 -5.4423
# 6 9.1763 -14.3512 -10.8752 2.1090 -5.4423 45.1059
#
#
#
# Elastic Compliance Matrix: (Units=1/GPa)
#
#
# Indices 1 2 3 4 5 6 
#
# 1 0.009186 -0.007147 -0.006232 -0.006532 -0.004336 -0.005863
# 2 -0.007147 0.023455 0.007520 0.013972 0.003730 0.010526
# 3 -0.006232 0.007520 0.015802 0.012525 -0.000505 0.006824
# 4 -0.006532 0.013972 0.012525 0.033610 0.006124 0.007962
# 5 -0.004336 0.003730 -0.000505 0.006124 0.022221 0.004342
# 6 -0.005863 0.010526 0.006824 0.007962 0.004342 0.028509
#
#
# Mechanical properties :
#
#
# Convention : Reuss Voigt Hill
#
# Bulk Modulus (GPa) = 27.22943 65.88159 46.55551
# Shear Modulus (GPa) = 31.89957 49.85292 40.87624
#
# Velocity S-wave (km/s) = 3.40617 4.25814 3.85576
# Velocity P-wave (km/s) = 5.03714 6.93809 6.06258
#
# Compressibility (1/GPa) = 0.03672497
#
# Stress axis : x y z
#
# Youngs Moduli (GPa) = 108.86056 42.63509 63.28443
#
# Poissons Ratio (x) = 0.30470 0.39437
# Poissons Ratio (y) = 0.77799 -0.47587
# Poissons Ratio (z) = 0.67839 -0.32060
#
# Static dielectric constant tensor:
#      x y z
#    x 2.093290 -0.049270 -0.035340 
#    y -0.049270 2.149030 0.062410 
#    z -0.035340 0.062410 2.191750 
# 
# From -- ./inp_files/146121.got.cif
#   From: 2010.05.17/outbox.cif.g08.bks.cpg/sg2_74_cif.got.tgz:146121.got - 2010.06.03 11:33:40.
