data_PCOD9045482
_publ_section_title
;
Structure prediction by ZEFSAII (Michael W. Deem and Ramdas Pophale) SiO2 
 PCOD9045482
Probable space group: P -1
;
_chemical_formula_sum "Si O2"
_cell_formula_units_Z 10
_cell_length_a 11.058674
_cell_length_b 12.052371
_cell_length_c 9.046628
_cell_angle_alpha 52.048992
_cell_angle_beta 146.346181
_cell_angle_gamma 143.625772
_cell_volume 390.646688
_symmetry_space_group_name_H-M "P -1"
_symmetry_group_IT_number 2
_symmetry_cell_setting 'triclinic'
loop_
_space_group_symop_operation_xyz
x,y,z
-x,-y,-z
loop_
_atom_site_type_symbol
_atom_site_label
_atom_site_fract_x
_atom_site_fract_y
_atom_site_fract_z
Si Si1 0.293262 0.960654 0.561666
Si Si2 0.069877 0.792897 0.949690
Si Si3 0.430712 0.205638 0.016828
Si Si4 0.732442 0.632216 0.452765
Si Si5 0.684504 0.744698 0.825721
O O1 0.035482 0.817868 0.531984
O O2 0.246763 0.064832 0.310844
O O3 0.359274 0.828762 0.683025
O O4 0.615495 0.143958 0.804196
O O5 0.824011 0.648299 0.700685
O O6 0.939735 0.751943 0.016158
O O7 0.164275 0.995976 0.854122
O O8 0.495506 0.339736 0.840370
O O9 0.364475 0.273751 0.034906
O O10 0.604274 0.439872 0.399306
#
# Coordination Sequence:
#
# PCOD9045482 Si02
#       5
#     2   2   2   2   2
#     4  10  24  40  68  88 130 160 210 250 316 360
#     4  10  24  42  66  89 129 165 204 254 314 365
#     4  10  24  42  66  89 129 165 204 254 314 365
#     4  12  24  42  66  94 124 164 210 256 306 368
#     4  12  24  42  66  94 124 164 210 256 306 368
#
# _framework density 25.598578
#
# number of rings (size 3 to 8) (size 9 to 14) (size 15 to 20)
#    1.200    0.000    2.000    3.600    0.000    3.200 
#    0.000    0.000    0.000    0.000    0.000    0.000 
#    0.000    0.000    0.000    0.000    0.000    0.000 
#
# Total GULP energy -55710.734104 kJ/mol
# GULP energy per Si atom -5571.073410 kJ/mol
# Density = 2.554031 g / cm^3
# Si number density = 25.598578 Si / 1000 Ang^3
#
#
#
# Elastic Constant Matrix: (Units=GPa)
#
#
# Indices 1 2 3 4 5 6 
#
# 1 68.3076 16.9767 30.7278 1.2879 -12.3259 4.1220
# 2 16.9767 80.0514 32.9390 6.5471 -2.1390 1.0012
# 3 30.7278 32.9390 100.5622 6.6757 -16.9744 -4.7930
# 4 1.2879 6.5471 6.6757 41.1843 -5.8935 -13.3756
# 5 -12.3259 -2.1390 -16.9744 -5.8935 40.0040 7.7825
# 6 4.1220 1.0012 -4.7930 -13.3756 7.7825 27.4095
#
#
#
# Elastic Compliance Matrix: (Units=1/GPa)
#
#
# Indices 1 2 3 4 5 6 
#
# 1 0.018202 -0.001821 -0.004402 -0.000538 0.004535 -0.004991
# 2 -0.001821 0.014919 -0.004542 -0.002390 -0.001703 -0.001748
# 3 -0.004402 -0.004542 0.013511 -0.000125 0.003711 0.002076
# 4 -0.000538 -0.002390 -0.000125 0.029481 0.001238 0.014181
# 5 0.004535 -0.001703 0.003711 0.001238 0.029571 -0.007763
# 6 -0.004991 -0.001748 0.002076 0.014181 -0.007763 0.046786
#
#
# Mechanical properties :
#
#
# Convention : Reuss Voigt Hill
#
# Bulk Modulus (GPa) = 39.83948 45.57870 42.70909
# Shear Modulus (GPa) = 27.41713 32.93807 30.17760
#
# Velocity S-wave (km/s) = 3.27623 3.59097 3.43720
# Velocity P-wave (km/s) = 5.46887 5.91923 5.69850
#
# Compressibility (1/GPa) = 0.02510073
#
# Stress axis : x y z
#
# Youngs Moduli (GPa) = 54.93871 67.02824 74.01549
#
# Poissons Ratio (x) = 0.12208 0.32582
# Poissons Ratio (y) = 0.10006 0.33620
# Poissons Ratio (z) = 0.24184 0.30446
#
# Static dielectric constant tensor:
#      x y z
#    x 2.104770 0.048460 0.141290 
#    y 0.048460 1.958190 0.032700 
#    z 0.141290 0.032700 2.115480 
# 
# From -- ./inp_files/58055.got.cif
#   From: 2010.05.17/outbox.cif.g08.bks.cpg/sg2_30_cif.got.tgz:58055.got - 2010.06.03 11:33:40.
