data_PCOD9045513
_publ_section_title
;
Structure prediction by ZEFSAII (Michael W. Deem and Ramdas Pophale) SiO2 
 PCOD9045513
Probable space group: P -1
;
_chemical_formula_sum "Si O2"
_cell_formula_units_Z 16
_cell_length_a 11.675108
_cell_length_b 11.214707
_cell_length_c 5.314167
_cell_angle_alpha 98.397755
_cell_angle_beta 67.180717
_cell_angle_gamma 95.926230
_cell_volume 633.635252
_symmetry_space_group_name_H-M "P -1"
_symmetry_group_IT_number 2
_symmetry_cell_setting 'triclinic'
loop_
_space_group_symop_operation_xyz
x,y,z
-x,-y,-z
loop_
_atom_site_type_symbol
_atom_site_label
_atom_site_fract_x
_atom_site_fract_y
_atom_site_fract_z
Si Si1 0.054749 0.089133 0.197802
Si Si2 0.611035 0.565732 0.148801
Si Si3 0.740572 0.972486 0.664546
Si Si4 0.198432 0.523867 0.377000
Si Si5 0.380427 0.659105 0.593731
Si Si6 0.625254 0.061627 0.296092
Si Si7 0.804994 0.754184 0.246852
Si Si8 0.987402 0.316581 0.618345
O O1 0.120192 0.013665 0.337678
O O2 0.981262 0.201114 0.404159
O O3 0.173551 0.163094 0.989306
O O4 0.000000 0.000000 0.000000
O O5 0.491149 0.643545 0.291028
O O6 0.584794 0.433704 0.247730
O O7 0.721396 0.635440 0.231267
O O8 0.678768 0.543332 0.824074
O O9 0.735601 0.833784 0.533784
O O10 0.718777 0.045979 0.449249
O O11 0.655451 0.004763 0.981707
O O12 0.246971 0.611097 0.585156
O O13 0.092399 0.419166 0.475980
O O14 0.139828 0.614525 0.251844
O O15 0.381689 0.797201 0.706966
O O16 0.500000 0.000000 0.500000
O O17 0.945558 0.728790 0.203141
#
# Coordination Sequence:
#
# PCOD9045513 Si02
#       8
#     2   2   2   2   2   2   2   2
#     4  11  25  45  73 106 147 196 251 300 375 452
#     4  11  24  47  70 104 142 193 246 301 377 433
#     4  11  26  48  75 108 146 199 244 300 372 440
#     4  11  23  44  67 104 146 185 246 304 370 443
#     4  11  27  43  72 104 141 194 249 305 362 451
#     4  12  27  50  74 111 149 194 247 309 371 435
#     4  11  22  46  74 103 149 194 244 306 370 450
#     4  10  24  40  70 104 142 193 241 305 374 441
#
# _framework density 25.251123
#
# number of rings (size 3 to 8) (size 9 to 14) (size 15 to 20)
#    0.000    1.000    3.750    1.500    3.500    4.500 
#    2.250    0.000    0.000    0.000    0.000    0.000 
#    0.000    0.000    0.000    0.000    0.000    0.000 
#
# Total GULP energy -89451.753628 kJ/mol
# GULP energy per Si atom -5590.734602 kJ/mol
# Density = 2.519365 g / cm^3
# Si number density = 25.251123 Si / 1000 Ang^3
#
#
#
# Elastic Constant Matrix: (Units=GPa)
#
#
# Indices 1 2 3 4 5 6 
#
# 1 78.6988 14.2857 5.0932 6.6125 12.0258 -4.9971
# 2 14.2857 120.5961 16.5876 9.7917 5.6066 6.7405
# 3 5.0932 16.5876 73.8948 4.0476 0.1460 3.8206
# 4 6.6125 9.7917 4.0476 25.9892 3.8918 5.9720
# 5 12.0258 5.6066 0.1460 3.8918 37.3287 0.1212
# 6 -4.9971 6.7405 3.8206 5.9720 0.1212 42.0372
#
#
#
# Elastic Compliance Matrix: (Units=1/GPa)
#
#
# Indices 1 2 3 4 5 6 
#
# 1 0.013988 -0.001278 -0.000631 -0.002918 -0.004015 0.002351
# 2 -0.001278 0.008972 -0.001735 -0.002435 -0.000672 -0.001085
# 3 -0.000631 -0.001735 0.014080 -0.001253 0.000542 -0.000900
# 4 -0.002918 -0.002435 -0.001253 0.042128 -0.003063 -0.005819
# 5 -0.004015 -0.000672 0.000542 -0.003063 0.028501 -0.000066
# 6 0.002351 -0.001085 -0.000900 -0.005819 -0.000066 0.025151
#
#
# Mechanical properties :
#
#
# Convention : Reuss Voigt Hill
#
# Bulk Modulus (GPa) = 33.61226 38.34695 35.97961
# Shear Modulus (GPa) = 33.32807 36.88590 35.10698
#
# Velocity S-wave (km/s) = 3.63694 3.82614 3.73274
# Velocity P-wave (km/s) = 5.56565 5.89392 5.73214
#
# Compressibility (1/GPa) = 0.02975105
#
# Stress axis : x y z
#
# Youngs Moduli (GPa) = 71.49223 111.46090 71.02361
#
# Poissons Ratio (x) = 0.14244 0.04482
# Poissons Ratio (y) = 0.09136 0.12323
# Poissons Ratio (z) = 0.04511 0.19339
#
# Static dielectric constant tensor:
#      x y z
#    x 2.160810 -0.023390 0.001320 
#    y -0.023390 1.963050 -0.042120 
#    z 0.001320 -0.042120 2.063960 
# 
# From -- ./inp_files/71675.got.cif
#   From: 2010.05.17/outbox.cif.g08.bks.cpg/sg2_36_cif.got.tgz:71675.got - 2010.06.03 11:33:40.
