data_PCOD9045241
_publ_section_title
;
Structure prediction by ZEFSAII (Michael W. Deem and Ramdas Pophale) SiO2 
 PCOD9045241
Probable space group: P -1
;
_chemical_formula_sum "Si O2"
_cell_formula_units_Z 16
_cell_length_a 17.278477
_cell_length_b 8.747175
_cell_length_c 11.098212
_cell_angle_alpha 125.801674
_cell_angle_beta 124.602119
_cell_angle_gamma 100.308942
_cell_volume 720.276879
_symmetry_space_group_name_H-M "P -1"
_symmetry_group_IT_number 2
_symmetry_cell_setting 'triclinic'
loop_
_space_group_symop_operation_xyz
x,y,z
-x,-y,-z
loop_
_atom_site_type_symbol
_atom_site_label
_atom_site_fract_x
_atom_site_fract_y
_atom_site_fract_z
Si Si1 0.604565 0.622362 0.537930
Si Si2 0.260942 0.765915 0.584687
Si Si3 0.314455 0.868241 0.210478
Si Si4 0.648782 0.689278 0.015993
Si Si5 0.483913 0.120819 0.729548
Si Si6 0.001313 0.715195 0.050421
Si Si7 0.167459 0.254190 0.313941
Si Si8 0.116066 0.247317 0.812449
O O1 0.500000 0.500000 0.500000
O O2 0.712375 0.613020 0.620192
O O3 0.708732 0.962811 0.782216
O O4 0.492684 0.459391 0.251681
O O5 0.120558 0.500480 0.258494
O O6 0.236869 0.558092 0.564511
O O7 0.261679 0.983902 0.726965
O O8 0.400595 0.972887 0.713451
O O9 0.427129 0.929066 0.252740
O O10 0.375020 0.971821 0.449113
O O11 0.173454 0.527776 0.935170
O O12 0.750450 0.696873 0.036506
O O13 0.588493 0.465994 0.969564
O O14 0.946342 0.784721 0.130360
O O15 0.000000 0.500000 0.000000
O O16 0.151794 0.046148 0.291295
O O17 0.000000 0.000000 0.000000
O O18 0.000000 0.000000 0.500000
#
# Coordination Sequence:
#
# PCOD9045241 Si02
#       8
#     2   2   2   2   2   2   2   2
#     4  11  23  41  67  89 131 174 218 262 330 390
#     4  11  21  41  63  89 133 168 208 272 327 381
#     4   9  18  35  60  95 117 161 219 264 314 390
#     4  10  24  38  63 100 124 165 227 267 317 392
#     4   9  17  34  64  89 125 161 209 269 326 374
#     4  11  23  41  70  90 127 173 215 263 325 388
#     4  10  25  41  64  96 126 172 221 262 326 392
#     4  11  22  41  64  96 130 163 218 272 321 379
#
# _framework density 22.21368
#
# number of rings (size 3 to 8) (size 9 to 14) (size 15 to 20)
#    0.000    1.750    1.250    3.375    5.250    1.500 
#    6.750    0.625    0.000    0.000    0.000    0.000 
#    0.000    0.000    0.000    0.000    0.000    0.000 
#
# Total GULP energy -89147.836935 kJ/mol
# GULP energy per Si atom -5571.739808 kJ/mol
# Density = 2.216312 g / cm^3
# Si number density = 22.213680 Si / 1000 Ang^3
#
#
#
# Elastic Constant Matrix: (Units=GPa)
#
#
# Indices 1 2 3 4 5 6 
#
# 1 102.8144 29.9563 19.8795 23.3768 0.7189 0.5687
# 2 29.9563 67.6441 24.8475 45.1036 -8.3258 -7.7817
# 3 19.8795 24.8475 95.7311 36.6096 -17.4918 -7.1293
# 4 23.3768 45.1036 36.6096 47.6963 -12.3188 0.6867
# 5 0.7189 -8.3258 -17.4918 -12.3188 32.9067 6.8996
# 6 0.5687 -7.7817 -7.1293 0.6867 6.8996 27.8760
#
#
#
# Elastic Compliance Matrix: (Units=1/GPa)
#
#
# Indices 1 2 3 4 5 6 
#
# 1 0.011506 -0.004242 -0.001340 -0.001156 -0.002222 -0.001183
# 2 -0.004242 0.052787 0.009188 -0.057071 -0.007307 0.020387
# 3 -0.001340 0.009188 0.017208 -0.020752 0.002277 0.006941
# 4 -0.001156 -0.057071 -0.020752 0.096037 0.016296 -0.027615
# 5 -0.002222 -0.007307 0.002277 0.016296 0.038266 -0.011285
# 6 -0.001183 0.020387 0.006941 -0.027615 -0.011285 0.046837
#
#
# Mechanical properties :
#
#
# Convention : Reuss Voigt Hill
#
# Bulk Modulus (GPa) = 11.27230 46.17291 28.72261
# Shear Modulus (GPa) = 17.54385 34.46288 26.00336
#
# Velocity S-wave (km/s) = 2.81335 3.94309 3.42512
# Velocity P-wave (km/s) = 3.95458 6.44682 5.34791
#
# Compressibility (1/GPa) = 0.08871303
#
# Stress axis : x y z
#
# Youngs Moduli (GPa) = 86.90874 18.94419 58.11099
#
# Poissons Ratio (x) = 0.08036 0.07789
# Poissons Ratio (y) = 0.36867 -0.53394
# Poissons Ratio (z) = 0.11649 -0.17406
#
# Static dielectric constant tensor:
#      x y z
#    x 1.941660 -0.085360 0.012990 
#    y -0.085360 2.178620 0.010280 
#    z 0.012990 0.010280 1.892800 
# 
# From -- ./inp_files/174957.got.cif
#   From: 2010.05.17/outbox.cif.g08.bks.cpg/sg2_88_cif.got.tgz:174957.got - 2010.06.03 11:33:40.
