data_PCOD9045741
_publ_section_title
;
Structure prediction by ZEFSAII (Michael W. Deem and Ramdas Pophale) SiO2 
 PCOD9045741
Probable space group: P -1
;
_chemical_formula_sum "Si O2"
_cell_formula_units_Z 14
_cell_length_a 5.088147
_cell_length_b 10.922574
_cell_length_c 18.132895
_cell_angle_alpha 41.351086
_cell_angle_beta 61.060070
_cell_angle_gamma 56.464652
_cell_volume 550.569492
_symmetry_space_group_name_H-M "P -1"
_symmetry_group_IT_number 2
_symmetry_cell_setting 'triclinic'
loop_
_space_group_symop_operation_xyz
x,y,z
-x,-y,-z
loop_
_atom_site_type_symbol
_atom_site_label
_atom_site_fract_x
_atom_site_fract_y
_atom_site_fract_z
Si Si1 0.072703 0.675165 0.138012
Si Si2 0.176700 0.764310 0.697747
Si Si3 0.133413 0.292206 0.381020
Si Si4 0.561586 0.036833 0.070946
Si Si5 0.997787 0.714467 0.426814
Si Si6 0.058310 0.415900 0.948337
Si Si7 0.538398 0.070872 0.711448
O O1 0.089124 0.520562 0.268830
O O2 0.190328 0.567334 0.092195
O O3 0.254261 0.829757 0.051698
O O4 0.704909 0.818948 0.118266
O O5 0.093588 0.757916 0.625415
O O6 0.496822 0.816321 0.638479
O O7 0.241117 0.550628 0.822837
O O8 0.860010 0.906260 0.714372
O O9 0.063109 0.261259 0.488402
O O10 0.611872 0.009366 0.163941
O O11 0.205081 0.181618 0.045753
O O12 0.718028 0.856677 0.350712
O O13 0.000000 0.500000 0.500000
O O14 0.671703 0.240523 0.648091
O O15 0.000000 0.500000 0.000000
#
# Coordination Sequence:
#
# PCOD9045741 Si02
#       7
#     2   2   2   2   2   2   2
#     4  10  24  41  68 101 136 187 230 283 345 413
#     4  11  24  43  71 106 137 181 229 285 357 405
#     4  11  24  46  70  99 141 183 234 286 341 415
#     4  11  23  43  67 102 141 181 231 284 345 415
#     4  12  28  49  72  99 137 187 233 288 348 409
#     4  11  22  40  65 100 144 183 222 283 348 415
#     4  12  27  45  73 105 137 181 233 290 345 415
#
# _framework density 25.428215000000002
#
# number of rings (size 3 to 8) (size 9 to 14) (size 15 to 20)
#    0.000    0.857    2.857    3.429    2.000    7.429 
#    0.000    0.000    0.000    0.000    0.000    0.000 
#    0.000    0.000    0.000    0.000    0.000    0.000 
#
# Total GULP energy -78267.624387 kJ/mol
# GULP energy per Si atom -5590.544599 kJ/mol
# Density = 2.537034 g / cm^3
# Si number density = 25.428215 Si / 1000 Ang^3
#
#
#
# Elastic Constant Matrix: (Units=GPa)
#
#
# Indices 1 2 3 4 5 6 
#
# 1 95.8959 -2.2564 38.5582 3.6108 16.8938 -2.6554
# 2 -2.2564 86.0993 47.9741 9.0414 12.6990 3.1108
# 3 38.5582 47.9741 176.0544 7.4079 22.4392 2.3810
# 4 3.6108 9.0414 7.4079 31.8656 10.6474 0.5307
# 5 16.8938 12.6990 22.4392 10.6474 42.5359 -0.4383
# 6 -2.6554 3.1108 2.3810 0.5307 -0.4383 17.9071
#
#
#
# Elastic Compliance Matrix: (Units=1/GPa)
#
#
# Indices 1 2 3 4 5 6 
#
# 1 0.012426 0.002495 -0.002896 -0.000097 -0.004110 0.001697
# 2 0.002495 0.014668 -0.004083 -0.002606 -0.002580 -0.001621
# 3 -0.002896 -0.004083 0.007648 0.000307 -0.001750 -0.000789
# 4 -0.000097 -0.002606 0.000307 0.034767 -0.008056 -0.000830
# 5 -0.004110 -0.002580 -0.001750 -0.008056 0.028863 0.001017
# 6 0.001697 -0.001621 -0.000789 -0.000830 0.001017 0.056531
#
#
# Mechanical properties :
#
#
# Convention : Reuss Voigt Hill
#
# Bulk Modulus (GPa) = 38.80111 58.51127 48.65619
# Shear Modulus (GPa) = 28.99200 36.71331 32.85265
#
# Velocity S-wave (km/s) = 3.38027 3.80386 3.59831
# Velocity P-wave (km/s) = 5.52514 6.50790 6.03656
#
# Compressibility (1/GPa) = 0.02577246
#
# Stress axis : x y z
#
# Youngs Moduli (GPa) = 80.47707 68.17764 130.75790
#
# Poissons Ratio (x) = -0.17007 0.37870
# Poissons Ratio (y) = -0.20075 0.53385
# Poissons Ratio (z) = 0.23307 0.27835
#
# Static dielectric constant tensor:
#      x y z
#    x 2.084440 -0.055930 0.027530 
#    y -0.055930 2.111260 -0.071480 
#    z 0.027530 -0.071480 1.989860 
# 
# From -- ./inp_files/89756.got.cif
#   From: 2010.05.17/outbox.cif.g08.bks.cpg/sg2_45_cif.got.tgz:89756.got - 2010.06.03 11:33:40.
