data_PCOD9045812
_publ_section_title
;
Structure prediction by ZEFSAII (Michael W. Deem and Ramdas Pophale) SiO2 
 PCOD9045812
Probable space group: P -1
;
_chemical_formula_sum "Si O2"
_cell_formula_units_Z 14
_cell_length_a 10.088026
_cell_length_b 5.122613
_cell_length_c 11.502783
_cell_angle_alpha 96.437767
_cell_angle_beta 97.659031
_cell_angle_gamma 113.180015
_cell_volume 532.658091
_symmetry_space_group_name_H-M "P -1"
_symmetry_group_IT_number 2
_symmetry_cell_setting 'triclinic'
loop_
_space_group_symop_operation_xyz
x,y,z
-x,-y,-z
loop_
_atom_site_type_symbol
_atom_site_label
_atom_site_fract_x
_atom_site_fract_y
_atom_site_fract_z
Si Si1 0.638243 0.149381 0.773175
Si Si2 0.391899 0.339252 0.084107
Si Si3 0.021345 0.516636 0.141132
Si Si4 0.112251 0.286042 0.464241
Si Si5 0.148420 0.110963 0.855336
Si Si6 0.633639 0.806132 0.544923
Si Si7 0.196746 0.805632 0.636028
O O1 0.600985 0.416271 0.812571
O O2 0.814434 0.271998 0.799212
O O3 0.580371 0.907922 0.856154
O O4 0.587869 0.000823 0.635758
O O5 0.500000 0.500000 0.000000
O O6 0.238234 0.202963 0.989840
O O7 0.905426 0.644943 0.178599
O O8 0.988144 0.190005 0.152982
O O9 0.000000 0.500000 0.000000
O O10 0.227906 0.247855 0.390317
O O11 0.211869 0.516636 0.583178
O O12 0.985333 0.350184 0.389819
O O13 0.000000 0.000000 0.500000
O O14 0.236010 0.008030 0.764002
O O15 0.500000 0.500000 0.500000
O O16 0.715241 0.983654 0.448687
#
# Coordination Sequence:
#
# PCOD9045812 Si02
#       7
#     2   2   2   2   2   2   2
#     4  12  27  47  73 103 140 183 230 300 345 411
#     4  12  27  48  70 100 143 189 231 279 352 424
#     4  12  23  44  70 108 142 172 237 289 358 401
#     4   9  21  44  64  99 135 180 232 282 349 409
#     4  12  25  42  73 106 139 184 228 289 349 430
#     4  11  27  45  69 100 141 186 236 288 353 416
#     4  10  24  41  71 101 136 183 233 287 351 418
#
# _framework density 26.283277999999999
#
# number of rings (size 3 to 8) (size 9 to 14) (size 15 to 20)
#    0.000    0.857    2.857    2.571   14.000    1.714 
#    0.000    0.000    0.000    0.000    0.000    0.000 
#    0.000    0.000    0.000    0.000    0.000    0.000 
#
# Total GULP energy -78296.045027 kJ/mol
# GULP energy per Si atom -5592.574645 kJ/mol
# Density = 2.622346 g / cm^3
# Si number density = 26.283278 Si / 1000 Ang^3
#
#
#
# Elastic Constant Matrix: (Units=GPa)
#
#
# Indices 1 2 3 4 5 6 
#
# 1 68.5793 27.9520 11.7783 12.2552 -6.5068 6.8291
# 2 27.9520 148.7643 39.6084 19.7597 -11.4559 10.7796
# 3 11.7783 39.6084 131.7352 28.9594 -25.5995 15.5334
# 4 12.2552 19.7597 28.9594 50.9972 -3.6044 -8.2772
# 5 -6.5068 -11.4559 -25.5995 -3.6044 29.9359 4.4763
# 6 6.8291 10.7796 15.5334 -8.2772 4.4763 46.1563
#
#
#
# Elastic Compliance Matrix: (Units=1/GPa)
#
#
# Indices 1 2 3 4 5 6 
#
# 1 0.016787 -0.002401 0.001285 -0.004124 0.003851 -0.003469
# 2 -0.002401 0.008000 -0.001305 -0.001934 0.001424 -0.001559
# 3 0.001285 -0.001305 0.012122 -0.006971 0.010234 -0.006207
# 4 -0.004124 -0.001934 -0.006971 0.026312 -0.005728 0.008682
# 5 0.003851 0.001424 0.010234 -0.005728 0.044295 -0.009670
# 6 -0.003469 -0.001559 -0.006207 0.008682 -0.009670 0.027127
#
#
# Mechanical properties :
#
#
# Convention : Reuss Voigt Hill
#
# Bulk Modulus (GPa) = 31.18418 56.41737 43.80077
# Shear Modulus (GPa) = 33.29488 43.40055 38.34771
#
# Velocity S-wave (km/s) = 3.56303 4.06798 3.82385
# Velocity P-wave (km/s) = 5.36818 6.60124 6.01638
#
# Compressibility (1/GPa) = 0.03206755
#
# Stress axis : x y z
#
# Youngs Moduli (GPa) = 59.56891 124.99855 82.49742
#
# Poissons Ratio (x) = 0.30007 -0.10600
# Poissons Ratio (y) = 0.14300 0.10766
# Poissons Ratio (z) = -0.07654 0.16312
#
# Static dielectric constant tensor:
#      x y z
#    x 2.281330 -0.044560 0.031600 
#    y -0.044560 2.070500 -0.027740 
#    z 0.031600 -0.027740 2.179460 
# 
# From -- ./inp_files/60685.got.cif
#   From: 2010.05.17/outbox.cif.g08.bks.cpg/sg2_31_cif.got.tgz:60685.got - 2010.06.03 11:33:40.
