data_PCOD9045194
_publ_section_title
;
Structure prediction by ZEFSAII (Michael W. Deem and Ramdas Pophale) SiO2 
 PCOD9045194
Probable space group: P -1
;
_chemical_formula_sum "Si O2"
_cell_formula_units_Z 15
_cell_length_a 9.746341
_cell_length_b 14.158692
_cell_length_c 5.555489
_cell_angle_alpha 55.135890
_cell_angle_beta 105.111692
_cell_angle_gamma 112.338790
_cell_volume 580.868794
_symmetry_space_group_name_H-M "P -1"
_symmetry_group_IT_number 2
_symmetry_cell_setting 'triclinic'
loop_
_space_group_symop_operation_xyz
x,y,z
-x,-y,-z
loop_
_atom_site_type_symbol
_atom_site_label
_atom_site_fract_x
_atom_site_fract_y
_atom_site_fract_z
Si Si1 0.213108 0.829404 0.581719
Si Si2 0.774944 0.421476 0.935331
Si Si3 0.745180 0.836694 0.820201
Si Si4 0.505652 0.900919 0.342081
Si Si5 0.344305 0.411655 0.131303
Si Si6 0.526910 0.716093 0.260979
Si Si7 0.000000 0.500000 0.500000
Si Si8 0.057553 0.804732 0.055569
O O1 0.388577 0.887114 0.526693
O O2 0.136999 0.858882 0.263327
O O3 0.178259 0.685484 0.770005
O O4 0.153006 0.845585 0.794977
O O5 0.775369 0.516525 0.006609
O O6 0.607303 0.360085 0.852442
O O7 0.877012 0.483487 0.675095
O O8 0.669803 0.908786 0.500161
O O9 0.697839 0.700393 0.896865
O O10 0.646898 0.826263 0.029095
O O11 0.918078 0.859445 0.893740
O O12 0.456418 0.771994 0.366085
O O13 0.500000 0.000000 0.000000
O O14 0.374871 0.364542 0.474620
O O15 0.500000 0.500000 0.000000
O O16 0.979527 0.342195 0.737519
#
# Coordination Sequence:
#
# PCOD9045194 Si02
#       8
#     2   2   2   2   2   2   1   2
#     4  11  25  48  67 102 145 188 225 299 355 418
#     4  11  21  40  63  99 141 190 234 274 339 414
#     4  11  25  43  66 104 131 190 231 296 342 421
#     4  11  25  48  78 101 126 177 243 303 366 428
#     4  11  22  34  63  95 137 178 235 281 335 400
#     4  11  22  42  66  96 142 171 237 296 351 401
#     4  10  24  34  62  94 140 200 232 254 338 418
#     4  11  27  43  69  99 156 186 235 279 355 417
#
# _framework density 25.823388000000001
#
# number of rings (size 3 to 8) (size 9 to 14) (size 15 to 20)
#    0.000    1.067    2.667    3.600    9.333    1.600 
#    0.000    1.333    0.000    0.000    0.000    0.000 
#    0.000    0.000    0.000    0.000    0.000    0.000 
#
# Total GULP energy -83747.487712 kJ/mol
# GULP energy per Si atom -5583.165847 kJ/mol
# Density = 2.576461 g / cm^3
# Si number density = 25.823388 Si / 1000 Ang^3
#
#
#
# Elastic Constant Matrix: (Units=GPa)
#
#
# Indices 1 2 3 4 5 6 
#
# 1 141.5416 28.2281 67.1502 -5.4300 -31.2495 -1.1209
# 2 28.2281 64.2414 31.7985 -14.3982 -4.7367 -0.0694
# 3 67.1502 31.7985 149.6538 2.2941 -24.0670 5.7637
# 4 -5.4300 -14.3982 2.2941 32.7588 -0.1804 5.1945
# 5 -31.2495 -4.7367 -24.0670 -0.1804 40.2530 9.9319
# 6 -1.1209 -0.0694 5.7637 5.1945 9.9319 30.8082
#
#
#
# Elastic Compliance Matrix: (Units=1/GPa)
#
#
# Indices 1 2 3 4 5 6 
#
# 1 0.010439 -0.002301 -0.003159 0.001173 0.006259 -0.001250
# 2 -0.002301 0.020240 -0.003619 0.008821 -0.001433 -0.000386
# 3 -0.003159 -0.003619 0.009566 -0.002346 0.003482 -0.002640
# 4 0.001173 0.008821 -0.002346 0.035766 0.002249 -0.006254
# 5 0.006259 -0.001433 0.003482 0.002249 0.034574 -0.011952
# 6 -0.001250 -0.000386 -0.002640 -0.006254 -0.011952 0.037814
#
#
# Mechanical properties :
#
#
# Convention : Reuss Voigt Hill
#
# Bulk Modulus (GPa) = 45.27297 67.75451 56.51374
# Shear Modulus (GPa) = 28.74910 35.98132 32.36521
#
# Velocity S-wave (km/s) = 3.34023 3.73683 3.54408
# Velocity P-wave (km/s) = 5.69614 6.70172 6.21929
#
# Compressibility (1/GPa) = 0.02208824
#
# Stress axis : x y z
#
# Youngs Moduli (GPa) = 95.79176 49.40825 104.53674
#
# Poissons Ratio (x) = 0.11367 0.33020
# Poissons Ratio (y) = 0.22037 0.37833
# Poissons Ratio (z) = 0.30257 0.17881
#
# Static dielectric constant tensor:
#      x y z
#    x 2.153850 0.140950 0.213840 
#    y 0.140950 2.285980 0.152500 
#    z 0.213840 0.152500 2.209650 
# 
# From -- ./inp_files/43123.got.cif
#   From: 2010.05.17/outbox.cif.g08.bks.cpg/sg2_22_cif.got.tgz:43123.got - 2010.06.03 11:33:40.
