data_PCOD9045834
_publ_section_title
;
Structure prediction by ZEFSAII (Michael W. Deem and Ramdas Pophale) SiO2 
 PCOD9045834
Probable space group: P -1
;
_chemical_formula_sum "Si O2"
_cell_formula_units_Z 14
_cell_length_a 10.253001
_cell_length_b 8.815163
_cell_length_c 10.218315
_cell_angle_alpha 69.415195
_cell_angle_beta 95.837693
_cell_angle_gamma 138.041211
_cell_volume 558.914302
_symmetry_space_group_name_H-M "P -1"
_symmetry_group_IT_number 2
_symmetry_cell_setting 'triclinic'
loop_
_space_group_symop_operation_xyz
x,y,z
-x,-y,-z
loop_
_atom_site_type_symbol
_atom_site_label
_atom_site_fract_x
_atom_site_fract_y
_atom_site_fract_z
Si Si1 0.432469 0.328564 0.924581
Si Si2 0.155570 0.457134 0.353853
Si Si3 0.902241 0.200165 0.946172
Si Si4 0.721721 0.770186 0.624816
Si Si5 0.559175 0.224976 0.504968
Si Si6 0.991153 0.266618 0.645169
Si Si7 0.756523 0.382587 0.974650
O O1 0.536235 0.505950 0.757266
O O2 0.537133 0.252097 0.984314
O O3 0.500000 0.500000 0.000000
O O4 0.199049 0.069155 0.966165
O O5 0.171939 0.276953 0.425036
O O6 0.363534 0.724339 0.353385
O O7 0.133337 0.463895 0.197069
O O8 0.984281 0.345158 0.475285
O O9 0.897465 0.240477 0.779275
O O10 0.787565 0.220595 0.022302
O O11 0.129144 0.428484 0.950731
O O12 0.620743 0.815730 0.514334
O O13 0.865384 0.985487 0.684453
O O14 0.765669 0.497327 0.381901
O O15 0.500000 0.000000 0.500000
#
# Coordination Sequence:
#
# PCOD9045834 Si02
#       7
#     2   2   2   2   2   2   2
#     4  11  24  42  69  97 134 182 226 275 326 403
#     4   9  23  45  66 100 136 171 224 279 332 399
#     4  11  24  46  70  98 138 183 222 277 335 398
#     4  11  22  44  66  98 136 175 221 280 336 388
#     4  10  25  42  67 101 128 175 221 274 338 403
#     4  10  24  41  72  96 133 174 223 279 330 402
#     4  10  25  46  66  99 138 177 228 275 337 396
#
# _framework density 25.048565
#
# number of rings (size 3 to 8) (size 9 to 14) (size 15 to 20)
#    0.857    0.857    1.429    1.286    4.000    5.143 
#   15.429    0.000    0.000    0.000    0.000    0.000 
#    0.000    0.000    0.000    0.000    0.000    0.000 
#
# Total GULP energy -78115.845693 kJ/mol
# GULP energy per Si atom -5579.703264 kJ/mol
# Density = 2.499155 g / cm^3
# Si number density = 25.048565 Si / 1000 Ang^3
#
#
#
# Elastic Constant Matrix: (Units=GPa)
#
#
# Indices 1 2 3 4 5 6 
#
# 1 74.1035 22.8280 -7.5654 11.4821 4.3098 -4.5963
# 2 22.8280 181.3548 28.4808 10.9204 5.4872 0.8536
# 3 -7.5654 28.4808 90.9186 17.1587 -12.6689 -3.2133
# 4 11.4821 10.9204 17.1587 36.7503 1.6354 -6.9153
# 5 4.3098 5.4872 -12.6689 1.6354 29.3750 6.0316
# 6 -4.5963 0.8536 -3.2133 -6.9153 6.0316 25.4569
#
#
#
# Elastic Compliance Matrix: (Units=1/GPa)
#
#
# Indices 1 2 3 4 5 6 
#
# 1 0.015383 -0.002063 0.002856 -0.005116 -0.000765 0.001999
# 2 -0.002063 0.006207 -0.002358 -0.000112 -0.001767 -0.000490
# 3 0.002856 -0.002358 0.014281 -0.007396 0.006846 -0.001234
# 4 -0.005116 -0.000112 -0.007396 0.034246 -0.006154 0.008907
# 5 -0.000765 -0.001767 0.006846 -0.006154 0.039903 -0.010341
# 6 0.001999 -0.000490 -0.001234 0.008907 -0.010341 0.044373
#
#
# Mechanical properties :
#
#
# Convention : Reuss Voigt Hill
#
# Bulk Modulus (GPa) = 30.54350 48.20708 39.37529
# Shear Modulus (GPa) = 29.68458 38.49203 34.08830
#
# Velocity S-wave (km/s) = 3.44624 3.92432 3.69302
# Velocity P-wave (km/s) = 5.29675 6.31039 5.82566
#
# Compressibility (1/GPa) = 0.03274019
#
# Stress axis : x y z
#
# Youngs Moduli (GPa) = 65.00701 161.11855 70.02101
#
# Poissons Ratio (x) = 0.33238 -0.19997
# Poissons Ratio (y) = 0.13411 0.16513
# Poissons Ratio (z) = -0.18565 0.37996
#
# Static dielectric constant tensor:
#      x y z
#    x 2.035700 -0.055760 0.031010 
#    y -0.055760 1.998430 -0.035380 
#    z 0.031010 -0.035380 1.993650 
# 
# From -- ./inp_files/414702.got.cif
#   From: 2010.05.17/outbox.cif.g08.bks.cpg/sg2_208_cif.got.tgz:414702.got - 2010.06.03 11:33:40.
