data_PCOD9045172
_publ_section_title
;
Structure prediction by ZEFSAII (Michael W. Deem and Ramdas Pophale) SiO2 
 PCOD9045172
Probable space group: P -1
;
_chemical_formula_sum "Si O2"
_cell_formula_units_Z 12
_cell_length_a 6.422491
_cell_length_b 17.226149
_cell_length_c 14.672976
_cell_angle_alpha 20.754319
_cell_angle_beta 119.340734
_cell_angle_gamma 120.264177
_cell_volume 495.919352
_symmetry_space_group_name_H-M "P -1"
_symmetry_group_IT_number 2
_symmetry_cell_setting 'triclinic'
loop_
_space_group_symop_operation_xyz
x,y,z
-x,-y,-z
loop_
_atom_site_type_symbol
_atom_site_label
_atom_site_fract_x
_atom_site_fract_y
_atom_site_fract_z
Si Si1 0.427190 0.847658 0.063360
Si Si2 0.767663 0.384813 0.953113
Si Si3 0.921566 0.815294 0.404709
Si Si4 0.261135 0.370158 0.136865
Si Si5 0.544385 0.010422 0.608100
Si Si6 0.846834 0.615333 0.413724
O O1 0.674612 0.778425 0.152565
O O2 0.295253 0.607765 0.327272
O O3 0.500000 0.000000 0.000000
O O4 0.235544 0.987732 0.824107
O O5 0.773462 0.589370 0.662022
O O6 0.779562 0.475234 0.958564
O O7 0.529488 0.205861 0.107816
O O8 0.035450 0.312857 0.083276
O O9 0.959413 0.760068 0.366121
O O10 0.184641 0.874377 0.441434
O O11 0.339393 0.154283 0.434747
O O12 0.500000 0.500000 0.000000
O O13 0.500000 0.000000 0.500000
O O14 0.000000 0.500000 0.500000
#
# Coordination Sequence:
#
# PCOD9045172 Si02
#       6
#     2   2   2   2   2   2
#     4   9  22  48  73 106 145 181 243 307 379 444
#     4  11  24  43  69 100 145 198 241 309 357 422
#     4  11  25  46  72 114 148 189 256 303 369 449
#     4  11  21  44  67  97 146 191 251 297 360 424
#     4  12  24  44  75 102 148 202 244 297 360 429
#     4  10  23  50  79 103 146 192 237 308 382 447
#
# _framework density 24.197483999999999
#
# number of rings (size 3 to 8) (size 9 to 14) (size 15 to 20)
#    0.000    1.333    3.333    1.500    0.000    6.667 
#   24.000    0.000    0.000    0.000    0.000    0.000 
#    0.000    0.000    0.000    0.000    0.000    0.000 
#
# Total GULP energy -66896.475450 kJ/mol
# GULP energy per Si atom -5574.706288 kJ/mol
# Density = 2.414241 g / cm^3
# Si number density = 24.197484 Si / 1000 Ang^3
#
#
#
# Elastic Constant Matrix: (Units=GPa)
#
#
# Indices 1 2 3 4 5 6 
#
# 1 105.2868 43.5411 43.0665 4.9241 9.1089 -11.8630
# 2 43.5411 125.7887 22.4982 3.9696 -2.3512 7.2829
# 3 43.0665 22.4982 132.8407 0.6426 4.7004 14.6277
# 4 4.9241 3.9696 0.6426 28.6790 4.1562 -0.9745
# 5 9.1089 -2.3512 4.7004 4.1562 53.0993 -0.1532
# 6 -11.8630 7.2829 14.6277 -0.9745 -0.1532 15.9950
#
#
#
# Elastic Compliance Matrix: (Units=1/GPa)
#
#
# Indices 1 2 3 4 5 6 
#
# 1 0.017727 -0.006185 -0.007065 -0.000900 -0.002554 0.022346
# 2 -0.006185 0.010525 0.001350 -0.000998 0.001455 -0.010662
# 3 -0.007065 0.001350 0.011370 0.000190 0.000204 -0.016239
# 4 -0.000900 -0.000998 0.000190 0.035606 -0.002689 0.001757
# 5 -0.002554 0.001455 0.000204 -0.002689 0.019520 -0.002720
# 6 0.022346 -0.010662 -0.016239 0.001757 -0.002720 0.098879
#
#
# Mechanical properties :
#
#
# Convention : Reuss Voigt Hill
#
# Bulk Modulus (GPa) = 63.20887 64.68087 63.94487
# Shear Modulus (GPa) = 22.45156 36.54202 29.49679
#
# Velocity S-wave (km/s) = 3.04936 3.89029 3.49521
# Velocity P-wave (km/s) = 6.21103 6.85329 6.54005
#
# Compressibility (1/GPa) = 0.01582056
#
# Stress axis : x y z
#
# Youngs Moduli (GPa) = 56.41229 95.00802 87.95297
#
# Poissons Ratio (x) = 0.58767 0.62140
# Poissons Ratio (y) = 0.34894 -0.11874
# Poissons Ratio (z) = 0.39856 -0.12827
#
# Static dielectric constant tensor:
#      x y z
#    x 2.259080 0.055880 0.139990 
#    y 0.055880 2.060750 -0.035720 
#    z 0.139990 -0.035720 2.082230 
# 
# From -- ./inp_files/484851.got.cif
#   From: 2010.05.17/outbox.cif.g08.bks.cpg/sg2_243_cif.got.tgz:484851.got - 2010.06.03 11:33:40.
