data_PCOD9045703
_publ_section_title
;
Structure prediction by ZEFSAII (Michael W. Deem and Ramdas Pophale) SiO2 
 PCOD9045703
Probable space group: P -1
;
_chemical_formula_sum "Si O2"
_cell_formula_units_Z 14
_cell_length_a 13.617293
_cell_length_b 11.043773
_cell_length_c 10.822761
_cell_angle_alpha 88.043809
_cell_angle_beta 67.730793
_cell_angle_gamma 31.418834
_cell_volume 628.358845
_symmetry_space_group_name_H-M "P -1"
_symmetry_group_IT_number 2
_symmetry_cell_setting 'triclinic'
loop_
_space_group_symop_operation_xyz
x,y,z
-x,-y,-z
loop_
_atom_site_type_symbol
_atom_site_label
_atom_site_fract_x
_atom_site_fract_y
_atom_site_fract_z
Si Si1 0.506657 0.322383 0.269117
Si Si2 0.257601 0.660888 0.859913
Si Si3 0.283311 0.152238 0.393611
Si Si4 0.737907 0.844927 0.104131
Si Si5 0.366092 0.362569 0.595899
Si Si6 0.829431 0.832698 0.808612
Si Si7 0.541066 0.598932 0.976326
O O1 0.562066 0.408238 0.245435
O O2 0.388455 0.404493 0.451778
O O3 0.735980 0.986185 0.149368
O O4 0.357807 0.462377 0.203289
O O5 0.290740 0.536328 0.733227
O O6 0.306360 0.535036 0.967246
O O7 0.000000 0.000000 0.000000
O O8 0.284632 0.069305 0.273595
O O9 0.000000 0.500000 0.500000
O O10 0.500831 0.027478 0.276963
O O11 0.378526 0.972464 0.469700
O O12 0.696876 0.890292 0.974507
O O13 0.000000 0.500000 0.000000
O O14 0.132200 0.511042 0.686456
O O15 0.741444 0.056633 0.882855
O O16 0.500000 0.500000 0.000000
#
# Coordination Sequence:
#
# PCOD9045703 Si02
#       7
#     2   2   2   2   2   2   2
#     4  10  24  41  67 101 139 178 230 290 357 404
#     4  11  22  44  71 101 138 184 235 288 351 430
#     4  12  27  44  69 104 145 187 235 294 355 414
#     4  11  23  44  71 100 137 193 240 284 342 425
#     4  12  24  45  71 105 145 180 230 299 361 412
#     4  11  23  44  70  98 138 183 239 285 347 420
#     4   9  19  41  65  94 131 175 232 277 339 420
#
# _framework density 22.280263000000001
#
# number of rings (size 3 to 8) (size 9 to 14) (size 15 to 20)
#    0.000    1.143    2.857    4.286    2.000    1.143 
#    7.714    3.571    0.000    0.000    0.000    0.000 
#    0.000    0.000    0.000    0.000    0.000    0.000 
#
# Total GULP energy -77984.545500 kJ/mol
# GULP energy per Si atom -5570.324679 kJ/mol
# Density = 2.222955 g / cm^3
# Si number density = 22.280263 Si / 1000 Ang^3
#
#
#
# Elastic Constant Matrix: (Units=GPa)
#
#
# Indices 1 2 3 4 5 6 
#
# 1 69.4278 20.7293 7.7999 -6.5740 12.0986 -3.3835
# 2 20.7293 136.1506 54.3035 -10.4801 11.6636 -1.9752
# 3 7.7999 54.3035 91.0715 -31.3232 13.2334 -10.7929
# 4 -6.5740 -10.4801 -31.3232 56.6336 -4.1303 11.4435
# 5 12.0986 11.6636 13.2334 -4.1303 31.8565 -2.7071
# 6 -3.3835 -1.9752 -10.7929 11.4435 -2.7071 27.8374
#
#
#
# Elastic Compliance Matrix: (Units=1/GPa)
#
#
# Indices 1 2 3 4 5 6 
#
# 1 0.016151 -0.002482 0.001621 0.001665 -0.005582 0.001188
# 2 -0.002482 0.010240 -0.006622 -0.001793 -0.000411 -0.001445
# 3 0.001621 -0.006622 0.018696 0.008341 -0.004613 0.003099
# 4 0.001665 -0.001793 0.008341 0.023352 -0.000955 -0.006384
# 5 -0.005582 -0.000411 -0.004613 -0.000955 0.035569 0.001356
# 6 0.001188 -0.001445 0.003099 -0.006384 0.001356 0.039922
#
#
# Mechanical properties :
#
#
# Convention : Reuss Voigt Hill
#
# Bulk Modulus (GPa) = 33.19845 51.36836 42.28341
# Shear Modulus (GPa) = 29.59718 37.51997 33.55858
#
# Velocity S-wave (km/s) = 3.64868 4.10811 3.88519
# Velocity P-wave (km/s) = 5.71692 6.75335 6.25663
#
# Compressibility (1/GPa) = 0.03012189
#
# Stress axis : x y z
#
# Youngs Moduli (GPa) = 61.91719 97.65701 53.48716
#
# Poissons Ratio (x) = 0.24239 -0.08672
# Poissons Ratio (y) = 0.15368 0.35417
# Poissons Ratio (z) = -0.10038 0.64664
#
# Static dielectric constant tensor:
#      x y z
#    x 1.883640 0.014170 0.027360 
#    y 0.014170 1.937610 -0.016990 
#    z 0.027360 -0.016990 1.891190 
# 
# From -- ./inp_files/452261.got.cif
#   From: 2010.05.17/outbox.cif.g08.bks.cpg/sg2_227_cif.got.tgz:452261.got - 2010.06.03 11:33:40.
