data_PCOD9045039
_publ_section_title
;
Structure prediction by ZEFSAII (Michael W. Deem and Ramdas Pophale) SiO2 
 PCOD9045039
Probable space group: P -1
;
_chemical_formula_sum "Si O2"
_cell_formula_units_Z 12
_cell_length_a 15.336526
_cell_length_b 7.211025
_cell_length_c 5.440478
_cell_angle_alpha 82.848142
_cell_angle_beta 107.376522
_cell_angle_gamma 127.462299
_cell_volume 454.486356
_symmetry_space_group_name_H-M "P -1"
_symmetry_group_IT_number 2
_symmetry_cell_setting 'triclinic'
loop_
_space_group_symop_operation_xyz
x,y,z
-x,-y,-z
loop_
_atom_site_type_symbol
_atom_site_label
_atom_site_fract_x
_atom_site_fract_y
_atom_site_fract_z
Si Si1 0.911667 0.096155 0.319014
Si Si2 0.537284 0.760062 0.532519
Si Si3 0.700559 0.411835 0.791730
Si Si4 0.096992 0.576348 0.272494
Si Si5 0.327966 0.974423 0.896099
Si Si6 0.852880 0.935432 0.786081
O O1 0.795809 0.077295 0.181779
O O2 0.886403 0.918394 0.541170
O O3 0.021422 0.359820 0.432635
O O4 0.929221 0.024225 0.079624
O O5 0.500000 0.500000 0.500000
O O6 0.418828 0.729164 0.426876
O O7 0.744591 0.677641 0.814209
O O8 0.600442 0.871422 0.827423
O O9 0.801088 0.427087 0.734254
O O10 0.610365 0.902140 0.327406
O O11 0.685311 0.266139 0.045510
O O12 0.151581 0.847333 0.312838
O O13 0.000000 0.500000 0.000000
#
# Coordination Sequence:
#
# PCOD9045039 Si02
#       6
#     2   2   2   2   2   2
#     4  11  23  48  75 104 150 193 235 307 361 424
#     4  12  28  49  75 107 145 194 243 299 358 431
#     4  12  26  47  78 109 145 197 240 301 366 432
#     4  10  23  48  75 108 149 188 242 305 363 427
#     4  12  25  48  73 106 148 188 242 299 360 429
#     4  11  25  46  71 109 147 189 243 293 363 433
#
# _framework density 26.403435000000002
#
# number of rings (size 3 to 8) (size 9 to 14) (size 15 to 20)
#    0.000    0.667    3.333    5.000    0.000    6.000 
#    0.000    0.000    0.000    0.000    0.000    0.000 
#    0.000    0.000    0.000    0.000    0.000    0.000 
#
# Total GULP energy -67140.394853 kJ/mol
# GULP energy per Si atom -5595.032904 kJ/mol
# Density = 2.634334 g / cm^3
# Si number density = 26.403435 Si / 1000 Ang^3
#
#
#
# Elastic Constant Matrix: (Units=GPa)
#
#
# Indices 1 2 3 4 5 6 
#
# 1 152.7980 49.9413 49.9419 10.8700 26.9236 22.5751
# 2 49.9413 221.5892 69.0580 -17.3206 -0.5600 -2.4186
# 3 49.9419 69.0580 179.3564 -11.5195 -1.2943 11.7942
# 4 10.8700 -17.3206 -11.5195 52.0618 6.3206 -5.0592
# 5 26.9236 -0.5600 -1.2943 6.3206 46.9656 2.2409
# 6 22.5751 -2.4186 11.7942 -5.0592 2.2409 39.4586
#
#
#
# Elastic Compliance Matrix: (Units=1/GPa)
#
#
# Indices 1 2 3 4 5 6 
#
# 1 0.009603 -0.001893 -0.001830 -0.002942 -0.004936 -0.005160
# 2 -0.001893 0.005637 -0.001649 0.002025 0.000732 0.002139
# 3 -0.001830 -0.001649 0.006867 0.001118 0.001117 -0.001027
# 4 -0.002942 0.002025 0.001118 0.021321 -0.001332 0.004282
# 5 -0.004936 0.000732 0.001117 -0.001332 0.024294 0.000984
# 6 -0.005160 0.002139 -0.001027 0.004282 0.000984 0.029226
#
#
# Mechanical properties :
#
#
# Convention : Reuss Voigt Hill
#
# Bulk Modulus (GPa) = 88.00170 99.06956 93.53563
# Shear Modulus (GPa) = 44.85170 53.35068 49.10119
#
# Velocity S-wave (km/s) = 4.12601 4.49998 4.31705
# Velocity P-wave (km/s) = 7.49003 8.03758 7.76863
#
# Compressibility (1/GPa) = 0.01136342
#
# Stress axis : x y z
#
# Youngs Moduli (GPa) = 104.13698 177.41061 145.61686
#
# Poissons Ratio (x) = 0.33575 0.26655
# Poissons Ratio (y) = 0.19708 0.24007
# Poissons Ratio (z) = 0.19062 0.29249
#
# Static dielectric constant tensor:
#      x y z
#    x 2.202970 -0.020140 -0.106160 
#    y -0.020140 2.085550 0.017800 
#    z -0.106160 0.017800 2.118440 
# 
# From -- ./inp_files/86511.got.cif
#   From: 2010.05.17/outbox.cif.g08.bks.cpg/sg2_44_cif.got.tgz:86511.got - 2010.06.03 11:33:40.
