data_PCOD9045512
_publ_section_title
;
Structure prediction by ZEFSAII (Michael W. Deem and Ramdas Pophale) SiO2 
 PCOD9045512
Probable space group: P -1
;
_chemical_formula_sum "Si O2"
_cell_formula_units_Z 15
_cell_length_a 18.882865
_cell_length_b 5.387219
_cell_length_c 9.327709
_cell_angle_alpha 129.804652
_cell_angle_beta 107.647464
_cell_angle_gamma 60.258431
_cell_volume 632.781552
_symmetry_space_group_name_H-M "P -1"
_symmetry_group_IT_number 2
_symmetry_cell_setting 'triclinic'
loop_
_space_group_symop_operation_xyz
x,y,z
-x,-y,-z
loop_
_atom_site_type_symbol
_atom_site_label
_atom_site_fract_x
_atom_site_fract_y
_atom_site_fract_z
Si Si1 0.578882 0.258818 0.547312
Si Si2 0.517177 0.346409 0.111807
Si Si3 0.009867 0.657416 0.718876
Si Si4 0.807791 0.465974 0.190558
Si Si5 0.262430 0.722885 0.449052
Si Si6 0.145123 0.582265 0.113926
Si Si7 0.000000 0.500000 0.000000
Si Si8 0.671140 0.454823 0.271703
O O1 0.500000 0.500000 0.500000
O O2 0.544542 0.327693 0.710820
O O3 0.653744 0.371585 0.619446
O O4 0.610605 0.862841 0.360565
O O5 0.611576 0.257097 0.173709
O O6 0.500000 0.500000 0.000000
O O7 0.500000 0.000000 0.000000
O O8 0.000000 0.500000 0.500000
O O9 0.096398 0.681883 0.771311
O O10 0.939353 0.057183 0.823812
O O11 0.008362 0.481636 0.808596
O O12 0.743997 0.314108 0.151059
O O13 0.774824 0.858018 0.386297
O O14 0.803850 0.490383 0.025776
O O15 0.197569 0.622896 0.290172
O O16 0.286315 0.542532 0.550712
O O17 0.098959 0.331286 0.015079
#
# Coordination Sequence:
#
# PCOD9045512 Si02
#       8
#     2   2   2   2   2   2   1   2
#     4  11  24  49  73 100 147 197 251 312 386 468
#     4  12  28  46  77 113 149 200 257 320 395 471
#     4  11  23  46  72 102 149 198 255 311 381 459
#     4  10  24  45  67 107 147 188 249 326 371 466
#     4  11  25  42  72 105 145 194 249 313 393 454
#     4  11  25  46  71 105 148 198 252 312 380 463
#     4  10  24  40  70 104 140 196 250 310 378 448
#     4  11  26  47  74 105 147 197 251 322 385 470
#
# _framework density 23.704861999999999
#
# number of rings (size 3 to 8) (size 9 to 14) (size 15 to 20)
#    0.000    1.067    2.667    2.800    7.467    4.800 
#    0.000    0.000    0.000    0.000    0.000    0.000 
#    0.000    0.000    0.000    0.000    0.000    0.000 
#
# Total GULP energy -83641.380652 kJ/mol
# GULP energy per Si atom -5576.092043 kJ/mol
# Density = 2.365091 g / cm^3
# Si number density = 23.704862 Si / 1000 Ang^3
#
#
#
# Elastic Constant Matrix: (Units=GPa)
#
#
# Indices 1 2 3 4 5 6 
#
# 1 111.5087 93.7285 12.1723 41.0071 -78.6818 -71.0223
# 2 93.7285 71.1831 53.8416 -35.3374 32.7809 8.7641
# 3 12.1723 53.8416 94.8060 -4.0718 -42.5383 -32.7168
# 4 41.0071 -35.3374 -4.0718 2.6548 31.7114 33.1069
# 5 -78.6818 32.7809 -42.5383 31.7114 14.8120 -42.7357
# 6 -71.0223 8.7641 -32.7168 33.1069 -42.7357 6.2758
#
#
#
# Elastic Compliance Matrix: (Units=1/GPa)
#
#
# Indices 1 2 3 4 5 6 
#
# 1 0.004105 -0.000076 -0.002631 0.003510 -0.002589 -0.003291
# 2 -0.000076 0.011537 -0.002051 -0.003282 0.002931 0.009612
# 3 -0.002631 -0.002051 0.013469 0.011611 0.002541 -0.000640
# 4 0.003510 -0.003282 0.011611 0.034184 0.012429 0.009137
# 5 -0.002589 0.002931 0.002541 0.012429 0.011762 -0.005615
# 6 -0.003291 0.009612 -0.000640 0.009137 -0.005615 0.018903
#
#
# Mechanical properties :
#
#
# Convention : Reuss Voigt Hill
#
# Bulk Modulus (GPa) = 51.03212 66.33141 58.68177
# Shear Modulus (GPa) = 45.45153 12.59888 29.02521
#
# Velocity S-wave (km/s) = 4.38355 2.30791 3.50300
# Velocity P-wave (km/s) = 6.86991 5.92831 6.41640
#
# Compressibility (1/GPa) = 0.01959550
#
# Stress axis : x y z
#
# Youngs Moduli (GPa) = 243.58729 86.67704 74.24695
#
# Poissons Ratio (x) = 0.00660 0.19531
# Poissons Ratio (y) = 0.01855 0.15228
# Poissons Ratio (z) = 0.64077 0.17778
#
# Static dielectric constant tensor:
#      x y z
#    x 1.979250 0.097350 -0.063740 
#    y 0.097350 2.011430 -0.016070 
#    z -0.063740 -0.016070 1.974820 
# 
# From -- ./inp_files/324268.got.cif
#   From: 2010.05.17/outbox.cif.g08.bks.cpg/sg2_163_cif.got.tgz:324268.got - 2010.06.03 11:33:40.
