data_PCOD9045146
_publ_section_title
;
Structure prediction by ZEFSAII (Michael W. Deem and Ramdas Pophale) SiO2 
 PCOD9045146
Probable space group: P -1
;
_chemical_formula_sum "Si O2"
_cell_formula_units_Z 16
_cell_length_a 21.101920
_cell_length_b 9.797393
_cell_length_c 5.382460
_cell_angle_alpha 132.286376
_cell_angle_beta 62.982924
_cell_angle_gamma 131.706147
_cell_volume 614.553906
_symmetry_space_group_name_H-M "P -1"
_symmetry_group_IT_number 2
_symmetry_cell_setting 'triclinic'
loop_
_space_group_symop_operation_xyz
x,y,z
-x,-y,-z
loop_
_atom_site_type_symbol
_atom_site_label
_atom_site_fract_x
_atom_site_fract_y
_atom_site_fract_z
Si Si1 0.314728 0.976875 0.571798
Si Si2 0.163789 0.604901 0.152519
Si Si3 0.379699 0.450330 0.444999
Si Si4 0.447082 0.196263 0.234606
Si Si5 0.406500 0.820387 0.541913
Si Si6 0.202916 0.110240 0.236218
Si Si7 0.123137 0.333408 0.381797
Si Si8 0.048291 0.724185 0.349240
O O1 0.253681 0.831516 0.277246
O O2 0.340295 0.831690 0.501976
O O3 0.399290 0.185358 0.558894
O O4 0.255982 0.029154 0.899395
O O5 0.158053 0.456048 0.208837
O O6 0.092757 0.661974 0.403530
O O7 0.149715 0.492261 0.772080
O O8 0.412136 0.285387 0.197008
O O9 0.452014 0.642878 0.728089
O O10 0.388606 0.584030 0.343626
O O11 0.279227 0.313055 0.509552
O O12 0.413022 0.944431 0.938173
O O13 0.500000 0.000000 0.500000
O O14 0.159386 0.186341 0.210193
O O15 0.126963 0.922784 0.304753
O O16 0.021336 0.219080 0.400872
O O17 0.000000 0.500000 0.000000
#
# Coordination Sequence:
#
# PCOD9045146 Si02
#       8
#     2   2   2   2   2   2   2   2
#     4  12  26  46  73 105 157 199 259 313 389 462
#     4  11  25  46  79 112 153 205 258 323 389 468
#     4  11  25  45  73 103 153 188 257 313 382 455
#     4  11  26  46  70 108 151 202 253 319 386 463
#     4  12  26  47  73 106 145 208 260 313 389 461
#     4  12  26  47  75 115 153 202 260 331 387 466
#     4  11  26  48  76 114 153 200 261 322 400 470
#     4  10  23  49  80 109 154 200 255 321 399 473
#
# _framework density 26.035148
#
# number of rings (size 3 to 8) (size 9 to 14) (size 15 to 20)
#    0.000    0.750    2.500    4.125    3.500    6.000 
#    0.000    3.750    0.000    0.000    0.000    0.000 
#    0.000    0.000    0.000    0.000    0.000    0.000 
#
# Total GULP energy -89561.154412 kJ/mol
# GULP energy per Si atom -5597.572151 kJ/mol
# Density = 2.597589 g / cm^3
# Si number density = 26.035148 Si / 1000 Ang^3
#
#
#
# Elastic Constant Matrix: (Units=GPa)
#
#
# Indices 1 2 3 4 5 6 
#
# 1 188.8174 61.1123 19.8346 11.4734 -24.2238 -14.0418
# 2 61.1123 141.9798 20.1301 3.2672 -7.4438 6.8209
# 3 19.8346 20.1301 62.8366 -13.1796 -1.0381 0.6748
# 4 11.4734 3.2672 -13.1796 22.2379 1.1584 -5.9569
# 5 -24.2238 -7.4438 -1.0381 1.1584 36.2798 5.8170
# 6 -14.0418 6.8209 0.6748 -5.9569 5.8170 69.9010
#
#
#
# Elastic Compliance Matrix: (Units=1/GPa)
#
#
# Indices 1 2 3 4 5 6 
#
# 1 0.007271 -0.002496 -0.002442 -0.004796 0.004272 0.000964
# 2 -0.002496 0.008573 -0.002305 -0.001755 0.000322 -0.001492
# 3 -0.002442 -0.002305 0.020313 0.013990 -0.002114 0.000907
# 4 -0.004796 -0.001755 0.013990 0.057481 -0.005711 0.004446
# 5 0.004272 0.000322 -0.002114 -0.005711 0.030959 -0.002216
# 6 0.000964 -0.001492 0.000907 0.004446 -0.002216 0.015200
#
#
# Mechanical properties :
#
#
# Convention : Reuss Voigt Hill
#
# Bulk Modulus (GPa) = 46.14102 66.19865 56.16983
# Shear Modulus (GPa) = 30.95840 45.18754 38.07297
#
# Velocity S-wave (km/s) = 3.45207 4.17062 3.82824
# Velocity P-wave (km/s) = 5.80087 6.97667 6.41576
#
# Compressibility (1/GPa) = 0.02167269
#
# Stress axis : x y z
#
# Youngs Moduli (GPa) = 137.52328 116.64172 49.22891
#
# Poissons Ratio (x) = 0.29110 0.12020
# Poissons Ratio (y) = 0.34321 0.11349
# Poissons Ratio (z) = 0.33577 0.26891
#
# Static dielectric constant tensor:
#      x y z
#    x 2.052190 0.029540 -0.014680 
#    y 0.029540 2.023740 0.016570 
#    z -0.014680 0.016570 2.233410 
# 
# From -- ./inp_files/117347.got.cif
#   From: 2010.05.17/outbox.cif.g08.bks.cpg/sg2_59_cif.got.tgz:117347.got - 2010.06.03 11:33:40.
