data_PCOD9045912
_publ_section_title
;
Structure prediction by ZEFSAII (Michael W. Deem and Ramdas Pophale) SiO2 
 PCOD9045912
Probable space group: P -1
;
_chemical_formula_sum "Si O2"
_cell_formula_units_Z 16
_cell_length_a 8.595954
_cell_length_b 14.401616
_cell_length_c 11.389770
_cell_angle_alpha 117.767100
_cell_angle_beta 69.358496
_cell_angle_gamma 60.045319
_cell_volume 698.436493
_symmetry_space_group_name_H-M "P -1"
_symmetry_group_IT_number 2
_symmetry_cell_setting 'triclinic'
loop_
_space_group_symop_operation_xyz
x,y,z
-x,-y,-z
loop_
_atom_site_type_symbol
_atom_site_label
_atom_site_fract_x
_atom_site_fract_y
_atom_site_fract_z
Si Si1 0.947319 0.210903 0.324639
Si Si2 0.316274 0.831528 0.033619
Si Si3 0.970964 0.187047 0.031492
Si Si4 0.969663 0.716487 0.423895
Si Si5 0.097026 0.429936 0.302375
Si Si6 0.440227 0.881449 0.553682
Si Si7 0.333360 0.461597 0.683081
Si Si8 0.054779 0.864848 0.337058
O O1 0.020056 0.184626 0.153372
O O2 0.613926 0.379695 0.524428
O O3 0.076906 0.223245 0.393467
O O4 0.058246 0.040951 0.232173
O O5 0.282008 0.776835 0.125800
O O6 0.270257 0.777730 0.903763
O O7 0.586744 0.766468 0.908457
O O8 0.863688 0.349622 0.094847
O O9 0.238929 0.998908 0.789756
O O10 0.696634 0.825524 0.486589
O O11 0.122615 0.734842 0.329098
O O12 0.120006 0.529607 0.287536
O O13 0.000000 0.500000 0.500000
O O14 0.859802 0.481294 0.337317
O O15 0.561215 0.703204 0.390064
O O16 0.233419 0.015097 0.582623
O O17 0.000000 0.000000 0.500000
#
# Coordination Sequence:
#
# PCOD9045912 Si02
#       8
#     2   2   2   2   2   2   2   2
#     4  12  22  40  66  98 132 182 223 272 340 403
#     4  11  24  41  68  98 134 180 226 277 337 399
#     4  11  23  38  68  95 137 172 230 273 337 411
#     4  11  24  41  68  94 136 182 219 277 342 388
#     4  11  25  42  63 101 141 170 223 284 339 406
#     4  10  24  42  64 101 132 176 222 285 339 391
#     4  11  22  41  62  94 133 175 215 273 339 395
#     4  11  21  44  69  94 133 181 231 276 328 404
#
# _framework density 22.908308999999999
#
# number of rings (size 3 to 8) (size 9 to 14) (size 15 to 20)
#    0.000    1.000    3.750    3.375    5.250    1.000 
#    0.000    1.250    0.000   10.500    0.000    0.000 
#    0.000    0.000    0.000    0.000    0.000    0.000 
#
# Total GULP energy -89291.777377 kJ/mol
# GULP energy per Si atom -5580.736086 kJ/mol
# Density = 2.285617 g / cm^3
# Si number density = 22.908309 Si / 1000 Ang^3
#
#
#
# Elastic Constant Matrix: (Units=GPa)
#
#
# Indices 1 2 3 4 5 6 
#
# 1 91.2068 18.0877 20.3998 6.5395 8.1564 -6.3759
# 2 18.0877 62.9633 11.0343 -13.8771 -3.2564 3.3347
# 3 20.3998 11.0343 45.5001 5.8357 -7.8818 -0.8763
# 4 6.5395 -13.8771 5.8357 15.9662 -2.1190 4.3244
# 5 8.1564 -3.2564 -7.8818 -2.1190 35.5385 0.7560
# 6 -6.3759 3.3347 -0.8763 4.3244 0.7560 35.8429
#
#
#
# Elastic Compliance Matrix: (Units=1/GPa)
#
#
# Indices 1 2 3 4 5 6 
#
# 1 0.015109 -0.006942 -0.004393 -0.012729 -0.005941 0.004887
# 2 -0.006942 0.026524 -0.006657 0.031023 0.004561 -0.007704
# 3 -0.004393 -0.006657 0.028429 -0.014181 0.005813 0.002121
# 4 -0.012729 0.031023 -0.014181 0.106247 0.009348 -0.018513
# 5 -0.005941 0.004561 0.005813 0.009348 0.031833 -0.003138
# 6 0.004887 -0.007704 0.002121 -0.018513 -0.003138 0.031837
#
#
# Mechanical properties :
#
#
# Convention : Reuss Voigt Hill
#
# Bulk Modulus (GPa) = 29.34490 33.19040 31.26765
# Shear Modulus (GPa) = 17.40201 27.47941 22.44071
#
# Velocity S-wave (km/s) = 2.75914 3.46719 3.13323
# Velocity P-wave (km/s) = 4.79458 5.52706 5.17380
#
# Compressibility (1/GPa) = 0.03407747
#
# Stress axis : x y z
#
# Youngs Moduli (GPa) = 66.18615 37.70105 35.17594
#
# Poissons Ratio (x) = 0.26172 0.15453
# Poissons Ratio (y) = 0.45946 0.23418
# Poissons Ratio (z) = 0.29075 0.25099
#
# Static dielectric constant tensor:
#      x y z
#    x 1.896750 0.033340 0.000490 
#    y 0.033340 1.907570 0.008920 
#    z 0.000490 0.008920 1.830910 
# 
# From -- ./inp_files/180096.got.cif
#   From: 2010.05.17/outbox.cif.g08.bks.cpg/sg2_91_cif.got.tgz:180096.got - 2010.06.03 11:33:40.
