data_PCOD9045110
_publ_section_title
;
Structure prediction by ZEFSAII (Michael W. Deem and Ramdas Pophale) SiO2 
 PCOD9045110
Probable space group: P -1
;
_chemical_formula_sum "Si O2"
_cell_formula_units_Z 16
_cell_length_a 5.505722
_cell_length_b 21.622989
_cell_length_c 9.080438
_cell_angle_alpha 59.501803
_cell_angle_beta 129.533852
_cell_angle_gamma 98.442036
_cell_volume 692.665117
_symmetry_space_group_name_H-M "P -1"
_symmetry_group_IT_number 2
_symmetry_cell_setting 'triclinic'
loop_
_space_group_symop_operation_xyz
x,y,z
-x,-y,-z
loop_
_atom_site_type_symbol
_atom_site_label
_atom_site_fract_x
_atom_site_fract_y
_atom_site_fract_z
Si Si1 0.636133 0.342101 0.146498
Si Si2 0.322306 0.958484 0.368748
Si Si3 0.297080 0.340171 0.542920
Si Si4 0.768437 0.187956 0.991416
Si Si5 0.635920 0.062831 0.904311
Si Si6 0.448029 0.447939 0.683938
Si Si7 0.477119 0.816530 0.768220
Si Si8 0.361777 0.443543 0.184057
O O1 0.515245 0.267853 0.172482
O O2 0.415564 0.407079 0.087905
O O3 0.973332 0.318901 0.394702
O O4 0.672762 0.379438 0.955953
O O5 0.501061 0.926886 0.325269
O O6 0.257061 0.885519 0.506137
O O7 0.500000 0.000000 0.500000
O O8 0.022209 0.024152 0.116647
O O9 0.236167 0.400241 0.578170
O O10 0.398418 0.377206 0.392589
O O11 0.589299 0.272617 0.785536
O O12 0.673389 0.172821 0.139284
O O13 0.153083 0.174978 0.119977
O O14 0.596664 0.138851 0.882384
O O15 0.500000 0.000000 0.000000
O O16 0.500000 0.500000 0.500000
O O17 0.394997 0.509597 0.717603
O O18 0.000000 0.500000 0.000000
#
# Coordination Sequence:
#
# PCOD9045110 Si02
#       8
#     2   2   2   2   2   2   2   2
#     4  12  27  47  76 112 150 210 256 328 399 473
#     4  11  25  51  77 118 155 212 260 323 384 463
#     4  11  27  46  74 107 154 197 259 319 396 465
#     4  12  29  52  76 120 160 211 260 324 393 470
#     4  11  27  46  84 114 161 205 272 318 388 465
#     4  10  23  49  72 106 145 194 252 326 387 464
#     4  12  30  49  84 110 168 208 262 325 399 465
#     4  11  25  45  76 104 148 193 265 316 397 464
#
# _framework density 23.099187000000001
#
# number of rings (size 3 to 8) (size 9 to 14) (size 15 to 20)
#    0.000    0.750    3.750    1.125   12.250    1.500 
#    2.250    0.000    0.000    0.000    0.000    0.000 
#    0.000    0.000    0.000    0.000    0.000    0.000 
#
# Total GULP energy -89153.626819 kJ/mol
# GULP energy per Si atom -5572.101676 kJ/mol
# Density = 2.304661 g / cm^3
# Si number density = 23.099187 Si / 1000 Ang^3
#
#
#
# Elastic Constant Matrix: (Units=GPa)
#
#
# Indices 1 2 3 4 5 6 
#
# 1 72.3764 39.1948 27.1355 10.5315 -13.0974 -5.8348
# 2 39.1948 192.0467 26.4353 21.7300 -22.6625 -3.7042
# 3 27.1355 26.4353 93.6608 -3.1866 -26.2249 -9.0128
# 4 10.5315 21.7300 -3.1866 54.5820 0.2506 -1.9958
# 5 -13.0974 -22.6625 -26.2249 0.2506 39.1658 -5.0250
# 6 -5.8348 -3.7042 -9.0128 -1.9958 -5.0250 27.4264
#
#
#
# Elastic Compliance Matrix: (Units=1/GPa)
#
#
# Indices 1 2 3 4 5 6 
#
# 1 0.017479 -0.002466 -0.003552 -0.002519 0.002373 0.002470
# 2 -0.002466 0.006317 -0.000329 -0.002050 0.002696 0.000565
# 3 -0.003552 -0.000329 0.015103 0.001875 0.009498 0.006040
# 4 -0.002519 -0.002050 0.001875 0.019776 -0.000758 0.001104
# 5 0.002373 0.002696 0.009498 -0.000758 0.035592 0.010456
# 6 0.002470 0.000565 0.006040 0.001104 0.010456 0.041044
#
#
# Mechanical properties :
#
#
# Convention : Reuss Voigt Hill
#
# Bulk Modulus (GPa) = 38.15965 60.40168 49.28067
# Shear Modulus (GPa) = 31.90048 41.92273 36.91161
#
# Velocity S-wave (km/s) = 3.72024 4.26479 4.00179
# Velocity P-wave (km/s) = 5.91687 7.10330 6.53706
#
# Compressibility (1/GPa) = 0.02620569
#
# Stress axis : x y z
#
# Youngs Moduli (GPa) = 57.21301 158.31506 66.21225
#
# Poissons Ratio (x) = 0.39035 0.23515
# Poissons Ratio (y) = 0.14107 0.02179
# Poissons Ratio (z) = 0.20319 0.05209
#
# Static dielectric constant tensor:
#      x y z
#    x 1.882110 -0.039600 0.013750 
#    y -0.039600 1.896600 0.007000 
#    z 0.013750 0.007000 1.868760 
# 
# From -- ./inp_files/141307.got.cif
#   From: 2010.05.17/outbox.cif.g08.bks.cpg/sg2_71_cif.got.tgz:141307.got - 2010.06.03 11:33:40.
