data_PCOD9045456
_publ_section_title
;
Structure prediction by ZEFSAII (Michael W. Deem and Ramdas Pophale) SiO2 
 PCOD9045456
Probable space group: P -1
;
_chemical_formula_sum "Si O2"
_cell_formula_units_Z 14
_cell_length_a 8.337738
_cell_length_b 16.404275
_cell_length_c 16.338335
_cell_angle_alpha 161.255571
_cell_angle_beta 115.328972
_cell_angle_gamma 73.704889
_cell_volume 586.378373
_symmetry_space_group_name_H-M "P -1"
_symmetry_group_IT_number 2
_symmetry_cell_setting 'triclinic'
loop_
_space_group_symop_operation_xyz
x,y,z
-x,-y,-z
loop_
_atom_site_type_symbol
_atom_site_label
_atom_site_fract_x
_atom_site_fract_y
_atom_site_fract_z
Si Si1 0.870432 0.340389 0.240138
Si Si2 0.211908 0.293037 0.192495
Si Si3 0.084153 0.140176 0.855721
Si Si4 0.853390 0.498951 0.212294
Si Si5 0.575914 0.240783 0.773065
Si Si6 0.871326 0.680938 0.140447
Si Si7 0.523716 0.867998 0.795975
O O1 0.855363 0.520974 0.331879
O O2 0.000000 0.500000 0.500000
O O3 0.995737 0.191726 0.084960
O O4 0.652901 0.116912 0.001674
O O5 0.315589 0.616767 0.493281
O O6 0.332571 0.271909 0.276999
O O7 0.213895 0.139221 0.962533
O O8 0.955062 0.813016 0.499178
O O9 0.188615 0.295692 0.944006
O O10 0.965252 0.314125 0.028696
O O11 0.640529 0.332960 0.966185
O O12 0.639434 0.989992 0.519135
O O13 0.682698 0.504365 0.988726
O O14 0.000000 0.500000 0.000000
O O15 0.000000 0.000000 0.500000
O O16 0.500000 0.000000 0.000000
#
# Coordination Sequence:
#
# PCOD9045456 Si02
#       7
#     2   2   2   2   2   2   2
#     4  11  22  42  70  96 132 186 225 273 354 403
#     4  10  24  40  67  96 132 181 223 282 334 409
#     4  11  22  43  70  99 129 173 235 273 331 405
#     4  11  24  43  68  99 136 177 226 282 333 417
#     4  12  25  43  66 101 143 174 221 286 351 402
#     4  12  22  43  71  94 129 180 223 271 335 407
#     4  11  22  42  62  95 140 168 229 283 331 402
#
# _framework density 23.875368999999999
#
# number of rings (size 3 to 8) (size 9 to 14) (size 15 to 20)
#    0.000    0.857    4.286    3.000    2.000    2.286 
#    2.571    0.000    0.000    0.000    0.000    0.000 
#    0.000    0.000    0.000    0.000    0.000    0.000 
#
# Total GULP energy -77984.353911 kJ/mol
# GULP energy per Si atom -5570.310994 kJ/mol
# Density = 2.382103 g / cm^3
# Si number density = 23.875369 Si / 1000 Ang^3
#
#
#
# Elastic Constant Matrix: (Units=GPa)
#
#
# Indices 1 2 3 4 5 6 
#
# 1 46.4729 3.3442 3.7948 13.3075 3.5778 4.5265
# 2 3.3442 139.5212 30.2080 -4.9949 6.3638 29.3265
# 3 3.7948 30.2080 143.9106 2.9595 -3.5778 4.7398
# 4 13.3075 -4.9949 2.9595 49.7072 3.6350 -0.0066
# 5 3.5778 6.3638 -3.5778 3.6350 29.9989 10.6831
# 6 4.5265 29.3265 4.7398 -0.0066 10.6831 38.3492
#
#
#
# Elastic Compliance Matrix: (Units=1/GPa)
#
#
# Indices 1 2 3 4 5 6 
#
# 1 0.023668 -0.000167 -0.000418 -0.006235 -0.001277 -0.002260
# 2 -0.000167 0.008967 -0.001675 0.001032 0.000171 -0.006678
# 3 -0.000418 -0.001675 0.007355 -0.000592 0.001337 0.000049
# 4 -0.006235 0.001032 -0.000592 0.022107 -0.002479 0.000714
# 5 -0.001277 0.000171 0.001337 -0.002479 0.037703 -0.010649
# 6 -0.002260 -0.006678 0.000049 0.000714 -0.010649 0.034410
#
#
# Mechanical properties :
#
#
# Convention : Reuss Voigt Hill
#
# Bulk Modulus (GPa) = 28.19258 44.95541 36.57399
# Shear Modulus (GPa) = 33.21091 43.11491 38.16291
#
# Velocity S-wave (km/s) = 3.73367 4.25412 4.00236
# Velocity P-wave (km/s) = 5.51552 6.55745 6.05892
#
# Compressibility (1/GPa) = 0.03547033
#
# Stress axis : x y z
#
# Youngs Moduli (GPa) = 42.25128 111.52263 135.95909
#
# Poissons Ratio (x) = 0.01859 0.05686
# Poissons Ratio (y) = 0.00704 0.22771
# Poissons Ratio (z) = 0.01767 0.18678
#
# Static dielectric constant tensor:
#      x y z
#    x 2.001850 -0.152610 0.031610 
#    y -0.152610 2.068610 0.007330 
#    z 0.031610 0.007330 1.803400 
# 
# From -- ./inp_files/561850.got.cif
#   From: 2010.05.17/outbox.cif.g08.bks.cpg/sg2_281_cif.got.tgz:561850.got - 2010.06.03 11:33:40.
