data_PCOD9045320
_publ_section_title
;
Structure prediction by ZEFSAII (Michael W. Deem and Ramdas Pophale) SiO2 
 PCOD9045320
Probable space group: P -1
;
_chemical_formula_sum "Si O2"
_cell_formula_units_Z 16
_cell_length_a 14.543478
_cell_length_b 12.732752
_cell_length_c 6.024567
_cell_angle_alpha 70.526448
_cell_angle_beta 91.350439
_cell_angle_gamma 45.335373
_cell_volume 690.527743
_symmetry_space_group_name_H-M "P -1"
_symmetry_group_IT_number 2
_symmetry_cell_setting 'triclinic'
loop_
_space_group_symop_operation_xyz
x,y,z
-x,-y,-z
loop_
_atom_site_type_symbol
_atom_site_label
_atom_site_fract_x
_atom_site_fract_y
_atom_site_fract_z
Si Si1 0.233937 0.330751 0.978338
Si Si2 0.031292 0.840395 0.623904
Si Si3 0.641759 0.940143 0.543155
Si Si4 0.483510 0.568500 0.700233
Si Si5 0.266886 0.502457 0.140073
Si Si6 0.059557 0.628368 0.426828
Si Si7 0.741052 0.906163 0.109105
Si Si8 0.743295 0.062868 0.673513
O O1 0.108495 0.499229 0.714340
O O2 0.308850 0.168886 0.945921
O O3 0.225323 0.260550 0.246502
O O4 0.308864 0.372198 0.050045
O O5 0.049952 0.759285 0.449318
O O6 0.895403 0.910766 0.685318
O O7 0.000000 0.000000 0.500000
O O8 0.165990 0.684636 0.887292
O O9 0.663339 0.974642 0.285682
O O10 0.500000 0.000000 0.500000
O O11 0.651751 0.035893 0.638519
O O12 0.500000 0.500000 0.500000
O O13 0.598670 0.560586 0.712341
O O14 0.329109 0.762146 0.541670
O O15 0.500000 0.500000 0.000000
O O16 0.174933 0.529805 0.309420
O O17 0.908623 0.732802 0.253355
O O18 0.744178 0.036403 0.951889
#
# Coordination Sequence:
#
# PCOD9045320 Si02
#       8
#     2   2   2   2   2   2   2   2
#     4  10  24  39  69  99 145 182 239 293 371 433
#     4  11  24  43  72 102 140 186 248 309 374 436
#     4  11  24  43  66 100 143 193 244 292 374 446
#     4  12  31  52  78 108 150 199 250 311 381 448
#     4  11  25  46  70 106 142 187 247 303 370 445
#     4  11  23  41  70 103 143 185 246 306 370 441
#     4  11  23  42  68 106 142 191 236 304 369 445
#     4  11  25  46  72 104 146 189 244 308 368 449
#
# _framework density 23.170680999999998
#
# number of rings (size 3 to 8) (size 9 to 14) (size 15 to 20)
#    0.000    1.000    2.500    2.625    7.000    5.500 
#    0.000    0.000    0.000    0.000    0.000    0.000 
#    0.000    0.000    0.000    0.000    0.000    0.000 
#
# Total GULP energy -89090.633680 kJ/mol
# GULP energy per Si atom -5568.164605 kJ/mol
# Density = 2.311794 g / cm^3
# Si number density = 23.170681 Si / 1000 Ang^3
#
#
#
# Elastic Constant Matrix: (Units=GPa)
#
#
# Indices 1 2 3 4 5 6 
#
# 1 34.4149 -62.7175 -54.1677 -53.0339 -23.8021 -2.9574
# 2 -62.7175 -32.0122 -84.2371 -106.4498 -48.1773 27.6205
# 3 -54.1677 -84.2371 -45.4860 -127.6633 -69.9448 17.3645
# 4 -53.0339 -106.4498 -127.6633 -48.8452 -37.7180 1.2018
# 5 -23.8021 -48.1773 -69.9448 -37.7180 8.0379 12.3941
# 6 -2.9574 27.6205 17.3645 1.2018 12.3941 40.2284
#
#
#
# Elastic Compliance Matrix: (Units=1/GPa)
#
#
# Indices 1 2 3 4 5 6 
#
# 1 0.016290 0.001203 -0.005210 -0.001946 -0.006001 0.004527
# 2 0.001203 0.016841 -0.010843 -0.005034 -0.006153 -0.004748
# 3 -0.005210 -0.010843 0.011965 -0.004078 0.002750 0.001172
# 4 -0.001946 -0.005034 -0.004078 0.015064 -0.014980 0.009239
# 5 -0.006001 -0.006153 0.002750 -0.014980 0.035640 -0.007937
# 6 0.004527 -0.004748 0.001172 0.009239 -0.007937 0.030114
#
#
# Mechanical properties :
#
#
# Convention : Reuss Voigt Hill
#
# Bulk Modulus (GPa) = 64.95722 -49.48088 7.73817
# Shear Modulus (GPa) = 31.10503 10.42014 20.76258
#
# Velocity S-wave (km/s) = 3.66789 2.12294 2.99669
# Velocity P-wave (km/s) = 6.78476 3.92328 3.91413
#
# Compressibility (1/GPa) = 0.01539475
#
# Stress axis : x y z
#
# Youngs Moduli (GPa) = 61.38885 59.37839 83.58009
#
# Poissons Ratio (x) = -0.07144 0.43547
# Poissons Ratio (y) = -0.07386 0.90627
# Poissons Ratio (z) = 0.31985 0.64385
#
# Static dielectric constant tensor:
#      x y z
#    x 2.425870 -1.203870 3.964350 
#    y -1.203870 4.612440 -8.569370 
#    z 3.964350 -8.569370 29.022220 
# 
# From -- ./inp_files/94613.got.cif
#   From: 2010.05.17/outbox.cif.g08.bks.cpg/sg2_48_cif.got.tgz:94613.got - 2010.06.03 11:33:40.
