data_PCOD9045195
_publ_section_title
;
Structure prediction by ZEFSAII (Michael W. Deem and Ramdas Pophale) SiO2 
 PCOD9045195
Probable space group: P -1
;
_chemical_formula_sum "Si O2"
_cell_formula_units_Z 14
_cell_length_a 18.141134
_cell_length_b 7.593667
_cell_length_c 9.634483
_cell_angle_alpha 67.439030
_cell_angle_beta 40.626351
_cell_angle_gamma 50.191884
_cell_volume 649.845496
_symmetry_space_group_name_H-M "P -1"
_symmetry_group_IT_number 2
_symmetry_cell_setting 'triclinic'
loop_
_space_group_symop_operation_xyz
x,y,z
-x,-y,-z
loop_
_atom_site_type_symbol
_atom_site_label
_atom_site_fract_x
_atom_site_fract_y
_atom_site_fract_z
Si Si1 0.329236 0.546997 0.581472
Si Si2 0.306737 0.951366 0.111076
Si Si3 0.131662 0.847117 0.535256
Si Si4 0.566431 0.859658 0.638082
Si Si5 0.992298 0.696779 0.577865
Si Si6 0.285552 0.281479 0.243707
Si Si7 0.569012 0.619643 0.229509
O O1 0.197530 0.750595 0.620131
O O2 0.360809 0.303887 0.549400
O O3 0.460527 0.560244 0.363852
O O4 0.321900 0.553139 0.756286
O O5 0.343386 0.024447 0.180021
O O6 0.166147 0.197691 0.188605
O O7 0.259617 0.786234 0.268570
O O8 0.429357 0.866575 0.857657
O O9 0.052910 0.749206 0.608838
O O10 0.030585 0.126170 0.567360
O O11 0.664448 0.732304 0.669030
O O12 0.518079 0.125486 0.645208
O O13 0.118064 0.437571 0.435751
O O14 0.348837 0.373097 0.019644
#
# Coordination Sequence:
#
# PCOD9045195 Si02
#       7
#     2   2   2   2   2   2   2
#     4  11  21  38  57  77 117 150 172 226 282 316
#     4   9  19  32  52  85 113 129 179 240 262 317
#     4   9  18  33  52  81 107 140 186 216 266 330
#     4  11  21  35  61  83 106 143 187 228 272 316
#     4   9  19  32  53  84 109 138 179 226 273 315
#     4  11  19  35  56  84 107 141 183 231 270 315
#     4  10  24  36  53  87 113 139 186 225 270 334
#
# _framework density 21.543582000000001
#
# number of rings (size 3 to 8) (size 9 to 14) (size 15 to 20)
#    0.857    1.143    1.429    4.286    2.000    1.143 
#    0.000    0.714    0.000    3.429    0.000    0.000 
#    0.000    0.000    0.000    0.000    0.000    0.000 
#
# Total GULP energy -78001.065548 kJ/mol
# GULP energy per Si atom -5571.504682 kJ/mol
# Density = 2.149455 g / cm^3
# Si number density = 21.543582 Si / 1000 Ang^3
#
#
#
# Elastic Constant Matrix: (Units=GPa)
#
#
# Indices 1 2 3 4 5 6 
#
# 1 119.3338 27.0083 15.9894 -1.4571 11.9877 -21.0732
# 2 27.0083 58.9791 3.2195 2.4059 12.5721 -17.9204
# 3 15.9894 3.2195 16.0079 6.0104 -0.9842 -9.3257
# 4 -1.4571 2.4059 6.0104 13.7755 -2.3065 -3.7081
# 5 11.9877 12.5721 -0.9842 -2.3065 26.9773 -2.4015
# 6 -21.0732 -17.9204 -9.3257 -3.7081 -2.4015 46.6078
#
#
#
# Elastic Compliance Matrix: (Units=1/GPa)
#
#
# Indices 1 2 3 4 5 6 
#
# 1 0.011660 -0.003768 -0.012902 0.007451 -0.003110 0.001674
# 2 -0.003768 0.022635 0.005109 -0.006108 -0.008579 0.007094
# 3 -0.012902 0.005109 0.097142 -0.040492 0.004554 0.012581
# 4 0.007451 -0.006108 -0.040492 0.093312 0.006095 0.000656
# 5 -0.003110 -0.008579 0.004554 0.006095 0.043038 -0.001091
# 6 0.001674 0.007094 0.012581 0.000656 -0.001091 0.027454
#
#
# Mechanical properties :
#
#
# Convention : Reuss Voigt Hill
#
# Bulk Modulus (GPa) = 9.23229 31.86169 20.54699
# Shear Modulus (GPa) = 14.10570 27.34569 20.72569
#
# Velocity S-wave (km/s) = 2.56159 3.56662 3.10503
# Velocity P-wave (km/s) = 3.61160 5.63760 4.73425
#
# Compressibility (1/GPa) = 0.10831553
#
# Stress axis : x y z
#
# Youngs Moduli (GPa) = 85.76014 44.18003 10.29423
#
# Poissons Ratio (x) = 0.16645 0.13282
# Poissons Ratio (y) = 0.32310 -0.05260
# Poissons Ratio (z) = 1.10652 -0.22573
#
# Static dielectric constant tensor:
#      x y z
#    x 1.827890 0.006120 0.003910 
#    y 0.006120 1.867360 0.011390 
#    z 0.003910 0.011390 1.754540 
# 
# From -- ./inp_files/327400.got.cif
#   From: 2010.05.17/outbox.cif.g08.bks.cpg/sg2_164_cif.got.tgz:327400.got - 2010.06.03 11:33:40.
