data_PCOD9045143
_publ_section_title
;
Structure prediction by ZEFSAII (Michael W. Deem and Ramdas Pophale) SiO2 
 PCOD9045143
Probable space group: P -1
;
_chemical_formula_sum "Si O2"
_cell_formula_units_Z 13
_cell_length_a 9.058138
_cell_length_b 8.905692
_cell_length_c 7.320076
_cell_angle_alpha 68.631026
_cell_angle_beta 99.441641
_cell_angle_gamma 73.525131
_cell_volume 503.139875
_symmetry_space_group_name_H-M "P -1"
_symmetry_group_IT_number 2
_symmetry_cell_setting 'triclinic'
loop_
_space_group_symop_operation_xyz
x,y,z
-x,-y,-z
loop_
_atom_site_type_symbol
_atom_site_label
_atom_site_fract_x
_atom_site_fract_y
_atom_site_fract_z
Si Si1 0.893246 0.423764 0.391953
Si Si2 0.302573 0.896282 0.952344
Si Si3 0.216965 0.167064 0.088056
Si Si4 0.953093 0.046508 0.678161
Si Si5 0.000000 0.500000 0.000000
Si Si6 0.474139 0.476139 0.786691
Si Si7 0.495664 0.182708 0.338899
O O1 0.903235 0.250652 0.575765
O O2 0.701165 0.529352 0.283171
O O3 0.000000 0.500000 0.500000
O O4 0.965040 0.388518 0.216126
O O5 0.376154 0.872866 0.775132
O O6 0.391165 0.710823 0.148187
O O7 0.111488 0.951092 0.872726
O O8 0.316666 0.062364 0.983386
O O9 0.314943 0.260340 0.181954
O O10 0.186020 0.017953 0.260925
O O11 0.053043 0.328019 0.953092
O O12 0.000000 0.000000 0.500000
O O13 0.486514 0.652746 0.628897
O O14 0.500000 0.500000 0.000000
O O15 0.500000 0.000000 0.500000
#
# Coordination Sequence:
#
# PCOD9045143 Si02
#       7
#     2   2   2   2   1   2   2
#     4  12  27  50  79 115 153 205 267 325 386 480
#     4  11  25  46  74 110 153 205 262 319 389 465
#     4  12  26  45  74 109 150 202 257 318 382 467
#     4  12  24  47  73 109 154 199 255 324 387 460
#     4  12  26  46  78 108 158 200 262 312 408 442
#     4  10  23  49  79 106 158 208 254 319 405 461
#     4  11  24  45  77 106 154 202 250 314 393 463
#
# _framework density 25.837743
#
# number of rings (size 3 to 8) (size 9 to 14) (size 15 to 20)
#    0.000    0.615    1.538    7.385    2.154    1.231 
#    0.000    1.538    0.000    0.000    0.000    0.000 
#    0.000    0.000    0.000    0.000    0.000    0.000 
#
# Total GULP energy -72516.833977 kJ/mol
# GULP energy per Si atom -5578.217998 kJ/mol
# Density = 2.577894 g / cm^3
# Si number density = 25.837743 Si / 1000 Ang^3
#
#
#
# Elastic Constant Matrix: (Units=GPa)
#
#
# Indices 1 2 3 4 5 6 
#
# 1 126.7943 27.1801 48.9781 -8.1096 9.8584 16.8292
# 2 27.1801 164.1192 48.4921 -43.1356 -1.9425 -0.6275
# 3 48.9781 48.4921 104.1706 -22.1308 4.9040 -1.1981
# 4 -8.1096 -43.1356 -22.1308 48.9433 9.1282 -5.4451
# 5 9.8584 -1.9425 4.9040 9.1282 44.1537 6.5129
# 6 16.8292 -0.6275 -1.1981 -5.4451 6.5129 44.5138
#
#
#
# Elastic Compliance Matrix: (Units=1/GPa)
#
#
# Indices 1 2 3 4 5 6 
#
# 1 0.010454 -0.000668 -0.004896 -0.001355 -0.000931 -0.004123
# 2 -0.000668 0.008638 -0.002210 0.006796 -0.000817 0.001266
# 3 -0.004896 -0.002210 0.013951 0.004230 -0.001869 0.002986
# 4 -0.001355 0.006796 0.004230 0.029990 -0.006864 0.005395
# 5 -0.000931 -0.000817 -0.001869 -0.006864 0.025069 -0.004217
# 6 -0.004123 0.001266 0.002986 0.005395 -0.004217 0.025399
#
#
# Mechanical properties :
#
#
# Convention : Reuss Voigt Hill
#
# Bulk Modulus (GPa) = 57.15596 71.59831 64.37713
# Shear Modulus (GPa) = 37.06963 45.55109 41.31036
#
# Velocity S-wave (km/s) = 3.79186 4.20333 4.00288
# Velocity P-wave (km/s) = 6.42963 7.16437 6.80692
#
# Compressibility (1/GPa) = 0.01749599
#
# Stress axis : x y z
#
# Youngs Moduli (GPa) = 95.65652 115.76408 71.67738
#
# Poissons Ratio (x) = 0.07729 0.35092
# Poissons Ratio (y) = 0.06387 0.15843
# Poissons Ratio (z) = 0.46832 0.25588
#
# Static dielectric constant tensor:
#      x y z
#    x 2.139610 -0.014860 0.079150 
#    y -0.014860 2.085770 -0.043620 
#    z 0.079150 -0.043620 2.194190 
# 
# From -- ./inp_files/149498.got.cif
#   From: 2010.05.17/outbox.cif.g08.bks.cpg/sg2_75_cif.got.tgz:149498.got - 2010.06.03 11:33:40.
