data_PCOD9045509
_publ_section_title
;
Structure prediction by ZEFSAII (Michael W. Deem and Ramdas Pophale) SiO2 
 PCOD9045509
Probable space group: P -1
;
_chemical_formula_sum "Si O2"
_cell_formula_units_Z 15
_cell_length_a 9.039647
_cell_length_b 21.328017
_cell_length_c 5.458460
_cell_angle_alpha 111.623792
_cell_angle_beta 60.758080
_cell_angle_gamma 139.665816
_cell_volume 594.330695
_symmetry_space_group_name_H-M "P -1"
_symmetry_group_IT_number 2
_symmetry_cell_setting 'triclinic'
loop_
_space_group_symop_operation_xyz
x,y,z
-x,-y,-z
loop_
_atom_site_type_symbol
_atom_site_label
_atom_site_fract_x
_atom_site_fract_y
_atom_site_fract_z
Si Si1 0.500000 0.500000 0.000000
Si Si2 0.229261 0.110442 0.386643
Si Si3 0.689463 0.657505 0.681268
Si Si4 0.708765 0.301265 0.442048
Si Si5 0.073449 0.868141 0.639111
Si Si6 0.235641 0.540270 0.576599
Si Si7 0.967943 0.352494 0.795444
Si Si8 0.487782 0.055582 0.889729
O O1 0.419937 0.415414 0.117556
O O2 0.305322 0.495134 0.294222
O O3 0.418657 0.204370 0.542130
O O4 0.102413 0.130758 0.355296
O O5 0.403191 0.103672 0.117935
O O6 0.000000 0.000000 0.500000
O O7 0.475636 0.632430 0.669374
O O8 0.893704 0.766181 0.773278
O O9 0.809934 0.637345 0.365729
O O10 0.792668 0.403667 0.502021
O O11 0.808909 0.294897 0.597292
O O12 0.828576 0.309611 0.102715
O O13 0.245531 0.870024 0.335922
O O14 0.271350 0.968937 0.764200
O O15 0.072110 0.456913 0.800894
O O16 0.500000 0.000000 0.000000
#
# Coordination Sequence:
#
# PCOD9045509 Si02
#       8
#     1   2   2   2   2   2   2   2
#     4  10  24  40  70 102 142 188 246 306 364 452
#     4  12  26  48  76 111 151 196 255 320 384 458
#     4  11  25  44  75 104 148 198 258 307 391 457
#     4  12  28  48  75 111 151 202 255 310 391 454
#     4  11  25  48  73 109 145 201 249 317 379 468
#     4  11  25  46  73 106 147 200 253 309 384 457
#     4  11  27  46  75 107 155 194 255 323 372 461
#     4  11  25  45  76 108 149 193 252 311 387 450
#
# _framework density 25.238477
#
# number of rings (size 3 to 8) (size 9 to 14) (size 15 to 20)
#    0.000    0.800    2.667    3.600   11.200    4.267 
#    0.000    0.000    0.000    0.000    0.000    0.000 
#    0.000    0.000    0.000    0.000    0.000    0.000 
#
# Total GULP energy -83681.202591 kJ/mol
# GULP energy per Si atom -5578.746839 kJ/mol
# Density = 2.518103 g / cm^3
# Si number density = 25.238477 Si / 1000 Ang^3
#
#
#
# Elastic Constant Matrix: (Units=GPa)
#
#
# Indices 1 2 3 4 5 6 
#
# 1 117.9286 6.5312 6.2496 1.9080 0.3288 12.1370
# 2 6.5312 102.7943 8.2124 -16.1734 0.5484 -3.9915
# 3 6.2496 8.2124 70.2352 -8.9166 -2.2018 -2.3515
# 4 1.9080 -16.1734 -8.9166 22.2357 -15.6974 -4.2381
# 5 0.3288 0.5484 -2.2018 -15.6974 33.0774 2.4493
# 6 12.1370 -3.9915 -2.3515 -4.2381 2.4493 29.6399
#
#
#
# Elastic Compliance Matrix: (Units=1/GPa)
#
#
# Indices 1 2 3 4 5 6 
#
# 1 0.009185 -0.001372 -0.001471 -0.004699 -0.002058 -0.004564
# 2 -0.001372 0.012168 0.000898 0.014689 0.006559 0.003830
# 3 -0.001471 0.000898 0.016211 0.012772 0.006898 0.003265
# 4 -0.004699 0.014689 0.012772 0.095798 0.045013 0.014893
# 5 -0.002058 0.006559 0.006898 0.045013 0.051636 0.004443
# 6 -0.004564 0.003830 0.003265 0.014893 0.004443 0.038144
#
#
# Mechanical properties :
#
#
# Convention : Reuss Voigt Hill
#
# Bulk Modulus (GPa) = 29.69524 36.99383 33.34454
# Shear Modulus (GPa) = 20.98575 34.98826 27.98701
#
# Velocity S-wave (km/s) = 2.88670 3.72735 3.33363
# Velocity P-wave (km/s) = 4.78562 5.76314 5.29697
#
# Compressibility (1/GPa) = 0.03367543
#
# Stress axis : x y z
#
# Youngs Moduli (GPa) = 108.87182 82.17991 61.68707
#
# Poissons Ratio (x) = 0.11272 0.09073
# Poissons Ratio (y) = 0.14933 -0.05539
# Poissons Ratio (z) = 0.16013 -0.07379
#
# Static dielectric constant tensor:
#      x y z
#    x 1.911350 0.048880 0.037280 
#    y 0.048880 2.028990 0.081010 
#    z 0.037280 0.081010 2.106510 
# 
# From -- ./inp_files/53425.got.cif
#   From: 2010.05.17/outbox.cif.g08.bks.cpg/sg2_27_cif.got.tgz:53425.got - 2010.06.03 11:33:40.
