data_PCOD9045295
_publ_section_title
;
Structure prediction by ZEFSAII (Michael W. Deem and Ramdas Pophale) SiO2 
 PCOD9045295
Probable space group: P -1
;
_chemical_formula_sum "Si O2"
_cell_formula_units_Z 12
_cell_length_a 9.521985
_cell_length_b 5.051416
_cell_length_c 11.874786
_cell_angle_alpha 83.685309
_cell_angle_beta 63.566492
_cell_angle_gamma 90.743158
_cell_volume 507.120905
_symmetry_space_group_name_H-M "P -1"
_symmetry_group_IT_number 2
_symmetry_cell_setting 'triclinic'
loop_
_space_group_symop_operation_xyz
x,y,z
-x,-y,-z
loop_
_atom_site_type_symbol
_atom_site_label
_atom_site_fract_x
_atom_site_fract_y
_atom_site_fract_z
Si Si1 0.633100 0.855643 0.392868
Si Si2 0.059111 0.914138 0.629502
Si Si3 0.593504 0.952028 0.147757
Si Si4 0.241667 0.784261 0.231344
Si Si5 0.197037 0.446796 0.487090
Si Si6 0.329244 0.504375 0.002229
O O1 0.801929 0.030463 0.330501
O O2 0.590109 0.831664 0.279376
O O3 0.667904 0.597226 0.467564
O O4 0.500000 0.000000 0.500000
O O5 0.127423 0.144165 0.505519
O O6 0.894346 0.011777 0.723317
O O7 0.074567 0.622066 0.587807
O O8 0.415195 0.934005 0.164252
O O9 0.697056 0.774864 0.038574
O O10 0.656503 0.258336 0.105237
O O11 0.243526 0.599572 0.350537
O O12 0.221254 0.599369 0.136806
O O13 0.500000 0.500000 0.000000
#
# Coordination Sequence:
#
# PCOD9045295 Si02
#       6
#     2   2   2   2   2   2
#     4  10  25  42  65  94 129 164 205 256 323 372
#     4  10  24  40  62  99 128 162 206 257 321 369
#     4  11  25  41  66  92 128 161 216 256 306 372
#     4  11  22  42  68  92 128 166 211 260 311 367
#     4  10  24  39  65  96 127 159 210 257 318 370
#     4  10  24  41  63  95 122 168 211 260 302 364
#
# _framework density 23.662998000000002
#
# number of rings (size 3 to 8) (size 9 to 14) (size 15 to 20)
#    1.000    0.667    0.000    4.000    7.000    6.667 
#    0.000    1.667    0.000    0.000    0.000    0.000 
#    0.000    0.000    0.000    0.000    0.000    0.000 
#
# Total GULP energy -67084.489663 kJ/mol
# GULP energy per Si atom -5590.374139 kJ/mol
# Density = 2.360914 g / cm^3
# Si number density = 23.662998 Si / 1000 Ang^3
#
#
#
# Elastic Constant Matrix: (Units=GPa)
#
#
# Indices 1 2 3 4 5 6 
#
# 1 91.0232 28.3601 35.3112 6.6635 7.0193 -22.8398
# 2 28.3601 120.8760 35.8954 6.4745 -2.8981 -20.0023
# 3 35.3112 35.8954 128.7731 16.5624 6.3315 -26.9663
# 4 6.6635 6.4745 16.5624 44.3866 -3.9346 -4.2548
# 5 7.0193 -2.8981 6.3315 -3.9346 29.6977 -0.8833
# 6 -22.8398 -20.0023 -26.9663 -4.2548 -0.8833 43.6359
#
#
#
# Elastic Compliance Matrix: (Units=1/GPa)
#
#
# Indices 1 2 3 4 5 6 
#
# 1 0.013896 -0.001864 -0.001974 -0.000860 -0.003009 0.005054
# 2 -0.001864 0.009679 -0.001763 -0.000083 0.001821 0.002400
# 3 -0.001974 -0.001763 0.010151 -0.003033 -0.002150 0.004093
# 4 -0.000860 -0.000083 -0.003033 0.024168 0.004046 0.000076
# 5 -0.003009 0.001821 -0.002150 0.004046 0.035528 -0.000955
# 6 0.005054 0.002400 0.004093 0.000076 -0.000955 0.029180
#
#
# Mechanical properties :
#
#
# Convention : Reuss Voigt Hill
#
# Bulk Modulus (GPa) = 44.39647 59.97843 52.18745
# Shear Modulus (GPa) = 35.38270 39.61773 37.50022
#
# Velocity S-wave (km/s) = 3.87107 4.09620 3.98523
# Velocity P-wave (km/s) = 6.22760 6.91185 6.57863
#
# Compressibility (1/GPa) = 0.02252431
#
# Stress axis : x y z
#
# Youngs Moduli (GPa) = 71.96341 103.31477 98.51123
#
# Poissons Ratio (x) = 0.19256 0.19445
# Poissons Ratio (y) = 0.13413 0.17370
# Poissons Ratio (z) = 0.14205 0.18217
#
# Static dielectric constant tensor:
#      x y z
#    x 1.991150 0.037890 -0.002250 
#    y 0.037890 1.889850 -0.026830 
#    z -0.002250 -0.026830 1.897690 
# 
# From -- ./inp_files/409110.got.cif
#   From: 2010.05.17/outbox.cif.g08.bks.cpg/sg2_205_cif.got.tgz:409110.got - 2010.06.03 11:33:40.
