data_PCOD9045044
_publ_section_title
;
Structure prediction by ZEFSAII (Michael W. Deem and Ramdas Pophale) SiO2 
 PCOD9045044
Probable space group: P -1
;
_chemical_formula_sum "Si O2"
_cell_formula_units_Z 14
_cell_length_a 11.499802
_cell_length_b 13.296719
_cell_length_c 10.670186
_cell_angle_alpha 35.916463
_cell_angle_beta 133.009792
_cell_angle_gamma 148.087854
_cell_volume 505.859980
_symmetry_space_group_name_H-M "P -1"
_symmetry_group_IT_number 2
_symmetry_cell_setting 'triclinic'
loop_
_space_group_symop_operation_xyz
x,y,z
-x,-y,-z
loop_
_atom_site_type_symbol
_atom_site_label
_atom_site_fract_x
_atom_site_fract_y
_atom_site_fract_z
Si Si1 0.453850 0.693765 0.222662
Si Si2 0.216570 0.369988 0.160228
Si Si3 0.103280 0.139163 0.675615
Si Si4 0.706962 0.721308 0.059128
Si Si5 0.882793 0.506821 0.272468
Si Si6 0.711664 0.038679 0.545675
Si Si7 0.612026 0.155151 0.726395
O O1 0.248496 0.466285 0.224305
O O2 0.405117 0.722955 0.295847
O O3 0.657477 0.714581 0.349634
O O4 0.544928 0.923317 0.974368
O O5 0.058021 0.095214 0.291560
O O6 0.462338 0.513565 0.145304
O O7 0.118040 0.440942 0.926834
O O8 0.967547 0.210865 0.517287
O O9 0.142821 0.115621 0.875673
O O10 0.791534 0.604939 0.180745
O O11 0.315603 0.143200 0.196159
O O12 0.139795 0.663742 0.329541
O O13 0.716713 0.223076 0.434743
O O14 0.565405 0.932158 0.421681
#
# Coordination Sequence:
#
# PCOD9045044 Si02
#       7
#     2   2   2   2   2   2   2
#     4  10  23  48  76 102 146 188 241 301 358 425
#     4  11  23  46  77 101 138 199 235 285 369 420
#     4  11  25  49  73 103 146 194 236 296 365 421
#     4  11  27  50  71 105 152 190 236 296 357 437
#     4  12  26  47  71 109 146 190 238 290 366 426
#     4  12  27  45  71 111 146 187 244 290 358 433
#     4  11  25  45  72 111 143 185 245 301 353 427
#
# _framework density 27.675642
#
# number of rings (size 3 to 8) (size 9 to 14) (size 15 to 20)
#    0.000    0.857    4.286    0.857    0.000    8.000 
#    2.571    1.429    0.000    0.000    0.000    0.000 
#    0.000    0.000    0.000    0.000    0.000    0.000 
#
# Total GULP energy -78603.329411 kJ/mol
# GULP energy per Si atom -5614.523529 kJ/mol
# Density = 2.761265 g / cm^3
# Si number density = 27.675642 Si / 1000 Ang^3
#
#
#
# Elastic Constant Matrix: (Units=GPa)
#
#
# Indices 1 2 3 4 5 6 
#
# 1 169.4997 72.7562 66.3060 18.5929 -1.8237 -27.5143
# 2 72.7562 213.2312 71.9971 24.1979 -3.8901 -27.3100
# 3 66.3060 71.9971 124.5079 7.5804 8.4549 -10.7539
# 4 18.5929 24.1979 7.5804 60.5479 2.1679 -0.3567
# 5 -1.8237 -3.8901 8.4549 2.1679 40.6333 -2.7110
# 6 -27.5143 -27.3100 -10.7539 -0.3567 -2.7110 62.1633
#
#
#
# Elastic Compliance Matrix: (Units=1/GPa)
#
#
# Indices 1 2 3 4 5 6 
#
# 1 0.008414 -0.001094 -0.003600 -0.001726 0.001292 0.002667
# 2 -0.001094 0.006585 -0.003037 -0.001956 0.001447 0.001935
# 3 -0.003600 -0.003037 0.011764 0.000949 -0.003019 -0.001019
# 4 -0.001726 -0.001956 0.000949 0.017754 -0.001504 -0.001423
# 5 0.001292 0.001447 -0.003019 -0.001504 0.025635 0.001795
# 6 0.002667 0.001935 -0.001019 -0.001423 0.001795 0.018011
#
#
# Mechanical properties :
#
#
# Convention : Reuss Voigt Hill
#
# Bulk Modulus (GPa) = 88.49579 103.26192 95.87885
# Shear Modulus (GPa) = 46.55789 52.41417 49.48603
#
# Velocity S-wave (km/s) = 4.10600 4.35659 4.23315
# Velocity P-wave (km/s) = 7.38407 7.91827 7.65583
#
# Compressibility (1/GPa) = 0.01129997
#
# Stress axis : x y z
#
# Youngs Moduli (GPa) = 118.84942 151.86769 85.00247
#
# Poissons Ratio (x) = 0.16617 0.30604
# Poissons Ratio (y) = 0.13005 0.25815
# Poissons Ratio (z) = 0.42790 0.46121
#
# Static dielectric constant tensor:
#      x y z
#    x 2.127350 0.042620 -0.040040 
#    y 0.042620 2.148890 -0.052010 
#    z -0.040040 -0.052010 2.255690 
# 
# From -- ./inp_files/432485.got.cif
#   From: 2010.05.17/outbox.cif.g08.bks.cpg/sg2_217_cif.got.tgz:432485.got - 2010.06.03 11:33:40.
