data_PCOD9045707
_publ_section_title
;
Structure prediction by ZEFSAII (Michael W. Deem and Ramdas Pophale) SiO2 
 PCOD9045707
Probable space group: P -1
;
_chemical_formula_sum "Si O2"
_cell_formula_units_Z 16
_cell_length_a 13.613537
_cell_length_b 10.305029
_cell_length_c 9.178775
_cell_angle_alpha 105.704203
_cell_angle_beta 76.698648
_cell_angle_gamma 146.510512
_cell_volume 683.971220
_symmetry_space_group_name_H-M "P -1"
_symmetry_group_IT_number 2
_symmetry_cell_setting 'triclinic'
loop_
_space_group_symop_operation_xyz
x,y,z
-x,-y,-z
loop_
_atom_site_type_symbol
_atom_site_label
_atom_site_fract_x
_atom_site_fract_y
_atom_site_fract_z
Si Si1 0.140997 0.829982 0.175697
Si Si2 0.489668 0.786733 0.699295
Si Si3 0.437542 0.443214 0.669303
Si Si4 0.244213 0.215014 0.119442
Si Si5 0.252931 0.048639 0.788294
Si Si6 0.771123 0.328323 0.085065
Si Si7 0.447123 0.797278 0.397522
Si Si8 0.851413 0.585738 0.843841
O O1 0.212979 0.807737 0.017008
O O2 0.296391 0.985963 0.289875
O O3 0.131563 0.975408 0.170971
O O4 0.944793 0.558288 0.191994
O O5 0.414478 0.575800 0.748687
O O6 0.428677 0.701198 0.528643
O O7 0.406002 0.825654 0.815540
O O8 0.500000 0.500000 0.500000
O O9 0.597329 0.573324 0.760466
O O10 0.267719 0.167840 0.683090
O O11 0.161980 0.265046 0.107363
O O12 0.307236 0.199018 0.953928
O O13 0.392875 0.087677 0.716297
O O14 0.055836 0.780070 0.799054
O O15 0.793390 0.446751 0.969223
O O16 0.273441 0.603459 0.300148
O O17 0.500000 0.000000 0.500000
#
# Coordination Sequence:
#
# PCOD9045707 Si02
#       8
#     2   2   2   2   2   2   2   2
#     4  10  24  41  67 103 133 177 226 287 346 407
#     4  11  24  43  67  95 133 183 228 280 345 408
#     4  11  22  44  67 100 138 180 226 279 352 408
#     4  11  23  43  71 105 139 175 234 286 344 413
#     4  12  25  44  71 102 144 180 227 296 343 418
#     4  11  24  42  69  98 138 175 231 285 344 413
#     4  12  29  47  69 101 143 191 236 285 349 421
#     4  12  26  45  73 108 135 183 239 287 358 411
#
# _framework density 23.392799
#
# number of rings (size 3 to 8) (size 9 to 14) (size 15 to 20)
#    0.000    0.750    3.750    2.625    7.000    1.500 
#    0.000    1.250    0.000    0.000    0.000    0.000 
#    0.000    0.000    0.000    0.000    0.000    0.000 
#
# Total GULP energy -89523.866155 kJ/mol
# GULP energy per Si atom -5595.241635 kJ/mol
# Density = 2.333956 g / cm^3
# Si number density = 23.392799 Si / 1000 Ang^3
#
#
#
# Elastic Constant Matrix: (Units=GPa)
#
#
# Indices 1 2 3 4 5 6 
#
# 1 102.3581 34.2999 20.4457 8.3916 3.3949 -13.3698
# 2 34.2999 90.8124 47.3561 19.8265 12.6171 4.3934
# 3 20.4457 47.3561 104.9918 11.7929 10.0585 20.3584
# 4 8.3916 19.8265 11.7929 33.7968 -6.9433 1.8874
# 5 3.3949 12.6171 10.0585 -6.9433 38.4193 11.7833
# 6 -13.3698 4.3934 20.3584 1.8874 11.7833 38.4657
#
#
#
# Elastic Compliance Matrix: (Units=1/GPa)
#
#
# Indices 1 2 3 4 5 6 
#
# 1 0.012238 -0.003625 -0.001670 -0.000972 -0.001486 0.006055
# 2 -0.003625 0.018557 -0.006493 -0.009196 -0.006503 0.002500
# 3 -0.001670 -0.006493 0.014183 -0.000120 0.000879 -0.007609
# 4 -0.000972 -0.009196 -0.000120 0.037860 0.011381 -0.004568
# 5 -0.001486 -0.006503 0.000879 0.011381 0.033516 -0.011064
# 6 0.006055 0.002500 -0.007609 -0.004568 -0.011064 0.035457
#
#
# Mechanical properties :
#
#
# Convention : Reuss Voigt Hill
#
# Bulk Modulus (GPa) = 46.72731 55.81840 51.27285
# Shear Modulus (GPa) = 27.39403 35.20708 31.30056
#
# Velocity S-wave (km/s) = 3.42577 3.88369 3.66189
# Velocity P-wave (km/s) = 5.97213 6.63505 6.31230
#
# Compressibility (1/GPa) = 0.02140076
#
# Stress axis : x y z
#
# Youngs Moduli (GPa) = 81.71264 53.88753 70.50613
#
# Poissons Ratio (x) = 0.19536 0.11778
# Poissons Ratio (y) = 0.29624 0.45780
# Poissons Ratio (z) = 0.13649 0.34989
#
# Static dielectric constant tensor:
#      x y z
#    x 2.074940 -0.080200 0.041730 
#    y -0.080200 1.894850 -0.005570 
#    z 0.041730 -0.005570 1.863120 
# 
# From -- ./inp_files/307992.got.cif
#   From: 2010.05.17/outbox.cif.g08.bks.cpg/sg2_154_cif.got.tgz:307992.got - 2010.06.03 11:33:40.
