data_PCOD9045480
_publ_section_title
;
Structure prediction by ZEFSAII (Michael W. Deem and Ramdas Pophale) SiO2 
 PCOD9045480
Probable space group: P -1
;
_chemical_formula_sum "Si O2"
_cell_formula_units_Z 15
_cell_length_a 10.927567
_cell_length_b 10.922109
_cell_length_c 12.661468
_cell_angle_alpha 82.291977
_cell_angle_beta 64.381587
_cell_angle_gamma 135.696814
_cell_volume 675.641980
_symmetry_space_group_name_H-M "P -1"
_symmetry_group_IT_number 2
_symmetry_cell_setting 'triclinic'
loop_
_space_group_symop_operation_xyz
x,y,z
-x,-y,-z
loop_
_atom_site_type_symbol
_atom_site_label
_atom_site_fract_x
_atom_site_fract_y
_atom_site_fract_z
Si Si1 0.962637 0.758193 0.300789
Si Si2 0.000000 0.500000 0.000000
Si Si3 0.790327 0.365570 0.500629
Si Si4 0.808441 0.117438 0.204792
Si Si5 0.009118 0.314705 0.322037
Si Si6 0.842505 0.747264 0.109519
Si Si7 0.432288 0.818349 0.988041
Si Si8 0.207822 0.273265 0.416734
O O1 0.891159 0.558545 0.370261
O O2 0.892553 0.745098 0.211040
O O3 0.808043 0.711252 0.454593
O O4 0.285091 0.023280 0.165733
O O5 0.830039 0.281708 0.174065
O O6 0.744269 0.292668 0.035896
O O7 0.000000 0.500000 0.500000
O O8 0.784430 0.236142 0.450074
O O9 0.491904 0.162899 0.676614
O O10 0.901911 0.150045 0.282288
O O11 0.022072 0.244812 0.021129
O O12 0.096943 0.302476 0.389353
O O13 0.264164 0.595461 0.153054
O O14 0.519884 0.498418 0.241672
O O15 0.000000 0.000000 0.000000
O O16 0.500000 0.000000 0.000000
O O17 0.000000 0.000000 0.500000
#
# Coordination Sequence:
#
# PCOD9045480 Si02
#       8
#     2   1   2   2   2   2   2   2
#     4  12  26  46  78 103 146 184 255 305 372 439
#     4  10  24  40  68 108 148 182 234 296 382 438
#     4  12  24  45  75 112 145 184 237 310 379 439
#     4  11  27  44  73 106 148 187 240 299 373 443
#     4  11  26  46  72 107 150 187 239 304 379 444
#     4  12  29  51  76 102 145 202 260 299 360 451
#     4  11  22  43  72 110 145 190 236 306 380 454
#     4  12  30  48  73 105 148 201 246 304 367 441
#
# _framework density 22.201107
#
# number of rings (size 3 to 8) (size 9 to 14) (size 15 to 20)
#    0.000    0.533    2.667    4.000   11.200    0.533 
#    0.000    0.000    0.000    0.000    0.000    0.000 
#    0.000    0.000    0.000    0.000    0.000    0.000 
#
# Total GULP energy -83720.673537 kJ/mol
# GULP energy per Si atom -5581.378236 kJ/mol
# Density = 2.215058 g / cm^3
# Si number density = 22.201107 Si / 1000 Ang^3
#
#
#
# Elastic Constant Matrix: (Units=GPa)
#
#
# Indices 1 2 3 4 5 6 
#
# 1 81.4988 44.7494 43.1526 -2.2835 16.8151 9.4334
# 2 44.7494 97.8038 41.7119 -0.4016 0.4926 25.4893
# 3 43.1526 41.7119 118.5112 0.1272 -15.0480 -4.2685
# 4 -2.2835 -0.4016 0.1272 51.8349 6.8443 5.4371
# 5 16.8151 0.4926 -15.0480 6.8443 47.5867 3.8206
# 6 9.4334 25.4893 -4.2685 5.4371 3.8206 17.1161
#
#
#
# Elastic Compliance Matrix: (Units=1/GPa)
#
#
# Indices 1 2 3 4 5 6 
#
# 1 0.021999 -0.005862 -0.007373 0.002680 -0.010123 -0.003825
# 2 -0.005862 0.027565 -0.008853 0.004124 0.001743 -0.041726
# 3 -0.007373 -0.008853 0.015822 -0.003480 0.006528 0.020843
# 4 0.002680 0.004124 -0.003480 0.021494 -0.004024 -0.014415
# 5 -0.010123 0.001743 0.006528 -0.004024 0.027231 -0.000189
# 6 -0.003825 -0.041726 0.020843 -0.014415 -0.000189 0.132491
#
#
# Mechanical properties :
#
#
# Convention : Reuss Voigt Hill
#
# Bulk Modulus (GPa) = 47.14925 61.89353 54.52139
# Shear Modulus (GPa) = 16.78692 34.52086 25.65389
#
# Velocity S-wave (km/s) = 2.75276 3.94752 3.40299
# Velocity P-wave (km/s) = 5.60242 6.97971 6.32864
#
# Compressibility (1/GPa) = 0.02120925
#
# Stress axis : x y z
#
# Youngs Moduli (GPa) = 45.45579 36.27736 63.20242
#
# Poissons Ratio (x) = 0.21266 0.46600
# Poissons Ratio (y) = 0.26647 0.55956
# Poissons Ratio (z) = 0.33515 0.32118
#
# Static dielectric constant tensor:
#      x y z
#    x 1.870120 -0.091860 -0.041810 
#    y -0.091860 1.870880 -0.002530 
#    z -0.041810 -0.002530 1.823060 
# 
# From -- ./inp_files/428137.got.cif
#   From: 2010.05.17/outbox.cif.g08.bks.cpg/sg2_215_cif.got.tgz:428137.got - 2010.06.03 11:33:40.
