data_PCOD9045024
_publ_section_title
;
Structure prediction by ZEFSAII (Michael W. Deem and Ramdas Pophale) SiO2 
 PCOD9045024
Probable space group: P -1
;
_chemical_formula_sum "Si O2"
_cell_formula_units_Z 14
_cell_length_a 8.861244
_cell_length_b 11.710598
_cell_length_c 6.909608
_cell_angle_alpha 104.985870
_cell_angle_beta 116.523453
_cell_angle_gamma 111.963499
_cell_volume 510.768757
_symmetry_space_group_name_H-M "P -1"
_symmetry_group_IT_number 2
_symmetry_cell_setting 'triclinic'
loop_
_space_group_symop_operation_xyz
x,y,z
-x,-y,-z
loop_
_atom_site_type_symbol
_atom_site_label
_atom_site_fract_x
_atom_site_fract_y
_atom_site_fract_z
Si Si1 0.739113 0.135134 0.340896
Si Si2 0.151567 0.794219 0.018475
Si Si3 0.341184 0.102161 0.268333
Si Si4 0.278851 0.446764 0.430343
Si Si5 0.339285 0.638619 0.253313
Si Si6 0.794155 0.634496 0.202442
Si Si7 0.788404 0.894928 0.218878
O O1 0.554117 0.137232 0.318146
O O2 0.780335 0.174185 0.153743
O O3 0.959019 0.251250 0.613897
O O4 0.674876 0.971197 0.247129
O O5 0.907354 0.699554 0.831785
O O6 0.765109 0.291381 0.876036
O O7 0.236915 0.946430 0.232074
O O8 0.421538 0.233606 0.517633
O O9 0.206047 0.091588 0.005852
O O10 0.248947 0.566761 0.380920
O O11 0.260899 0.426218 0.638573
O O12 0.710538 0.496786 0.960365
O O13 0.500000 0.500000 0.500000
O O14 0.709942 0.732254 0.147123
O O15 0.000000 0.000000 0.500000
#
# Coordination Sequence:
#
# PCOD9045024 Si02
#       7
#     2   2   2   2   2   2   2
#     4   9  21  42  80 114 146 196 258 310 369 455
#     4  10  23  48  73 108 153 198 251 319 375 434
#     4  11  24  43  78 117 150 194 258 305 376 469
#     4  11  28  49  73 109 148 201 263 309 368 454
#     4  12  28  45  76 114 157 199 245 310 383 456
#     4  10  25  47  76 110 157 200 242 314 386 439
#     4   9  19  43  74 107 149 198 248 308 372 437
#
# _framework density 27.409661
#
# number of rings (size 3 to 8) (size 9 to 14) (size 15 to 20)
#    0.000    1.714    0.000    3.429    8.000    4.000 
#    0.000    0.714    0.000    0.857    0.000    0.000 
#    0.000    0.000    0.000    0.000    0.000    0.000 
#
# Total GULP energy -78569.319080 kJ/mol
# GULP energy per Si atom -5612.094220 kJ/mol
# Density = 2.734728 g / cm^3
# Si number density = 27.409661 Si / 1000 Ang^3
#
#
#
# Elastic Constant Matrix: (Units=GPa)
#
#
# Indices 1 2 3 4 5 6 
#
# 1 98.7570 70.3793 54.5952 7.1158 -3.9451 -0.5545
# 2 70.3793 260.2885 97.7916 4.1814 -26.6055 -20.8743
# 3 54.5952 97.7916 207.4819 25.9932 -7.0938 -15.1893
# 4 7.1158 4.1814 25.9932 68.1403 2.4285 -1.1408
# 5 -3.9451 -26.6055 -7.0938 2.4285 49.4888 13.8994
# 6 -0.5545 -20.8743 -15.1893 -1.1408 13.8994 50.0714
#
#
#
# Elastic Compliance Matrix: (Units=1/GPa)
#
#
# Indices 1 2 3 4 5 6 
#
# 1 0.013482 -0.002971 -0.002234 -0.000389 -0.000352 -0.001678
# 2 -0.002971 0.005621 -0.001781 0.000587 0.002169 0.001182
# 3 -0.002234 -0.001781 0.006595 -0.002135 -0.000453 0.001311
# 4 -0.000389 0.000587 -0.002135 0.015527 -0.000833 0.000178
# 5 -0.000352 0.002169 -0.000453 -0.000833 0.022897 -0.005612
# 6 -0.001678 0.001182 0.001311 0.000178 -0.005612 0.022405
#
#
# Mechanical properties :
#
#
# Convention : Reuss Voigt Hill
#
# Bulk Modulus (GPa) = 85.26335 112.45107 98.85721
# Shear Modulus (GPa) = 47.88991 56.45752 52.17371
#
# Velocity S-wave (km/s) = 4.18448 4.54339 4.36762
# Velocity P-wave (km/s) = 7.38384 8.28482 7.84727
#
# Compressibility (1/GPa) = 0.01172837
#
# Stress axis : x y z
#
# Youngs Moduli (GPa) = 74.17191 177.89980 151.63924
#
# Poissons Ratio (x) = 0.52846 0.33870
# Poissons Ratio (y) = 0.22033 0.27001
# Poissons Ratio (z) = 0.16567 0.31677
#
# Static dielectric constant tensor:
#      x y z
#    x 2.138940 0.001750 -0.003010 
#    y 0.001750 2.138700 -0.024820 
#    z -0.003010 -0.024820 2.168380 
# 
# From -- ./inp_files/262623.got.cif
#   From: 2010.05.17/outbox.cif.g08.bks.cpg/sg2_132_cif.got.tgz:262623.got - 2010.06.03 11:33:40.
