data_PCOD9045485
_publ_section_title
;
Structure prediction by ZEFSAII (Michael W. Deem and Ramdas Pophale) SiO2 
 PCOD9045485
Probable space group: P -1
;
_chemical_formula_sum "Si O2"
_cell_formula_units_Z 15
_cell_length_a 23.170565
_cell_length_b 8.598956
_cell_length_c 8.359582
_cell_angle_alpha 121.499668
_cell_angle_beta 48.365381
_cell_angle_gamma 146.632084
_cell_volume 682.560192
_symmetry_space_group_name_H-M "P -1"
_symmetry_group_IT_number 2
_symmetry_cell_setting 'triclinic'
loop_
_space_group_symop_operation_xyz
x,y,z
-x,-y,-z
loop_
_atom_site_type_symbol
_atom_site_label
_atom_site_fract_x
_atom_site_fract_y
_atom_site_fract_z
Si Si1 0.990620 0.782152 0.325039
Si Si2 0.436146 0.309676 0.790287
Si Si3 0.685273 0.327142 0.074172
Si Si4 0.230451 0.141071 0.917303
Si Si5 0.326782 0.103076 0.223639
Si Si6 0.101626 0.737699 0.629763
Si Si7 0.919022 0.683047 0.033020
Si Si8 0.500000 0.000000 0.500000
O O1 0.920297 0.512281 0.420198
O O2 0.931811 0.681735 0.200358
O O3 0.000000 0.000000 0.500000
O O4 0.124314 0.944840 0.137706
O O5 0.344189 0.222267 0.785828
O O6 0.569162 0.633988 0.711012
O O7 0.449504 0.118137 0.666884
O O8 0.372617 0.248058 0.043159
O O9 0.730965 0.579453 0.022405
O O10 0.784868 0.477215 0.111255
O O11 0.562283 0.155838 0.294427
O O12 0.674941 0.119055 0.888238
O O13 0.168230 0.955814 0.772237
O O14 0.194232 0.931227 0.419281
O O15 0.975067 0.613876 0.795299
O O16 0.000000 0.000000 0.000000
#
# Coordination Sequence:
#
# PCOD9045485 Si02
#       8
#     2   2   2   2   2   2   2   1
#     4  11  25  44  63 105 133 171 218 269 328 393
#     4  10  24  46  67  95 130 176 222 275 325 385
#     4  11  23  44  67  97 133 172 221 270 327 390
#     4  11  23  45  68  94 135 173 222 268 325 395
#     4  10  24  44  65  98 132 168 224 274 327 389
#     4  11  24  40  69  98 132 174 216 268 331 396
#     4  11  23  43  68  95 136 174 215 265 333 396
#     4  10  24  40  68  92 128 176 220 264 326 386
#
# _framework density 21.976085000000001
#
# number of rings (size 3 to 8) (size 9 to 14) (size 15 to 20)
#    0.000    1.333    2.667    3.200    7.467    4.267 
#    4.800    2.667    0.000    0.000    0.000    0.000 
#    0.000    0.000    0.000    0.000    0.000    0.000 
#
# Total GULP energy -83614.728696 kJ/mol
# GULP energy per Si atom -5574.315246 kJ/mol
# Density = 2.192607 g / cm^3
# Si number density = 21.976085 Si / 1000 Ang^3
#
#
#
# Elastic Constant Matrix: (Units=GPa)
#
#
# Indices 1 2 3 4 5 6 
#
# 1 57.1564 17.4681 -9.8006 8.1913 0.1349 1.6196
# 2 17.4681 86.3438 -3.1489 2.7177 1.3059 -21.1310
# 3 -9.8006 -3.1489 89.8662 -5.8816 1.6406 0.6282
# 4 8.1913 2.7177 -5.8816 12.3367 -17.2349 8.3427
# 5 0.1349 1.3059 1.6406 -17.2349 10.0749 -0.9238
# 6 1.6196 -21.1310 0.6282 8.3427 -0.9238 24.2732
#
#
#
# Elastic Compliance Matrix: (Units=1/GPa)
#
#
# Indices 1 2 3 4 5 6 
#
# 1 0.019262 -0.005955 0.002103 0.004310 0.006834 -0.007745
# 2 -0.005955 0.015382 0.000034 0.006250 0.009873 0.012015
# 3 0.002103 0.000034 0.011358 -0.001065 -0.003720 -0.000180
# 4 0.004310 0.006250 -0.001065 -0.046987 -0.079396 0.018308
# 5 0.006834 0.009873 -0.003720 -0.079396 -0.034191 0.034222
# 6 -0.007745 0.012015 -0.000180 0.018308 0.034222 0.047189
#
#
# Mechanical properties :
#
#
# Convention : Reuss Voigt Hill
#
# Bulk Modulus (GPa) = 26.06317 26.93373 26.49845
# Shear Modulus (GPa) = 154.15683 24.59347 89.37515
#
# Velocity S-wave (km/s) = 8.38450 3.34893 6.38417
# Velocity P-wave (km/s) = 10.27709 5.21884 8.15030
#
# Compressibility (1/GPa) = 0.03836832
#
# Stress axis : x y z
#
# Youngs Moduli (GPa) = 51.91568 65.01157 88.04564
#
# Poissons Ratio (x) = 0.38711 -0.18520
# Poissons Ratio (y) = 0.30913 -0.00303
# Poissons Ratio (z) = -0.10920 -0.00223
#
# Static dielectric constant tensor:
#      x y z
#    x 1.812310 0.045190 0.000590 
#    y 0.045190 1.811050 -0.010420 
#    z 0.000590 -0.010420 1.806720 
# 
# From -- ./inp_files/188989.got.cif
#   From: 2010.05.17/outbox.cif.g08.bks.cpg/sg2_95_cif.got.tgz:188989.got - 2010.06.03 11:33:40.
