data_PCOD9045919
_publ_section_title
;
Structure prediction by ZEFSAII (Michael W. Deem and Ramdas Pophale) SiO2 
 PCOD9045919
Probable space group: P -1
;
_chemical_formula_sum "Si O2"
_cell_formula_units_Z 16
_cell_length_a 9.277862
_cell_length_b 10.923000
_cell_length_c 13.719120
_cell_angle_alpha 62.095101
_cell_angle_beta 61.086132
_cell_angle_gamma 110.618348
_cell_volume 714.141051
_symmetry_space_group_name_H-M "P -1"
_symmetry_group_IT_number 2
_symmetry_cell_setting 'triclinic'
loop_
_space_group_symop_operation_xyz
x,y,z
-x,-y,-z
loop_
_atom_site_type_symbol
_atom_site_label
_atom_site_fract_x
_atom_site_fract_y
_atom_site_fract_z
Si Si1 0.173239 0.712523 0.921779
Si Si2 0.680442 0.994606 0.395652
Si Si3 0.714851 0.936710 0.706121
Si Si4 0.104117 0.245373 0.325603
Si Si5 0.434854 0.622289 0.478446
Si Si6 0.512236 0.285198 0.944316
Si Si7 0.881225 0.277098 0.841388
Si Si8 0.732926 0.881795 0.095876
O O1 0.189795 0.860051 0.796805
O O2 0.456258 0.838789 0.793344
O O3 0.071950 0.660485 0.083099
O O4 0.000000 0.500000 0.000000
O O5 0.894664 0.101093 0.364518
O O6 0.500000 0.000000 0.500000
O O7 0.536804 0.769426 0.485489
O O8 0.753501 0.810013 0.693827
O O9 0.688841 0.894283 0.845260
O O10 0.946833 0.170767 0.503893
O O11 0.300732 0.488710 0.150392
O O12 0.500000 0.500000 0.500000
O O13 0.554555 0.766347 0.289860
O O14 0.139497 0.446835 0.639117
O O15 0.688485 0.266882 0.867667
O O16 0.389540 0.279122 0.893012
O O17 0.770823 0.054557 0.969080
O O18 0.000000 0.000000 0.000000
#
# Coordination Sequence:
#
# PCOD9045919 Si02
#       8
#     2   2   2   2   2   2   2   2
#     4  11  22  41  69 103 145 188 237 301 357 428
#     4  12  23  43  74 108 149 184 245 303 353 432
#     4  10  24  42  64 102 145 182 236 290 367 425
#     4  11  24  43  69 105 142 195 238 301 367 428
#     4  12  27  47  75 110 146 194 245 300 368 435
#     4  11  26  45  71 100 144 187 247 299 365 435
#     4  11  25  45  69 103 140 189 244 291 367 428
#     4  12  27  49  70 103 141 190 241 304 365 437
#
# _framework density 22.404536
#
# number of rings (size 3 to 8) (size 9 to 14) (size 15 to 20)
#    0.000    0.750    3.750    3.750    1.750    4.500 
#    0.000    0.000    0.000    0.000    0.000    0.000 
#    0.000    0.000    0.000    0.000    0.000    0.000 
#
# Total GULP energy -89490.606951 kJ/mol
# GULP energy per Si atom -5593.162934 kJ/mol
# Density = 2.235354 g / cm^3
# Si number density = 22.404536 Si / 1000 Ang^3
#
#
#
# Elastic Constant Matrix: (Units=GPa)
#
#
# Indices 1 2 3 4 5 6 
#
# 1 63.9015 19.4569 30.1135 5.4735 9.4916 7.3620
# 2 19.4569 87.8926 19.4966 -6.0043 -2.0791 12.9345
# 3 30.1135 19.4966 142.1406 24.6360 2.3384 11.4521
# 4 5.4735 -6.0043 24.6360 33.6819 -8.3536 7.9221
# 5 9.4916 -2.0791 2.3384 -8.3536 20.2059 3.9889
# 6 7.3620 12.9345 11.4521 7.9221 3.9889 38.6888
#
#
#
# Elastic Compliance Matrix: (Units=1/GPa)
#
#
# Indices 1 2 3 4 5 6 
#
# 1 0.020525 -0.004760 -0.002604 -0.005526 -0.012283 0.000855
# 2 -0.004760 0.014562 -0.002119 0.008469 0.008658 -0.005962
# 3 -0.002604 -0.002119 0.009218 -0.007596 -0.003274 0.000368
# 4 -0.005526 0.008469 -0.007596 0.046899 0.026070 -0.011822
# 5 -0.012283 0.008658 -0.003274 0.026070 0.069699 -0.012112
# 6 0.000855 -0.005962 0.000368 -0.011822 -0.012112 0.031239
#
#
# Mechanical properties :
#
#
# Convention : Reuss Voigt Hill
#
# Bulk Modulus (GPa) = 39.46445 48.00764 43.73605
# Shear Modulus (GPa) = 22.77327 33.50648 28.13988
#
# Velocity S-wave (km/s) = 3.19165 3.87139 3.54784
# Velocity P-wave (km/s) = 5.58882 6.43877 6.02879
#
# Compressibility (1/GPa) = 0.02533926
#
# Stress axis : x y z
#
# Youngs Moduli (GPa) = 48.72072 68.67207 108.47859
#
# Poissons Ratio (x) = 0.32687 0.28253
# Poissons Ratio (y) = 0.23190 0.22985
# Poissons Ratio (z) = 0.12689 0.14551
#
# Static dielectric constant tensor:
#      x y z
#    x 1.803080 -0.004120 0.015850 
#    y -0.004120 1.911530 0.005490 
#    z 0.015850 0.005490 1.820390 
# 
# From -- ./inp_files/500145.got.cif
#   From: 2010.05.17/outbox.cif.g08.bks.cpg/sg2_251_cif.got.tgz:500145.got - 2010.06.03 11:33:40.
