data_PCOD9045437
_publ_section_title
;
Structure prediction by ZEFSAII (Michael W. Deem and Ramdas Pophale) SiO2 
 PCOD9045437
Probable space group: P -1
;
_chemical_formula_sum "Si O2"
_cell_formula_units_Z 14
_cell_length_a 12.300748
_cell_length_b 7.814820
_cell_length_c 12.524185
_cell_angle_alpha 114.269070
_cell_angle_beta 123.551961
_cell_angle_gamma 111.224068
_cell_volume 577.455157
_symmetry_space_group_name_H-M "P -1"
_symmetry_group_IT_number 2
_symmetry_cell_setting 'triclinic'
loop_
_space_group_symop_operation_xyz
x,y,z
-x,-y,-z
loop_
_atom_site_type_symbol
_atom_site_label
_atom_site_fract_x
_atom_site_fract_y
_atom_site_fract_z
Si Si1 0.410923 0.047492 0.101298
Si Si2 0.146999 0.382984 0.834694
Si Si3 0.440666 0.248659 0.772525
Si Si4 0.213369 0.369700 0.631273
Si Si5 0.860559 0.162836 0.297009
Si Si6 0.571919 0.176702 0.444919
Si Si7 0.163112 0.720141 0.239301
O O1 0.616771 0.276167 0.199689
O O2 0.518691 0.229871 0.320266
O O3 0.290224 0.728925 0.990324
O O4 0.240864 0.942711 0.901521
O O5 0.110294 0.282020 0.668031
O O6 0.944443 0.229834 0.743192
O O7 0.317560 0.441828 0.996722
O O8 0.342549 0.324035 0.687892
O O9 0.316051 0.069583 0.769142
O O10 0.425882 0.042352 0.643482
O O11 0.033669 0.193471 0.403612
O O12 0.000000 0.500000 0.500000
O O13 0.784086 0.402991 0.687820
O O14 0.380679 0.007438 0.374835
O O15 0.000000 0.500000 0.000000
#
# Coordination Sequence:
#
# PCOD9045437 Si02
#       7
#     2   2   2   2   2   2   2
#     4  11  23  38  61  95 127 165 210 262 304 371
#     4  11  21  38  64  90 125 165 208 258 306 368
#     4  11  23  40  60  96 134 166 203 253 321 386
#     4  12  24  39  61  95 138 166 198 256 323 383
#     4  12  23  37  60  90 130 173 208 251 309 375
#     4  10  24  40  66  97 118 159 219 263 309 369
#     4  11  21  41  68  93 116 160 218 273 302 355
#
# _framework density 24.244306999999999
#
# number of rings (size 3 to 8) (size 9 to 14) (size 15 to 20)
#    0.000    0.857    5.714    3.857    2.000    0.000 
#    0.000    0.000    0.000    6.857    0.000    0.000 
#    0.000    0.000    0.000    0.000    0.000    0.000 
#
# Total GULP energy -78138.950609 kJ/mol
# GULP energy per Si atom -5581.353615 kJ/mol
# Density = 2.418913 g / cm^3
# Si number density = 24.244307 Si / 1000 Ang^3
#
#
#
# Elastic Constant Matrix: (Units=GPa)
#
#
# Indices 1 2 3 4 5 6 
#
# 1 141.8756 34.3156 49.9018 -14.8542 37.1078 14.7087
# 2 34.3156 81.3420 51.7781 -33.3198 9.5578 1.6767
# 3 49.9018 51.7781 211.9554 -61.9380 28.5142 1.5526
# 4 -14.8542 -33.3198 -61.9380 63.4707 -7.1280 -0.9564
# 5 37.1078 9.5578 28.5142 -7.1280 45.2143 -8.7323
# 6 14.7087 1.6767 1.5526 -0.9564 -8.7323 24.9677
#
#
#
# Elastic Compliance Matrix: (Units=1/GPa)
#
#
# Indices 1 2 3 4 5 6 
#
# 1 0.011992 -0.003567 -0.000762 -0.001188 -0.010845 -0.010616
# 2 -0.003567 0.017444 -0.001639 0.006947 0.001737 0.001906
# 3 -0.000762 -0.001639 0.007403 0.005849 -0.002909 -0.000694
# 4 -0.001188 0.006947 0.005849 0.024830 -0.000117 0.000780
# 5 -0.010845 0.001737 -0.002909 -0.000117 0.036154 0.019093
# 6 -0.010616 0.001906 -0.000694 0.000780 0.019093 0.052929
#
#
# Mechanical properties :
#
#
# Convention : Reuss Voigt Hill
#
# Bulk Modulus (GPa) = 40.15719 78.57379 59.36549
# Shear Modulus (GPa) = 29.24139 46.67569 37.95854
#
# Velocity S-wave (km/s) = 3.47668 4.39250 3.96115
# Velocity P-wave (km/s) = 5.71978 7.62921 6.74243
#
# Compressibility (1/GPa) = 0.02490214
#
# Stress axis : x y z
#
# Youngs Moduli (GPa) = 83.38835 57.32497 135.07361
#
# Poissons Ratio (x) = 0.20450 0.10298
# Poissons Ratio (y) = 0.29747 0.22141
# Poissons Ratio (z) = 0.06357 0.09396
#
# Static dielectric constant tensor:
#      x y z
#    x 1.947550 -0.067440 -0.075440 
#    y -0.067440 2.093690 -0.030830 
#    z -0.075440 -0.030830 2.120760 
# 
# From -- ./inp_files/514636.got.cif
#   From: 2010.05.17/outbox.cif.g08.bks.cpg/sg2_258_cif.got.tgz:514636.got - 2010.06.03 11:33:40.
