data_PCOD9045742
_publ_section_title
;
Structure prediction by ZEFSAII (Michael W. Deem and Ramdas Pophale) SiO2 
 PCOD9045742
Probable space group: P -1
;
_chemical_formula_sum "Si O2"
_cell_formula_units_Z 16
_cell_length_a 6.273571
_cell_length_b 10.185627
_cell_length_c 11.782853
_cell_angle_alpha 100.967472
_cell_angle_beta 66.872358
_cell_angle_gamma 96.250105
_cell_volume 679.283163
_symmetry_space_group_name_H-M "P -1"
_symmetry_group_IT_number 2
_symmetry_cell_setting 'triclinic'
loop_
_space_group_symop_operation_xyz
x,y,z
-x,-y,-z
loop_
_atom_site_type_symbol
_atom_site_label
_atom_site_fract_x
_atom_site_fract_y
_atom_site_fract_z
Si Si1 0.696368 0.601657 0.027183
Si Si2 0.870659 0.422615 0.617940
Si Si3 0.448351 0.342843 0.255869
Si Si4 0.745070 0.945046 0.406138
Si Si5 0.671137 0.105949 0.046432
Si Si6 0.965456 0.815978 0.558633
Si Si7 0.879449 0.484839 0.208621
Si Si8 0.200280 0.124906 0.860850
O O1 0.789065 0.549155 0.121165
O O2 0.656026 0.757376 0.083332
O O3 0.500000 0.500000 0.000000
O O4 0.905180 0.597937 0.892709
O O5 0.660089 0.511333 0.715234
O O6 0.000000 0.500000 0.500000
O O7 0.834622 0.277056 0.547884
O O8 0.033911 0.417773 0.693669
O O9 0.546414 0.244194 0.123438
O O10 0.240312 0.262468 0.346536
O O11 0.680216 0.384648 0.283549
O O12 0.847967 0.875365 0.482305
O O13 0.738340 0.859594 0.280501
O O14 0.500000 0.000000 0.500000
O O15 0.922427 0.070723 0.367289
O O16 0.731892 0.021067 0.132883
O O17 0.922484 0.136646 0.940760
O O18 0.500000 0.000000 0.000000
#
# Coordination Sequence:
#
# PCOD9045742 Si02
#       8
#     2   2   2   2   2   2   2   2
#     4  11  25  44  69 101 143 193 233 293 361 427
#     4  10  24  41  68 101 142 184 231 291 354 423
#     4  11  23  44  68 102 137 183 235 290 351 429
#     4  11  24  44  72 100 139 182 233 290 353 431
#     4  11  25  41  72 102 136 183 228 297 355 424
#     4  10  24  44  68 103 137 182 232 290 356 417
#     4  11  24  42  69 100 141 184 237 293 353 430
#     4  11  25  45  69 104 138 182 239 290 361 425
#
# _framework density 23.554241000000001
#
# number of rings (size 3 to 8) (size 9 to 14) (size 15 to 20)
#    0.000    1.250    1.250    3.000    3.500   10.000 
#    0.000    0.000    0.000    0.000    0.000    0.000 
#    0.000    0.000    0.000    0.000    0.000    0.000 
#
# Total GULP energy -89384.205461 kJ/mol
# GULP energy per Si atom -5586.512841 kJ/mol
# Density = 2.350063 g / cm^3
# Si number density = 23.554241 Si / 1000 Ang^3
#
#
#
# Elastic Constant Matrix: (Units=GPa)
#
#
# Indices 1 2 3 4 5 6 
#
# 1 84.6526 27.2621 41.7310 8.2576 -15.0457 5.5166
# 2 27.2621 50.7035 5.5155 25.2510 -18.3425 0.0540
# 3 41.7310 5.5155 97.4603 17.4325 -1.9442 -7.5094
# 4 8.2576 25.2510 17.4325 39.6756 2.5035 -5.6997
# 5 -15.0457 -18.3425 -1.9442 2.5035 40.6282 2.1594
# 6 5.5166 0.0540 -7.5094 -5.6997 2.1594 42.1799
#
#
#
# Elastic Compliance Matrix: (Units=1/GPa)
#
#
# Indices 1 2 3 4 5 6 
#
# 1 0.020657 -0.014079 -0.009808 0.008464 0.000479 -0.003311
# 2 -0.014079 0.051702 0.009761 -0.035932 0.020938 -0.002414
# 3 -0.009808 0.009761 0.016116 -0.011019 0.002090 0.002544
# 4 0.008464 -0.035932 -0.011019 0.052954 -0.017144 0.005011
# 5 0.000479 0.020938 0.002090 -0.017144 0.035605 -0.003857
# 6 -0.003311 -0.002414 0.002544 0.005011 -0.003857 0.025471
#
#
# Mechanical properties :
#
#
# Convention : Reuss Voigt Hill
#
# Bulk Modulus (GPa) = 16.60454 42.42595 29.51524
# Shear Modulus (GPa) = 19.93372 35.05059 27.49215
#
# Velocity S-wave (km/s) = 2.91226 3.86175 3.42011
# Velocity P-wave (km/s) = 4.28639 6.15916 5.30605
#
# Compressibility (1/GPa) = 0.06022449
#
# Stress axis : x y z
#
# Youngs Moduli (GPa) = 48.40960 19.34162 62.04904
#
# Poissons Ratio (x) = 0.27230 0.60857
# Poissons Ratio (y) = 0.68154 -0.60566
# Poissons Ratio (z) = 0.47479 -0.18879
#
# Static dielectric constant tensor:
#      x y z
#    x 1.892930 -0.040090 -0.001170 
#    y -0.040090 1.963510 -0.007820 
#    z -0.001170 -0.007820 1.854310 
# 
# From -- ./inp_files/364960.got.cif
#   From: 2010.05.17/outbox.cif.g08.bks.cpg/sg2_183_cif.got.tgz:364960.got - 2010.06.03 11:33:40.
