data_PCOD9045801
_publ_section_title
;
Structure prediction by ZEFSAII (Michael W. Deem and Ramdas Pophale) SiO2 
 PCOD9045801
Probable space group: P -1
;
_chemical_formula_sum "Si O2"
_cell_formula_units_Z 14
_cell_length_a 5.746658
_cell_length_b 9.367520
_cell_length_c 12.229534
_cell_angle_alpha 96.208122
_cell_angle_beta 102.059943
_cell_angle_gamma 106.730744
_cell_volume 606.520242
_symmetry_space_group_name_H-M "P -1"
_symmetry_group_IT_number 2
_symmetry_cell_setting 'triclinic'
loop_
_space_group_symop_operation_xyz
x,y,z
-x,-y,-z
loop_
_atom_site_type_symbol
_atom_site_label
_atom_site_fract_x
_atom_site_fract_y
_atom_site_fract_z
Si Si1 0.800405 0.562816 0.549432
Si Si2 0.937831 0.156567 0.996385
Si Si3 0.573650 0.013306 0.636121
Si Si4 0.357804 0.737858 0.180564
Si Si5 0.992238 0.089699 0.396202
Si Si6 0.980511 0.577089 0.812213
Si Si7 0.300228 0.397835 0.887137
O O1 0.500000 0.500000 0.500000
O O2 0.847164 0.557015 0.682706
O O3 0.000000 0.500000 0.500000
O O4 0.891409 0.738115 0.544371
O O5 0.972082 0.258988 0.117119
O O6 0.117318 0.269146 0.935337
O O7 0.675081 0.155244 0.913338
O O8 0.000000 0.000000 0.000000
O O9 0.303110 0.943692 0.665485
O O10 0.803537 0.945626 0.667571
O O11 0.500000 0.000000 0.500000
O O12 0.678830 0.184553 0.704795
O O13 0.177445 0.563424 0.138016
O O14 0.619871 0.708284 0.199522
O O15 0.000000 0.000000 0.500000
O O16 0.225791 0.525800 0.823717
O O17 0.500000 0.500000 0.000000
#
# Coordination Sequence:
#
# PCOD9045801 Si02
#       7
#     2   2   2   2   2   2   2
#     4  12  30  48  74 112 151 196 250 307 376 446
#     4  11  25  45  68 109 144 178 241 310 375 434
#     4  10  24  41  70 103 142 184 241 292 359 430
#     4  11  24  43  75 101 139 200 240 297 371 449
#     4  10  24  46  70  97 149 183 244 297 362 431
#     4  11  26  44  73 101 147 192 246 305 370 446
#     4  11  21  46  73 100 138 190 250 295 366 449
#
# _framework density 23.082497
#
# number of rings (size 3 to 8) (size 9 to 14) (size 15 to 20)
#    0.000    1.143    2.857    1.714   16.000    0.571 
#    2.571    0.000    0.000    0.000    0.000    0.000 
#    0.000    0.000    0.000    0.000    0.000    0.000 
#
# Total GULP energy -78005.521864 kJ/mol
# GULP energy per Si atom -5571.822990 kJ/mol
# Density = 2.302996 g / cm^3
# Si number density = 23.082497 Si / 1000 Ang^3
#
#
#
# Elastic Constant Matrix: (Units=GPa)
#
#
# Indices 1 2 3 4 5 6 
#
# 1 145.3949 60.5425 33.7084 20.5422 -2.9459 -30.0389
# 2 60.5425 180.7356 48.2953 14.1023 -0.8467 -36.7146
# 3 33.7084 48.2953 117.8673 15.1502 12.7582 -36.6425
# 4 20.5422 14.1023 15.1502 40.1052 -12.5455 -7.3614
# 5 -2.9459 -0.8467 12.7582 -12.5455 37.6778 10.8549
# 6 -30.0389 -36.7146 -36.6425 -7.3614 10.8549 43.8396
#
#
#
# Elastic Compliance Matrix: (Units=1/GPa)
#
#
# Indices 1 2 3 4 5 6 
#
# 1 0.009080 -0.001863 0.000443 -0.003953 -0.002214 0.004916
# 2 -0.001863 0.007325 -0.000908 -0.000870 -0.001187 0.004246
# 3 0.000443 -0.000908 0.015110 -0.006604 -0.011294 0.013859
# 4 -0.003953 -0.000870 -0.006604 0.033146 0.014991 -0.007104
# 5 -0.002214 -0.001187 -0.011294 0.014991 0.040784 -0.019532
# 6 0.004916 0.004246 0.013859 -0.007104 -0.019532 0.044963
#
#
# Mechanical properties :
#
#
# Convention : Reuss Voigt Hill
#
# Bulk Modulus (GPa) = 37.23366 81.01001 59.12183
# Shear Modulus (GPa) = 30.48479 44.42129 37.45304
#
# Velocity S-wave (km/s) = 3.63807 4.39162 4.03249
# Velocity P-wave (km/s) = 5.81490 7.80302 6.88114
#
# Compressibility (1/GPa) = 0.02685742
#
# Stress axis : x y z
#
# Youngs Moduli (GPa) = 110.12730 136.52509 66.18349
#
# Poissons Ratio (x) = 0.25439 -0.02930
# Poissons Ratio (y) = 0.20520 0.06009
# Poissons Ratio (z) = -0.04876 0.12396
#
# Static dielectric constant tensor:
#      x y z
#    x 2.463430 -0.030240 0.154030 
#    y -0.030240 1.830360 0.002880 
#    z 0.154030 0.002880 2.036010 
# 
# From -- ./inp_files/91070.got.cif
#   From: 2010.05.17/outbox.cif.g08.bks.cpg/sg2_46_cif.got.tgz:91070.got - 2010.06.03 11:33:40.
