data_PCOD9045107
_publ_section_title
;
Structure prediction by ZEFSAII (Michael W. Deem and Ramdas Pophale) SiO2 
 PCOD9045107
Probable space group: P -1
;
_chemical_formula_sum "Si O2"
_cell_formula_units_Z 14
_cell_length_a 15.126059
_cell_length_b 12.140411
_cell_length_c 12.246081
_cell_angle_alpha 131.458926
_cell_angle_beta 27.548304
_cell_angle_gamma 138.572721
_cell_volume 688.158272
_symmetry_space_group_name_H-M "P -1"
_symmetry_group_IT_number 2
_symmetry_cell_setting 'triclinic'
loop_
_space_group_symop_operation_xyz
x,y,z
-x,-y,-z
loop_
_atom_site_type_symbol
_atom_site_label
_atom_site_fract_x
_atom_site_fract_y
_atom_site_fract_z
Si Si1 0.057176 0.188874 0.036265
Si Si2 0.437238 0.087320 0.966115
Si Si3 0.320101 0.830900 0.452348
Si Si4 0.000152 0.189949 0.846361
Si Si5 0.602879 0.847388 0.713404
Si Si6 0.503411 0.226511 0.554074
Si Si7 0.311901 0.553184 0.711295
O O1 0.313820 0.278393 0.809445
O O2 0.971190 0.185443 0.005831
O O3 0.935442 0.242005 0.294162
O O4 0.000000 0.000000 0.000000
O O5 0.583298 0.204290 0.785579
O O6 0.582105 0.008701 0.806812
O O7 0.371034 0.160503 0.190735
O O8 0.218081 0.943772 0.058632
O O9 0.402208 0.775119 0.432301
O O10 0.413032 0.033752 0.486617
O O11 0.196310 0.150776 0.571266
O O12 0.092231 0.382184 0.838750
O O13 0.373661 0.693209 0.827940
O O14 0.650205 0.349514 0.380172
O O15 0.500000 0.500000 0.500000
#
# Coordination Sequence:
#
# PCOD9045107 Si02
#       7
#     2   2   2   2   2   2   2
#     4  10  18  30  54  80 110 139 181 232 273 311
#     4  11  21  36  56  83 113 146 182 225 275 328
#     4  10  20  32  52  83 110 140 187 227 271 319
#     4  11  21  35  57  87 106 143 187 229 277 322
#     4  10  21  37  55  80 116 145 180 227 276 330
#     4  10  17  34  52  82 110 139 182 237 270 313
#     4  10  19  36  58  84 113 142 183 230 282 325
#
# _framework density 20.344156000000002
#
# number of rings (size 3 to 8) (size 9 to 14) (size 15 to 20)
#    0.000    1.714    4.286    3.857    0.000    0.571 
#    0.000    0.000    0.000    4.286    3.714    0.000 
#    0.000    0.000    0.000    0.000    0.000    0.000 
#
# Total GULP energy -78066.684291 kJ/mol
# GULP energy per Si atom -5576.191735 kJ/mol
# Density = 2.029785 g / cm^3
# Si number density = 20.344156 Si / 1000 Ang^3
#
#
#
# Elastic Constant Matrix: (Units=GPa)
#
#
# Indices 1 2 3 4 5 6 
#
# 1 99.6927 26.7021 36.0003 -18.0498 23.8190 -19.0123
# 2 26.7021 38.7766 11.6626 -19.1309 15.8942 -12.4386
# 3 36.0003 11.6626 98.9897 -23.7793 13.3641 7.2296
# 4 -18.0498 -19.1309 -23.7793 22.9296 -5.6647 -0.4693
# 5 23.8190 15.8942 13.3641 -5.6647 33.5150 -7.8734
# 6 -19.0123 -12.4386 7.2296 -0.4693 -7.8734 27.0974
#
#
#
# Elastic Compliance Matrix: (Units=1/GPa)
#
#
# Indices 1 2 3 4 5 6 
#
# 1 0.016456 -0.001104 -0.004314 0.006319 -0.005897 0.010586
# 2 -0.001104 0.070829 0.007743 0.061943 -0.019534 0.025069
# 3 -0.004314 0.007743 0.016277 0.018576 -0.005128 -0.004983
# 4 0.006319 0.061943 0.018576 0.116177 -0.015678 0.025368
# 5 -0.005897 -0.019534 -0.005128 -0.015678 0.042786 0.000425
# 6 0.010586 0.025069 -0.004983 0.025368 0.000425 0.057731
#
#
# Mechanical properties :
#
#
# Convention : Reuss Voigt Hill
#
# Bulk Modulus (GPa) = 9.24109 42.90992 26.07550
# Shear Modulus (GPa) = 14.21754 27.58132 20.89943
#
# Velocity S-wave (km/s) = 2.64645 3.68603 3.20862
# Velocity P-wave (km/s) = 3.72699 6.26526 5.15480
#
# Compressibility (1/GPa) = 0.10821240
#
# Stress axis : x y z
#
# Youngs Moduli (GPa) = 60.76753 14.11852 61.43560
#
# Poissons Ratio (x) = 0.01559 0.26502
# Poissons Ratio (y) = 0.06710 -0.47569
# Poissons Ratio (z) = 0.26214 -0.10932
#
# Static dielectric constant tensor:
#      x y z
#    x 1.738820 0.002990 -0.036760 
#    y 0.002990 1.746340 0.003360 
#    z -0.036760 0.003360 1.858980 
# 
# From -- ./inp_files/423117.got.cif
#   From: 2010.05.17/outbox.cif.g08.bks.cpg/sg2_212_cif.got.tgz:423117.got - 2010.06.03 11:33:40.
