data_PCOD9045671
_publ_section_title
;
Structure prediction by ZEFSAII (Michael W. Deem and Ramdas Pophale) SiO2 
 PCOD9045671
Probable space group: P -1
;
_chemical_formula_sum "Si O2"
_cell_formula_units_Z 16
_cell_length_a 6.524738
_cell_length_b 8.354737
_cell_length_c 18.259841
_cell_angle_alpha 66.270375
_cell_angle_beta 91.923681
_cell_angle_gamma 120.742723
_cell_volume 764.204769
_symmetry_space_group_name_H-M "P -1"
_symmetry_group_IT_number 2
_symmetry_cell_setting 'triclinic'
loop_
_space_group_symop_operation_xyz
x,y,z
-x,-y,-z
loop_
_atom_site_type_symbol
_atom_site_label
_atom_site_fract_x
_atom_site_fract_y
_atom_site_fract_z
Si Si1 0.895326 0.138066 0.495020
Si Si2 0.609801 0.440370 0.580931
Si Si3 0.870087 0.940100 0.837630
Si Si4 0.565737 0.053826 0.904264
Si Si5 0.383235 0.670396 0.788289
Si Si6 0.076718 0.663385 0.907895
Si Si7 0.478736 0.991044 0.615938
Si Si8 0.580782 0.672920 0.235470
O O1 0.745902 0.048565 0.584582
O O2 0.104150 0.380695 0.454165
O O3 0.698388 0.092537 0.439925
O O4 0.000000 0.000000 0.500000
O O5 0.500000 0.500000 0.500000
O O6 0.526966 0.205869 0.606635
O O7 0.530617 0.430457 0.667023
O O8 0.643963 0.841221 0.797009
O O9 0.895774 0.743761 0.887355
O O10 0.788572 0.030211 0.886968
O O11 0.141474 0.128806 0.783165
O O12 0.566405 0.247553 0.829588
O O13 0.332379 0.864878 0.896364
O O14 0.500000 0.000000 0.000000
O O15 0.148263 0.579237 0.854684
O O16 0.403371 0.492807 0.783165
O O17 0.349466 0.807757 0.704950
O O18 0.000000 0.500000 0.000000
#
# Coordination Sequence:
#
# PCOD9045671 Si02
#       8
#     2   2   2   2   2   2   2   2
#     4  11  24  44  68 100 136 176 228 288 336 412
#     4  12  25  44  71 101 137 184 227 285 348 401
#     4  10  24  45  68  95 141 179 218 289 338 403
#     4  10  24  43  69 101 135 179 227 280 345 407
#     4  11  26  43  70  99 134 182 226 283 341 409
#     4  10  24  41  66 102 133 176 227 274 344 411
#     4  11  25  44  68  99 136 179 233 274 350 408
#     4  11  27  44  67 105 134 178 237 275 348 412
#
# _framework density 20.936796999999999
#
# number of rings (size 3 to 8) (size 9 to 14) (size 15 to 20)
#    0.000    1.250    1.250    3.375    8.750    7.000 
#    0.000    0.000    0.000    0.000    0.000    0.000 
#    0.000    0.000    0.000    0.000    0.000    0.000 
#
# Total GULP energy -89211.053613 kJ/mol
# GULP energy per Si atom -5575.690851 kJ/mol
# Density = 2.088914 g / cm^3
# Si number density = 20.936797 Si / 1000 Ang^3
#
#
#
# Elastic Constant Matrix: (Units=GPa)
#
#
# Indices 1 2 3 4 5 6 
#
# 1 90.1284 15.1626 54.0535 6.8489 -7.9214 -9.7583
# 2 15.1626 91.5135 21.3513 -1.5233 0.4814 -12.0443
# 3 54.0535 21.3513 145.4655 -2.4003 -15.8327 -19.1040
# 4 6.8489 -1.5233 -2.4003 31.4907 -1.0844 -0.3105
# 5 -7.9214 0.4814 -15.8327 -1.0844 31.9468 1.3500
# 6 -9.7583 -12.0443 -19.1040 -0.3105 1.3500 38.0848
#
#
#
# Elastic Compliance Matrix: (Units=1/GPa)
#
#
# Indices 1 2 3 4 5 6 
#
# 1 0.014862 -0.001216 -0.005200 -0.003647 0.000971 0.000751
# 2 -0.001216 0.011767 -0.000991 0.000751 -0.001069 0.002957
# 3 -0.005200 -0.000991 0.009781 0.001980 0.003507 0.003152
# 4 -0.003647 0.000751 0.001980 0.032781 0.001157 0.000523
# 5 0.000971 -0.001069 0.003507 0.001157 0.033315 0.000498
# 6 0.000751 0.002957 0.003152 0.000523 0.000498 0.028952
#
#
# Mechanical properties :
#
#
# Convention : Reuss Voigt Hill
#
# Bulk Modulus (GPa) = 46.30554 56.47137 51.38846
# Shear Modulus (GPa) = 32.57931 36.07378 34.32655
#
# Velocity S-wave (km/s) = 3.94900 4.15539 4.05351
# Velocity P-wave (km/s) = 6.55420 7.07488 6.81951
#
# Compressibility (1/GPa) = 0.02159569
#
# Stress axis : x y z
#
# Youngs Moduli (GPa) = 67.28427 84.98101 102.24365
#
# Poissons Ratio (x) = 0.10336 0.53167
# Poissons Ratio (y) = 0.08183 0.10132
# Poissons Ratio (z) = 0.34988 0.08421
#
# Static dielectric constant tensor:
#      x y z
#    x 1.746550 -0.019150 0.003670 
#    y -0.019150 1.735750 0.028930 
#    z 0.003670 0.028930 1.780240 
# 
# From -- ./inp_files/56462.got.cif
#   From: 2010.05.17/outbox.cif.g08.bks.cpg/sg2_29_cif.got.tgz:56462.got - 2010.06.03 11:33:40.
