data_PCOD9045094
_publ_section_title
;
Structure prediction by ZEFSAII (Michael W. Deem and Ramdas Pophale) SiO2 
 PCOD9045094
Probable space group: P -1
;
_chemical_formula_sum "Si O2"
_cell_formula_units_Z 16
_cell_length_a 20.158664
_cell_length_b 6.987723
_cell_length_c 7.531000
_cell_angle_alpha 70.531143
_cell_angle_beta 88.539567
_cell_angle_gamma 46.508019
_cell_volume 692.612478
_symmetry_space_group_name_H-M "P -1"
_symmetry_group_IT_number 2
_symmetry_cell_setting 'triclinic'
loop_
_space_group_symop_operation_xyz
x,y,z
-x,-y,-z
loop_
_atom_site_type_symbol
_atom_site_label
_atom_site_fract_x
_atom_site_fract_y
_atom_site_fract_z
Si Si1 0.894930 0.140333 0.957568
Si Si2 0.207596 0.874563 0.308607
Si Si3 0.596162 0.655326 0.607189
Si Si4 0.374906 0.717263 0.953685
Si Si5 0.780128 0.193250 0.253764
Si Si6 0.419815 0.610689 0.607925
Si Si7 0.723500 0.830765 0.737984
Si Si8 0.396768 0.110579 0.979865
O O1 0.591753 0.504972 0.818732
O O2 0.879985 0.010784 0.839189
O O3 0.863652 0.101202 0.155615
O O4 0.000000 0.000000 0.000000
O O5 0.396550 0.457114 0.555262
O O6 0.190595 0.911710 0.511130
O O7 0.180307 0.508381 0.170950
O O8 0.332368 0.961262 0.493792
O O9 0.708169 0.467504 0.660079
O O10 0.500000 0.000000 0.500000
O O11 0.379283 0.946390 0.917795
O O12 0.271171 0.871306 0.839452
O O13 0.441904 0.534560 0.833036
O O14 0.753850 0.981144 0.781645
O O15 0.692073 0.545606 0.158104
O O16 0.500000 0.500000 0.500000
O O17 0.636843 0.900838 0.820690
O O18 0.500000 0.000000 0.000000
#
# Coordination Sequence:
#
# PCOD9045094 Si02
#       8
#     2   2   2   2   2   2   2   2
#     4  11  26  48  76 108 144 189 239 309 387 445
#     4  11  23  48  72 106 144 186 247 310 364 443
#     4  11  25  44  71 105 149 201 248 303 359 440
#     4  12  24  50  71  98 153 201 253 305 363 439
#     4  11  25  43  75 105 139 189 247 302 372 450
#     4  11  26  42  67 105 144 191 250 299 359 429
#     4  10  23  49  70 102 149 182 246 308 355 441
#     4  11  26  43  70 103 145 201 245 297 373 439
#
# _framework density 23.100940000000001
#
# number of rings (size 3 to 8) (size 9 to 14) (size 15 to 20)
#    0.000    1.000    6.250    0.000    5.250    4.500 
#    4.500    1.250    0.000    0.000    0.000    0.000 
#    0.000    0.000    0.000    0.000    0.000    0.000 
#
# Total GULP energy -89206.028080 kJ/mol
# GULP energy per Si atom -5575.376755 kJ/mol
# Density = 2.304836 g / cm^3
# Si number density = 23.100940 Si / 1000 Ang^3
#
#
#
# Elastic Constant Matrix: (Units=GPa)
#
#
# Indices 1 2 3 4 5 6 
#
# 1 170.3410 66.1228 64.0893 3.3166 14.7694 -33.7606
# 2 66.1228 88.7603 42.2125 5.6356 6.1881 -11.0850
# 3 64.0893 42.2125 139.4288 31.8480 -6.9898 -12.9188
# 4 3.3166 5.6356 31.8480 32.3531 -8.7318 0.9258
# 5 14.7694 6.1881 -6.9898 -8.7318 36.5216 -0.0311
# 6 -33.7606 -11.0850 -12.9188 0.9258 -0.0311 53.4752
#
#
#
# Elastic Compliance Matrix: (Units=1/GPa)
#
#
# Indices 1 2 3 4 5 6 
#
# 1 0.010438 -0.005497 -0.003370 0.002152 -0.003416 0.004597
# 2 -0.005497 0.016597 -0.002605 -0.000041 -0.001098 -0.000659
# 3 -0.003370 -0.002605 0.012065 -0.010668 0.001563 0.000433
# 4 0.002152 -0.000041 -0.010668 0.043260 0.007436 -0.001972
# 5 -0.003416 -0.001098 0.001563 0.007436 0.031024 -0.002117
# 6 0.004597 -0.000659 0.000433 -0.001972 -0.002117 0.021603
#
#
# Mechanical properties :
#
#
# Convention : Reuss Voigt Hill
#
# Bulk Modulus (GPa) = 61.89914 82.59769 72.24841
# Shear Modulus (GPa) = 30.61514 39.54366 35.07940
#
# Velocity S-wave (km/s) = 3.64438 4.14185 3.90106
# Velocity P-wave (km/s) = 6.67547 7.66198 7.18568
#
# Compressibility (1/GPa) = 0.01615531
#
# Stress axis : x y z
#
# Youngs Moduli (GPa) = 95.80386 60.25131 82.88324
#
# Poissons Ratio (x) = 0.33122 0.27935
# Poissons Ratio (y) = 0.52667 0.21589
# Poissons Ratio (z) = 0.32290 0.15694
#
# Static dielectric constant tensor:
#      x y z
#    x 2.241740 0.046470 0.085020 
#    y 0.046470 1.922110 0.023570 
#    z 0.085020 0.023570 1.967510 
# 
# From -- ./inp_files/295248.got.cif
#   From: 2010.05.17/outbox.cif.g08.bks.cpg/sg2_148_cif.got.tgz:295248.got - 2010.06.03 11:33:40.
