data_PCOD9045111
_publ_section_title
;
Structure prediction by ZEFSAII (Michael W. Deem and Ramdas Pophale) SiO2 
 PCOD9045111
Probable space group: P -1
;
_chemical_formula_sum "Si O2"
_cell_formula_units_Z 14
_cell_length_a 9.975953
_cell_length_b 12.411887
_cell_length_c 5.017903
_cell_angle_alpha 114.738580
_cell_angle_beta 80.408433
_cell_angle_gamma 75.708852
_cell_volume 520.482966
_symmetry_space_group_name_H-M "P -1"
_symmetry_group_IT_number 2
_symmetry_cell_setting 'triclinic'
loop_
_space_group_symop_operation_xyz
x,y,z
-x,-y,-z
loop_
_atom_site_type_symbol
_atom_site_label
_atom_site_fract_x
_atom_site_fract_y
_atom_site_fract_z
Si Si1 0.530521 0.378023 0.172746
Si Si2 0.125103 0.991142 0.655350
Si Si3 0.057303 0.584942 0.371022
Si Si4 0.623618 0.919743 0.576585
Si Si5 0.714263 0.290429 0.494615
Si Si6 0.167185 0.173136 0.197764
Si Si7 0.733599 0.660278 0.057452
O O1 0.500000 0.500000 0.500000
O O2 0.634496 0.275464 0.234677
O O3 0.388135 0.631298 0.147204
O O4 0.379329 0.364748 0.134343
O O5 0.207725 0.847753 0.558449
O O6 0.239706 0.042657 0.525168
O O7 0.000000 0.000000 0.500000
O O8 0.085542 0.083539 0.021354
O O9 0.170214 0.640882 0.531096
O O10 0.157576 0.476619 0.021611
O O11 0.000000 0.500000 0.500000
O O12 0.931450 0.715498 0.453729
O O13 0.667333 0.915484 0.870049
O O14 0.500000 0.000000 0.500000
O O15 0.636813 0.772110 0.395653
O O16 0.182472 0.265033 0.056359
#
# Coordination Sequence:
#
# PCOD9045111 Si02
#       7
#     2   2   2   2   2   2   2
#     4  12  27  48  75 116 153 204 258 322 395 462
#     4  11  27  45  74 110 152 202 262 321 392 464
#     4  10  23  49  72 108 148 202 253 322 387 469
#     4  11  25  44  69 106 151 205 259 315 385 464
#     4  12  28  47  78 110 158 199 257 327 389 464
#     4  10  25  46  74 107 151 206 255 320 387 466
#     4  10  24  43  72 107 151 196 257 315 387 460
#
# _framework density 26.898091999999998
#
# number of rings (size 3 to 8) (size 9 to 14) (size 15 to 20)
#    0.000    1.143    1.429    2.143   10.000    2.857 
#    2.571    0.000    0.000    0.000    0.000    0.000 
#    0.000    0.000    0.000    0.000    0.000    0.000 
#
# Total GULP energy -78208.432478 kJ/mol
# GULP energy per Si atom -5586.316606 kJ/mol
# Density = 2.683687 g / cm^3
# Si number density = 26.898092 Si / 1000 Ang^3
#
#
#
# Elastic Constant Matrix: (Units=GPa)
#
#
# Indices 1 2 3 4 5 6 
#
# 1 108.0562 61.7617 50.6997 4.5764 32.2826 -9.8447
# 2 61.7617 150.7109 48.7502 4.9844 20.1700 -24.0295
# 3 50.6997 48.7502 140.5722 1.8097 25.7405 -3.0016
# 4 4.5764 4.9844 1.8097 49.3356 8.2447 16.8766
# 5 32.2826 20.1700 25.7405 8.2447 47.3624 -9.7205
# 6 -9.8447 -24.0295 -3.0016 16.8766 -9.7205 55.5034
#
#
#
# Elastic Compliance Matrix: (Units=1/GPa)
#
#
# Indices 1 2 3 4 5 6 
#
# 1 0.015131 -0.004563 -0.002570 0.000680 -0.007279 -0.000912
# 2 -0.004563 0.009656 -0.001806 -0.002094 0.001189 0.004118
# 3 -0.002570 -0.001806 0.009165 0.001135 -0.002988 -0.001610
# 4 0.000680 -0.002094 0.001135 0.024638 -0.006394 -0.009336
# 5 -0.007279 0.001189 -0.002988 -0.006394 0.029576 0.006186
# 6 -0.000912 0.004118 -0.001610 -0.009336 0.006186 0.023473
#
#
# Mechanical properties :
#
#
# Convention : Reuss Voigt Hill
#
# Bulk Modulus (GPa) = 62.21155 80.19583 71.20369
# Shear Modulus (GPa) = 37.07115 46.31547 41.69331
#
# Velocity S-wave (km/s) = 3.71645 4.15406 3.94134
# Velocity P-wave (km/s) = 6.44940 7.27240 6.87323
#
# Compressibility (1/GPa) = 0.01607419
#
# Stress axis : x y z
#
# Youngs Moduli (GPa) = 66.08793 103.56179 109.10843
#
# Poissons Ratio (x) = 0.47258 0.28043
# Poissons Ratio (y) = 0.30158 0.19702
# Poissons Ratio (z) = 0.16986 0.18701
#
# Static dielectric constant tensor:
#      x y z
#    x 2.262730 -0.107770 -0.199590 
#    y -0.107770 2.194450 -0.069110 
#    z -0.199590 -0.069110 2.490690 
# 
# From -- ./inp_files/72421.got.cif
#   From: 2010.05.17/outbox.cif.g08.bks.cpg/sg2_37_cif.got.tgz:72421.got - 2010.06.03 11:33:40.
