data_PCOD9045023
_publ_section_title
;
Structure prediction by ZEFSAII (Michael W. Deem and Ramdas Pophale) SiO2 
 PCOD9045023
Probable space group: P -1
;
_chemical_formula_sum "Si O2"
_cell_formula_units_Z 12
_cell_length_a 13.984662
_cell_length_b 14.111144
_cell_length_c 10.871848
_cell_angle_alpha 31.047822
_cell_angle_beta 149.766724
_cell_angle_gamma 150.250560
_cell_volume 484.780831
_symmetry_space_group_name_H-M "P -1"
_symmetry_group_IT_number 2
_symmetry_cell_setting 'triclinic'
loop_
_space_group_symop_operation_xyz
x,y,z
-x,-y,-z
loop_
_atom_site_type_symbol
_atom_site_label
_atom_site_fract_x
_atom_site_fract_y
_atom_site_fract_z
Si Si1 0.161239 0.080191 0.350221
Si Si2 0.669857 0.953996 0.906799
Si Si3 0.763681 0.303372 0.148687
Si Si4 0.791809 0.422362 0.566263
Si Si5 0.438006 0.637036 0.367686
Si Si6 0.226768 0.221428 0.007841
O O1 0.325473 0.172036 0.544235
O O2 0.164629 0.869164 0.552539
O O3 0.270147 0.244879 0.174958
O O4 0.908422 0.011130 0.159893
O O5 0.472814 0.786876 0.954890
O O6 0.676421 0.178642 0.667843
O O7 0.637997 0.842760 0.862930
O O8 0.957399 0.510487 0.195131
O O9 0.723072 0.315689 0.946065
O O10 0.688875 0.450268 0.547917
O O11 0.782855 0.579185 0.280553
O O12 0.500000 0.500000 0.500000
O O13 0.000000 0.000000 0.000000
#
# Coordination Sequence:
#
# PCOD9045023 Si02
#       6
#     2   2   2   2   2   2
#     4  11  25  49  72 107 149 192 240 305 361 428
#     4  11  25  47  78 110 144 199 235 303 376 422
#     4  12  25  49  74 107 153 187 247 301 361 435
#     4  12  25  49  76 112 143 193 251 295 368 444
#     4  12  27  48  74 108 146 198 247 300 367 434
#     4  10  23  48  73 108 152 185 245 305 361 435
#
# _framework density 24.753453
#
# number of rings (size 3 to 8) (size 9 to 14) (size 15 to 20)
#    0.000    0.667    5.000    3.000    0.000    4.667 
#    3.000    0.000    0.000    1.000    0.000    0.000 
#    0.000    0.000    0.000    0.000    0.000    0.000 
#
# Total GULP energy -67157.287783 kJ/mol
# GULP energy per Si atom -5596.440649 kJ/mol
# Density = 2.469711 g / cm^3
# Si number density = 24.753453 Si / 1000 Ang^3
#
#
#
# Elastic Constant Matrix: (Units=GPa)
#
#
# Indices 1 2 3 4 5 6 
#
# 1 63.8772 24.3972 44.5365 -3.2905 4.4074 15.8695
# 2 24.3972 109.2387 24.8600 23.5522 -2.1171 4.7563
# 3 44.5365 24.8600 124.7268 11.9619 -13.8251 7.6771
# 4 -3.2905 23.5522 11.9619 29.0893 -6.1669 -1.0036
# 5 4.4074 -2.1171 -13.8251 -6.1669 37.2817 0.7718
# 6 15.8695 4.7563 7.6771 -1.0036 0.7718 36.2720
#
#
#
# Elastic Compliance Matrix: (Units=1/GPa)
#
#
# Indices 1 2 3 4 5 6 
#
# 1 0.027957 -0.006010 -0.009847 0.010633 -0.005354 -0.008951
# 2 -0.006010 0.012763 0.000631 -0.011299 -0.000211 0.000514
# 3 -0.009847 0.000631 0.012404 -0.005653 0.004837 0.001341
# 4 0.010633 -0.011299 -0.005653 0.047862 0.003937 -0.000734
# 5 -0.005354 -0.000211 0.004837 0.003937 0.029872 0.000819
# 6 -0.008951 0.000514 0.001341 -0.000734 0.000819 0.031097
#
#
# Mechanical properties :
#
#
# Convention : Reuss Voigt Hill
#
# Bulk Modulus (GPa) = 44.10849 53.93666 49.02257
# Shear Modulus (GPa) = 25.00467 34.13185 29.56826
#
# Velocity S-wave (km/s) = 3.18173 3.71735 3.45992
# Velocity P-wave (km/s) = 5.59962 6.34521 5.98404
#
# Compressibility (1/GPa) = 0.02267137
#
# Stress axis : x y z
#
# Youngs Moduli (GPa) = 35.76947 78.35404 80.62116
#
# Poissons Ratio (x) = 0.47087 0.79388
# Poissons Ratio (y) = 0.21496 -0.05085
# Poissons Ratio (z) = 0.35222 -0.04942
#
# Static dielectric constant tensor:
#      x y z
#    x 1.990630 -0.010250 -0.044210 
#    y -0.010250 2.044130 0.083820 
#    z -0.044210 0.083820 2.049910 
# 
# From -- ./inp_files/382550.got.cif
#   From: 2010.05.17/outbox.cif.g08.bks.cpg/sg2_192_cif.got.tgz:382550.got - 2010.06.03 11:33:40.
