data_PCOD9045989
_publ_section_title
;
Structure prediction by ZEFSAII (Michael W. Deem and Ramdas Pophale) SiO2 
 PCOD9045989
Probable space group: P -1
;
_chemical_formula_sum "Si O2"
_cell_formula_units_Z 16
_cell_length_a 21.454766
_cell_length_b 12.113824
_cell_length_c 11.663249
_cell_angle_alpha 149.188141
_cell_angle_beta 140.379467
_cell_angle_gamma 30.221674
_cell_volume 776.859648
_symmetry_space_group_name_H-M "P -1"
_symmetry_group_IT_number 2
_symmetry_cell_setting 'triclinic'
loop_
_space_group_symop_operation_xyz
x,y,z
-x,-y,-z
loop_
_atom_site_type_symbol
_atom_site_label
_atom_site_fract_x
_atom_site_fract_y
_atom_site_fract_z
Si Si1 0.845849 0.705916 0.283450
Si Si2 0.404183 0.237189 0.987897
Si Si3 0.593618 0.557867 0.231519
Si Si4 0.547847 0.010749 0.399526
Si Si5 0.879179 0.158705 0.318231
Si Si6 0.724806 0.146089 0.691422
Si Si7 0.947788 0.921872 0.957273
Si Si8 0.960784 0.724272 0.239960
O O1 0.728676 0.703589 0.129969
O O2 0.865470 0.759926 0.229867
O O3 0.972118 0.406780 0.228337
O O4 0.815936 0.944524 0.538723
O O5 0.473608 0.093409 0.838461
O O6 0.366073 0.541219 0.203366
O O7 0.500000 0.000000 0.000000
O O8 0.554075 0.698634 0.426406
O O9 0.737423 0.303673 0.214931
O O10 0.585721 0.778778 0.337181
O O11 0.500000 0.500000 0.000000
O O12 0.653268 0.033295 0.531295
O O13 0.922974 0.338246 0.577857
O O14 0.904571 0.987891 0.316420
O O15 0.955507 0.991624 0.161994
O O16 0.804753 0.104610 0.877882
O O17 0.000000 0.000000 0.000000
O O18 0.000000 0.500000 0.000000
#
# Coordination Sequence:
#
# PCOD9045989 Si02
#       8
#     2   2   2   2   2   2   2   2
#     4  11  25  41  68 101 132 185 224 282 350 406
#     4  11  25  44  66  96 134 179 229 287 343 413
#     4  11  24  43  68 100 137 179 231 286 346 407
#     4  10  24  42  65  99 130 176 229 280 347 403
#     4  11  26  42  68  98 136 184 225 283 339 411
#     4  11  24  43  68 100 137 170 233 291 345 415
#     4  12  22  41  70 102 139 175 224 290 347 404
#     4  11  25  45  62  96 139 178 231 271 339 412
#
# _framework density 20.595741
#
# number of rings (size 3 to 8) (size 9 to 14) (size 15 to 20)
#    0.000    1.000    2.500    3.375    3.500    8.000 
#    0.000    0.000    0.000    0.000    0.000    0.000 
#    0.000    0.000    0.000    0.000    0.000    0.000 
#
# Total GULP energy -89227.119982 kJ/mol
# GULP energy per Si atom -5576.694999 kJ/mol
# Density = 2.054886 g / cm^3
# Si number density = 20.595741 Si / 1000 Ang^3
#
#
#
# Elastic Constant Matrix: (Units=GPa)
#
#
# Indices 1 2 3 4 5 6 
#
# 1 140.0856 19.6263 41.8267 11.6161 -19.3073 12.3305
# 2 19.6263 93.2126 30.4426 7.4933 1.6947 5.7615
# 3 41.8267 30.4426 105.3888 13.7591 -13.2565 -0.3087
# 4 11.6161 7.4933 13.7591 17.9368 -0.3031 1.8003
# 5 -19.3073 1.6947 -13.2565 -0.3031 49.1732 -0.4959
# 6 12.3305 5.7615 -0.3087 1.8003 -0.4959 29.2265
#
#
#
# Elastic Compliance Matrix: (Units=1/GPa)
#
#
# Indices 1 2 3 4 5 6 
#
# 1 0.008955 -0.000612 -0.002629 -0.003134 0.002774 -0.003445
# 2 -0.000612 0.012233 -0.003225 -0.002057 -0.001565 -0.002087
# 3 -0.002629 -0.003225 0.012679 -0.006870 0.002478 0.002344
# 4 -0.003134 -0.002057 -0.006870 0.064100 -0.002640 -0.002338
# 5 0.002774 -0.001565 0.002478 -0.002640 0.022128 -0.000298
# 6 -0.003445 -0.002087 0.002344 -0.002338 -0.000298 0.036244
#
#
# Mechanical properties :
#
#
# Convention : Reuss Voigt Hill
#
# Bulk Modulus (GPa) = 47.76894 58.05312 52.91103
# Shear Modulus (GPa) = 28.36874 35.72006 32.04440
#
# Velocity S-wave (km/s) = 3.71537 4.16906 3.94874
# Velocity P-wave (km/s) = 6.45362 7.17098 6.82174
#
# Compressibility (1/GPa) = 0.02093410
#
# Stress axis : x y z
#
# Youngs Moduli (GPa) = 111.67293 81.74463 78.86975
#
# Poissons Ratio (x) = 0.05006 0.20735
# Poissons Ratio (y) = 0.06839 0.25436
# Poissons Ratio (z) = 0.29359 0.26363
#
# Static dielectric constant tensor:
#      x y z
#    x 1.790900 -0.029980 0.022150 
#    y -0.029980 1.628760 -0.006440 
#    z 0.022150 -0.006440 1.836640 
# 
# From -- ./inp_files/71198.got.cif
#   From: 2010.05.17/outbox.cif.g08.bks.cpg/sg2_36_cif.got.tgz:71198.got - 2010.06.03 11:33:40.
