data_PCOD9045549
_publ_section_title
;
Structure prediction by ZEFSAII (Michael W. Deem and Ramdas Pophale) SiO2 
 PCOD9045549
Probable space group: P -1
;
_chemical_formula_sum "Si O2"
_cell_formula_units_Z 15
_cell_length_a 11.854958
_cell_length_b 11.746044
_cell_length_c 6.397273
_cell_angle_alpha 53.452556
_cell_angle_beta 73.712979
_cell_angle_gamma 87.649214
_cell_volume 677.697180
_symmetry_space_group_name_H-M "P -1"
_symmetry_group_IT_number 2
_symmetry_cell_setting 'triclinic'
loop_
_space_group_symop_operation_xyz
x,y,z
-x,-y,-z
loop_
_atom_site_type_symbol
_atom_site_label
_atom_site_fract_x
_atom_site_fract_y
_atom_site_fract_z
Si Si1 0.738036 0.443051 0.516245
Si Si2 0.814661 0.694873 0.883451
Si Si3 0.000000 0.000000 0.000000
Si Si4 0.942358 0.259523 0.504164
Si Si5 0.623178 0.591972 0.750146
Si Si6 0.849566 0.015304 0.484248
Si Si7 0.416042 0.009262 0.339190
Si Si8 0.504880 0.238793 0.704490
O O1 0.843560 0.351160 0.531504
O O2 0.703910 0.485618 0.719475
O O3 0.613128 0.361258 0.578744
O O4 0.777173 0.587097 0.207443
O O5 0.706954 0.676016 0.791880
O O6 0.934535 0.660121 0.747491
O O7 0.842036 0.859292 0.769178
O O8 0.067467 0.994161 0.744945
O O9 0.022578 0.836198 0.220575
O O10 0.884953 0.145837 0.481121
O O11 0.583881 0.696440 0.476836
O O12 0.500000 0.500000 0.000000
O O13 0.716676 0.018964 0.476142
O O14 0.500000 0.000000 0.500000
O O15 0.436954 0.881999 0.313496
O O16 0.444179 0.156358 0.029959
#
# Coordination Sequence:
#
# PCOD9045549 Si02
#       8
#     2   2   1   2   2   2   2   2
#     4  12  26  46  75 100 146 189 240 293 356 428
#     4  11  25  45  72 106 141 193 233 299 351 430
#     4  10  24  40  72 100 138 184 228 284 354 416
#     4  11  26  48  74 105 140 186 242 295 359 414
#     4  12  27  44  71 105 148 189 237 286 360 428
#     4  11  24  46  72 102 144 180 239 294 354 422
#     4  11  25  41  72 106 142 181 239 301 357 418
#     4  11  25  44  69 109 140 192 234 294 363 422
#
# _framework density 22.133779000000001
#
# number of rings (size 3 to 8) (size 9 to 14) (size 15 to 20)
#    0.000    0.800    2.667    4.000    5.600    8.000 
#    0.000    0.000    0.000    0.000    0.000    0.000 
#    0.000    0.000    0.000    0.000    0.000    0.000 
#
# Total GULP energy -83677.275242 kJ/mol
# GULP energy per Si atom -5578.485016 kJ/mol
# Density = 2.208340 g / cm^3
# Si number density = 22.133779 Si / 1000 Ang^3
#
#
#
# Elastic Constant Matrix: (Units=GPa)
#
#
# Indices 1 2 3 4 5 6 
#
# 1 126.1887 41.2100 29.2262 9.1263 -18.8854 -9.5730
# 2 41.2100 106.1090 42.7890 2.5906 -24.5075 -21.8721
# 3 29.2262 42.7890 121.9928 -9.0155 -6.3577 -2.6041
# 4 9.1263 2.5906 -9.0155 14.2113 2.1829 -7.0451
# 5 -18.8854 -24.5075 -6.3577 2.1829 20.7167 -3.2686
# 6 -9.5730 -21.8721 -2.6041 -7.0451 -3.2686 40.9517
#
#
#
# Elastic Compliance Matrix: (Units=1/GPa)
#
#
# Indices 1 2 3 4 5 6 
#
# 1 0.010933 -0.000383 -0.002640 -0.009483 0.009914 0.001343
# 2 -0.000383 0.019729 -0.005744 -0.005114 0.023514 0.011079
# 3 -0.002640 -0.005744 0.011176 0.010024 -0.007115 -0.001818
# 4 -0.009483 -0.005114 0.010024 0.091678 -0.019718 0.009888
# 5 0.009914 0.023514 -0.007115 -0.019718 0.087865 0.018045
# 6 0.001343 0.011079 -0.001818 0.009888 0.018045 0.033676
#
#
# Mechanical properties :
#
#
# Convention : Reuss Voigt Hill
#
# Bulk Modulus (GPa) = 41.14852 64.52675 52.83764
# Shear Modulus (GPa) = 17.81308 31.24695 24.53002
#
# Velocity S-wave (km/s) = 2.83996 3.76138 3.33267
# Velocity P-wave (km/s) = 5.42080 6.93400 6.22356
#
# Compressibility (1/GPa) = 0.02430221
#
# Stress axis : x y z
#
# Youngs Moduli (GPa) = 91.46887 50.68693 89.48016
#
# Poissons Ratio (x) = 0.01942 0.23625
# Poissons Ratio (y) = 0.03505 0.51398
# Poissons Ratio (z) = 0.24150 0.29115
#
# Static dielectric constant tensor:
#      x y z
#    x 1.821200 0.003500 0.001620 
#    y 0.003500 1.793250 0.015060 
#    z 0.001620 0.015060 1.770060 
# 
# From -- ./inp_files/65531.got.cif
#   From: 2010.05.17/outbox.cif.g08.bks.cpg/sg2_33_cif.got.tgz:65531.got - 2010.06.03 11:33:40.
