data_PCOD9045574
_publ_section_title
;
Structure prediction by ZEFSAII (Michael W. Deem and Ramdas Pophale) SiO2 
 PCOD9045574
Probable space group: P -1
;
_chemical_formula_sum "Si O2"
_cell_formula_units_Z 12
_cell_length_a 7.732697
_cell_length_b 9.125684
_cell_length_c 12.374656
_cell_angle_alpha 143.471442
_cell_angle_beta 79.594617
_cell_angle_gamma 94.255309
_cell_volume 507.453980
_symmetry_space_group_name_H-M "P -1"
_symmetry_group_IT_number 2
_symmetry_cell_setting 'triclinic'
loop_
_space_group_symop_operation_xyz
x,y,z
-x,-y,-z
loop_
_atom_site_type_symbol
_atom_site_label
_atom_site_fract_x
_atom_site_fract_y
_atom_site_fract_z
Si Si1 0.474866 0.898124 0.561164
Si Si2 0.898584 0.133693 0.932606
Si Si3 0.282598 0.558938 0.702847
Si Si4 0.323216 0.697397 0.141388
Si Si5 0.159833 0.721409 0.578982
Si Si6 0.915243 0.487178 0.758221
O O1 0.537394 0.605588 0.387598
O O2 0.274014 0.928763 0.641066
O O3 0.500000 0.000000 0.500000
O O4 0.598937 0.040790 0.707754
O O5 0.807053 0.299396 0.943954
O O6 0.755949 0.182744 0.074367
O O7 0.971008 0.866661 0.721222
O O8 0.068165 0.245144 0.032351
O O9 0.251128 0.606267 0.608514
O O10 0.127549 0.403166 0.675126
O O11 0.205581 0.654413 0.234204
O O12 0.500000 0.500000 0.000000
O O13 0.145159 0.536941 0.371828
#
# Coordination Sequence:
#
# PCOD9045574 Si02
#       6
#     2   2   2   2   2   2
#     4  12  25  42  71 100 137 179 225 277 340 397
#     4  10  25  42  71  99 133 179 229 275 341 397
#     4  10  25  45  67 103 135 179 226 279 337 403
#     4  12  24  44  67 104 140 175 227 287 335 400
#     4  12  23  47  70 100 139 177 227 277 340 406
#     4  10  24  40  74  95 138 172 232 275 337 391
#
# _framework density 23.647465
#
# number of rings (size 3 to 8) (size 9 to 14) (size 15 to 20)
#    1.000    0.000    1.667    5.000    2.333    1.333 
#    0.000    0.833    0.000    0.000    0.000    0.000 
#    0.000    0.000    0.000    0.000    0.000    0.000 
#
# Total GULP energy -66967.288691 kJ/mol
# GULP energy per Si atom -5580.607391 kJ/mol
# Density = 2.359364 g / cm^3
# Si number density = 23.647465 Si / 1000 Ang^3
#
#
#
# Elastic Constant Matrix: (Units=GPa)
#
#
# Indices 1 2 3 4 5 6 
#
# 1 45.9120 27.8420 56.2439 -6.9082 -7.2076 -15.2680
# 2 27.8420 102.7402 64.5758 -27.9935 0.5652 -24.9444
# 3 56.2439 64.5758 98.9877 -38.7820 7.4810 -11.0066
# 4 -6.9082 -27.9935 -38.7820 35.4925 -7.1591 6.7623
# 5 -7.2076 0.5652 7.4810 -7.1591 31.8249 -0.4700
# 6 -15.2680 -24.9444 -11.0066 6.7623 -0.4700 50.7446
#
#
#
# Elastic Compliance Matrix: (Units=1/GPa)
#
#
# Indices 1 2 3 4 5 6 
#
# 1 -0.220810 -0.049228 0.214942 0.152024 -0.066420 -0.064889
# 2 -0.049228 0.007755 0.037112 0.036170 -0.011990 -0.007881
# 3 0.214942 0.037112 -0.185246 -0.130119 0.063191 0.060660
# 4 0.152024 0.036170 -0.130119 -0.053369 0.053003 0.042901
# 5 -0.066420 -0.011990 0.063191 0.053003 0.013379 -0.019112
# 6 -0.064889 -0.007881 0.060660 0.042901 -0.019112 0.003572
#
#
# Mechanical properties :
#
#
# Convention : Reuss Voigt Hill
#
# Bulk Modulus (GPa) = 136.01452 60.55147 98.28299
# Shear Modulus (GPa) = -5.96713 30.21095 12.12191
#
# Velocity S-wave (km/s) = -1.59024 3.57817 2.26654
# Velocity P-wave (km/s) = 7.36686 6.53701 6.96431
#
# Compressibility (1/GPa) = 0.00735216
#
# Stress axis : x y z
#
# Youngs Moduli (GPa) = -4.52877 128.94951 -5.39822
#
# Poissons Ratio (x) = 6.34787 1.16030
# Poissons Ratio (y) = -0.22294 0.20034
# Poissons Ratio (z) = 0.97342 -4.78561
#
# Static dielectric constant tensor:
#      x y z
#    x 1.882930 0.027220 0.023580 
#    y 0.027220 1.853600 0.021260 
#    z 0.023580 0.021260 1.966480 
# 
# From -- ./inp_files/378655.got.cif
#   From: 2010.05.17/outbox.cif.g08.bks.cpg/sg2_190_cif.got.tgz:378655.got - 2010.06.03 11:33:40.
