data_PCOD9045639
_publ_section_title
;
Structure prediction by ZEFSAII (Michael W. Deem and Ramdas Pophale) SiO2 
 PCOD9045639
Probable space group: P -1
;
_chemical_formula_sum "Si O2"
_cell_formula_units_Z 16
_cell_length_a 13.503953
_cell_length_b 18.286316
_cell_length_c 10.346992
_cell_angle_alpha 44.837951
_cell_angle_beta 33.045366
_cell_angle_gamma 30.926989
_cell_volume 715.618862
_symmetry_space_group_name_H-M "P -1"
_symmetry_group_IT_number 2
_symmetry_cell_setting 'triclinic'
loop_
_space_group_symop_operation_xyz
x,y,z
-x,-y,-z
loop_
_atom_site_type_symbol
_atom_site_label
_atom_site_fract_x
_atom_site_fract_y
_atom_site_fract_z
Si Si1 0.197931 0.366452 0.542844
Si Si2 0.334758 0.671171 0.197497
Si Si3 0.187113 0.140880 0.541406
Si Si4 0.821635 0.361547 0.042321
Si Si5 0.591117 0.137885 0.211921
Si Si6 0.525069 0.284942 0.500487
Si Si7 0.299401 0.017635 0.285145
Si Si8 0.228880 0.708217 0.557509
O O1 0.462222 0.246937 0.335835
O O2 0.266032 0.393967 0.569795
O O3 0.000000 0.500000 0.500000
O O4 0.078496 0.300252 0.781962
O O5 0.598604 0.526254 0.042119
O O6 0.304531 0.647019 0.408733
O O7 0.103084 0.717574 0.313546
O O8 0.310265 0.806036 0.052383
O O9 0.367078 0.162443 0.360009
O O10 0.258771 0.085290 0.385119
O O11 0.228383 0.021958 0.732525
O O12 0.727781 0.282514 0.214773
O O13 0.839518 0.355331 0.186908
O O14 0.549780 0.316900 0.580230
O O15 0.606253 0.134911 0.603240
O O16 0.026352 0.126130 0.381913
O O17 0.500000 0.000000 0.000000
#
# Coordination Sequence:
#
# PCOD9045639 Si02
#       8
#     2   2   2   2   2   2   2   2
#     4  12  24  44  66  96 131 168 221 265 320 387
#     4  11  22  44  66  91 132 168 213 267 317 399
#     4  10  25  42  63  94 126 172 215 264 325 375
#     4  10  24  41  65  96 129 169 209 267 322 384
#     4  11  24  44  63  93 129 170 220 263 319 383
#     4  10  24  41  64  97 127 168 214 270 323 373
#     4  11  21  42  69  97 132 169 218 272 316 385
#     4   9  23  41  64  97 127 169 214 259 332 377
#
# _framework density 22.358270000000001
#
# number of rings (size 3 to 8) (size 9 to 14) (size 15 to 20)
#    0.750    0.750    2.500    1.875    3.500    1.500 
#    9.000    0.625    0.000    0.000    0.000    0.000 
#    0.000    0.000    0.000    0.000    0.000    0.000 
#
# Total GULP energy -89314.309228 kJ/mol
# GULP energy per Si atom -5582.144327 kJ/mol
# Density = 2.230738 g / cm^3
# Si number density = 22.358270 Si / 1000 Ang^3
#
#
#
# Elastic Constant Matrix: (Units=GPa)
#
#
# Indices 1 2 3 4 5 6 
#
# 1 95.8568 22.4487 11.6967 -5.3874 -15.2461 -32.1196
# 2 22.4487 68.1376 13.0759 -9.8781 -0.8905 -24.0027
# 3 11.6967 13.0759 92.4699 -21.8362 -0.8299 -5.1344
# 4 -5.3874 -9.8781 -21.8362 33.5604 4.1713 -1.7375
# 5 -15.2461 -0.8905 -0.8299 4.1713 20.1129 1.7974
# 6 -32.1196 -24.0027 -5.1344 -1.7375 1.7974 32.9791
#
#
#
# Elastic Compliance Matrix: (Units=1/GPa)
#
#
# Indices 1 2 3 4 5 6 
#
# 1 0.018291 0.000852 -0.000850 0.002081 0.011848 0.017766
# 2 0.000852 0.021433 -0.000531 0.007145 -0.001410 0.016799
# 3 -0.000850 -0.000531 0.013071 0.008535 -0.002022 0.001380
# 4 0.002081 0.007145 0.008535 0.039210 -0.006869 0.010996
# 5 0.011848 -0.001410 -0.002022 -0.006869 0.059390 0.006599
# 6 0.017766 0.016799 0.001380 0.010996 0.006599 0.060286
#
#
# Mechanical properties :
#
#
# Convention : Reuss Voigt Hill
#
# Bulk Modulus (GPa) = 19.32902 38.98965 29.15933
# Shear Modulus (GPa) = 21.74065 31.28000 26.51033
#
# Velocity S-wave (km/s) = 3.12168 3.74443 3.44714
# Velocity P-wave (km/s) = 4.65371 6.01421 5.37716
#
# Compressibility (1/GPa) = 0.05173569
#
# Stress axis : x y z
#
# Youngs Moduli (GPa) = 54.67242 46.65771 76.50614
#
# Poissons Ratio (x) = -0.03974 0.06502
# Poissons Ratio (y) = -0.04657 0.04064
# Poissons Ratio (z) = 0.04647 0.02478
#
# Static dielectric constant tensor:
#      x y z
#    x 1.860170 -0.021210 0.030230 
#    y -0.021210 1.829660 0.006300 
#    z 0.030230 0.006300 1.808930 
# 
# From -- ./inp_files/457468.got.cif
#   From: 2010.05.17/outbox.cif.g08.bks.cpg/sg2_229_cif.got.tgz:457468.got - 2010.06.03 11:33:40.
