data_PCOD9045290
_publ_section_title
;
Structure prediction by ZEFSAII (Michael W. Deem and Ramdas Pophale) SiO2 
 PCOD9045290
Probable space group: P -1
;
_chemical_formula_sum "Si O2"
_cell_formula_units_Z 14
_cell_length_a 8.251558
_cell_length_b 15.880827
_cell_length_c 7.286867
_cell_angle_alpha 78.774979
_cell_angle_beta 98.229973
_cell_angle_gamma 142.549194
_cell_volume 569.433477
_symmetry_space_group_name_H-M "P -1"
_symmetry_group_IT_number 2
_symmetry_cell_setting 'triclinic'
loop_
_space_group_symop_operation_xyz
x,y,z
-x,-y,-z
loop_
_atom_site_type_symbol
_atom_site_label
_atom_site_fract_x
_atom_site_fract_y
_atom_site_fract_z
Si Si1 0.224265 0.938733 0.510604
Si Si2 0.074372 0.393285 0.913698
Si Si3 0.873589 0.132489 0.059844
Si Si4 0.744396 0.935460 0.874312
Si Si5 0.543015 0.680870 0.057534
Si Si6 0.184468 0.373649 0.529276
Si Si7 0.141141 0.529432 0.322947
O O1 0.180880 0.931131 0.723881
O O2 0.980045 0.779353 0.469186
O O3 0.500000 0.000000 0.500000
O O4 0.220937 0.022297 0.348765
O O5 0.339082 0.526177 0.011606
O O6 0.141434 0.387985 0.722628
O O7 0.949949 0.435659 0.846259
O O8 0.885688 0.240612 0.026178
O O9 0.169807 0.235501 0.986387
O O10 0.693085 0.005039 0.940521
O O11 0.535184 0.771686 0.924573
O O12 0.000000 0.000000 0.000000
O O13 0.457936 0.658431 0.266948
O O14 0.500000 0.500000 0.500000
O O15 0.067059 0.398756 0.365328
O O16 0.000000 0.500000 0.500000
#
# Coordination Sequence:
#
# PCOD9045290 Si02
#       7
#     2   2   2   2   2   2   2
#     4  12  28  46  75 113 154 195 257 315 381 449
#     4  11  22  41  71 101 147 189 250 308 378 433
#     4  11  24  47  73 103 144 203 251 303 381 455
#     4  10  26  48  72 103 151 196 253 307 383 455
#     4  11  23  43  70 102 142 192 253 309 369 451
#     4  11  23  45  73 108 149 196 255 309 374 457
#     4  10  24  39  65 105 140 185 245 312 365 432
#
# _framework density 24.585840000000001
#
# number of rings (size 3 to 8) (size 9 to 14) (size 15 to 20)
#    0.000    1.143    1.429    3.429    6.000    5.143 
#    2.571    0.000    0.000    0.000    0.000    0.000 
#    0.000    0.000    0.000    0.000    0.000    0.000 
#
# Total GULP energy -78131.256608 kJ/mol
# GULP energy per Si atom -5580.804043 kJ/mol
# Density = 2.452988 g / cm^3
# Si number density = 24.585840 Si / 1000 Ang^3
#
#
#
# Elastic Constant Matrix: (Units=GPa)
#
#
# Indices 1 2 3 4 5 6 
#
# 1 79.2100 22.9041 52.3760 -12.2533 0.0621 14.1773
# 2 22.9041 121.9529 37.6860 -19.5280 0.5161 -8.0992
# 3 52.3760 37.6860 180.8174 -32.8659 -10.4007 -10.2881
# 4 -12.2533 -19.5280 -32.8659 46.7373 -14.1906 4.1637
# 5 0.0621 0.5161 -10.4007 -14.1906 54.1417 -18.6578
# 6 14.1773 -8.0992 -10.2881 4.1637 -18.6578 50.1973
#
#
#
# Elastic Compliance Matrix: (Units=1/GPa)
#
#
# Indices 1 2 3 4 5 6 
#
# 1 0.018421 -0.002339 -0.005667 -0.000641 -0.004083 -0.008206
# 2 -0.002339 0.009459 -0.000485 0.003237 0.001485 0.002371
# 3 -0.005667 -0.000485 0.008818 0.005543 0.004756 0.004637
# 4 -0.000641 0.003237 0.005543 0.029161 0.009724 0.003035
# 5 -0.004083 0.001485 0.004756 0.009724 0.025760 0.011136
# 6 -0.008206 0.002371 0.004637 0.003035 0.011136 0.027459
#
#
# Mechanical properties :
#
#
# Convention : Reuss Voigt Hill
#
# Bulk Modulus (GPa) = 50.72066 67.54584 59.13325
# Shear Modulus (GPa) = 35.05546 48.14953 41.60250
#
# Velocity S-wave (km/s) = 3.78013 4.43021 4.11802
# Velocity P-wave (km/s) = 6.30296 7.32817 6.83482
#
# Compressibility (1/GPa) = 0.01971583
#
# Stress axis : x y z
#
# Youngs Moduli (GPa) = 54.28695 105.72367 113.40442
#
# Poissons Ratio (x) = 0.24728 0.64262
# Poissons Ratio (y) = 0.12697 0.05502
# Poissons Ratio (z) = 0.30763 0.05129
#
# Static dielectric constant tensor:
#      x y z
#    x 2.082920 0.013150 0.030430 
#    y 0.013150 1.904510 -0.002380 
#    z 0.030430 -0.002380 1.993930 
# 
# From -- ./inp_files/200910.got.cif
#   From: 2010.05.17/outbox.cif.g08.bks.cpg/sg2_101_cif.got.tgz:200910.got - 2010.06.03 11:33:40.
