data_PCOD9045296
_publ_section_title
;
Structure prediction by ZEFSAII (Michael W. Deem and Ramdas Pophale) SiO2 
 PCOD9045296
Probable space group: P -1
;
_chemical_formula_sum "Si O2"
_cell_formula_units_Z 16
_cell_length_a 11.558908
_cell_length_b 15.082336
_cell_length_c 18.908168
_cell_angle_alpha 150.948349
_cell_angle_beta 129.341110
_cell_angle_gamma 31.600548
_cell_volume 755.343676
_symmetry_space_group_name_H-M "P -1"
_symmetry_group_IT_number 2
_symmetry_cell_setting 'triclinic'
loop_
_space_group_symop_operation_xyz
x,y,z
-x,-y,-z
loop_
_atom_site_type_symbol
_atom_site_label
_atom_site_fract_x
_atom_site_fract_y
_atom_site_fract_z
Si Si1 0.232277 0.269150 0.981628
Si Si2 0.206770 0.408413 0.738837
Si Si3 0.055380 0.735044 0.047306
Si Si4 0.806272 0.220166 0.515915
Si Si5 0.213691 0.666282 0.209910
Si Si6 0.251947 0.372387 0.311749
Si Si7 0.477730 0.264305 0.603247
Si Si8 0.271826 0.589702 0.608225
O O1 0.289576 0.428311 0.125483
O O2 0.139535 0.237397 0.988889
O O3 0.000000 0.500000 0.000000
O O4 0.467153 0.956446 0.817083
O O5 0.331318 0.381011 0.700601
O O6 0.928637 0.622322 0.762335
O O7 0.350555 0.079200 0.578541
O O8 0.199755 0.537350 0.895822
O O9 0.231785 0.586773 0.080376
O O10 0.911762 0.063746 0.212709
O O11 0.798736 0.433325 0.634616
O O12 0.539146 0.408579 0.563374
O O13 0.000000 0.000000 0.500000
O O14 0.926708 0.987646 0.336507
O O15 0.361061 0.707961 0.309738
O O16 0.197671 0.527066 0.472275
O O17 0.306630 0.452015 0.599550
#
# Coordination Sequence:
#
# PCOD9045296 Si02
#       8
#     2   2   2   2   2   2   2   2
#     4  10  24  39  66 104 138 167 215 271 335 408
#     4  11  27  46  66  95 131 179 232 282 320 394
#     4  11  24  42  66  98 136 169 218 278 339 392
#     4  12  22  39  70 101 133 178 216 264 340 411
#     4  11  23  44  66 100 136 176 217 274 336 404
#     4  12  24  44  67 100 139 176 220 270 340 400
#     4  11  26  47  67  93 130 180 236 272 332 391
#     4  12  23  41  70  98 131 176 216 280 334 405
#
# _framework density 21.182410999999998
#
# number of rings (size 3 to 8) (size 9 to 14) (size 15 to 20)
#    0.000    0.750    5.000    1.875    8.750    2.000 
#    0.000    0.000    0.000    0.000    0.000    0.000 
#    0.000    0.000    0.000    0.000    0.000    0.000 
#
# Total GULP energy -89520.697608 kJ/mol
# GULP energy per Si atom -5595.043601 kJ/mol
# Density = 2.113420 g / cm^3
# Si number density = 21.182411 Si / 1000 Ang^3
#
#
#
# Elastic Constant Matrix: (Units=GPa)
#
#
# Indices 1 2 3 4 5 6 
#
# 1 67.0837 13.1056 36.6443 3.3823 2.2847 26.7836
# 2 13.1056 66.9425 21.9015 -2.6144 -4.4832 18.7107
# 3 36.6443 21.9015 110.5810 1.3544 -15.0984 15.1689
# 4 3.3823 -2.6144 1.3544 35.2609 6.7482 -1.9278
# 5 2.2847 -4.4832 -15.0984 6.7482 36.4948 -2.8580
# 6 26.7836 18.7107 15.1689 -1.9278 -2.8580 27.3708
#
#
#
# Elastic Compliance Matrix: (Units=1/GPa)
#
#
# Indices 1 2 3 4 5 6 
#
# 1 0.030237 0.004185 -0.007700 -0.002667 -0.006345 -0.029032
# 2 0.004185 0.019531 -0.003170 0.000401 -0.000479 -0.015712
# 3 -0.007700 -0.003170 0.012565 -0.000893 0.005712 0.003272
# 4 -0.002667 0.000401 -0.000893 0.029943 -0.005347 0.004382
# 5 -0.006345 -0.000479 0.005712 -0.005347 0.031584 0.006292
# 6 -0.029032 -0.015712 0.003272 0.004382 0.006292 0.074837
#
#
# Mechanical properties :
#
#
# Convention : Reuss Voigt Hill
#
# Bulk Modulus (GPa) = 20.42368 43.10111 31.76239
# Shear Modulus (GPa) = 21.89254 31.35570 26.62412
#
# Velocity S-wave (km/s) = 3.21833 3.85160 3.54912
# Velocity P-wave (km/s) = 4.84489 6.33810 5.64112
#
# Compressibility (1/GPa) = 0.04896278
#
# Stress axis : x y z
#
# Youngs Moduli (GPa) = 33.07191 51.20037 79.58821
#
# Poissons Ratio (x) = -0.21428 0.61283
# Poissons Ratio (y) = -0.13841 0.25231
# Poissons Ratio (z) = 0.25465 0.16232
#
# Static dielectric constant tensor:
#      x y z
#    x 1.758810 0.009700 0.012290 
#    y 0.009700 1.771690 -0.029830 
#    z 0.012290 -0.029830 1.799730 
# 
# From -- ./inp_files/241066.got.cif
#   From: 2010.05.17/outbox.cif.g08.bks.cpg/sg2_121_cif.got.tgz:241066.got - 2010.06.03 11:33:40.
