data_PCOD9045774
_publ_section_title
;
Structure prediction by ZEFSAII (Michael W. Deem and Ramdas Pophale) SiO2 
 PCOD9045774
Probable space group: P -1
;
_chemical_formula_sum "Si O2"
_cell_formula_units_Z 16
_cell_length_a 19.373058
_cell_length_b 9.129902
_cell_length_c 8.066595
_cell_angle_alpha 84.418110
_cell_angle_beta 118.093294
_cell_angle_gamma 42.288491
_cell_volume 559.470289
_symmetry_space_group_name_H-M "P -1"
_symmetry_group_IT_number 2
_symmetry_cell_setting 'triclinic'
loop_
_space_group_symop_operation_xyz
x,y,z
-x,-y,-z
loop_
_atom_site_type_symbol
_atom_site_label
_atom_site_fract_x
_atom_site_fract_y
_atom_site_fract_z
Si Si1 0.312008 0.583816 0.752559
Si Si2 0.952426 0.161984 0.752276
Si Si3 0.485755 0.218237 0.476369
Si Si4 0.413142 0.139126 0.094120
Si Si5 0.721734 0.193915 0.967448
Si Si6 0.842663 0.919773 0.643320
Si Si7 0.135613 0.363286 0.779377
Si Si8 0.177735 0.358711 0.285844
O O1 0.127660 0.813908 0.474657
O O2 0.317627 0.686271 0.902543
O O3 0.308201 0.707046 0.583303
O O4 0.433062 0.238355 0.970427
O O5 0.806247 0.526887 0.597546
O O6 0.106612 0.999029 0.866472
O O7 0.000000 0.000000 0.000000
O O8 0.385275 0.290374 0.212789
O O9 0.463153 0.189428 0.635869
O O10 0.689152 0.858582 0.692330
O O11 0.423143 0.487433 0.346822
O O12 0.251592 0.302586 0.850149
O O13 0.745813 0.978560 0.998285
O O14 0.769911 0.879536 0.541232
O O15 0.998351 0.670695 0.714360
O O16 0.968923 0.705062 0.970658
O O17 0.000000 0.500000 0.500000
#
# Coordination Sequence:
#
# PCOD9045774 Si02
#       8
#     2   2   2   2   2   2   2   2
#     4  11  24  41  68 104 135 181 233 290 340 403
#     4  12  25  39  69 105 137 175 238 292 340 403
#     4  10  24  47  70  96 144 189 230 271 353 427
#     4  10  24  41  68  99 136 182 230 280 339 407
#     4  11  25  43  69 102 135 187 230 283 343 414
#     4  11  23  41  68 101 140 176 232 292 347 394
#     4  12  22  40  69 105 132 171 234 294 333 398
#     4  11  24  45  67 100 141 184 224 290 351 406
#
# _framework density 28.598478
#
# number of rings (size 3 to 8) (size 9 to 14) (size 15 to 20)
#    0.000    1.000    5.000    1.125    8.750    0.500 
#    0.000    6.250    0.000    0.000    0.000    0.000 
#    0.000    0.000    0.000    0.000    0.000    0.000 
#
# Total GULP energy -89385.190110 kJ/mol
# GULP energy per Si atom -5586.574382 kJ/mol
# Density = 2.853339 g / cm^3
# Si number density = 28.598478 Si / 1000 Ang^3
#
#
#
# Elastic Constant Matrix: (Units=GPa)
#
#
# Indices 1 2 3 4 5 6 
#
# 1 125.6887 37.3871 35.3522 -23.5851 -11.8584 37.6637
# 2 37.3871 151.9777 44.5748 -23.9804 -13.8606 49.9810
# 3 35.3522 44.5748 143.1448 -14.9725 -24.1815 21.2383
# 4 -23.5851 -23.9804 -14.9725 48.6243 28.2586 -8.7023
# 5 -11.8584 -13.8606 -24.1815 28.2586 57.4161 -13.7020
# 6 37.6637 49.9810 21.2383 -8.7023 -13.7020 57.0637
#
#
#
# Elastic Compliance Matrix: (Units=1/GPa)
#
#
# Indices 1 2 3 4 5 6 
#
# 1 0.011170 0.000770 -0.001812 0.005526 -0.002703 -0.007179
# 2 0.000770 0.010397 -0.002075 0.004855 -0.002682 -0.008746
# 3 -0.001812 -0.002075 0.008454 -0.001176 0.003383 0.000500
# 4 0.005526 0.004855 -0.001176 0.033574 -0.016193 -0.006230
# 5 -0.002703 -0.002682 0.003383 -0.016193 0.027265 0.006951
# 6 -0.007179 -0.008746 0.000500 -0.006230 0.006951 0.030456
#
#
# Mechanical properties :
#
#
# Convention : Reuss Voigt Hill
#
# Bulk Modulus (GPa) = 42.04128 72.82661 57.43395
# Shear Modulus (GPa) = 36.90616 52.85394 44.88005
#
# Velocity S-wave (km/s) = 3.59624 4.30366 3.96576
# Velocity P-wave (km/s) = 5.65477 7.08631 6.41062
#
# Compressibility (1/GPa) = 0.02378614
#
# Stress axis : x y z
#
# Youngs Moduli (GPa) = 89.52691 96.18195 118.28718
#
# Poissons Ratio (x) = -0.07405 0.21432
# Poissons Ratio (y) = -0.06892 0.24548
# Poissons Ratio (z) = 0.16221 0.19961
#
# Static dielectric constant tensor:
#      x y z
#    x 2.207330 -0.033580 -0.042460 
#    y -0.033580 2.277460 0.079680 
#    z -0.042460 0.079680 2.463900 
# 
# From -- ./inp_files/343559.got.cif
#   From: 2010.05.17/outbox.cif.g08.bks.cpg/sg2_172_cif.got.tgz:343559.got - 2010.06.03 11:33:40.
