data_PCOD9045527
_publ_section_title
;
Structure prediction by ZEFSAII (Michael W. Deem and Ramdas Pophale) SiO2 
 PCOD9045527
Probable space group: P -1
;
_chemical_formula_sum "Si O2"
_cell_formula_units_Z 14
_cell_length_a 28.550074
_cell_length_b 5.343668
_cell_length_c 5.367093
_cell_angle_alpha 58.236922
_cell_angle_beta 117.909501
_cell_angle_gamma 88.316846
_cell_volume 572.270171
_symmetry_space_group_name_H-M "P -1"
_symmetry_group_IT_number 2
_symmetry_cell_setting 'triclinic'
loop_
_space_group_symop_operation_xyz
x,y,z
-x,-y,-z
loop_
_atom_site_type_symbol
_atom_site_label
_atom_site_fract_x
_atom_site_fract_y
_atom_site_fract_z
Si Si1 0.842585 0.840358 0.559557
Si Si2 0.646378 0.610573 0.494806
Si Si3 0.223066 0.486104 0.118930
Si Si4 0.545003 0.151811 0.126717
Si Si5 0.871791 0.355293 0.523107
Si Si6 0.979065 0.208263 0.587178
Si Si7 0.588784 0.156939 0.728278
O O1 0.796016 0.725025 0.627832
O O2 0.886978 0.545762 0.678946
O O3 0.871462 0.005609 0.742907
O O4 0.812160 0.136487 0.141894
O O5 0.710861 0.581632 0.682647
O O6 0.606401 0.858184 0.463647
O O7 0.636214 0.289613 0.685841
O O8 0.616737 0.790582 0.073011
O O9 0.194589 0.443804 0.809463
O O10 0.539710 0.266250 0.338753
O O11 0.500000 0.000000 0.000000
O O12 0.560860 0.315337 0.839938
O O13 0.910956 0.331484 0.394276
O O14 0.000000 0.500000 0.500000
O O15 0.000000 0.000000 0.500000
O O16 0.000000 0.000000 0.000000
#
# Coordination Sequence:
#
# PCOD9045527 Si02
#       7
#     2   2   2   2   2   2   2
#     4  10  24  40  70  96 138 179 235 285 357 414
#     4  10  24  42  66  98 133 177 222 283 345 408
#     4  10  24  42  68  97 135 181 230 287 352 417
#     4  10  24  43  68  97 133 177 224 279 341 410
#     4  10  26  43  72  99 143 181 239 287 356 417
#     4  12  28  46  76 107 147 190 242 297 359 424
#     4  10  24  41  67  94 134 169 226 274 345 405
#
# _framework density 24.463968999999999
#
# number of rings (size 3 to 8) (size 9 to 14) (size 15 to 20)
#    1.714    0.000    0.000    2.571    8.000    3.429 
#    0.000    0.000    0.000    0.000    0.000    0.000 
#    0.000    0.000    0.000    0.000    0.000    0.000 
#
# Total GULP energy -78049.740674 kJ/mol
# GULP energy per Si atom -5574.981477 kJ/mol
# Density = 2.440829 g / cm^3
# Si number density = 24.463969 Si / 1000 Ang^3
#
#
#
# Elastic Constant Matrix: (Units=GPa)
#
#
# Indices 1 2 3 4 5 6 
#
# 1 133.5257 32.3831 41.6479 -13.3633 -13.4170 35.0253
# 2 32.3831 106.8894 32.3023 -7.6507 -27.6739 7.6136
# 3 41.6479 32.3023 122.3979 5.1741 -23.3959 12.2541
# 4 -13.3633 -7.6507 5.1741 36.6397 8.1073 -11.8187
# 5 -13.4170 -27.6739 -23.3959 8.1073 48.1083 -8.0774
# 6 35.0253 7.6136 12.2541 -11.8187 -8.0774 33.4259
#
#
#
# Elastic Compliance Matrix: (Units=1/GPa)
#
#
# Indices 1 2 3 4 5 6 
#
# 1 0.011601 -0.002233 -0.002570 0.000964 -0.001253 -0.010667
# 2 -0.002233 0.011901 -0.001572 0.001309 0.005576 0.002016
# 3 -0.002570 -0.001572 0.010515 -0.004037 0.003959 -0.001274
# 4 0.000964 0.001309 -0.004037 0.032979 -0.004704 0.010696
# 5 -0.001253 0.005576 0.003959 -0.004704 0.026940 0.003438
# 6 -0.010667 0.002016 -0.001274 0.010696 0.003438 0.045715
#
#
# Mechanical properties :
#
#
# Convention : Reuss Voigt Hill
#
# Bulk Modulus (GPa) = 47.02571 63.94219 55.48395
# Shear Modulus (GPa) = 31.34975 40.73343 36.04159
#
# Velocity S-wave (km/s) = 3.58364 4.08491 3.84246
# Velocity P-wave (km/s) = 6.03220 6.96008 6.51269
#
# Compressibility (1/GPa) = 0.02126496
#
# Stress axis : x y z
#
# Youngs Moduli (GPa) = 86.19692 84.02614 95.10663
#
# Poissons Ratio (x) = 0.18767 0.24446
# Poissons Ratio (y) = 0.19252 0.14952
# Poissons Ratio (z) = 0.22156 0.13210
#
# Static dielectric constant tensor:
#      x y z
#    x 1.934670 -0.078400 0.069440 
#    y -0.078400 2.123020 -0.014720 
#    z 0.069440 -0.014720 2.049810 
# 
# From -- ./inp_files/127948.got.cif
#   From: 2010.05.17/outbox.cif.g08.bks.cpg/sg2_64_cif.got.tgz:127948.got - 2010.06.03 11:33:40.
