data_PCOD9045446
_publ_section_title
;
Structure prediction by ZEFSAII (Michael W. Deem and Ramdas Pophale) SiO2 
 PCOD9045446
Probable space group: P -1
;
_chemical_formula_sum "Si O2"
_cell_formula_units_Z 14
_cell_length_a 14.113346
_cell_length_b 5.184879
_cell_length_c 8.971256
_cell_angle_alpha 84.451417
_cell_angle_beta 79.690639
_cell_angle_gamma 109.507808
_cell_volume 600.079891
_symmetry_space_group_name_H-M "P -1"
_symmetry_group_IT_number 2
_symmetry_cell_setting 'triclinic'
loop_
_space_group_symop_operation_xyz
x,y,z
-x,-y,-z
loop_
_atom_site_type_symbol
_atom_site_label
_atom_site_fract_x
_atom_site_fract_y
_atom_site_fract_z
Si Si1 0.963610 0.390459 0.180189
Si Si2 0.962890 0.871611 0.355694
Si Si3 0.626477 0.473692 0.263515
Si Si4 0.269238 0.401560 0.470588
Si Si5 0.689636 0.274720 0.847042
Si Si6 0.596895 0.702112 0.787701
Si Si7 0.742617 0.109755 0.133816
O O1 0.992085 0.625344 0.287143
O O2 0.839305 0.255414 0.204886
O O3 0.999747 0.136940 0.222751
O O4 0.000000 0.500000 0.000000
O O5 0.839190 0.748742 0.413705
O O6 0.000000 0.000000 0.500000
O O7 0.646503 0.459935 0.434876
O O8 0.512307 0.442859 0.250060
O O9 0.653281 0.220799 0.201883
O O10 0.704137 0.778110 0.172565
O O11 0.258037 0.605392 0.332449
O O12 0.316380 0.211163 0.372040
O O13 0.605309 0.972416 0.860455
O O14 0.632067 0.489198 0.888081
O O15 0.764599 0.229982 0.952745
#
# Coordination Sequence:
#
# PCOD9045446 Si02
#       7
#     2   2   2   2   2   2   2
#     4  12  27  49  73 104 140 179 232 282 359 415
#     4  12  27  48  77 106 135 180 229 294 345 416
#     4  12  24  42  71  93 143 176 240 265 343 391
#     4  10  25  44  67  99 139 173 230 273 344 397
#     4  10  25  40  65  95 142 175 233 268 342 386
#     4  10  24  40  67 100 133 188 223 284 320 404
#     4  12  25  44  67 100 135 187 215 291 330 410
#
# _framework density 23.33023
#
# number of rings (size 3 to 8) (size 9 to 14) (size 15 to 20)
#    0.857    0.000    2.857    3.000    6.000    5.143 
#    0.000    0.000    0.000    0.000    0.000    0.000 
#    0.000    0.000    0.000    0.000    0.000    0.000 
#
# Total GULP energy -78212.592906 kJ/mol
# GULP energy per Si atom -5586.613779 kJ/mol
# Density = 2.327713 g / cm^3
# Si number density = 23.330230 Si / 1000 Ang^3
#
#
#
# Elastic Constant Matrix: (Units=GPa)
#
#
# Indices 1 2 3 4 5 6 
#
# 1 25.8133 7.0638 -14.5928 8.8803 4.6315 5.2911
# 2 7.0638 119.4521 21.8700 6.8715 4.3241 5.0719
# 3 -14.5928 21.8700 75.6165 -2.6087 19.9599 -2.5236
# 4 8.8803 6.8715 -2.6087 30.6330 -2.6244 10.8197
# 5 4.6315 4.3241 19.9599 -2.6244 42.1765 3.5923
# 6 5.2911 5.0719 -2.5236 10.8197 3.5923 20.7646
#
#
#
# Elastic Compliance Matrix: (Units=1/GPa)
#
#
# Indices 1 2 3 4 5 6 
#
# 1 0.056554 -0.004757 0.015382 -0.014737 -0.013808 -0.001311
# 2 -0.004757 0.009446 -0.004152 -0.000352 0.001642 -0.001700
# 3 0.015382 -0.004152 0.020409 -0.004076 -0.011490 0.003687
# 4 -0.014737 -0.000352 -0.004076 0.044943 0.008211 -0.021493
# 5 -0.013808 0.001642 -0.011490 0.008211 0.031691 -0.008040
# 6 -0.001311 -0.001700 0.003687 -0.021493 -0.008040 0.061947
#
#
# Mechanical properties :
#
#
# Convention : Reuss Voigt Hill
#
# Bulk Modulus (GPa) = 10.06496 27.72931 18.89714
# Shear Modulus (GPa) = 20.39456 32.48422 26.43939
#
# Velocity S-wave (km/s) = 2.95984 3.73549 3.37006
# Velocity P-wave (km/s) = 4.00055 5.52418 4.82291
#
# Compressibility (1/GPa) = 0.09935455
#
# Stress axis : x y z
#
# Youngs Moduli (GPa) = 17.68232 105.86331 48.99688
#
# Poissons Ratio (x) = 0.50362 -0.75369
# Poissons Ratio (y) = 0.08412 0.20346
# Poissons Ratio (z) = -0.27200 0.43959
#
# Static dielectric constant tensor:
#      x y z
#    x 1.853360 0.008380 0.022580 
#    y 0.008380 1.844760 0.002940 
#    z 0.022580 0.002940 1.973350 
# 
# From -- ./inp_files/288604.got.cif
#   From: 2010.05.17/outbox.cif.g08.bks.cpg/sg2_145_cif.got.tgz:288604.got - 2010.06.03 11:33:40.
