data_PCOD9045162
_publ_section_title
;
Structure prediction by ZEFSAII (Michael W. Deem and Ramdas Pophale) SiO2 
 PCOD9045162
Probable space group: P -1
;
_chemical_formula_sum "Si O2"
_cell_formula_units_Z 16
_cell_length_a 14.927939
_cell_length_b 12.173726
_cell_length_c 11.541996
_cell_angle_alpha 76.767791
_cell_angle_beta 32.116013
_cell_angle_gamma 53.097593
_cell_volume 671.589142
_symmetry_space_group_name_H-M "P -1"
_symmetry_group_IT_number 2
_symmetry_cell_setting 'triclinic'
loop_
_space_group_symop_operation_xyz
x,y,z
-x,-y,-z
loop_
_atom_site_type_symbol
_atom_site_label
_atom_site_fract_x
_atom_site_fract_y
_atom_site_fract_z
Si Si1 0.261328 0.708945 0.252260
Si Si2 0.724069 0.731708 0.124476
Si Si3 0.025854 0.263134 0.743071
Si Si4 0.595743 0.671096 0.071598
Si Si5 0.849147 0.121384 0.912823
Si Si6 0.657505 0.821364 0.799007
Si Si7 0.692101 0.699312 0.429443
Si Si8 0.143912 0.097762 0.154383
O O1 0.041069 0.769515 0.565139
O O2 0.500000 0.500000 0.000000
O O3 0.373756 0.744435 0.208151
O O4 0.156648 0.820656 0.223139
O O5 0.526995 0.784036 0.229637
O O6 0.768934 0.838706 0.026295
O O7 0.021509 0.519018 0.829298
O O8 0.627126 0.755629 0.353008
O O9 0.745494 0.481555 0.001291
O O10 0.126023 0.237527 0.509003
O O11 0.231689 0.221459 0.612133
O O12 0.975428 0.157076 0.841477
O O13 0.766036 0.668305 0.803649
O O14 0.550501 0.244456 0.260166
O O15 0.980668 0.929387 0.789956
O O16 0.500000 0.000000 0.000000
O O17 0.419344 0.901648 0.955631
#
# Coordination Sequence:
#
# PCOD9045162 Si02
#       8
#     2   2   2   2   2   2   2   2
#     4  12  24  41  64 102 141 172 221 275 334 417
#     4  10  24  45  70  92 131 186 228 282 335 393
#     4  11  24  43  68  98 134 184 228 271 334 402
#     4  11  23  40  68  98 132 182 221 274 337 407
#     4  12  24  41  68 101 137 176 218 279 339 402
#     4  12  23  38  63  99 140 174 213 276 346 411
#     4  10  23  50  68  93 133 181 239 281 322 395
#     4  12  25  40  65 102 142 177 211 282 350 395
#
# _framework density 23.824089000000001
#
# number of rings (size 3 to 8) (size 9 to 14) (size 15 to 20)
#    0.000    0.750    5.000    2.250    1.750    2.500 
#    2.250    2.500    0.000    0.000    0.000    0.000 
#    0.000    0.000    0.000    0.000    0.000    0.000 
#
# Total GULP energy -89427.346476 kJ/mol
# GULP energy per Si atom -5589.209155 kJ/mol
# Density = 2.376986 g / cm^3
# Si number density = 23.824089 Si / 1000 Ang^3
#
#
#
# Elastic Constant Matrix: (Units=GPa)
#
#
# Indices 1 2 3 4 5 6 
#
# 1 128.1658 41.4208 23.7273 -24.5159 0.4451 21.9486
# 2 41.4208 104.3860 22.0791 -6.7652 0.4689 25.7574
# 3 23.7273 22.0791 82.2920 -6.7808 9.2873 10.4903
# 4 -24.5159 -6.7652 -6.7808 27.0340 7.5590 -2.2175
# 5 0.4451 0.4689 9.2873 7.5590 35.0385 -9.5006
# 6 21.9486 25.7574 10.4903 -2.2175 -9.5006 42.0565
#
#
#
# Elastic Compliance Matrix: (Units=1/GPa)
#
#
# Indices 1 2 3 4 5 6 
#
# 1 0.011508 -0.002635 -0.000852 0.010114 -0.003255 -0.004382
# 2 -0.002635 0.012521 -0.001629 0.000227 -0.001432 -0.006198
# 3 -0.000852 -0.001629 0.014127 0.003599 -0.005328 -0.003095
# 4 0.010114 0.000227 0.003599 0.050425 -0.013801 -0.006774
# 5 -0.003255 -0.001432 -0.005328 -0.013801 0.036060 0.011323
# 6 -0.004382 -0.006198 -0.003095 -0.006774 0.011323 0.032833
#
#
# Mechanical properties :
#
#
# Convention : Reuss Voigt Hill
#
# Bulk Modulus (GPa) = 35.81211 54.36646 45.08929
# Shear Modulus (GPa) = 28.24652 36.00023 32.12337
#
# Velocity S-wave (km/s) = 3.44703 3.89149 3.67598
# Velocity P-wave (km/s) = 5.55943 6.56209 6.08146
#
# Compressibility (1/GPa) = 0.02792352
#
# Stress axis : x y z
#
# Youngs Moduli (GPa) = 86.89677 79.86885 70.78680
#
# Poissons Ratio (x) = 0.21045 0.06030
# Poissons Ratio (y) = 0.22897 0.11532
# Poissons Ratio (z) = 0.07402 0.13012
#
# Static dielectric constant tensor:
#      x y z
#    x 1.951610 0.046240 -0.063530 
#    y 0.046240 1.902310 0.039600 
#    z -0.063530 0.039600 1.994610 
# 
# From -- ./inp_files/452252.got.cif
#   From: 2010.05.17/outbox.cif.g08.bks.cpg/sg2_227_cif.got.tgz:452252.got - 2010.06.03 11:33:40.
