data_PCOD9045543
_publ_section_title
;
Structure prediction by ZEFSAII (Michael W. Deem and Ramdas Pophale) SiO2 
 PCOD9045543
Probable space group: P -1
;
_chemical_formula_sum "Si O2"
_cell_formula_units_Z 14
_cell_length_a 8.282926
_cell_length_b 18.479278
_cell_length_c 7.463908
_cell_angle_alpha 127.707651
_cell_angle_beta 36.054346
_cell_angle_gamma 123.988422
_cell_volume 526.818880
_symmetry_space_group_name_H-M "P -1"
_symmetry_group_IT_number 2
_symmetry_cell_setting 'triclinic'
loop_
_space_group_symop_operation_xyz
x,y,z
-x,-y,-z
loop_
_atom_site_type_symbol
_atom_site_label
_atom_site_fract_x
_atom_site_fract_y
_atom_site_fract_z
Si Si1 0.567206 0.483887 0.706429
Si Si2 0.311811 0.936048 0.433453
Si Si3 0.968297 0.816646 0.088732
Si Si4 0.746168 0.898227 0.741435
Si Si5 0.212499 0.308386 0.633078
Si Si6 0.106313 0.595573 0.239161
Si Si7 0.389858 0.784485 0.395691
O O1 0.470817 0.378775 0.578366
O O2 0.877720 0.525439 0.441229
O O3 0.500000 0.500000 0.000000
O O4 0.359683 0.542890 0.875834
O O5 0.309224 0.834831 0.367041
O O6 0.995407 0.949466 0.715722
O O7 0.500000 0.000000 0.500000
O O8 0.468287 0.935752 0.103226
O O9 0.866654 0.893428 0.426103
O O10 0.966387 0.729374 0.090185
O O11 0.717937 0.792609 0.136745
O O12 0.256078 0.834675 0.756381
O O13 0.704858 0.788034 0.659845
O O14 0.042370 0.359667 0.722377
O O15 0.242967 0.680107 0.366935
#
# Coordination Sequence:
#
# PCOD9045543 Si02
#       7
#     2   2   2   2   2   2   2
#     4  12  26  43  61 102 134 179 226 288 321 381
#     4  12  25  46  73 102 134 172 226 279 334 412
#     4  10  24  40  71  94 136 177 220 270 335 400
#     4  10  24  45  70  96 136 178 218 268 347 396
#     4  10  24  44  68  94 140 177 233 267 336 397
#     4  12  25  39  68  91 137 175 233 269 337 388
#     4  12  22  43  65 102 128 180 220 279 339 397
#
# _framework density 26.574598999999999
#
# number of rings (size 3 to 8) (size 9 to 14) (size 15 to 20)
#    0.857    0.000    1.429    6.000    2.000    3.429 
#    0.000    4.286    0.000    0.000    0.000    0.000 
#    0.000    0.000    0.000    0.000    0.000    0.000 
#
# Total GULP energy -78502.794472 kJ/mol
# GULP energy per Si atom -5607.342462 kJ/mol
# Density = 2.651411 g / cm^3
# Si number density = 26.574599 Si / 1000 Ang^3
#
#
#
# Elastic Constant Matrix: (Units=GPa)
#
#
# Indices 1 2 3 4 5 6 
#
# 1 70.6928 29.4384 0.5652 -6.3604 -4.0496 0.7184
# 2 29.4384 121.4762 26.8074 -2.2253 1.2324 21.2757
# 3 0.5652 26.8074 122.9033 -8.3416 -4.8489 2.4798
# 4 -6.3604 -2.2253 -8.3416 26.0079 3.7172 0.6244
# 5 -4.0496 1.2324 -4.8489 3.7172 42.9344 -5.7969
# 6 0.7184 21.2757 2.4798 0.6244 -5.7969 55.3791
#
#
#
# Elastic Compliance Matrix: (Units=1/GPa)
#
#
# Indices 1 2 3 4 5 6 
#
# 1 0.016413 -0.004466 0.001187 0.003731 0.001701 0.001586
# 2 -0.004466 0.010531 -0.002295 -0.000620 -0.001474 -0.004032
# 3 0.001187 -0.002295 0.008849 0.002775 0.001011 0.000545
# 4 0.003731 -0.000620 0.002775 0.040635 -0.002929 -0.000699
# 5 0.001701 -0.001474 0.001011 -0.002929 0.024277 0.003073
# 6 0.001586 -0.004032 0.000545 -0.000699 0.003073 0.019891
#
#
# Mechanical properties :
#
#
# Convention : Reuss Voigt Hill
#
# Bulk Modulus (GPa) = 40.57785 47.63268 44.10527
# Shear Modulus (GPa) = 35.72484 42.08169 38.90327
#
# Velocity S-wave (km/s) = 3.67048 3.98368 3.83028
# Velocity P-wave (km/s) = 5.76765 6.25481 6.01616
#
# Compressibility (1/GPa) = 0.02464398
#
# Stress axis : x y z
#
# Youngs Moduli (GPa) = 60.92694 94.96029 113.00911
#
# Poissons Ratio (x) = 0.42411 -0.13415
# Poissons Ratio (y) = 0.27211 0.25938
# Poissons Ratio (z) = -0.07232 0.21796
#
# Static dielectric constant tensor:
#      x y z
#    x 2.097810 0.003310 0.055520 
#    y 0.003310 2.108660 0.035330 
#    z 0.055520 0.035330 1.989830 
# 
# From -- ./inp_files/223975.got.cif
#   From: 2010.05.17/outbox.cif.g08.bks.cpg/sg2_112_cif.got.tgz:223975.got - 2010.06.03 11:33:40.
