data_PCOD9045759
_publ_section_title
;
Structure prediction by ZEFSAII (Michael W. Deem and Ramdas Pophale) SiO2 
 PCOD9045759
Probable space group: P -1
;
_chemical_formula_sum "Si O2"
_cell_formula_units_Z 16
_cell_length_a 16.022825
_cell_length_b 9.925832
_cell_length_c 8.935906
_cell_angle_alpha 64.696641
_cell_angle_beta 147.114493
_cell_angle_gamma 96.943054
_cell_volume 610.092098
_symmetry_space_group_name_H-M "P -1"
_symmetry_group_IT_number 2
_symmetry_cell_setting 'triclinic'
loop_
_space_group_symop_operation_xyz
x,y,z
-x,-y,-z
loop_
_atom_site_type_symbol
_atom_site_label
_atom_site_fract_x
_atom_site_fract_y
_atom_site_fract_z
Si Si1 0.867422 0.509777 0.427279
Si Si2 0.337360 0.652390 0.864536
Si Si3 0.511912 0.838937 0.193857
Si Si4 0.204709 0.887270 0.296074
Si Si5 0.042282 0.346748 0.250168
Si Si6 0.347434 0.969908 0.206338
Si Si7 0.029360 0.831013 0.541073
Si Si8 0.848916 0.793915 0.808326
O O1 0.693782 0.511206 0.100216
O O2 0.822636 0.642618 0.433708
O O3 0.000000 0.500000 0.500000
O O4 0.992732 0.333485 0.790185
O O5 0.305025 0.711746 0.616434
O O6 0.167826 0.784227 0.642155
O O7 0.477269 0.702536 0.116214
O O8 0.398082 0.907642 0.141279
O O9 0.708500 0.731250 0.603568
O O10 0.500000 0.000000 0.000000
O O11 0.279779 0.858989 0.254813
O O12 0.262909 0.021083 0.379336
O O13 0.000000 0.000000 0.000000
O O14 0.914025 0.322696 0.182542
O O15 0.093384 0.195566 0.279217
O O16 0.000000 0.500000 0.000000
O O17 0.500000 0.000000 0.500000
O O18 0.154978 0.135685 0.824630
O O19 0.000000 0.000000 0.500000
#
# Coordination Sequence:
#
# PCOD9045759 Si02
#       8
#     2   2   2   2   2   2   2   2
#     4  11  23  43  66  92 126 178 234 273 322 406
#     4  12  23  40  65  97 136 172 219 278 333 405
#     4  12  24  41  63 101 144 172 212 278 352 409
#     4  12  22  38  65 104 136 167 219 282 336 399
#     4  10  24  41  68  95 130 178 229 278 339 397
#     4  12  24  37  62 104 143 175 210 276 354 406
#     4  12  22  38  69 102 131 169 229 278 336 400
#     4  11  22  42  65  93 135 170 218 277 340 388
#
# _framework density 26.225548
#
# number of rings (size 3 to 8) (size 9 to 14) (size 15 to 20)
#    0.000    0.500    7.500    1.500    0.000    0.000 
#    0.000    1.250    0.000    0.000    0.000    0.000 
#    0.000    0.000    0.000    0.000    0.000    0.000 
#
# Total GULP energy -89129.717767 kJ/mol
# GULP energy per Si atom -5570.607360 kJ/mol
# Density = 2.616586 g / cm^3
# Si number density = 26.225548 Si / 1000 Ang^3
#
#
#
# Elastic Constant Matrix: (Units=GPa)
#
#
# Indices 1 2 3 4 5 6 
#
# 1 163.4714 14.3322 8.6738 10.4088 -19.5159 6.7647
# 2 14.3322 92.6585 18.5613 33.8761 -18.4926 8.1575
# 3 8.6738 18.5613 58.5308 29.5356 2.4178 19.9797
# 4 10.4088 33.8761 29.5356 45.5834 3.0886 2.6245
# 5 -19.5159 -18.4926 2.4178 3.0886 40.1984 3.7698
# 6 6.7647 8.1575 19.9797 2.6245 3.7698 45.9658
#
#
#
# Elastic Compliance Matrix: (Units=1/GPa)
#
#
# Indices 1 2 3 4 5 6 
#
# 1 0.006718 0.000690 0.000360 -0.002460 0.003882 -0.001445
# 2 0.000690 0.018602 0.003740 -0.016829 0.010422 -0.004923
# 3 0.000360 0.003740 0.031937 -0.022980 0.003009 -0.013533
# 4 -0.002460 -0.016829 -0.022980 0.050079 -0.012480 0.011501
# 5 0.003882 0.010422 0.003009 -0.012480 0.032869 -0.005712
# 6 -0.001445 -0.004923 -0.013533 0.011501 -0.005712 0.028536
#
#
# Mechanical properties :
#
#
# Convention : Reuss Voigt Hill
#
# Bulk Modulus (GPa) = 14.96164 44.19949 29.58057
# Shear Modulus (GPa) = 27.55740 44.55575 36.05658
#
# Velocity S-wave (km/s) = 3.24510 4.12630 3.71194
# Velocity P-wave (km/s) = 4.44503 6.29221 5.44749
#
# Compressibility (1/GPa) = 0.06683758
#
# Stress axis : x y z
#
# Youngs Moduli (GPa) = 148.86446 53.75672 31.31170
#
# Poissons Ratio (x) = -0.03710 -0.01127
# Poissons Ratio (y) = -0.10273 -0.11712
# Poissons Ratio (z) = -0.05359 -0.20107
#
# Static dielectric constant tensor:
#      x y z
#    x 1.908370 -0.125510 0.171320 
#    y -0.125510 2.339340 0.048550 
#    z 0.171320 0.048550 2.108790 
# 
# From -- ./inp_files/304890.got.cif
#   From: 2010.05.17/outbox.cif.g08.bks.cpg/sg2_153_cif.got.tgz:304890.got - 2010.06.03 11:33:40.
