data_PCOD9045847
_publ_section_title
;
Structure prediction by ZEFSAII (Michael W. Deem and Ramdas Pophale) SiO2 
 PCOD9045847
Probable space group: P -1
;
_chemical_formula_sum "Si O2"
_cell_formula_units_Z 16
_cell_length_a 9.070982
_cell_length_b 30.707303
_cell_length_c 12.216134
_cell_angle_alpha 151.408425
_cell_angle_beta 46.568956
_cell_angle_gamma 152.087317
_cell_volume 700.420272
_symmetry_space_group_name_H-M "P -1"
_symmetry_group_IT_number 2
_symmetry_cell_setting 'triclinic'
loop_
_space_group_symop_operation_xyz
x,y,z
-x,-y,-z
loop_
_atom_site_type_symbol
_atom_site_label
_atom_site_fract_x
_atom_site_fract_y
_atom_site_fract_z
Si Si1 0.387001 0.615563 0.330382
Si Si2 0.304840 0.779676 0.634607
Si Si3 0.290945 0.723013 0.984378
Si Si4 0.564384 0.512605 0.366485
Si Si5 0.505708 0.990803 0.825980
Si Si6 0.287099 0.254822 0.322595
Si Si7 0.798637 0.983902 0.475265
Si Si8 0.192538 0.288641 0.867511
O O1 0.411725 0.729224 0.532385
O O2 0.640444 0.695907 0.480249
O O3 0.508142 0.600289 0.131039
O O4 0.011911 0.452571 0.205797
O O5 0.535294 0.915742 0.728293
O O6 0.961929 0.628202 0.411116
O O7 0.247972 0.840193 0.885280
O O8 0.512053 0.761532 0.856784
O O9 0.552185 0.835328 0.198006
O O10 0.098732 0.745285 0.093943
O O11 0.500000 0.500000 0.500000
O O12 0.545906 0.604729 0.524319
O O13 0.336329 0.365406 0.083207
O O14 0.580008 0.979957 0.645055
O O15 0.119549 0.890387 0.809937
O O16 0.000000 0.000000 0.500000
O O17 0.048782 0.134704 0.606110
#
# Coordination Sequence:
#
# PCOD9045847 Si02
#       8
#     2   2   2   2   2   2   2   2
#     4  12  26  47  76 109 144 189 246 303 365 432
#     4  10  24  41  74 103 141 184 248 291 364 418
#     4  12  28  47  72 107 148 189 244 297 366 435
#     4  11  24  43  72 105 143 188 243 297 359 426
#     4  10  24  48  71 103 148 192 235 302 358 432
#     4  11  26  45  77 104 143 193 244 297 359 433
#     4  12  29  47  74 108 147 190 242 297 367 433
#     4  12  28  48  75 104 150 195 237 302 369 429
#
# _framework density 22.843426999999998
#
# number of rings (size 3 to 8) (size 9 to 14) (size 15 to 20)
#    0.000    0.750    1.250    4.125   17.500    1.000 
#    0.000    0.000    0.000    0.000    0.000    0.000 
#    0.000    0.000    0.000    0.000    0.000    0.000 
#
# Total GULP energy -89532.221480 kJ/mol
# GULP energy per Si atom -5595.763842 kJ/mol
# Density = 2.279143 g / cm^3
# Si number density = 22.843427 Si / 1000 Ang^3
#
#
#
# Elastic Constant Matrix: (Units=GPa)
#
#
# Indices 1 2 3 4 5 6 
#
# 1 120.0711 20.8242 33.7680 11.1466 -0.4727 -14.8056
# 2 20.8242 90.4342 23.0609 -7.9485 4.1888 -0.0413
# 3 33.7680 23.0609 72.6349 10.2806 23.1822 -2.0199
# 4 11.1466 -7.9485 10.2806 37.2269 -3.0629 5.7592
# 5 -0.4727 4.1888 23.1822 -3.0629 47.3076 -2.8506
# 6 -14.8056 -0.0413 -2.0199 5.7592 -2.8506 26.5630
#
#
#
# Elastic Compliance Matrix: (Units=1/GPa)
#
#
# Indices 1 2 3 4 5 6 
#
# 1 0.011161 -0.001724 -0.004922 -0.003172 0.002883 0.006841
# 2 -0.001724 0.012973 -0.004469 0.004964 0.001211 -0.002227
# 3 -0.004922 -0.004469 0.021774 -0.006241 -0.010782 -0.000899
# 4 -0.003172 0.004964 -0.006241 0.032297 0.004148 -0.008792
# 5 0.002883 0.001211 -0.010782 0.004148 0.026778 0.002763
# 6 0.006841 -0.002227 -0.000899 -0.008792 0.002763 0.043590
#
#
# Mechanical properties :
#
#
# Convention : Reuss Voigt Hill
#
# Bulk Modulus (GPa) = 42.23207 48.71627 45.47417
# Shear Modulus (GPa) = 27.98024 35.91864 31.94944
#
# Velocity S-wave (km/s) = 3.50361 3.96963 3.74388
# Velocity P-wave (km/s) = 5.90718 6.51023 6.21602
#
# Compressibility (1/GPa) = 0.02367869
#
# Stress axis : x y z
#
# Youngs Moduli (GPa) = 89.59695 77.08039 45.92583
#
# Poissons Ratio (x) = 0.13289 0.22607
# Poissons Ratio (y) = 0.15447 0.20522
# Poissons Ratio (z) = 0.44104 0.34444
#
# Static dielectric constant tensor:
#      x y z
#    x 1.826220 0.007630 -0.025230 
#    y 0.007630 1.889630 -0.014140 
#    z -0.025230 -0.014140 1.826950 
# 
# From -- ./inp_files/407526.got.cif
#   From: 2010.05.17/outbox.cif.g08.bks.cpg/sg2_204_cif.got.tgz:407526.got - 2010.06.03 11:33:40.
