data_PCOD9045476
_publ_section_title
;
Structure prediction by ZEFSAII (Michael W. Deem and Ramdas Pophale) SiO2 
 PCOD9045476
Probable space group: P -1
;
_chemical_formula_sum "Si O2"
_cell_formula_units_Z 16
_cell_length_a 8.478457
_cell_length_b 14.384939
_cell_length_c 8.918303
_cell_angle_alpha 55.320526
_cell_angle_beta 112.528769
_cell_angle_gamma 75.932836
_cell_volume 656.593281
_symmetry_space_group_name_H-M "P -1"
_symmetry_group_IT_number 2
_symmetry_cell_setting 'triclinic'
loop_
_space_group_symop_operation_xyz
x,y,z
-x,-y,-z
loop_
_atom_site_type_symbol
_atom_site_label
_atom_site_fract_x
_atom_site_fract_y
_atom_site_fract_z
Si Si1 0.391902 0.064327 0.655480
Si Si2 0.918078 0.147358 0.965155
Si Si3 0.523677 0.763765 0.932056
Si Si4 0.018677 0.276428 0.116529
Si Si5 0.054843 0.129719 0.732182
Si Si6 0.531939 0.754698 0.304978
Si Si7 0.001476 0.482572 0.696511
Si Si8 0.289633 0.654832 0.808498
O O1 0.524431 0.109533 0.746361
O O2 0.249609 0.180258 0.367986
O O3 0.238206 0.083364 0.719896
O O4 0.499221 0.908843 0.766799
O O5 0.055952 0.160593 0.879488
O O6 0.665146 0.252171 0.727939
O O7 0.969731 0.176056 0.118476
O O8 0.972251 0.993702 0.147851
O O9 0.340628 0.759360 0.796767
O O10 0.520606 0.761783 0.113851
O O11 0.741843 0.614804 0.091344
O O12 0.851925 0.359064 0.113528
O O13 0.966322 0.380178 0.866318
O O14 0.848679 0.272983 0.456316
O O15 0.787919 0.634563 0.536412
O O16 0.000000 0.500000 0.500000
O O17 0.500000 0.500000 0.000000
#
# Coordination Sequence:
#
# PCOD9045476 Si02
#       8
#     2   2   2   2   2   2   2   2
#     4  11  24  44  75 101 143 186 233 291 346 417
#     4  11  23  42  72 102 139 180 235 295 344 418
#     4  11  23  45  71 103 143 186 235 283 355 412
#     4  11  25  46  71 100 139 186 239 287 357 411
#     4  10  24  40  68 106 138 177 235 289 348 409
#     4  11  24  43  68 104 138 187 229 288 346 414
#     4  10  27  44  67  99 139 183 233 287 345 421
#     4  11  25  44  71 105 143 186 233 293 353 419
#
# _framework density 24.368207999999999
#
# number of rings (size 3 to 8) (size 9 to 14) (size 15 to 20)
#    0.000    1.250    2.500    1.125    8.750    6.500 
#    0.000    0.000    0.000    0.000    0.000    0.000 
#    0.000    0.000    0.000    0.000    0.000    0.000 
#
# Total GULP energy -89222.681315 kJ/mol
# GULP energy per Si atom -5576.417582 kJ/mol
# Density = 2.431274 g / cm^3
# Si number density = 24.368208 Si / 1000 Ang^3
#
#
#
# Elastic Constant Matrix: (Units=GPa)
#
#
# Indices 1 2 3 4 5 6 
#
# 1 51.9584 21.0885 21.3549 0.1040 7.7053 -23.6369
# 2 21.0885 89.5402 36.6481 2.3923 1.7588 -9.8470
# 3 21.3549 36.6481 83.2600 -10.3759 0.7343 -18.0755
# 4 0.1040 2.3923 -10.3759 19.0473 -7.4133 3.8072
# 5 7.7053 1.7588 0.7343 -7.4133 39.7189 -2.7854
# 6 -23.6369 -9.8470 -18.0755 3.8072 -2.7854 35.8035
#
#
#
# Elastic Compliance Matrix: (Units=1/GPa)
#
#
# Indices 1 2 3 4 5 6 
#
# 1 0.031353 -0.003692 -0.003317 -0.007505 -0.005972 0.018342
# 2 -0.003692 0.014718 -0.006452 -0.005473 -0.000917 -0.001136
# 3 -0.003317 -0.006452 0.017938 0.010907 0.002925 0.004159
# 4 -0.007505 -0.005473 0.010907 0.065720 0.013278 -0.006909
# 5 -0.005972 -0.000917 0.002925 0.013278 0.028667 -0.001900
# 6 0.018342 -0.001136 0.004159 -0.006909 -0.001900 0.042414
#
#
# Mechanical properties :
#
#
# Convention : Reuss Voigt Hill
#
# Bulk Modulus (GPa) = 26.96394 42.54907 34.75651
# Shear Modulus (GPa) = 20.82534 28.62508 24.72521
#
# Velocity S-wave (km/s) = 2.92654 3.43109 3.18881
# Velocity P-wave (km/s) = 4.74434 5.76154 5.27750
#
# Compressibility (1/GPa) = 0.03708657
#
# Stress axis : x y z
#
# Youngs Moduli (GPa) = 31.89526 67.94573 55.74859
#
# Poissons Ratio (x) = 0.25082 0.18493
# Poissons Ratio (y) = 0.11774 0.35969
# Poissons Ratio (z) = 0.10580 0.43838
#
# Static dielectric constant tensor:
#      x y z
#    x 2.030310 -0.005520 0.027020 
#    y -0.005520 1.987310 -0.054950 
#    z 0.027020 -0.054950 1.919600 
# 
# From -- ./inp_files/205743.got.cif
#   From: 2010.05.17/outbox.cif.g08.bks.cpg/sg2_103_cif.got.tgz:205743.got - 2010.06.03 11:33:40.
