data_PCOD9045386
_publ_section_title
;
Structure prediction by ZEFSAII (Michael W. Deem and Ramdas Pophale) SiO2 
 PCOD9045386
Probable space group: P -1
;
_chemical_formula_sum "Si O2"
_cell_formula_units_Z 14
_cell_length_a 27.050914
_cell_length_b 4.812331
_cell_length_c 4.968392
_cell_angle_alpha 115.263069
_cell_angle_beta 66.244224
_cell_angle_gamma 95.985867
_cell_volume 533.566295
_symmetry_space_group_name_H-M "P -1"
_symmetry_group_IT_number 2
_symmetry_cell_setting 'triclinic'
loop_
_space_group_symop_operation_xyz
x,y,z
-x,-y,-z
loop_
_atom_site_type_symbol
_atom_site_label
_atom_site_fract_x
_atom_site_fract_y
_atom_site_fract_z
Si Si1 0.555051 0.094363 0.285521
Si Si2 0.593677 0.406629 0.846036
Si Si3 0.748010 0.380481 0.189352
Si Si4 0.707434 0.068545 0.637975
Si Si5 0.863258 0.564186 0.815437
Si Si6 0.030059 0.807721 0.508336
Si Si7 0.910141 0.186828 0.081746
O O1 0.450575 0.729002 0.912947
O O2 0.500000 0.000000 0.500000
O O3 0.582232 0.311658 0.528263
O O4 0.590872 0.772212 0.034429
O O5 0.649832 0.236782 0.752519
O O6 0.805688 0.462561 0.984438
O O7 0.722267 0.151633 0.942886
O O8 0.749304 0.220986 0.410269
O O9 0.711941 0.704704 0.426903
O O10 0.879146 0.478740 0.437564
O O11 0.907928 0.378187 0.841652
O O12 0.870912 0.919991 0.985030
O O13 0.027404 0.928991 0.248191
O O14 0.000000 0.500000 0.500000
O O15 0.062300 0.939934 0.735892
#
# Coordination Sequence:
#
# PCOD9045386 Si02
#       7
#     2   2   2   2   2   2   2
#     4  12  24  42  69 103 138 182 226 278 334 396
#     4  12  24  44  68  96 142 177 230 278 334 396
#     4  12  26  43  70  96 134 170 232 274 341 396
#     4  12  26  46  68 101 131 184 223 282 334 396
#     4  10  26  40  66  90 126 162 207 270 320 389
#     4  10  24  42  64  92 124 162 205 254 323 391
#     4  10  24  40  64  89 124 158 206 249 328 372
#
# _framework density 26.23854
#
# number of rings (size 3 to 8) (size 9 to 14) (size 15 to 20)
#    0.857    0.000    0.000    6.857    6.000    1.143 
#    0.000    0.000    0.000    0.000    0.000    0.000 
#    0.000    0.000    0.000    0.000    0.000    0.000 
#
# Total GULP energy -78489.616703 kJ/mol
# GULP energy per Si atom -5606.401193 kJ/mol
# Density = 2.617882 g / cm^3
# Si number density = 26.238540 Si / 1000 Ang^3
#
#
#
# Elastic Constant Matrix: (Units=GPa)
#
#
# Indices 1 2 3 4 5 6 
#
# 1 74.7924 -13.9707 34.6059 11.5319 -3.8844 6.0154
# 2 -13.9707 124.5774 46.4133 -8.9389 8.8013 1.6785
# 3 34.6059 46.4133 192.9627 -2.9110 26.3726 -0.1966
# 4 11.5319 -8.9389 -2.9110 41.4225 0.7321 -12.3196
# 5 -3.8844 8.8013 26.3726 0.7321 50.7800 0.2453
# 6 6.0154 1.6785 -0.1966 -12.3196 0.2453 36.8978
#
#
#
# Elastic Compliance Matrix: (Units=1/GPa)
#
#
# Indices 1 2 3 4 5 6 
#
# 1 0.017475 0.003000 -0.004391 -0.006089 0.003210 -0.005063
# 2 0.003000 0.009475 -0.002811 0.000814 0.000039 -0.000664
# 3 -0.004391 -0.002811 0.007164 0.001613 -0.003599 0.001444
# 4 -0.006089 0.000814 0.001613 0.029366 -0.001920 0.010782
# 5 0.003210 0.000039 -0.003599 -0.001920 0.021835 -0.001330
# 6 -0.005063 -0.000664 0.001444 0.010782 -0.001330 0.031574
#
#
# Mechanical properties :
#
#
# Convention : Reuss Voigt Hill
#
# Bulk Modulus (GPa) = 38.89406 58.49217 48.69311
# Shear Modulus (GPa) = 37.35137 47.50566 42.42851
#
# Velocity S-wave (km/s) = 3.77706 4.25965 4.02559
# Velocity P-wave (km/s) = 5.82040 6.82156 6.34077
#
# Compressibility (1/GPa) = 0.02571087
#
# Stress axis : x y z
#
# Youngs Moduli (GPa) = 57.22333 105.53556 139.59183
#
# Poissons Ratio (x) = -0.31665 0.61300
# Poissons Ratio (y) = -0.17169 0.39238
# Poissons Ratio (z) = 0.25129 0.29665
#
# Static dielectric constant tensor:
#      x y z
#    x 2.039380 -0.061410 -0.150770 
#    y -0.061410 1.976870 -0.013790 
#    z -0.150770 -0.013790 2.120560 
# 
# From -- ./inp_files/114916.got.cif
#   From: 2010.05.17/outbox.cif.g08.bks.cpg/sg2_58_cif.got.tgz:114916.got - 2010.06.03 11:33:40.
