data_PCOD9045818
_publ_section_title
;
Structure prediction by ZEFSAII (Michael W. Deem and Ramdas Pophale) SiO2 
 PCOD9045818
Probable space group: P -1
;
_chemical_formula_sum "Si O2"
_cell_formula_units_Z 14
_cell_length_a 11.819656
_cell_length_b 8.437412
_cell_length_c 9.868658
_cell_angle_alpha 131.727428
_cell_angle_beta 125.643341
_cell_angle_gamma 48.414532
_cell_volume 531.583083
_symmetry_space_group_name_H-M "P -1"
_symmetry_group_IT_number 2
_symmetry_cell_setting 'triclinic'
loop_
_space_group_symop_operation_xyz
x,y,z
-x,-y,-z
loop_
_atom_site_type_symbol
_atom_site_label
_atom_site_fract_x
_atom_site_fract_y
_atom_site_fract_z
Si Si1 0.054574 0.952078 0.666956
Si Si2 0.556961 0.774277 0.073988
Si Si3 0.561808 0.692903 0.615544
Si Si4 0.142112 0.975573 0.182753
Si Si5 0.120524 0.470254 0.377393
Si Si6 0.501448 0.641792 0.240312
Si Si7 0.137178 0.333344 0.902523
O O1 0.130253 0.672631 0.590783
O O2 0.907580 0.074828 0.733466
O O3 0.167485 0.073237 0.825511
O O4 0.000000 0.000000 0.500000
O O5 0.589796 0.694877 0.209571
O O6 0.702671 0.662686 0.010519
O O7 0.501940 0.058066 0.206313
O O8 0.457406 0.636600 0.882925
O O9 0.500000 0.500000 0.500000
O O10 0.749733 0.582189 0.678685
O O11 0.520910 0.740031 0.453873
O O12 0.146008 0.227973 0.325305
O O13 0.315497 0.783314 0.155806
O O14 0.000000 0.000000 0.000000
O O15 0.949495 0.595322 0.263045
O O16 0.000000 0.500000 0.000000
#
# Coordination Sequence:
#
# PCOD9045818 Si02
#       7
#     2   2   2   2   2   2   2
#     4  10  24  41  71 105 147 192 243 305 379 433
#     4  11  25  49  76 106 149 201 248 307 383 445
#     4  12  28  47  75 110 154 195 250 311 378 452
#     4  12  25  47  75 109 148 194 256 312 367 456
#     4  11  25  44  69 111 143 189 258 301 367 452
#     4  11  27  48  77 106 153 201 251 306 385 443
#     4  11  24  46  75 105 148 198 246 311 380 438
#
# _framework density 26.336428999999999
#
# number of rings (size 3 to 8) (size 9 to 14) (size 15 to 20)
#    0.000    0.857    1.429    4.286   10.000    4.000 
#    2.571    0.000    0.000    0.000    0.000    0.000 
#    0.000    0.000    0.000    0.000    0.000    0.000 
#
# Total GULP energy -78378.813583 kJ/mol
# GULP energy per Si atom -5598.486685 kJ/mol
# Density = 2.627649 g / cm^3
# Si number density = 26.336429 Si / 1000 Ang^3
#
#
#
# Elastic Constant Matrix: (Units=GPa)
#
#
# Indices 1 2 3 4 5 6 
#
# 1 181.2404 39.9479 29.3110 8.4718 -3.0794 19.7347
# 2 39.9479 108.9431 45.3502 15.0867 12.9247 4.7764
# 3 29.3110 45.3502 111.4050 22.8231 3.5712 4.2754
# 4 8.4718 15.0867 22.8231 57.1562 11.4556 7.8865
# 5 -3.0794 12.9247 3.5712 11.4556 53.0667 10.3893
# 6 19.7347 4.7764 4.2754 7.8865 10.3893 36.5859
#
#
#
# Elastic Compliance Matrix: (Units=1/GPa)
#
#
# Indices 1 2 3 4 5 6 
#
# 1 0.006531 -0.002113 -0.000787 0.000077 0.001642 -0.003638
# 2 -0.002113 0.012080 -0.004147 -0.000796 -0.002813 0.001018
# 3 -0.000787 -0.004147 0.011578 -0.003618 0.000942 0.000125
# 4 0.000077 -0.000796 -0.003618 0.020214 -0.003350 -0.002921
# 5 0.001642 -0.002813 0.000942 -0.003350 0.021459 -0.006000
# 6 -0.003638 0.001018 0.000125 -0.002921 -0.006000 0.031481
#
#
# Mechanical properties :
#
#
# Convention : Reuss Voigt Hill
#
# Bulk Modulus (GPa) = 62.13560 70.08965 66.11263
# Shear Modulus (GPa) = 40.71608 48.49371 44.60490
#
# Velocity S-wave (km/s) = 3.93618 4.29571 4.11987
# Velocity P-wave (km/s) = 6.65600 7.16067 6.91294
#
# Compressibility (1/GPa) = 0.01609383
#
# Stress axis : x y z
#
# Youngs Moduli (GPa) = 153.11555 82.78356 86.37330
#
# Poissons Ratio (x) = 0.17494 0.06796
# Poissons Ratio (y) = 0.32357 0.35820
# Poissons Ratio (z) = 0.12048 0.34332
#
# Static dielectric constant tensor:
#      x y z
#    x 2.009980 -0.003980 -0.039160 
#    y -0.003980 2.109180 -0.004010 
#    z -0.039160 -0.004010 2.197170 
# 
# From -- ./inp_files/420186.got.cif
#   From: 2010.05.17/outbox.cif.g08.bks.cpg/sg2_211_cif.got.tgz:420186.got - 2010.06.03 11:33:40.
