data_PCOD9045557
_publ_section_title
;
Structure prediction by ZEFSAII (Michael W. Deem and Ramdas Pophale) SiO2 
 PCOD9045557
Probable space group: P -1
;
_chemical_formula_sum "Si O2"
_cell_formula_units_Z 15
_cell_length_a 27.028566
_cell_length_b 26.399621
_cell_length_c 9.123467
_cell_angle_alpha 37.237424
_cell_angle_beta 142.294197
_cell_angle_gamma 169.198528
_cell_volume 735.857219
_symmetry_space_group_name_H-M "P -1"
_symmetry_group_IT_number 2
_symmetry_cell_setting 'triclinic'
loop_
_space_group_symop_operation_xyz
x,y,z
-x,-y,-z
loop_
_atom_site_type_symbol
_atom_site_label
_atom_site_fract_x
_atom_site_fract_y
_atom_site_fract_z
Si Si1 0.736560 0.795907 0.841554
Si Si2 0.234174 0.732141 0.896932
Si Si3 0.228849 0.904745 0.339558
Si Si4 0.222648 0.984743 0.456867
Si Si5 0.249598 0.563129 0.201034
Si Si6 0.000000 0.000000 0.500000
Si Si7 0.502086 0.420896 0.530615
Si Si8 0.305641 0.572667 0.970063
O O1 0.633684 0.731494 0.593670
O O2 0.771325 0.909081 0.769060
O O3 0.500000 0.500000 0.000000
O O4 0.000000 0.000000 0.000000
O O5 0.204748 0.784272 0.606242
O O6 0.225093 0.637742 0.001660
O O7 0.000000 0.500000 0.000000
O O8 0.500000 0.000000 0.000000
O O9 0.228964 0.956324 0.372679
O O10 0.980015 0.695798 0.151152
O O11 0.486734 0.170214 0.232022
O O12 0.981208 0.712253 0.616898
O O13 0.482649 0.204811 0.633703
O O14 0.270942 0.564226 0.077138
O O15 0.257951 0.224122 0.495227
O O16 0.220996 0.254270 0.560991
O O17 0.588018 0.417380 0.811287
#
# Coordination Sequence:
#
# PCOD9045557 Si02
#       8
#     2   2   2   2   2   1   2   2
#     4  12  27  44  72 104 138 181 249 302 343 427
#     4  12  23  45  75 105 145 186 241 296 352 419
#     4  12  26  44  71 113 142 185 240 299 346 424
#     4  12  25  46  74 102 142 190 245 278 366 431
#     4  12  24  46  76 102 138 204 228 285 364 439
#     4  10  24  40  72  94 130 184 236 288 358 436
#     4  11  24  47  68  97 143 190 235 287 376 422
#     4  12  27  43  72 103 150 185 233 296 357 430
#
# _framework density 20.38439
#
# number of rings (size 3 to 8) (size 9 to 14) (size 15 to 20)
#    0.000    0.267    4.000    4.800    1.867    7.467 
#    0.000    0.000    0.000    0.000    0.000    0.000 
#    0.000    0.000    0.000    0.000    0.000    0.000 
#
# Total GULP energy -83584.216247 kJ/mol
# GULP energy per Si atom -5572.281083 kJ/mol
# Density = 2.033799 g / cm^3
# Si number density = 20.384390 Si / 1000 Ang^3
#
#
#
# Elastic Constant Matrix: (Units=GPa)
#
#
# Indices 1 2 3 4 5 6 
#
# 1 175.2572 3.5695 6.4694 -26.5144 -1.4717 -12.7614
# 2 3.5695 267.6189 73.7902 41.7291 -12.2404 29.7696
# 3 6.4694 73.7902 101.6451 23.6008 1.3513 4.3381
# 4 -26.5144 41.7291 23.6008 57.8685 -5.4832 1.5230
# 5 -1.4717 -12.2404 1.3513 -5.4832 46.4896 -0.0902
# 6 -12.7614 29.7696 4.3381 1.5230 -0.0902 37.0497
#
#
#
# Elastic Compliance Matrix: (Units=1/GPa)
#
#
# Indices 1 2 3 4 5 6 
#
# 1 0.006547 -0.000726 -0.000914 0.003870 0.000505 0.002787
# 2 -0.000726 0.005598 -0.003192 -0.002841 0.001200 -0.004254
# 3 -0.000914 -0.003192 0.013038 -0.003616 -0.001673 0.000868
# 4 0.003870 -0.002841 -0.003616 0.022701 0.002163 0.003112
# 5 0.000505 0.001200 -0.001673 0.002163 0.022145 -0.000630
# 6 0.002787 -0.004254 0.000868 0.003112 -0.000630 0.031138
#
#
# Mechanical properties :
#
#
# Convention : Reuss Voigt Hill
#
# Bulk Modulus (GPa) = 64.43627 79.13104 71.78366
# Shear Modulus (GPa) = 43.10190 58.99435 51.04813
#
# Velocity S-wave (km/s) = 4.60331 5.38552 5.00970
# Velocity P-wave (km/s) = 7.74165 8.80769 8.29182
#
# Compressibility (1/GPa) = 0.01551921
#
# Stress axis : x y z
#
# Youngs Moduli (GPa) = 152.73731 178.64459 76.69600
#
# Poissons Ratio (x) = 0.12965 0.07011
# Poissons Ratio (y) = 0.11085 0.24482
# Poissons Ratio (z) = 0.13963 0.57026
#
# Static dielectric constant tensor:
#      x y z
#    x 1.699580 -0.039410 0.022930 
#    y -0.039410 1.680720 0.001570 
#    z 0.022930 0.001570 1.748940 
# 
# From -- ./inp_files/357919.got.cif
#   From: 2010.05.17/outbox.cif.g08.bks.cpg/sg2_179_cif.got.tgz:357919.got - 2010.06.03 11:33:40.
