data_PCOD9045785
_publ_section_title
;
Structure prediction by ZEFSAII (Michael W. Deem and Ramdas Pophale) SiO2 
 PCOD9045785
Probable space group: P -1
;
_chemical_formula_sum "Si O2"
_cell_formula_units_Z 16
_cell_length_a 11.116564
_cell_length_b 8.944636
_cell_length_c 12.780101
_cell_angle_alpha 130.161161
_cell_angle_beta 140.432297
_cell_angle_gamma 58.811514
_cell_volume 618.063783
_symmetry_space_group_name_H-M "P -1"
_symmetry_group_IT_number 2
_symmetry_cell_setting 'triclinic'
loop_
_space_group_symop_operation_xyz
x,y,z
-x,-y,-z
loop_
_atom_site_type_symbol
_atom_site_label
_atom_site_fract_x
_atom_site_fract_y
_atom_site_fract_z
Si Si1 0.480610 0.721840 0.114688
Si Si2 0.502669 0.773028 0.918575
Si Si3 0.974704 0.151393 0.797835
Si Si4 0.570009 0.028523 0.443832
Si Si5 0.949229 0.336244 0.649990
Si Si6 0.055174 0.769641 0.950595
Si Si7 0.509549 0.301499 0.351622
Si Si8 0.933088 0.287931 0.393206
O O1 0.269273 0.750844 0.038077
O O2 0.609400 0.811131 0.329906
O O3 0.500000 0.500000 0.000000
O O4 0.557497 0.789112 0.084465
O O5 0.583197 0.688043 0.821932
O O6 0.294768 0.687125 0.747261
O O7 0.500000 0.000000 0.000000
O O8 0.750150 0.154128 0.633448
O O9 0.044691 0.254225 0.784433
O O10 0.992169 0.251937 0.966891
O O11 0.033811 0.919051 0.739021
O O12 0.446520 0.133026 0.314526
O O13 0.500000 0.000000 0.500000
O O14 0.733726 0.269272 0.471025
O O15 0.020870 0.248900 0.549387
O O16 0.958966 0.573465 0.754297
O O17 0.000000 0.000000 0.000000
O O18 0.500000 0.500000 0.500000
O O19 0.000000 0.500000 0.500000
#
# Coordination Sequence:
#
# PCOD9045785 Si02
#       8
#     2   2   2   2   2   2   2   2
#     4  12  28  44  69 103 138 181 228 284 344 410
#     4  11  24  45  66  99 138 179 230 283 345 408
#     4  11  24  43  70  94 136 182 228 284 340 415
#     4  11  24  44  66  99 136 176 226 280 341 404
#     4  10  24  42  65  99 132 175 230 279 346 412
#     4  12  26  46  69 102 136 181 229 286 347 409
#     4  10  24  41  69  96 131 179 222 279 342 408
#     4  11  24  43  69 101 136 182 228 288 348 412
#
# _framework density 25.887295000000002
#
# number of rings (size 3 to 8) (size 9 to 14) (size 15 to 20)
#    0.000    1.000    2.500    3.000    7.000    3.000 
#    0.000    0.000    0.000    0.000    0.000    0.000 
#    0.000    0.000    0.000    0.000    0.000    0.000 
#
# Total GULP energy -89156.169409 kJ/mol
# GULP energy per Si atom -5572.260588 kJ/mol
# Density = 2.582837 g / cm^3
# Si number density = 25.887295 Si / 1000 Ang^3
#
#
#
# Elastic Constant Matrix: (Units=GPa)
#
#
# Indices 1 2 3 4 5 6 
#
# 1 147.6665 30.8735 38.7018 -4.3190 -38.2102 13.6333
# 2 30.8735 60.6244 -0.8290 20.6049 -5.9977 8.2122
# 3 38.7018 -0.8290 122.5825 7.9841 -42.4646 7.6624
# 4 -4.3190 20.6049 7.9841 46.8883 6.3427 -2.4841
# 5 -38.2102 -5.9977 -42.4646 6.3427 68.8028 9.2351
# 6 13.6333 8.2122 7.6624 -2.4841 9.2351 38.4575
#
#
#
# Elastic Compliance Matrix: (Units=1/GPa)
#
#
# Indices 1 2 3 4 5 6 
#
# 1 0.009652 -0.005099 -0.001707 0.002735 0.003982 -0.002772
# 2 -0.005099 0.024822 0.004434 -0.013016 0.004101 -0.006202
# 3 -0.001707 0.004434 0.012249 -0.005571 0.008198 -0.005111
# 4 0.002735 -0.013016 -0.005571 0.029485 -0.006634 0.006417
# 5 0.003982 0.004101 0.008198 -0.006634 0.024136 -0.010145
# 6 -0.002772 -0.006202 -0.005111 0.006417 -0.010145 0.032179
#
#
# Mechanical properties :
#
#
# Convention : Reuss Voigt Hill
#
# Bulk Modulus (GPa) = 23.82173 52.04065 37.93119
# Shear Modulus (GPa) = 33.05577 48.30487 40.68032
#
# Velocity S-wave (km/s) = 3.57727 4.32437 3.96844
# Velocity P-wave (km/s) = 5.12684 6.71416 5.97346
#
# Compressibility (1/GPa) = 0.04197848
#
# Stress axis : x y z
#
# Youngs Moduli (GPa) = 103.60785 40.28722 81.63965
#
# Poissons Ratio (x) = 0.20541 0.13937
# Poissons Ratio (y) = 0.52825 -0.36196
# Poissons Ratio (z) = 0.17687 -0.17862
#
# Static dielectric constant tensor:
#      x y z
#    x 2.096840 -0.013600 0.004890 
#    y -0.013600 2.080310 -0.069060 
#    z 0.004890 -0.069060 2.045890 
# 
# From -- ./inp_files/420138.got.cif
#   From: 2010.05.17/outbox.cif.g08.bks.cpg/sg2_211_cif.got.tgz:420138.got - 2010.06.03 11:33:40.
