data_PCOD9045409
_publ_section_title
;
Structure prediction by ZEFSAII (Michael W. Deem and Ramdas Pophale) SiO2 
 PCOD9045409
Probable space group: P -1
;
_chemical_formula_sum "Si O2"
_cell_formula_units_Z 12
_cell_length_a 6.810502
_cell_length_b 4.840477
_cell_length_c 16.144806
_cell_angle_alpha 124.147997
_cell_angle_beta 76.812587
_cell_angle_gamma 99.243600
_cell_volume 428.503094
_symmetry_space_group_name_H-M "P -1"
_symmetry_group_IT_number 2
_symmetry_cell_setting 'triclinic'
loop_
_space_group_symop_operation_xyz
x,y,z
-x,-y,-z
loop_
_atom_site_type_symbol
_atom_site_label
_atom_site_fract_x
_atom_site_fract_y
_atom_site_fract_z
Si Si1 0.915015 0.803607 0.850827
Si Si2 0.668866 0.192401 0.681324
Si Si3 0.527696 0.498822 0.399565
Si Si4 0.737612 0.487942 0.974651
Si Si5 0.061965 0.202296 0.658191
Si Si6 0.268704 0.454770 0.823700
O O1 0.876171 0.472997 0.739863
O O2 0.152241 0.756131 0.839712
O O3 0.817977 0.738163 0.938887
O O4 0.819591 0.129472 0.880500
O O5 0.606641 0.262808 0.603197
O O6 0.504458 0.465810 0.787219
O O7 0.540509 0.876311 0.682817
O O8 0.115009 0.039707 0.393676
O O9 0.500000 0.500000 0.500000
O O10 0.758102 0.627513 0.380045
O O11 0.794204 0.538054 0.073679
O O12 0.500000 0.500000 0.000000
O O13 0.156455 0.152361 0.731159
#
# Coordination Sequence:
#
# PCOD9045409 Si02
#       6
#     2   2   2   2   2   2
#     4  10  24  40  65  92 141 184 231 288 345 391
#     4  11  24  45  71 102 137 187 230 284 354 421
#     4  11  26  46  72 105 141 176 229 291 352 428
#     4  12  23  39  64 100 137 187 241 286 340 405
#     4   9  24  44  70 102 140 184 235 285 351 413
#     4   9  23  42  66  97 141 184 237 291 338 408
#
# _framework density 28.004467000000002
#
# number of rings (size 3 to 8) (size 9 to 14) (size 15 to 20)
#    1.000    0.667    0.000    3.000    2.333    9.333 
#    0.000    0.000    0.000    0.000    0.000    0.000 
#    0.000    0.000    0.000    0.000    0.000    0.000 
#
# Total GULP energy -66936.907451 kJ/mol
# GULP energy per Si atom -5578.075621 kJ/mol
# Density = 2.794073 g / cm^3
# Si number density = 28.004467 Si / 1000 Ang^3
#
#
#
# Elastic Constant Matrix: (Units=GPa)
#
#
# Indices 1 2 3 4 5 6 
#
# 1 234.1841 31.8587 47.7219 -5.7588 -43.8045 -2.3843
# 2 31.8587 101.3249 25.4269 4.8214 -4.9551 4.3526
# 3 47.7219 25.4269 94.8975 -39.5974 -1.1577 9.7038
# 4 -5.7588 4.8214 -39.5974 56.0845 0.9867 -5.5090
# 5 -43.8045 -4.9551 -1.1577 0.9867 58.4195 -10.5447
# 6 -2.3843 4.3526 9.7038 -5.5090 -10.5447 32.7684
#
#
#
# Elastic Compliance Matrix: (Units=1/GPa)
#
#
# Indices 1 2 3 4 5 6 
#
# 1 0.006077 -0.000736 -0.003871 -0.001840 0.004987 0.002981
# 2 -0.000736 0.011450 -0.004370 -0.004240 0.000239 -0.000916
# 3 -0.003871 -0.004370 0.019712 0.013519 -0.003928 -0.004530
# 4 -0.001840 -0.004240 0.013519 0.027630 -0.001853 0.000475
# 5 0.004987 0.000239 -0.003928 -0.001853 0.022342 0.008372
# 6 0.002981 -0.000916 -0.004530 0.000475 0.008372 0.034971
#
#
# Mechanical properties :
#
#
# Convention : Reuss Voigt Hill
#
# Bulk Modulus (GPa) = 51.85493 71.15794 61.50643
# Shear Modulus (GPa) = 34.11480 51.14777 42.63128
#
# Velocity S-wave (km/s) = 3.49405 4.27829 3.90590
# Velocity P-wave (km/s) = 5.90209 7.06185 6.50786
#
# Compressibility (1/GPa) = 0.01928457
#
# Stress axis : x y z
#
# Youngs Moduli (GPa) = 164.55685 87.33520 50.73143
#
# Poissons Ratio (x) = 0.06428 0.19637
# Poissons Ratio (y) = 0.12111 0.22171
# Poissons Ratio (z) = 0.63696 0.38168
#
# Static dielectric constant tensor:
#      x y z
#    x 2.195720 0.061600 0.054580 
#    y 0.061600 2.301100 0.177450 
#    z 0.054580 0.177450 2.499480 
# 
# From -- ./inp_files/553020.got.cif
#   From: 2010.05.17/outbox.cif.g08.bks.cpg/sg2_277_cif.got.tgz:553020.got - 2010.06.03 11:33:40.
