data_PCOD9045271
_publ_section_title
;
Structure prediction by ZEFSAII (Michael W. Deem and Ramdas Pophale) SiO2 
 PCOD9045271
Probable space group: P -1
;
_chemical_formula_sum "Si O2"
_cell_formula_units_Z 14
_cell_length_a 12.902502
_cell_length_b 10.041345
_cell_length_c 6.469964
_cell_angle_alpha 88.376447
_cell_angle_beta 102.454351
_cell_angle_gamma 123.773431
_cell_volume 676.040716
_symmetry_space_group_name_H-M "P -1"
_symmetry_group_IT_number 2
_symmetry_cell_setting 'triclinic'
loop_
_space_group_symop_operation_xyz
x,y,z
-x,-y,-z
loop_
_atom_site_type_symbol
_atom_site_label
_atom_site_fract_x
_atom_site_fract_y
_atom_site_fract_z
Si Si1 0.599839 0.705055 0.107903
Si Si2 0.608202 0.564117 0.726312
Si Si3 0.617832 0.186248 0.480408
Si Si4 0.943087 0.545559 0.285279
Si Si5 0.637126 0.029788 0.123014
Si Si6 0.177430 0.727573 0.107474
Si Si7 0.713265 0.532931 0.404404
O O1 0.452394 0.577919 0.123230
O O2 0.673275 0.637327 0.257368
O O3 0.625786 0.870023 0.190460
O O4 0.625498 0.703929 0.874602
O O5 0.500000 0.500000 0.500000
O O6 0.726608 0.592518 0.645523
O O7 0.684223 0.152715 0.325810
O O8 0.611761 0.334974 0.386387
O O9 0.500000 0.000000 0.500000
O O10 0.738592 0.103286 0.979407
O O11 0.838298 0.565726 0.344374
O O12 0.000000 0.500000 0.500000
O O13 0.063041 0.694655 0.207371
O O14 0.877576 0.407802 0.087037
O O15 0.500000 0.000000 0.000000
O O16 0.284798 0.731487 0.292393
#
# Coordination Sequence:
#
# PCOD9045271 Si02
#       7
#     2   2   2   2   2   2   2
#     4  10  24  39  60  92 134 173 218 267 337 401
#     4   9  21  36  60  88 130 167 218 261 326 392
#     4  12  24  39  68 101 137 168 217 274 336 397
#     4  11  23  43  68  97 128 175 230 279 320 399
#     4  12  25  40  65  98 137 175 214 277 343 397
#     4  11  24  40  67 100 133 169 228 273 335 384
#     4  11  23  40  66  96 127 179 221 270 331 392
#
# _framework density 20.708811000000001
#
# number of rings (size 3 to 8) (size 9 to 14) (size 15 to 20)
#    0.000    1.143    4.286    0.857    8.000    2.286 
#    0.000    0.714    0.000    4.286    0.000    0.000 
#    0.000    0.000    0.000    0.000    0.000    0.000 
#
# Total GULP energy -77949.505731 kJ/mol
# GULP energy per Si atom -5567.821838 kJ/mol
# Density = 2.066168 g / cm^3
# Si number density = 20.708811 Si / 1000 Ang^3
#
#
#
# Elastic Constant Matrix: (Units=GPa)
#
#
# Indices 1 2 3 4 5 6 
#
# 1 143.9572 37.3001 43.1790 -12.9562 -30.3988 -0.9589
# 2 37.3001 99.1215 29.6816 -11.0375 9.4303 -19.4778
# 3 43.1790 29.6816 108.2903 11.7377 -9.5018 -14.4765
# 4 -12.9562 -11.0375 11.7377 32.0161 -2.4330 -7.5431
# 5 -30.3988 9.4303 -9.5018 -2.4330 45.8552 -1.4742
# 6 -0.9589 -19.4778 -14.4765 -7.5431 -1.4742 40.7029
#
#
#
# Elastic Compliance Matrix: (Units=1/GPa)
#
#
# Indices 1 2 3 4 5 6 
#
# 1 0.010866 -0.003561 -0.003412 0.004623 0.007425 -0.001536
# 2 -0.003561 0.014811 -0.002838 0.005915 -0.005459 0.006893
# 3 -0.003412 -0.002838 0.012361 -0.006424 0.000600 0.001789
# 4 0.004623 0.005915 -0.006424 0.039627 0.002880 0.008103
# 5 0.007425 -0.005459 0.000600 0.002880 0.028108 -0.000672
# 6 -0.001536 0.006893 0.001789 0.008103 -0.000672 0.029944
#
#
# Mechanical properties :
#
#
# Convention : Reuss Voigt Hill
#
# Bulk Modulus (GPa) = 54.30007 63.52115 58.91061
# Shear Modulus (GPa) = 30.96405 39.79540 35.37972
#
# Velocity S-wave (km/s) = 3.87099 4.38844 4.13781
# Velocity P-wave (km/s) = 6.80126 7.51119 7.16502
#
# Compressibility (1/GPa) = 0.01841618
#
# Stress axis : x y z
#
# Youngs Moduli (GPa) = 92.02948 67.51741 80.90067
#
# Poissons Ratio (x) = 0.24042 0.27600
# Poissons Ratio (y) = 0.32770 0.22964
# Poissons Ratio (z) = 0.31397 0.19165
#
# Static dielectric constant tensor:
#      x y z
#    x 1.826700 0.021440 -0.000650 
#    y 0.021440 1.774300 -0.031230 
#    z -0.000650 -0.031230 1.896150 
# 
# From -- ./inp_files/55848.got.cif
#   From: 2010.05.17/outbox.cif.g08.bks.cpg/sg2_28_cif.got.tgz:55848.got - 2010.06.03 11:33:40.
