data_PCOD9045408
_publ_section_title
;
Structure prediction by ZEFSAII (Michael W. Deem and Ramdas Pophale) SiO2 
 PCOD9045408
Probable space group: P -1
;
_chemical_formula_sum "Si O2"
_cell_formula_units_Z 16
_cell_length_a 17.158247
_cell_length_b 11.577411
_cell_length_c 9.581718
_cell_angle_alpha 77.403373
_cell_angle_beta 70.000428
_cell_angle_gamma 139.235859
_cell_volume 734.270053
_symmetry_space_group_name_H-M "P -1"
_symmetry_group_IT_number 2
_symmetry_cell_setting 'triclinic'
loop_
_space_group_symop_operation_xyz
x,y,z
-x,-y,-z
loop_
_atom_site_type_symbol
_atom_site_label
_atom_site_fract_x
_atom_site_fract_y
_atom_site_fract_z
Si Si1 0.842540 0.417176 0.256679
Si Si2 0.450124 0.175556 0.922786
Si Si3 0.811728 0.338452 0.622192
Si Si4 0.110542 0.294755 0.490494
Si Si5 0.277785 0.914892 0.795313
Si Si6 0.325733 0.267532 0.058631
Si Si7 0.864956 0.713032 0.195055
Si Si8 0.506420 0.400503 0.412690
O O1 0.778105 0.316580 0.483323
O O2 0.702411 0.171758 0.295254
O O3 0.879825 0.602967 0.148022
O O4 0.054756 0.628517 0.063490
O O5 0.681720 0.499664 0.726330
O O6 0.409025 0.088840 0.809559
O O7 0.320253 0.124035 0.047799
O O8 0.372719 0.968495 0.118575
O O9 0.851963 0.519274 0.615592
O O10 0.000000 0.500000 0.500000
O O11 0.098879 0.265247 0.671780
O O12 0.883818 0.968126 0.680807
O O13 0.304221 0.066578 0.641788
O O14 0.500000 0.500000 0.000000
O O15 0.404889 0.442037 0.829492
O O16 0.652590 0.488554 0.351800
O O17 0.000000 0.000000 0.000000
O O18 0.500000 0.500000 0.500000
#
# Coordination Sequence:
#
# PCOD9045408 Si02
#       8
#     2   2   2   2   2   2   2   2
#     4  10  24  40  65 103 136 180 229 284 344 406
#     4  12  23  45  69  98 133 187 229 283 347 415
#     4  11  21  40  71  95 135 184 221 273 346 410
#     4  11  23  43  70  99 132 180 234 273 346 418
#     4  11  22  41  66  98 139 172 236 285 339 407
#     4  12  27  45  70 100 140 179 230 287 351 414
#     4  11  20  39  70  97 133 174 224 278 339 406
#     4  12  23  41  69  98 131 180 229 278 346 408
#
# _framework density 21.79035
#
# number of rings (size 3 to 8) (size 9 to 14) (size 15 to 20)
#    0.000    0.750    6.250    1.875    1.750    1.000 
#    0.000    1.250    0.000    0.000    0.000    0.000 
#    0.000    0.000    0.000    0.000    0.000    0.000 
#
# Total GULP energy -89259.218464 kJ/mol
# GULP energy per Si atom -5578.701154 kJ/mol
# Density = 2.174075 g / cm^3
# Si number density = 21.790350 Si / 1000 Ang^3
#
#
#
# Elastic Constant Matrix: (Units=GPa)
#
#
# Indices 1 2 3 4 5 6 
#
# 1 87.0632 27.3701 19.5811 2.8459 6.5761 -4.5964
# 2 27.3701 96.4293 33.9849 -5.3594 9.2531 0.8620
# 3 19.5811 33.9849 123.0478 -23.4092 18.2200 0.1490
# 4 2.8459 -5.3594 -23.4092 20.9463 -3.1448 -4.2088
# 5 6.5761 9.2531 18.2200 -3.1448 45.1013 -16.7594
# 6 -4.5964 0.8620 0.1490 -4.2088 -16.7594 34.5075
#
#
#
# Elastic Compliance Matrix: (Units=1/GPa)
#
#
# Indices 1 2 3 4 5 6 
#
# 1 0.013216 -0.003267 -0.002056 -0.004760 -0.000349 0.001101
# 2 -0.003267 0.012399 -0.002652 0.000130 -0.001530 -0.001461
# 3 -0.002056 -0.002652 0.012052 0.012514 -0.003272 -0.000323
# 4 -0.004760 0.000130 0.012514 0.064699 0.003415 0.008859
# 5 -0.000349 -0.001530 -0.003272 0.003415 0.029595 0.014796
# 6 0.001101 -0.001461 -0.000323 0.008859 0.014796 0.037430
#
#
# Mechanical properties :
#
#
# Convention : Reuss Voigt Hill
#
# Bulk Modulus (GPa) = 46.04677 52.04583 49.04630
# Shear Modulus (GPa) = 25.96315 35.15130 30.55722
#
# Velocity S-wave (km/s) = 3.45555 4.02077 3.74883
# Velocity P-wave (km/s) = 6.09087 6.74479 6.42615
#
# Compressibility (1/GPa) = 0.02171705
#
# Stress axis : x y z
#
# Youngs Moduli (GPa) = 75.66832 80.64961 82.97316
#
# Poissons Ratio (x) = 0.26352 0.17059
# Poissons Ratio (y) = 0.24724 0.22001
# Poissons Ratio (z) = 0.15557 0.21385
#
# Static dielectric constant tensor:
#      x y z
#    x 1.835260 -0.131810 0.059150 
#    y -0.131810 2.100780 -0.276750 
#    z 0.059150 -0.276750 2.074220 
# 
# From -- ./inp_files/331925.got.cif
#   From: 2010.05.17/outbox.cif.g08.bks.cpg/sg2_166_cif.got.tgz:331925.got - 2010.06.03 11:33:40.
