data_PCOD9045952
_publ_section_title
;
Structure prediction by ZEFSAII (Michael W. Deem and Ramdas Pophale) SiO2 
 PCOD9045952
Probable space group: P -1
;
_chemical_formula_sum "Si O2"
_cell_formula_units_Z 16
_cell_length_a 15.823893
_cell_length_b 13.860904
_cell_length_c 12.284007
_cell_angle_alpha 59.284165
_cell_angle_beta 154.445586
_cell_angle_gamma 137.599165
_cell_volume 662.445082
_symmetry_space_group_name_H-M "P -1"
_symmetry_group_IT_number 2
_symmetry_cell_setting 'triclinic'
loop_
_space_group_symop_operation_xyz
x,y,z
-x,-y,-z
loop_
_atom_site_type_symbol
_atom_site_label
_atom_site_fract_x
_atom_site_fract_y
_atom_site_fract_z
Si Si1 0.956813 0.752660 0.944699
Si Si2 0.691434 0.374360 0.146940
Si Si3 0.998112 0.269598 0.750614
Si Si4 0.746736 0.701525 0.175439
Si Si5 0.435336 0.961502 0.191592
Si Si6 0.944803 0.452261 0.837706
Si Si7 0.311500 0.149432 0.337291
Si Si8 0.201260 0.763793 0.816541
O O1 0.101301 0.814574 0.198025
O O2 0.164413 0.862534 0.017993
O O3 0.874065 0.585897 0.942848
O O4 0.721246 0.750636 0.687361
O O5 0.635363 0.252845 0.064845
O O6 0.000000 0.500000 0.500000
O O7 0.770732 0.528246 0.091002
O O8 0.414623 0.268900 0.966231
O O9 0.150808 0.245189 0.860818
O O10 0.688466 0.161740 0.392893
O O11 0.003274 0.759388 0.514326
O O12 0.500000 0.500000 0.000000
O O13 0.589496 0.910532 0.436676
O O14 0.353232 0.905604 0.003232
O O15 0.595687 0.279983 0.513418
O O16 0.020556 0.593664 0.774701
O O17 0.000000 0.500000 0.000000
O O18 0.000000 0.000000 0.000000
#
# Coordination Sequence:
#
# PCOD9045952 Si02
#       8
#     2   2   2   2   2   2   2   2
#     4  11  23  40  68  98 133 179 223 268 331 409
#     4  11  23  44  69  97 123 169 229 275 325 396
#     4  11  22  42  69  92 133 179 217 269 332 403
#     4  10  24  42  65 100 123 168 232 268 328 393
#     4  11  26  45  61 104 140 170 220 274 350 394
#     4  11  24  42  63  98 137 179 221 277 341 394
#     4  11  24  39  63  97 137 177 229 272 322 407
#     4  12  23  43  69  95 139 168 217 293 318 403
#
# _framework density 24.152946
#
# number of rings (size 3 to 8) (size 9 to 14) (size 15 to 20)
#    0.000    1.000    7.500    0.375    5.250    2.000 
#    2.250    0.625    0.000    0.000    0.000    0.000 
#    0.000    0.000    0.000    0.000    0.000    0.000 
#
# Total GULP energy -89273.712084 kJ/mol
# GULP energy per Si atom -5579.607005 kJ/mol
# Density = 2.409797 g / cm^3
# Si number density = 24.152946 Si / 1000 Ang^3
#
#
#
# Elastic Constant Matrix: (Units=GPa)
#
#
# Indices 1 2 3 4 5 6 
#
# 1 186.3824 24.4074 32.3630 -6.9988 -7.2699 -17.5853
# 2 24.4074 84.6031 18.9212 0.5282 8.8960 -14.4514
# 3 32.3630 18.9212 67.5229 -4.6695 -8.0373 -14.9770
# 4 -6.9988 0.5282 -4.6695 41.2210 -7.6779 8.6097
# 5 -7.2699 8.8960 -8.0373 -7.6779 45.4323 -5.8263
# 6 -17.5853 -14.4514 -14.9770 8.6097 -5.8263 37.0613
#
#
#
# Elastic Compliance Matrix: (Units=1/GPa)
#
#
# Indices 1 2 3 4 5 6 
#
# 1 0.006098 -0.001147 -0.002051 0.000692 0.001165 0.001639
# 2 -0.001147 0.013808 -0.003070 -0.002083 -0.003326 0.003560
# 3 -0.002051 -0.003070 0.018558 0.001446 0.004532 0.005706
# 4 0.000692 -0.002083 0.001446 0.026536 0.004573 -0.005345
# 5 0.001165 -0.003326 0.004532 0.004573 0.024929 0.003944
# 6 0.001639 0.003560 0.005706 -0.005345 0.003944 0.033316
#
#
# Mechanical properties :
#
#
# Convention : Reuss Voigt Hill
#
# Bulk Modulus (GPa) = 38.56773 54.43239 46.50006
# Shear Modulus (GPa) = 34.62051 42.26403 38.44227
#
# Velocity S-wave (km/s) = 3.79012 4.18766 3.99384
# Velocity P-wave (km/s) = 5.92926 6.77993 6.36881
#
# Compressibility (1/GPa) = 0.02592841
#
# Stress axis : x y z
#
# Youngs Moduli (GPa) = 163.99402 72.42046 53.88510
#
# Poissons Ratio (x) = 0.08308 0.11052
# Poissons Ratio (y) = 0.18814 0.16541
# Poissons Ratio (z) = 0.33635 0.22230
#
# Static dielectric constant tensor:
#      x y z
#    x 2.324720 0.375910 1.023790 
#    y 0.375910 2.514530 1.243690 
#    z 1.023790 1.243690 5.167750 
# 
# From -- ./inp_files/454789.got.cif
#   From: 2010.05.17/outbox.cif.g08.bks.cpg/sg2_228_cif.got.tgz:454789.got - 2010.06.03 11:33:40.
