data_PCOD9045724
_publ_section_title
;
Structure prediction by ZEFSAII (Michael W. Deem and Ramdas Pophale) SiO2 
 PCOD9045724
Probable space group: P -1
;
_chemical_formula_sum "Si O2"
_cell_formula_units_Z 16
_cell_length_a 14.326730
_cell_length_b 11.073735
_cell_length_c 8.822176
_cell_angle_alpha 93.316813
_cell_angle_beta 96.534503
_cell_angle_gamma 151.098656
_cell_volume 634.880936
_symmetry_space_group_name_H-M "P -1"
_symmetry_group_IT_number 2
_symmetry_cell_setting 'triclinic'
loop_
_space_group_symop_operation_xyz
x,y,z
-x,-y,-z
loop_
_atom_site_type_symbol
_atom_site_label
_atom_site_fract_x
_atom_site_fract_y
_atom_site_fract_z
Si Si1 0.620068 0.029851 0.174316
Si Si2 0.164394 0.129122 0.862260
Si Si3 0.013673 0.333716 0.257070
Si Si4 0.422793 0.434919 0.226323
Si Si5 0.621412 0.813799 0.538852
Si Si6 0.194792 0.577874 0.998857
Si Si7 0.948947 0.754988 0.299777
Si Si8 0.627069 0.264128 0.408497
O O1 0.587021 0.096649 0.296885
O O2 0.799382 0.144654 0.260661
O O3 0.394381 0.720142 0.076964
O O4 0.706133 0.195098 0.052010
O O5 0.371402 0.342934 0.818900
O O6 0.055927 0.118019 0.760996
O O7 0.240663 0.239776 0.056442
O O8 0.028323 0.853393 0.806386
O O9 0.083356 0.478053 0.125667
O O10 0.200515 0.562687 0.422284
O O11 0.461461 0.585752 0.365877
O O12 0.399729 0.291197 0.319943
O O13 0.569449 0.892327 0.572978
O O14 0.852176 0.044815 0.548023
O O15 0.046979 0.338687 0.840352
O O16 0.741634 0.488806 0.332743
#
# Coordination Sequence:
#
# PCOD9045724 Si02
#       8
#     2   2   2   2   2   2   2   2
#     4  10  25  49  71  97 139 180 230 293 348 397
#     4  11  25  42  69 106 144 182 227 283 341 415
#     4  12  26  42  73 105 136 182 234 281 345 414
#     4  10  24  41  67  96 145 185 225 277 339 405
#     4  11  24  43  68  98 139 188 228 276 341 408
#     4  10  25  44  73 100 133 181 236 285 341 413
#     4  11  25  45  70 101 147 185 224 280 351 410
#     4  11  26  46  69 103 140 181 232 287 344 407
#
# _framework density 25.201574999999998
#
# number of rings (size 3 to 8) (size 9 to 14) (size 15 to 20)
#    0.000    1.250    1.250    2.250    8.750    9.500 
#    0.000    0.000    0.000    0.000    0.000    0.000 
#    0.000    0.000    0.000    0.000    0.000    0.000 
#
# Total GULP energy -89720.147969 kJ/mol
# GULP energy per Si atom -5607.509248 kJ/mol
# Density = 2.514421 g / cm^3
# Si number density = 25.201575 Si / 1000 Ang^3
#
#
#
# Elastic Constant Matrix: (Units=GPa)
#
#
# Indices 1 2 3 4 5 6 
#
# 1 111.2552 19.3718 42.6656 5.4545 12.9016 14.8319
# 2 19.3718 73.8947 16.3413 1.1560 1.9262 -3.5287
# 3 42.6656 16.3413 137.5009 12.6291 9.9466 -9.1145
# 4 5.4545 1.1560 12.6291 41.6144 3.2215 5.1286
# 5 12.9016 1.9262 9.9466 3.2215 30.2329 4.1324
# 6 14.8319 -3.5287 -9.1145 5.1286 4.1324 33.1503
#
#
#
# Elastic Compliance Matrix: (Units=1/GPa)
#
#
# Indices 1 2 3 4 5 6 
#
# 1 0.012015 -0.002572 -0.003692 0.000633 -0.002942 -0.006395
# 2 -0.002572 0.014492 -0.000752 -0.000153 0.000096 0.002498
# 3 -0.003692 -0.000752 0.009201 -0.002736 -0.001761 0.004744
# 4 0.000633 -0.000153 -0.002736 0.025485 -0.001417 -0.004818
# 5 -0.002942 0.000096 -0.001761 -0.001417 0.035516 -0.003366
# 6 -0.006395 0.002498 0.004744 -0.004818 -0.003366 0.035762
#
#
# Mechanical properties :
#
#
# Convention : Reuss Voigt Hill
#
# Bulk Modulus (GPa) = 46.13129 53.26757 49.69943
# Shear Modulus (GPa) = 32.52513 37.28432 34.90473
#
# Velocity S-wave (km/s) = 3.59639 3.85053 3.72563
# Velocity P-wave (km/s) = 5.96574 6.39932 6.18633
#
# Compressibility (1/GPa) = 0.02167726
#
# Stress axis : x y z
#
# Youngs Moduli (GPa) = 83.23198 69.00163 108.68852
#
# Poissons Ratio (x) = 0.17747 0.40124
# Poissons Ratio (y) = 0.21406 0.08170
# Poissons Ratio (z) = 0.30726 0.05186
#
# Static dielectric constant tensor:
#      x y z
#    x 1.953860 0.018720 0.028750 
#    y 0.018720 1.972490 -0.043660 
#    z 0.028750 -0.043660 1.962890 
# 
# From -- ./inp_files/307585.got.cif
#   From: 2010.05.17/outbox.cif.g08.bks.cpg/sg2_154_cif.got.tgz:307585.got - 2010.06.03 11:33:40.
