data_PCOD9045004
_publ_section_title
;
Structure prediction by ZEFSAII (Michael W. Deem and Ramdas Pophale) SiO2 
 PCOD9045004
Probable space group: P -1
;
_chemical_formula_sum "Si O2"
_cell_formula_units_Z 10
_cell_length_a 5.472289
_cell_length_b 12.486053
_cell_length_c 16.365357
_cell_angle_alpha 157.429490
_cell_angle_beta 110.059292
_cell_angle_gamma 72.222236
_cell_volume 402.951064
_symmetry_space_group_name_H-M "P -1"
_symmetry_group_IT_number 2
_symmetry_cell_setting 'triclinic'
loop_
_space_group_symop_operation_xyz
x,y,z
-x,-y,-z
loop_
_atom_site_type_symbol
_atom_site_label
_atom_site_fract_x
_atom_site_fract_y
_atom_site_fract_z
Si Si1 0.434446 0.728869 0.045191
Si Si2 0.266162 0.172076 0.134540
Si Si3 0.440706 0.542490 0.296172
Si Si4 0.738977 0.881851 0.342145
Si Si5 0.767954 0.703048 0.601434
O O1 0.680574 0.837584 0.206245
O O2 0.221656 0.968670 0.191545
O O3 0.517067 0.669695 0.920921
O O4 0.329634 0.428127 0.852808
O O5 0.200857 0.420758 0.238202
O O6 0.355875 0.272826 0.305255
O O7 0.500000 0.000000 0.000000
O O8 0.000000 0.000000 0.000000
O O9 0.640876 0.568482 0.411509
O O10 0.436474 0.850204 0.474055
O O11 0.000000 0.000000 0.500000
O O12 0.000000 0.500000 0.500000
#
# Coordination Sequence:
#
# PCOD9045004 Si02
#       5
#     2   2   2   2   2
#     4  10  23  48  72 108 158 199 258 337 381 476
#     4  12  26  47  75 111 156 207 255 322 396 468
#     4  11  24  46  73 107 156 200 264 321 395 470
#     4  10  24  44  73 108 147 205 266 320 400 468
#     4  11  25  45  77 113 155 209 258 318 399 473
#
# _framework density 24.816911999999999
#
# number of rings (size 3 to 8) (size 9 to 14) (size 15 to 20)
#    0.000    1.200    2.000    2.400    2.800    0.800 
#    3.600    0.000    0.000    0.000    0.000    0.000 
#    0.000    0.000    0.000    0.000    0.000    0.000 
#
# Total GULP energy -55719.309190 kJ/mol
# GULP energy per Si atom -5571.930919 kJ/mol
# Density = 2.476043 g / cm^3
# Si number density = 24.816912 Si / 1000 Ang^3
#
#
#
# Elastic Constant Matrix: (Units=GPa)
#
#
# Indices 1 2 3 4 5 6 
#
# 1 75.2649 55.4990 67.0350 -9.8744 0.2044 -4.7375
# 2 55.4990 177.9023 96.2975 -1.5700 -6.2214 -7.9988
# 3 67.0350 96.2975 228.1846 -12.7609 1.4958 -8.1706
# 4 -9.8744 -1.5700 -12.7609 72.6498 -2.3146 12.8277
# 5 0.2044 -6.2214 1.4958 -2.3146 52.4466 -4.4498
# 6 -4.7375 -7.9988 -8.1706 12.8277 -4.4498 35.4237
#
#
#
# Elastic Compliance Matrix: (Units=1/GPa)
#
#
# Indices 1 2 3 4 5 6 
#
# 1 0.020201 -0.004072 -0.004104 0.001908 -0.000352 0.000101
# 2 -0.004072 0.008217 -0.002288 -0.000967 0.001121 0.001274
# 3 -0.004104 -0.002288 0.006592 0.000498 -0.000402 0.000224
# 4 0.001908 -0.000967 0.000498 0.015025 0.000079 -0.005279
# 5 -0.000352 0.001121 -0.000402 0.000079 0.019431 0.002526
# 6 0.000101 0.001274 0.000224 -0.005279 0.002526 0.030812
#
#
# Mechanical properties :
#
#
# Convention : Reuss Voigt Hill
#
# Bulk Modulus (GPa) = 70.99832 102.11275 86.55553
# Shear Modulus (GPa) = 39.71427 49.60537 44.65982
#
# Velocity S-wave (km/s) = 4.00470 4.47570 4.24674
# Velocity P-wave (km/s) = 7.07492 8.24288 7.68113
#
# Compressibility (1/GPa) = 0.01408484
#
# Stress axis : x y z
#
# Youngs Moduli (GPa) = 49.50141 121.69152 151.70139
#
# Poissons Ratio (x) = 0.49549 0.62254
# Poissons Ratio (y) = 0.20156 0.34702
# Poissons Ratio (z) = 0.20314 0.27837
#
# Static dielectric constant tensor:
#      x y z
#    x 2.097730 0.034130 0.118260 
#    y 0.034130 2.078660 0.060960 
#    z 0.118260 0.060960 2.028670 
# 
# From -- ./inp_files/549902.got.cif
#   From: 2010.05.17/outbox.cif.g08.bks.cpg/sg2_275_cif.got.tgz:549902.got - 2010.06.03 11:33:40.
