data_PCOD9045997
_publ_section_title
;
Structure prediction by ZEFSAII (Michael W. Deem and Ramdas Pophale) SiO2 
 PCOD9045997
Probable space group: P -1
;
_chemical_formula_sum "Si O2"
_cell_formula_units_Z 16
_cell_length_a 16.837205
_cell_length_b 5.521091
_cell_length_c 8.593567
_cell_angle_alpha 118.867391
_cell_angle_beta 70.830541
_cell_angle_gamma 94.620100
_cell_volume 657.855460
_symmetry_space_group_name_H-M "P -1"
_symmetry_group_IT_number 2
_symmetry_cell_setting 'triclinic'
loop_
_space_group_symop_operation_xyz
x,y,z
-x,-y,-z
loop_
_atom_site_type_symbol
_atom_site_label
_atom_site_fract_x
_atom_site_fract_y
_atom_site_fract_z
Si Si1 0.800379 0.036095 0.373272
Si Si2 0.779309 0.609414 0.690730
Si Si3 0.563463 0.736527 0.335064
Si Si4 0.010000 0.170303 0.892021
Si Si5 0.344488 0.192500 0.416080
Si Si6 0.293165 0.014348 0.885471
Si Si7 0.949342 0.804794 0.582834
Si Si8 0.424039 0.806211 0.003313
O O1 0.804728 0.285879 0.568877
O O2 0.894762 0.903920 0.250831
O O3 0.733621 0.851282 0.435196
O O4 0.762896 0.125443 0.252543
O O5 0.692218 0.651558 0.664249
O O6 0.854878 0.736417 0.587801
O O7 0.765509 0.749748 0.910317
O O8 0.595210 0.647854 0.461847
O O9 0.637248 0.848468 0.218408
O O10 0.534896 0.495811 0.168968
O O11 0.500000 0.000000 0.500000
O O12 0.940286 0.027042 0.795455
O O13 0.000000 0.500000 0.000000
O O14 0.000000 0.000000 0.000000
O O15 0.384876 0.898576 0.225645
O O16 0.346908 0.853134 0.940257
O O17 0.000000 0.500000 0.500000
O O18 0.000000 0.000000 0.500000
O O19 0.500000 0.000000 0.000000
#
# Coordination Sequence:
#
# PCOD9045997 Si02
#       8
#     2   2   2   2   2   2   2   2
#     4  11  23  44  71  95 140 182 230 293 355 422
#     4  11  23  43  71  97 138 181 231 295 353 421
#     4  11  24  43  69  98 137 181 226 284 349 427
#     4  12  27  47  72 106 146 192 245 300 361 431
#     4  10  24  42  66 101 133 179 229 287 354 421
#     4  10  24  43  66 104 135 175 236 284 354 419
#     4  12  25  46  73 106 143 191 246 296 361 433
#     4  11  24  43  68 101 136 177 229 287 346 425
#
# _framework density 24.321451
#
# number of rings (size 3 to 8) (size 9 to 14) (size 15 to 20)
#    0.000    1.000    1.250    4.500    1.750    8.000 
#    9.000    0.000    0.000    0.000    0.000    0.000 
#    0.000    0.000    0.000    0.000    0.000    0.000 
#
# Total GULP energy -89280.445067 kJ/mol
# GULP energy per Si atom -5580.027817 kJ/mol
# Density = 2.426609 g / cm^3
# Si number density = 24.321451 Si / 1000 Ang^3
#
#
#
# Elastic Constant Matrix: (Units=GPa)
#
#
# Indices 1 2 3 4 5 6 
#
# 1 77.9113 8.2510 18.3035 13.9348 -10.4740 6.1836
# 2 8.2510 87.9705 30.3306 24.5459 -16.1044 8.7168
# 3 18.3035 30.3306 143.0775 20.9301 -16.8827 1.3423
# 4 13.9348 24.5459 20.9301 51.7149 -0.2475 2.0225
# 5 -10.4740 -16.1044 -16.8827 -0.2475 44.6455 -2.6659
# 6 6.1836 8.7168 1.3423 2.0225 -2.6659 33.6018
#
#
#
# Elastic Compliance Matrix: (Units=1/GPa)
#
#
# Indices 1 2 3 4 5 6 
#
# 1 0.014262 0.000867 -0.001079 -0.003712 0.003091 -0.002338
# 2 0.000867 0.014852 -0.001736 -0.006433 0.004678 -0.003185
# 3 -0.001079 -0.001736 0.008065 -0.002163 0.002196 0.000631
# 4 -0.003712 -0.006433 -0.002163 0.024221 -0.003835 0.000676
# 5 0.003091 0.004678 0.002196 -0.003835 0.025644 0.000395
# 6 -0.002338 -0.003185 0.000631 0.000676 0.000395 0.030982
#
#
# Mechanical properties :
#
#
# Convention : Reuss Voigt Hill
#
# Bulk Modulus (GPa) = 30.04540 46.96994 38.50767
# Shear Modulus (GPa) = 37.58962 42.79739 40.19350
#
# Velocity S-wave (km/s) = 3.93559 4.19938 4.06962
# Velocity P-wave (km/s) = 5.74736 6.54730 6.16033
#
# Compressibility (1/GPa) = 0.03328297
#
# Stress axis : x y z
#
# Youngs Moduli (GPa) = 70.11858 67.33186 123.99278
#
# Poissons Ratio (x) = -0.05840 0.13375
# Poissons Ratio (y) = -0.06082 0.21530
# Poissons Ratio (z) = 0.07564 0.11691
#
# Static dielectric constant tensor:
#      x y z
#    x 2.008330 -0.041730 -0.043640 
#    y -0.041730 1.949120 0.042660 
#    z -0.043640 0.042660 1.887290 
# 
# From -- ./inp_files/324078.got.cif
#   From: 2010.05.17/outbox.cif.g08.bks.cpg/sg2_163_cif.got.tgz:324078.got - 2010.06.03 11:33:40.
