data_PCOD9045983
_publ_section_title
;
Structure prediction by ZEFSAII (Michael W. Deem and Ramdas Pophale) SiO2 
 PCOD9045983
Probable space group: P -1
;
_chemical_formula_sum "Si O2"
_cell_formula_units_Z 16
_cell_length_a 14.578987
_cell_length_b 12.571562
_cell_length_c 12.507174
_cell_angle_alpha 55.703604
_cell_angle_beta 103.483405
_cell_angle_gamma 149.593302
_cell_volume 763.468648
_symmetry_space_group_name_H-M "P -1"
_symmetry_group_IT_number 2
_symmetry_cell_setting 'triclinic'
loop_
_space_group_symop_operation_xyz
x,y,z
-x,-y,-z
loop_
_atom_site_type_symbol
_atom_site_label
_atom_site_fract_x
_atom_site_fract_y
_atom_site_fract_z
Si Si1 0.572295 0.383405 0.328972
Si Si2 0.725745 0.183940 0.328151
Si Si3 0.497359 0.876245 0.220119
Si Si4 0.132200 0.293067 0.159975
Si Si5 0.328590 0.405165 0.523325
Si Si6 0.039065 0.251520 0.912596
Si Si7 0.838514 0.411758 0.863756
Si Si8 0.480536 0.433800 0.909156
O O1 0.640019 0.503586 0.399509
O O2 0.796029 0.632727 0.179274
O O3 0.449931 0.354853 0.261002
O O4 0.415000 0.061346 0.478115
O O5 0.859540 0.479116 0.225416
O O6 0.912273 0.314767 0.261208
O O7 0.563108 0.005302 0.283117
O O8 0.393421 0.604979 0.352714
O O9 0.321250 0.753986 0.186010
O O10 0.721459 0.155487 0.048290
O O11 0.164646 0.466845 0.131486
O O12 0.355993 0.483594 0.113176
O O13 0.061769 0.237021 0.050357
O O14 0.927104 0.961902 0.347940
O O15 0.500000 0.500000 0.500000
O O16 0.779148 0.920948 0.991615
O O17 0.500000 0.500000 0.000000
#
# Coordination Sequence:
#
# PCOD9045983 Si02
#       8
#     2   2   2   2   2   2   2   2
#     4  11  24  47  67 100 139 171 228 279 336 397
#     4  11  25  44  72  96 136 179 222 278 339 396
#     4  10  24  42  65  97 141 168 223 274 334 392
#     4  12  25  42  71 102 136 178 228 273 335 404
#     4  11  25  43  71 101 138 180 218 277 345 396
#     4  12  25  46  72  98 131 185 224 275 337 402
#     4  11  25  42  68 100 137 177 223 278 331 399
#     4  12  26  44  71  99 134 180 226 275 336 401
#
# _framework density 20.956983999999999
#
# number of rings (size 3 to 8) (size 9 to 14) (size 15 to 20)
#    0.000    0.750    3.750    3.375    8.750    0.500 
#    0.000    0.625    0.000    0.000    0.000    0.000 
#    0.000    0.000    0.000    0.000    0.000    0.000 
#
# Total GULP energy -89578.806557 kJ/mol
# GULP energy per Si atom -5598.675410 kJ/mol
# Density = 2.090928 g / cm^3
# Si number density = 20.956984 Si / 1000 Ang^3
#
#
#
# Elastic Constant Matrix: (Units=GPa)
#
#
# Indices 1 2 3 4 5 6 
#
# 1 110.5699 33.1089 29.5359 -12.4859 -10.9298 1.8317
# 2 33.1089 106.2637 37.6589 -7.7400 2.3737 9.7646
# 3 29.5359 37.6589 129.2263 -22.4692 21.2799 5.7443
# 4 -12.4859 -7.7400 -22.4692 30.2463 -2.5772 3.3804
# 5 -10.9298 2.3737 21.2799 -2.5772 38.6195 -3.6658
# 6 1.8317 9.7646 5.7443 3.3804 -3.6658 26.2651
#
#
#
# Elastic Compliance Matrix: (Units=1/GPa)
#
#
# Indices 1 2 3 4 5 6 
#
# 1 0.011187 -0.002739 -0.002137 0.002622 0.004785 0.001036
# 2 -0.002739 0.011496 -0.002416 0.000386 -0.000473 -0.003670
# 3 -0.002137 -0.002416 0.011318 0.006708 -0.006549 -0.003206
# 4 0.002622 0.000386 0.006708 0.039932 -0.000984 -0.007070
# 5 0.004785 -0.000473 -0.006549 -0.000984 0.031369 0.005779
# 6 0.001036 -0.003670 -0.003206 -0.007070 0.005779 0.041783
#
#
# Mechanical properties :
#
#
# Convention : Reuss Voigt Hill
#
# Bulk Modulus (GPa) = 51.50072 60.74079 56.12076
# Shear Modulus (GPa) = 29.73676 35.40994 32.57335
#
# Velocity S-wave (km/s) = 3.77097 4.11499 3.94673
# Velocity P-wave (km/s) = 6.60213 7.18499 6.89972
#
# Compressibility (1/GPa) = 0.01941720
#
# Stress axis : x y z
#
# Youngs Moduli (GPa) = 89.38930 86.98519 88.35453
#
# Poissons Ratio (x) = 0.23829 0.18879
# Poissons Ratio (y) = 0.24488 0.21345
# Poissons Ratio (z) = 0.19100 0.21014
#
# Static dielectric constant tensor:
#      x y z
#    x 1.731890 -0.008580 0.021550 
#    y -0.008580 1.767400 -0.023400 
#    z 0.021550 -0.023400 1.775790 
# 
# From -- ./inp_files/452218.got.cif
#   From: 2010.05.17/outbox.cif.g08.bks.cpg/sg2_227_cif.got.tgz:452218.got - 2010.06.03 11:33:40.
