data_PCOD9045745
_publ_section_title
;
Structure prediction by ZEFSAII (Michael W. Deem and Ramdas Pophale) SiO2 
 PCOD9045745
Probable space group: P -1
;
_chemical_formula_sum "Si O2"
_cell_formula_units_Z 16
_cell_length_a 10.072825
_cell_length_b 9.022317
_cell_length_c 13.502700
_cell_angle_alpha 53.158904
_cell_angle_beta 105.885827
_cell_angle_gamma 73.766937
_cell_volume 771.876616
_symmetry_space_group_name_H-M "P -1"
_symmetry_group_IT_number 2
_symmetry_cell_setting 'triclinic'
loop_
_space_group_symop_operation_xyz
x,y,z
-x,-y,-z
loop_
_atom_site_type_symbol
_atom_site_label
_atom_site_fract_x
_atom_site_fract_y
_atom_site_fract_z
Si Si1 0.008847 0.299514 0.140050
Si Si2 0.457098 0.380761 0.459698
Si Si3 0.786923 0.277659 0.255478
Si Si4 0.981604 0.253964 0.499083
Si Si5 0.561743 0.532607 0.804052
Si Si6 0.627884 0.898742 0.659423
Si Si7 0.084175 0.942025 0.932857
Si Si8 0.906205 0.415536 0.633047
O O1 0.180545 0.183496 0.286304
O O2 0.852777 0.373130 0.149995
O O3 0.013776 0.125753 0.132776
O O4 0.000000 0.500000 0.000000
O O5 0.500000 0.500000 0.500000
O O6 0.506895 0.398008 0.351145
O O7 0.256709 0.502696 0.367828
O O8 0.546406 0.123395 0.617712
O O9 0.865612 0.276245 0.377190
O O10 0.588191 0.411557 0.176879
O O11 0.874030 0.013746 0.351109
O O12 0.879985 0.366436 0.534805
O O13 0.059666 0.393637 0.434691
O O14 0.623219 0.693176 0.778744
O O15 0.723075 0.274716 0.941042
O O16 0.500000 0.000000 0.500000
O O17 0.060083 0.170477 0.799945
O O18 0.000000 0.000000 0.000000
#
# Coordination Sequence:
#
# PCOD9045745 Si02
#       8
#     2   2   2   2   2   2   2   2
#     4  12  26  47  71 104 138 189 230 276 357 425
#     4  11  22  37  67  97 138 175 234 287 338 402
#     4  11  25  43  71  97 139 172 233 293 344 407
#     4  10  24  41  68  97 133 177 227 290 355 398
#     4  11  24  43  64 103 134 182 230 287 344 404
#     4  10  24  41  68 102 136 174 236 282 338 405
#     4  12  25  45  71  96 142 187 232 280 347 422
#     4  11  22  43  64  98 134 183 228 281 350 412
#
# _framework density 20.728701999999998
#
# number of rings (size 3 to 8) (size 9 to 14) (size 15 to 20)
#    0.000    1.000    3.750    2.250   12.250    0.500 
#    0.000    0.625    0.000    0.000    0.000    0.000 
#    0.000    0.000    0.000    0.000    0.000    0.000 
#
# Total GULP energy -89407.522357 kJ/mol
# GULP energy per Si atom -5587.970147 kJ/mol
# Density = 2.068152 g / cm^3
# Si number density = 20.728702 Si / 1000 Ang^3
#
#
#
# Elastic Constant Matrix: (Units=GPa)
#
#
# Indices 1 2 3 4 5 6 
#
# 1 138.6063 49.9978 44.6178 -10.6582 -1.4786 -21.0034
# 2 49.9978 91.8712 16.0044 -9.3411 -7.1400 -0.5540
# 3 44.6178 16.0044 81.9975 -19.9563 -12.9017 -6.1485
# 4 -10.6582 -9.3411 -19.9563 39.8765 4.5623 -0.4010
# 5 -1.4786 -7.1400 -12.9017 4.5623 32.1077 -6.0357
# 6 -21.0034 -0.5540 -6.1485 -0.4010 -6.0357 32.2634
#
#
#
# Elastic Compliance Matrix: (Units=1/GPa)
#
#
# Indices 1 2 3 4 5 6 
#
# 1 0.011848 -0.005673 -0.005243 -0.000544 -0.001558 0.006318
# 2 -0.005673 0.014179 0.000986 0.001986 0.002485 -0.002772
# 3 -0.005243 0.000986 0.017631 0.006944 0.006307 0.001229
# 4 -0.000544 0.001986 0.006944 0.028962 -0.000676 0.001236
# 5 -0.001558 0.002485 0.006307 -0.000676 0.035548 0.006872
# 6 0.006318 -0.002772 0.001229 0.001236 0.006872 0.036596
#
#
# Mechanical properties :
#
#
# Convention : Reuss Voigt Hill
#
# Bulk Modulus (GPa) = 42.02325 59.30168 50.66247
# Shear Modulus (GPa) = 28.97625 34.30651 31.64138
#
# Velocity S-wave (km/s) = 3.74288 4.07261 3.91122
# Velocity P-wave (km/s) = 6.24467 7.12639 6.70005
#
# Compressibility (1/GPa) = 0.02379635
#
# Stress axis : x y z
#
# Youngs Moduli (GPa) = 84.40487 70.52917 56.71937
#
# Poissons Ratio (x) = 0.40008 0.29740
# Poissons Ratio (y) = 0.47879 -0.05591
# Poissons Ratio (z) = 0.44257 -0.06953
#
# Static dielectric constant tensor:
#      x y z
#    x 1.737320 -0.000170 -0.009260 
#    y -0.000170 1.754390 0.012410 
#    z -0.009260 0.012410 1.790180 
# 
# From -- ./inp_files/272686.got.cif
#   From: 2010.05.17/outbox.cif.g08.bks.cpg/sg2_137_cif.got.tgz:272686.got - 2010.06.03 11:33:40.
