data_PCOD9045592
_publ_section_title
;
Structure prediction by ZEFSAII (Michael W. Deem and Ramdas Pophale) SiO2 
 PCOD9045592
Probable space group: P -1
;
_chemical_formula_sum "Si O2"
_cell_formula_units_Z 12
_cell_length_a 14.729555
_cell_length_b 23.009818
_cell_length_c 11.317267
_cell_angle_alpha 24.676133
_cell_angle_beta 28.545057
_cell_angle_gamma 17.712495
_cell_volume 484.705150
_symmetry_space_group_name_H-M "P -1"
_symmetry_group_IT_number 2
_symmetry_cell_setting 'triclinic'
loop_
_space_group_symop_operation_xyz
x,y,z
-x,-y,-z
loop_
_atom_site_type_symbol
_atom_site_label
_atom_site_fract_x
_atom_site_fract_y
_atom_site_fract_z
Si Si1 0.338168 0.682908 0.141213
Si Si2 0.886132 0.790404 0.621854
Si Si3 0.702731 0.202475 0.622654
Si Si4 0.377140 0.293958 0.061857
Si Si5 0.172053 0.742442 0.956149
Si Si6 0.428008 0.999528 0.950435
O O1 0.601744 0.416830 0.329438
O O2 0.480179 0.748636 0.897167
O O3 0.108797 0.774268 0.339483
O O4 0.177205 0.753638 0.070772
O O5 0.641557 0.958916 0.689480
O O6 0.101019 0.555144 0.874168
O O7 0.737421 0.793548 0.675852
O O8 0.599936 0.209036 0.857323
O O9 0.518430 0.198488 0.759224
O O10 0.049434 0.965116 0.645451
O O11 0.500000 0.500000 0.000000
O O12 0.913136 0.796506 0.088709
O O13 0.500000 0.000000 0.000000
#
# Coordination Sequence:
#
# PCOD9045592 Si02
#       6
#     2   2   2   2   2   2
#     4  11  21  39  71  94 127 168 211 267 329 373
#     4   9  18  36  64  97 126 161 219 262 309 394
#     4   8  19  39  59  94 125 162 218 247 317 389
#     4   9  18  35  64  98 127 161 208 266 324 371
#     4  10  24  41  60  95 132 167 218 266 310 386
#     4   9  20  40  64  87 134 173 204 267 323 366
#
# _framework density 24.75732
#
# number of rings (size 3 to 8) (size 9 to 14) (size 15 to 20)
#    1.000    1.667    0.000    3.000    2.333    2.000 
#    0.000    0.833    0.000    0.000    0.000    0.000 
#    0.000    0.000    0.000    0.000    0.000    0.000 
#
# Total GULP energy -66987.876850 kJ/mol
# GULP energy per Si atom -5582.323071 kJ/mol
# Density = 2.470097 g / cm^3
# Si number density = 24.757320 Si / 1000 Ang^3
#
#
#
# Elastic Constant Matrix: (Units=GPa)
#
#
# Indices 1 2 3 4 5 6 
#
# 1 225.1546 58.8155 43.8279 28.1100 -44.1325 -1.2676
# 2 58.8155 184.6777 19.8781 1.3814 10.0076 -14.3182
# 3 43.8279 19.8781 40.6114 16.0966 -20.2326 5.7557
# 4 28.1100 1.3814 16.0966 30.7749 11.0035 6.3471
# 5 -44.1325 10.0076 -20.2326 11.0035 15.6909 -0.7480
# 6 -1.2676 -14.3182 5.7557 6.3471 -0.7480 27.0826
#
#
#
# Elastic Compliance Matrix: (Units=1/GPa)
#
#
# Indices 1 2 3 4 5 6 
#
# 1 0.003787 0.000786 -0.012582 0.006593 -0.010629 0.001428
# 2 0.000786 0.004569 0.003858 -0.007015 0.009358 0.003535
# 3 -0.012582 0.003858 0.012795 0.018305 -0.034498 -0.006511
# 4 0.006593 -0.007015 0.018305 0.002724 0.044391 -0.006703
# 5 -0.010629 0.009358 -0.034498 0.044391 -0.047743 0.000060
# 6 0.001428 0.003535 -0.006511 -0.006703 0.000060 0.041816
#
#
# Mechanical properties :
#
#
# Convention : Reuss Voigt Hill
#
# Bulk Modulus (GPa) = 189.65571 77.27629 133.46600
# Shear Modulus (GPa) = 140.51538 36.57116 88.54327
#
# Velocity S-wave (km/s) = 7.54190 3.84759 5.98683
# Velocity P-wave (km/s) = 12.35365 7.14282 10.09040
#
# Compressibility (1/GPa) = 0.00527271
#
# Stress axis : x y z
#
# Youngs Moduli (GPa) = 264.06467 218.87322 78.15627
#
# Poissons Ratio (x) = -0.17196 0.98338
# Poissons Ratio (y) = -0.20746 -0.30150
# Poissons Ratio (z) = 3.32252 -0.84433
#
# Static dielectric constant tensor:
#      x y z
#    x 1.998960 -0.005290 0.000040 
#    y -0.005290 2.026800 -0.032150 
#    z 0.000040 -0.032150 1.972170 
# 
# From -- ./inp_files/458003.got.cif
#   From: 2010.05.17/outbox.cif.g08.bks.cpg/sg2_230_cif.got.tgz:458003.got - 2010.06.03 11:33:40.
