data_PCOD9045038
_publ_section_title
;
Structure prediction by ZEFSAII (Michael W. Deem and Ramdas Pophale) SiO2 
 PCOD9045038
Probable space group: P -1
;
_chemical_formula_sum "Si O2"
_cell_formula_units_Z 16
_cell_length_a 5.463112
_cell_length_b 17.886975
_cell_length_c 9.781046
_cell_angle_alpha 63.242860
_cell_angle_beta 121.669926
_cell_angle_gamma 120.919682
_cell_volume 676.213390
_symmetry_space_group_name_H-M "P -1"
_symmetry_group_IT_number 2
_symmetry_cell_setting 'triclinic'
loop_
_space_group_symop_operation_xyz
x,y,z
-x,-y,-z
loop_
_atom_site_type_symbol
_atom_site_label
_atom_site_fract_x
_atom_site_fract_y
_atom_site_fract_z
Si Si1 0.831484 0.691617 0.301491
Si Si2 0.786705 0.414757 0.341401
Si Si3 0.908013 0.895872 0.517882
Si Si4 0.754968 0.122309 0.644479
Si Si5 0.609298 0.673810 0.955071
Si Si6 0.364842 0.031353 0.065931
Si Si7 0.778055 0.216119 0.122761
Si Si8 0.632492 0.423714 0.566690
O O1 0.514078 0.665350 0.315126
O O2 0.029345 0.647556 0.491419
O O3 0.027123 0.796848 0.263629
O O4 0.715185 0.649667 0.153733
O O5 0.627545 0.395054 0.164334
O O6 0.541513 0.399007 0.403873
O O7 0.012576 0.518428 0.342362
O O8 0.545775 0.851350 0.490970
O O9 0.026603 0.889170 0.403452
O O10 0.081010 0.841343 0.694124
O O11 0.000000 0.000000 0.500000
O O12 0.588879 0.026265 0.746380
O O13 0.414339 0.735860 0.889186
O O14 0.930699 0.720506 0.930197
O O15 0.527148 0.137849 0.027440
O O16 0.500000 0.000000 0.000000
O O17 0.000000 0.000000 0.000000
O O18 0.500000 0.500000 0.500000
#
# Coordination Sequence:
#
# PCOD9045038 Si02
#       8
#     2   2   2   2   2   2   2   2
#     4  11  25  45  72 109 145 189 242 296 365 435
#     4  10  23  48  75 107 144 192 235 295 367 433
#     4  12  25  44  69  99 134 194 249 303 364 421
#     4  12  26  41  70 100 138 188 245 298 362 426
#     4  12  29  45  76 109 150 190 242 304 362 432
#     4  12  25  43  65  90 139 191 237 297 358 412
#     4  12  26  46  65 104 144 186 248 299 356 431
#     4   9  22  45  77 106 144 188 237 291 361 442
#
# _framework density 23.661168
#
# number of rings (size 3 to 8) (size 9 to 14) (size 15 to 20)
#    0.000    0.750    1.250    5.625   10.500    0.500 
#    0.000    5.625    0.000    0.000    0.000    0.000 
#    0.000    0.000    0.000    0.000    0.000    0.000 
#
# Total GULP energy -89231.806816 kJ/mol
# GULP energy per Si atom -5576.987926 kJ/mol
# Density = 2.360731 g / cm^3
# Si number density = 23.661168 Si / 1000 Ang^3
#
#
#
# Elastic Constant Matrix: (Units=GPa)
#
#
# Indices 1 2 3 4 5 6 
#
# 1 126.4840 38.4204 34.0545 15.4433 4.5354 -11.2936
# 2 38.4204 64.1204 21.1919 21.0737 11.7477 7.2383
# 3 34.0545 21.1919 84.2634 24.2355 10.3406 2.6888
# 4 15.4433 21.0737 24.2355 40.1605 -7.2323 -3.4735
# 5 4.5354 11.7477 10.3406 -7.2323 48.5114 -2.9669
# 6 -11.2936 7.2383 2.6888 -3.4735 -2.9669 44.2207
#
#
#
# Elastic Compliance Matrix: (Units=1/GPa)
#
#
# Indices 1 2 3 4 5 6 
#
# 1 0.011141 -0.007176 -0.003863 0.002605 0.002190 0.004606
# 2 -0.007176 0.026619 0.001719 -0.014524 -0.008798 -0.008026
# 3 -0.003863 0.001719 0.016928 -0.010929 -0.005508 -0.003525
# 4 0.002605 -0.014524 -0.010929 0.040979 0.012186 0.007744
# 5 0.002190 -0.008798 -0.005508 0.012186 0.025838 0.005025
# 6 0.004606 -0.008026 -0.003525 0.007744 0.005025 0.026264
#
#
# Mechanical properties :
#
#
# Convention : Reuss Voigt Hill
#
# Bulk Modulus (GPa) = 27.74122 51.35570 39.54846
# Shear Modulus (GPa) = 28.02310 38.65858 33.34084
#
# Velocity S-wave (km/s) = 3.44517 4.04646 3.75786
# Velocity P-wave (km/s) = 5.25123 6.60179 5.96486
#
# Compressibility (1/GPa) = 0.03604744
#
# Stress axis : x y z
#
# Youngs Moduli (GPa) = 89.76168 37.56745 59.07298
#
# Poissons Ratio (x) = 0.26959 0.22818
# Poissons Ratio (y) = 0.64415 -0.10153
# Poissons Ratio (z) = 0.34672 -0.06457
#
# Static dielectric constant tensor:
#      x y z
#    x 2.045140 0.009360 0.065750 
#    y 0.009360 1.886410 -0.002200 
#    z 0.065750 -0.002200 2.035420 
# 
# From -- ./inp_files/138905.got.cif
#   From: 2010.05.17/outbox.cif.g08.bks.cpg/sg2_70_cif.got.tgz:138905.got - 2010.06.03 11:33:40.
