data_PCOD9045013
_publ_section_title
;
Structure prediction by ZEFSAII (Michael W. Deem and Ramdas Pophale) SiO2 
 PCOD9045013
Probable space group: P -1
;
_chemical_formula_sum "Si O2"
_cell_formula_units_Z 12
_cell_length_a 9.268084
_cell_length_b 9.035976
_cell_length_c 14.168620
_cell_angle_alpha 124.736242
_cell_angle_beta 37.994662
_cell_angle_gamma 138.807836
_cell_volume 480.265938
_symmetry_space_group_name_H-M "P -1"
_symmetry_group_IT_number 2
_symmetry_cell_setting 'triclinic'
loop_
_space_group_symop_operation_xyz
x,y,z
-x,-y,-z
loop_
_atom_site_type_symbol
_atom_site_label
_atom_site_fract_x
_atom_site_fract_y
_atom_site_fract_z
Si Si1 0.344447 0.463890 0.715118
Si Si2 0.758123 0.531918 0.683453
Si Si3 0.767134 0.011432 0.408365
Si Si4 0.351306 0.075409 0.355447
Si Si5 0.336194 0.118819 0.888360
Si Si6 0.709942 0.186067 0.882597
O O1 0.538961 0.553893 0.741608
O O2 0.302513 0.229959 0.647233
O O3 0.544874 0.672455 0.616190
O O4 0.013417 0.386560 0.846849
O O5 0.546207 0.318368 0.779958
O O6 0.000000 0.500000 0.500000
O O7 0.965185 0.780491 0.710711
O O8 0.815829 0.058448 0.512717
O O9 0.500000 0.000000 0.500000
O O10 0.639643 0.085231 0.214091
O O11 0.204553 0.924786 0.282243
O O12 0.506168 0.223726 0.938812
O O13 0.000000 0.000000 0.000000
O O14 0.500000 0.000000 0.000000
#
# Coordination Sequence:
#
# PCOD9045013 Si02
#       6
#     2   2   2   2   2   2
#     4  12  25  43  72 104 151 188 240 297 369 423
#     4  12  23  45  71 107 149 188 240 305 353 437
#     4  12  25  43  73 108 148 193 237 294 375 430
#     4  10  25  44  71 106 145 181 246 299 354 434
#     4  10  23  48  73 101 145 187 242 298 361 424
#     4  10  24  46  72 103 141 192 245 293 367 426
#
# _framework density 24.986158
#
# number of rings (size 3 to 8) (size 9 to 14) (size 15 to 20)
#    1.000    0.000    3.333    2.500    2.333    6.000 
#    3.000    0.833    0.000    0.000    0.000    0.000 
#    0.000    0.000    0.000    0.000    0.000    0.000 
#
# Total GULP energy -66887.248928 kJ/mol
# GULP energy per Si atom -5573.937411 kJ/mol
# Density = 2.492929 g / cm^3
# Si number density = 24.986158 Si / 1000 Ang^3
#
#
#
# Elastic Constant Matrix: (Units=GPa)
#
#
# Indices 1 2 3 4 5 6 
#
# 1 165.0110 36.3091 80.9384 -35.3162 -36.8889 -11.5138
# 2 36.3091 142.9063 33.1664 -29.3576 -13.6770 -24.7349
# 3 80.9384 33.1664 115.5885 -37.3239 -39.6997 -4.5651
# 4 -35.3162 -29.3576 -37.3239 51.6388 1.9717 -0.2870
# 5 -36.8889 -13.6770 -39.6997 1.9717 54.2015 -6.4076
# 6 -11.5138 -24.7349 -4.5651 -0.2870 -6.4076 47.8824
#
#
#
# Elastic Compliance Matrix: (Units=1/GPa)
#
#
# Indices 1 2 3 4 5 6 
#
# 1 0.010019 -0.000005 -0.004554 0.003432 0.003650 0.002482
# 2 -0.000005 0.009220 0.000332 0.005394 0.002988 0.005226
# 3 -0.004554 0.000332 0.018829 0.010289 0.010680 0.002362
# 4 0.003432 0.005394 0.010289 0.031837 0.010811 0.006230
# 5 0.003650 0.002988 0.010680 0.010811 0.030007 0.007520
# 6 0.002482 0.005226 0.002362 0.006230 0.007520 0.025450
#
#
# Mechanical properties :
#
#
# Convention : Reuss Voigt Hill
#
# Bulk Modulus (GPa) = 33.76772 80.48151 57.12461
# Shear Modulus (GPa) = 34.79801 48.95065 41.87433
#
# Velocity S-wave (km/s) = 3.73593 4.43099 4.09822
# Velocity P-wave (km/s) = 5.67040 7.64582 6.73097
#
# Compressibility (1/GPa) = 0.02961408
#
# Stress axis : x y z
#
# Youngs Moduli (GPa) = 99.81244 108.45741 53.10981
#
# Poissons Ratio (x) = 0.00051 0.24187
# Poissons Ratio (y) = 0.00046 -0.01763
# Poissons Ratio (z) = 0.45456 -0.03600
#
# Static dielectric constant tensor:
#      x y z
#    x 2.016240 0.058710 0.033070 
#    y 0.058710 1.992140 0.115790 
#    z 0.033070 0.115790 2.058780 
# 
# From -- ./inp_files/555414.got.cif
#   From: 2010.05.17/outbox.cif.g08.bks.cpg/sg2_278_cif.got.tgz:555414.got - 2010.06.03 11:33:40.
