data_PCOD9045910
_publ_section_title
;
Structure prediction by ZEFSAII (Michael W. Deem and Ramdas Pophale) SiO2 
 PCOD9045910
Probable space group: P -1
;
_chemical_formula_sum "Si O2"
_cell_formula_units_Z 16
_cell_length_a 6.179631
_cell_length_b 20.104921
_cell_length_c 8.306529
_cell_angle_alpha 59.862656
_cell_angle_beta 54.544446
_cell_angle_gamma 68.366603
_cell_volume 722.602325
_symmetry_space_group_name_H-M "P -1"
_symmetry_group_IT_number 2
_symmetry_cell_setting 'triclinic'
loop_
_space_group_symop_operation_xyz
x,y,z
-x,-y,-z
loop_
_atom_site_type_symbol
_atom_site_label
_atom_site_fract_x
_atom_site_fract_y
_atom_site_fract_z
Si Si1 0.647662 0.843607 0.322190
Si Si2 0.549799 0.588705 0.886349
Si Si3 0.084074 0.533102 0.593842
Si Si4 0.693186 0.785518 0.006688
Si Si5 0.259551 0.739954 0.782220
Si Si6 0.388651 0.390131 0.791290
Si Si7 0.271044 0.964467 0.526153
Si Si8 0.809431 0.158461 0.022320
O O1 0.664289 0.821333 0.153907
O O2 0.510533 0.778946 0.559205
O O3 0.460770 0.919855 0.362417
O O4 0.963228 0.849056 0.203030
O O5 0.321870 0.649356 0.836339
O O6 0.835583 0.592342 0.679819
O O7 0.500000 0.500000 0.000000
O O8 0.579441 0.610825 0.030738
O O9 0.151786 0.456497 0.766097
O O10 0.344325 0.577681 0.427860
O O11 0.000000 0.500000 0.500000
O O12 0.640689 0.695578 0.153560
O O13 0.478848 0.839037 0.933333
O O14 0.974381 0.778552 0.797084
O O15 0.212835 0.760428 0.966911
O O16 0.155361 0.906324 0.776061
O O17 0.500000 0.000000 0.500000
O O18 0.000000 0.000000 0.500000
#
# Coordination Sequence:
#
# PCOD9045910 Si02
#       8
#     2   2   2   2   2   2   2   2
#     4  10  26  44  74 105 143 187 237 283 361 421
#     4  12  23  40  65  87 135 180 232 294 365 415
#     4  11  25  41  63  89 132 171 245 293 366 427
#     4  11  24  42  72  98 142 177 244 292 355 426
#     4  10  24  42  64 100 139 184 236 296 360 422
#     4  11  25  42  61  96 125 183 230 302 357 427
#     4  11  28  50  80 114 158 191 239 295 361 441
#     4  10  24  47  72 105 142 189 235 290 351 432
#
# _framework density 22.142194
#
# number of rings (size 3 to 8) (size 9 to 14) (size 15 to 20)
#    0.000    1.250    2.500    1.125   10.500    3.000 
#    0.000    0.000    0.000    0.000    0.000    0.000 
#    0.000    0.000    0.000    0.000    0.000    0.000 
#
# Total GULP energy -89173.089521 kJ/mol
# GULP energy per Si atom -5573.318095 kJ/mol
# Density = 2.209180 g / cm^3
# Si number density = 22.142194 Si / 1000 Ang^3
#
#
#
# Elastic Constant Matrix: (Units=GPa)
#
#
# Indices 1 2 3 4 5 6 
#
# 1 84.8145 50.8462 22.9935 5.6927 -11.9839 -23.9254
# 2 50.8462 127.4875 48.2822 20.2477 -8.5153 -14.7044
# 3 22.9935 48.2822 102.3464 22.6883 -29.1534 -22.6032
# 4 5.6927 20.2477 22.6883 27.4602 -4.6679 -13.3465
# 5 -11.9839 -8.5153 -29.1534 -4.6679 34.5435 3.0453
# 6 -23.9254 -14.7044 -22.6032 -13.3465 3.0453 44.9476
#
#
#
# Elastic Compliance Matrix: (Units=1/GPa)
#
#
# Indices 1 2 3 4 5 6 
#
# 1 0.019289 -0.007855 0.002099 0.006074 0.006456 0.010120
# 2 -0.007855 0.013210 -0.005152 -0.006594 -0.004345 -0.004113
# 3 0.002099 -0.005152 0.018334 -0.006692 0.013520 0.005749
# 4 0.006074 -0.006594 -0.006692 0.052044 0.000710 0.013116
# 5 0.006456 -0.004345 0.013520 0.000710 0.041074 0.006242
# 6 0.010120 -0.004113 0.005749 0.013116 0.006242 0.032652
#
#
# Mechanical properties :
#
#
# Convention : Reuss Voigt Hill
#
# Bulk Modulus (GPa) = 34.45982 62.09912 48.27947
# Shear Modulus (GPa) = 24.02808 34.22535 29.12671
#
# Velocity S-wave (km/s) = 3.29777 3.93581 3.63083
# Velocity P-wave (km/s) = 5.48608 6.98288 6.27924
#
# Compressibility (1/GPa) = 0.02901930
#
# Stress axis : x y z
#
# Youngs Moduli (GPa) = 51.84206 75.69946 54.54422
#
# Poissons Ratio (x) = 0.59458 -0.11450
# Poissons Ratio (y) = 0.40719 0.28099
# Poissons Ratio (z) = -0.10883 0.38998
#
# Static dielectric constant tensor:
#      x y z
#    x 1.992390 -0.026300 -0.069700 
#    y -0.026300 1.834290 -0.023430 
#    z -0.069700 -0.023430 1.813810 
# 
# From -- ./inp_files/120134.got.cif
#   From: 2010.05.17/outbox.cif.g08.bks.cpg/sg2_61_cif.got.tgz:120134.got - 2010.06.03 11:33:40.
