data_PCOD9045375
_publ_section_title
;
Structure prediction by ZEFSAII (Michael W. Deem and Ramdas Pophale) SiO2 
 PCOD9045375
Probable space group: P -1
;
_chemical_formula_sum "Si O2"
_cell_formula_units_Z 10
_cell_length_a 11.319073
_cell_length_b 7.977079
_cell_length_c 5.977251
_cell_angle_alpha 120.971527
_cell_angle_beta 71.103455
_cell_angle_gamma 103.407403
_cell_volume 436.398201
_symmetry_space_group_name_H-M "P -1"
_symmetry_group_IT_number 2
_symmetry_cell_setting 'triclinic'
loop_
_space_group_symop_operation_xyz
x,y,z
-x,-y,-z
loop_
_atom_site_type_symbol
_atom_site_label
_atom_site_fract_x
_atom_site_fract_y
_atom_site_fract_z
Si Si1 0.999849 0.690994 0.894757
Si Si2 0.453128 0.665837 0.802080
Si Si3 0.600537 0.968134 0.221156
Si Si4 0.809718 0.372562 0.905460
Si Si5 0.861437 0.026730 0.346755
O O1 0.117892 0.609854 0.890580
O O2 0.935396 0.835934 0.208067
O O3 0.892975 0.519499 0.795010
O O4 0.046725 0.823464 0.750571
O O5 0.500000 0.500000 0.500000
O O6 0.404346 0.842437 0.804980
O O7 0.332664 0.580073 0.956002
O O8 0.556288 0.774063 0.975098
O O9 0.738300 0.963637 0.234166
O O10 0.500000 0.000000 0.500000
O O11 0.814863 0.149840 0.666095
#
# Coordination Sequence:
#
# PCOD9045375 Si02
#       5
#     2   2   2   2   2
#     4  10  24  40  63  96 124 167 204 257 318 368
#     4  11  26  43  65  95 128 168 211 261 318 372
#     4  11  24  44  66  91 128 168 213 263 313 373
#     4  11  22  43  64  92 130 161 210 261 308 375
#     4  11  22  43  66  93 125 164 211 258 312 375
#
# _framework density 22.914850999999999
#
# number of rings (size 3 to 8) (size 9 to 14) (size 15 to 20)
#    0.000    1.200    4.000    1.200    2.800    2.400 
#   14.400    0.000    0.000    0.000    0.000    0.000 
#    0.000    0.000    0.000    0.000    0.000    0.000 
#
# Total GULP energy -55953.717061 kJ/mol
# GULP energy per Si atom -5595.371706 kJ/mol
# Density = 2.286270 g / cm^3
# Si number density = 22.914851 Si / 1000 Ang^3
#
#
#
# Elastic Constant Matrix: (Units=GPa)
#
#
# Indices 1 2 3 4 5 6 
#
# 1 109.4121 35.4301 28.0196 19.9061 7.4213 25.5939
# 2 35.4301 75.4995 13.4095 12.1734 6.1285 19.4094
# 3 28.0196 13.4095 127.4938 38.4883 -8.4840 18.7411
# 4 19.9061 12.1734 38.4883 37.4458 0.3218 4.7233
# 5 7.4213 6.1285 -8.4840 0.3218 32.6491 1.9793
# 6 25.5939 19.4094 18.7411 4.7233 1.9793 33.3727
#
#
#
# Elastic Compliance Matrix: (Units=1/GPa)
#
#
# Indices 1 2 3 4 5 6 
#
# 1 0.012890 -0.003279 -0.000138 -0.004730 -0.001872 -0.007120
# 2 -0.003279 0.017310 0.001118 -0.004072 -0.001718 -0.007502
# 3 -0.000138 0.001118 0.012699 -0.012604 0.003616 -0.006107
# 4 -0.004730 -0.004072 -0.012604 0.042613 -0.002291 0.007179
# 5 -0.001872 -0.001718 0.003616 -0.002291 0.032411 -0.001194
# 6 -0.007120 -0.007502 -0.006107 0.007179 -0.001194 0.042272
#
#
# Mechanical properties :
#
#
# Convention : Reuss Voigt Hill
#
# Bulk Modulus (GPa) = 26.10915 51.79152 38.95033
# Shear Modulus (GPa) = 28.15915 36.39661 32.27788
#
# Velocity S-wave (km/s) = 3.50931 3.98972 3.75720
# Velocity P-wave (km/s) = 5.27628 6.62379 5.98806
#
# Compressibility (1/GPa) = 0.03830075
#
# Stress axis : x y z
#
# Youngs Moduli (GPa) = 77.57814 57.76946 78.74375
#
# Poissons Ratio (x) = 0.18945 0.01086
# Poissons Ratio (y) = 0.25441 -0.08801
# Poissons Ratio (z) = 0.01069 -0.06457
#
# Static dielectric constant tensor:
#      x y z
#    x 1.810100 0.015840 0.009850 
#    y 0.015840 1.874660 -0.008090 
#    z 0.009850 -0.008090 1.894750 
# 
# From -- ./inp_files/1492.got.cif
#   From: 2010.05.17/outbox.cif.g08.bks.cpg/sg2_1_cif.got.tgz:1492.got - 2010.06.03 11:33:40.
