data_PCOD9045248
_publ_section_title
;
Structure prediction by ZEFSAII (Michael W. Deem and Ramdas Pophale) SiO2 
 PCOD9045248
Probable space group: P -1
;
_chemical_formula_sum "Si O2"
_cell_formula_units_Z 14
_cell_length_a 14.602615
_cell_length_b 14.223488
_cell_length_c 8.883469
_cell_angle_alpha 29.152675
_cell_angle_beta 128.126028
_cell_angle_gamma 143.050950
_cell_volume 519.444088
_symmetry_space_group_name_H-M "P -1"
_symmetry_group_IT_number 2
_symmetry_cell_setting 'triclinic'
loop_
_space_group_symop_operation_xyz
x,y,z
-x,-y,-z
loop_
_atom_site_type_symbol
_atom_site_label
_atom_site_fract_x
_atom_site_fract_y
_atom_site_fract_z
Si Si1 0.527299 0.787126 0.878479
Si Si2 0.213145 0.857164 0.613695
Si Si3 0.336885 0.807191 0.282849
Si Si4 0.857042 0.056362 0.140074
Si Si5 0.456150 0.330267 0.346760
Si Si6 0.810680 0.578504 0.860083
Si Si7 0.992429 0.768386 0.271555
O O1 0.645044 0.968902 0.608691
O O2 0.577699 0.982191 0.790506
O O3 0.527982 0.556555 0.226625
O O4 0.338048 0.599798 0.927067
O O5 0.059214 0.736197 0.531246
O O6 0.268633 0.080084 0.477436
O O7 0.203203 0.624076 0.977963
O O8 0.462002 0.785627 0.388197
O O9 0.179279 0.500652 0.573800
O O10 0.264006 0.912177 0.978059
O O11 0.024161 0.254287 0.119499
O O12 0.801679 0.773501 0.496703
O O13 0.895063 0.139297 0.886827
O O14 0.500000 0.500000 0.000000
O O15 0.000000 0.000000 0.000000
#
# Coordination Sequence:
#
# PCOD9045248 Si02
#       7
#     2   2   2   2   2   2   2
#     4  11  23  41  72 100 132 180 231 282 335 405
#     4  11  21  42  66 101 133 181 230 281 341 399
#     4  12  23  44  70  99 138 177 226 289 336 397
#     4  11  26  44  67 101 137 188 226 274 355 406
#     4  10  24  38  65 108 131 168 232 279 342 396
#     4  11  24  45  68  96 142 184 229 278 342 418
#     4  12  25  42  71 103 139 175 234 290 333 409
#
# _framework density 26.951891
#
# number of rings (size 3 to 8) (size 9 to 14) (size 15 to 20)
#    0.000    0.857    4.286    3.429    8.000    0.571 
#    0.000    2.857    0.000    0.000    0.000    0.000 
#    0.000    0.000    0.000    0.000    0.000    0.000 
#
# Total GULP energy -78323.275453 kJ/mol
# GULP energy per Si atom -5594.519675 kJ/mol
# Density = 2.689055 g / cm^3
# Si number density = 26.951891 Si / 1000 Ang^3
#
#
#
# Elastic Constant Matrix: (Units=GPa)
#
#
# Indices 1 2 3 4 5 6 
#
# 1 97.3018 40.3990 46.7575 -10.8240 14.2785 11.3357
# 2 40.3990 144.2494 68.0676 -23.0094 7.2539 16.2581
# 3 46.7575 68.0676 173.1375 -27.9309 58.4156 -11.9504
# 4 -10.8240 -23.0094 -27.9309 54.9290 -5.6887 15.6297
# 5 14.2785 7.2539 58.4156 -5.6887 63.1264 -6.5054
# 6 11.3357 16.2581 -11.9504 15.6297 -6.5054 37.1288
#
#
#
# Elastic Compliance Matrix: (Units=1/GPa)
#
#
# Indices 1 2 3 4 5 6 
#
# 1 0.013144 -0.001391 -0.002868 0.001990 -0.000521 -0.005256
# 2 -0.001391 0.010887 -0.004771 0.004204 0.003126 -0.007100
# 3 -0.002868 -0.004771 0.012145 0.001305 -0.009443 0.004670
# 4 0.001990 0.004204 0.001305 0.024464 -0.001229 -0.012542
# 5 -0.000521 0.003126 -0.009443 -0.001229 0.024281 0.000523
# 6 -0.005256 -0.007100 0.004670 -0.012542 0.000523 0.038521
#
#
# Mechanical properties :
#
#
# Convention : Reuss Voigt Hill
#
# Bulk Modulus (GPa) = 55.20595 80.57076 67.88835
# Shear Modulus (GPa) = 33.88887 48.33449 41.11168
#
# Velocity S-wave (km/s) = 3.54981 4.23940 3.90984
# Velocity P-wave (km/s) = 6.10976 7.34320 6.75469
#
# Compressibility (1/GPa) = 0.01811399
#
# Stress axis : x y z
#
# Youngs Moduli (GPa) = 76.08276 91.85202 82.34023
#
# Poissons Ratio (x) = 0.12781 0.23619
# Poissons Ratio (y) = 0.10587 0.39282
# Poissons Ratio (z) = 0.21824 0.43820
#
# Static dielectric constant tensor:
#      x y z
#    x 2.227530 -0.047450 -0.012130 
#    y -0.047450 2.136570 0.029520 
#    z -0.012130 0.029520 2.106560 
# 
# From -- ./inp_files/466512.got.cif
#   From: 2010.05.17/outbox.cif.g08.bks.cpg/sg2_234_cif.got.tgz:466512.got - 2010.06.03 11:33:40.
