data_PCOD9045672
_publ_section_title
;
Structure prediction by ZEFSAII (Michael W. Deem and Ramdas Pophale) SiO2 
 PCOD9045672
Probable space group: P -1
;
_chemical_formula_sum "Si O2"
_cell_formula_units_Z 16
_cell_length_a 8.662400
_cell_length_b 11.786883
_cell_length_c 9.687717
_cell_angle_alpha 61.008840
_cell_angle_beta 86.134389
_cell_angle_gamma 54.772388
_cell_volume 674.876773
_symmetry_space_group_name_H-M "P -1"
_symmetry_group_IT_number 2
_symmetry_cell_setting 'triclinic'
loop_
_space_group_symop_operation_xyz
x,y,z
-x,-y,-z
loop_
_atom_site_type_symbol
_atom_site_label
_atom_site_fract_x
_atom_site_fract_y
_atom_site_fract_z
Si Si1 0.288393 0.911699 0.923562
Si Si2 0.127186 0.152198 0.225315
Si Si3 0.081226 0.776483 0.091500
Si Si4 0.026257 0.336400 0.628442
Si Si5 0.583377 0.242261 0.501820
Si Si6 0.168538 0.636707 0.643977
Si Si7 0.536506 0.855082 0.679432
Si Si8 0.379396 0.268603 0.777516
O O1 0.370214 0.906522 0.772208
O O2 0.066513 0.075488 0.876449
O O3 0.446613 0.870327 0.053329
O O4 0.259660 0.772116 0.033097
O O5 0.269807 0.200814 0.215697
O O6 0.940618 0.265167 0.269214
O O7 0.242677 0.958500 0.370764
O O8 0.050462 0.187307 0.053820
O O9 0.132076 0.627094 0.270084
O O10 0.240474 0.226331 0.753616
O O11 0.000000 0.500000 0.500000
O O12 0.992356 0.283988 0.516944
O O13 0.673477 0.336565 0.420289
O O14 0.460343 0.260903 0.364240
O O15 0.466219 0.290713 0.622718
O O16 0.258473 0.445068 0.758553
O O17 0.500000 0.000000 0.500000
#
# Coordination Sequence:
#
# PCOD9045672 Si02
#       8
#     2   2   2   2   2   2   2   2
#     4  11  24  43  69 103 135 178 227 281 340 396
#     4  11  23  41  64 102 132 179 225 281 338 393
#     4  11  24  41  72 101 137 175 228 284 336 402
#     4  10  24  42  66 100 135 182 221 276 335 403
#     4  11  22  40  66  99 134 179 231 275 337 396
#     4  11  24  42  67  96 143 179 221 278 338 410
#     4  10  24  41  66 103 135 172 225 287 333 396
#     4  11  23  44  65 100 135 182 224 276 338 404
#
# _framework density 23.708031999999999
#
# number of rings (size 3 to 8) (size 9 to 14) (size 15 to 20)
#    0.000    1.250    1.250    3.750    8.750    2.000 
#    0.000   10.625    0.000    0.000    0.000    0.000 
#    0.000    0.000    0.000    0.000    0.000    0.000 
#
# Total GULP energy -89514.509622 kJ/mol
# GULP energy per Si atom -5594.656851 kJ/mol
# Density = 2.365407 g / cm^3
# Si number density = 23.708032 Si / 1000 Ang^3
#
#
#
# Elastic Constant Matrix: (Units=GPa)
#
#
# Indices 1 2 3 4 5 6 
#
# 1 69.2221 -9.2975 27.2175 -7.9451 -21.4764 7.4756
# 2 -9.2975 53.2477 16.0037 5.3707 -5.2802 -7.7281
# 3 27.2175 16.0037 120.2681 20.5123 -19.2804 -2.2516
# 4 -7.9451 5.3707 20.5123 33.1339 -5.4851 -5.7927
# 5 -21.4764 -5.2802 -19.2804 -5.4851 54.6809 8.5726
# 6 7.4756 -7.7281 -2.2516 -5.7927 8.5726 34.9510
#
#
#
# Elastic Compliance Matrix: (Units=1/GPa)
#
#
# Indices 1 2 3 4 5 6 
#
# 1 0.021381 0.004753 -0.005647 0.008452 0.008427 -0.004552
# 2 0.004753 0.021282 -0.003634 0.000844 0.002248 0.003044
# 3 -0.005647 -0.003634 0.011529 -0.007835 0.000763 -0.000339
# 4 0.008452 0.000844 -0.007835 0.038140 0.003959 0.003225
# 5 0.008427 0.002248 0.000763 0.003959 0.023478 -0.006359
# 6 -0.004552 0.003044 -0.000339 0.003225 -0.006359 0.032330
#
#
# Mechanical properties :
#
#
# Convention : Reuss Voigt Hill
#
# Bulk Modulus (GPa) = 22.15555 34.50947 28.33251
# Shear Modulus (GPa) = 29.02917 38.47412 33.75164
#
# Velocity S-wave (km/s) = 3.50300 4.03281 3.77721
# Velocity P-wave (km/s) = 5.07216 6.02265 5.56773
#
# Compressibility (1/GPa) = 0.04513542
#
# Stress axis : x y z
#
# Youngs Moduli (GPa) = 46.77034 46.98848 86.74090
#
# Poissons Ratio (x) = -0.22334 0.48982
# Poissons Ratio (y) = -0.22230 0.31523
# Poissons Ratio (z) = 0.26411 0.17076
#
# Static dielectric constant tensor:
#      x y z
#    x 1.945090 0.008720 -0.024790 
#    y 0.008720 1.957930 -0.132020 
#    z -0.024790 -0.132020 1.984820 
# 
# From -- ./inp_files/185075.got.cif
#   From: 2010.05.17/outbox.cif.g08.bks.cpg/sg2_93_cif.got.tgz:185075.got - 2010.06.03 11:33:40.
