data_PCOD9045523
_publ_section_title
;
Structure prediction by ZEFSAII (Michael W. Deem and Ramdas Pophale) SiO2 
 PCOD9045523
Probable space group: P -1
;
_chemical_formula_sum "Si O2"
_cell_formula_units_Z 9
_cell_length_a 9.169336
_cell_length_b 9.949696
_cell_length_c 7.490015
_cell_angle_alpha 79.556556
_cell_angle_beta 31.659028
_cell_angle_gamma 76.750898
_cell_volume 348.980609
_symmetry_space_group_name_H-M "P -1"
_symmetry_group_IT_number 2
_symmetry_cell_setting 'triclinic'
loop_
_space_group_symop_operation_xyz
x,y,z
-x,-y,-z
loop_
_atom_site_type_symbol
_atom_site_label
_atom_site_fract_x
_atom_site_fract_y
_atom_site_fract_z
Si Si1 0.832776 0.103989 0.790462
Si Si2 0.000000 0.500000 0.000000
Si Si3 0.216104 0.581611 0.348808
Si Si4 0.668736 0.008982 0.503124
Si Si5 0.366865 0.668846 0.547797
O O1 0.822744 0.259568 0.701941
O O2 0.000000 0.000000 0.500000
O O3 0.018663 0.070572 0.783182
O O4 0.523692 0.065963 0.144762
O O5 0.151260 0.623345 0.926196
O O6 0.309012 0.387410 0.748891
O O7 0.215594 0.581987 0.568438
O O8 0.000000 0.500000 0.500000
O O9 0.500000 0.500000 0.000000
O O10 0.666551 0.171435 0.502595
O O11 0.500000 0.000000 0.500000
#
# Coordination Sequence:
#
# PCOD9045523 Si02
#       5
#     2   1   2   2   2
#     4  12  26  48  77 103 147 198 242 295 367 432
#     4  10  24  40  70  94 138 190 214 294 370 416
#     4  12  27  44  73 106 141 189 247 296 353 432
#     4  12  27  45  75 108 143 190 249 300 359 434
#     4  11  24  45  68 100 146 184 243 291 360 424
#
# _framework density 25.789396
#
# number of rings (size 3 to 8) (size 9 to 14) (size 15 to 20)
#    0.000    0.444    2.222    5.333    3.111   10.667 
#    0.000    0.000    0.000    0.000    0.000    0.000 
#    0.000    0.000    0.000    0.000    0.000    0.000 
#
# Total GULP energy -50239.407837 kJ/mol
# GULP energy per Si atom -5582.156426 kJ/mol
# Density = 2.573070 g / cm^3
# Si number density = 25.789396 Si / 1000 Ang^3
#
#
#
# Elastic Constant Matrix: (Units=GPa)
#
#
# Indices 1 2 3 4 5 6 
#
# 1 136.8520 62.9336 28.1591 3.5387 -17.7068 -1.0103
# 2 62.9336 259.4788 59.2871 -18.2326 -16.4340 -31.1952
# 3 28.1591 59.2871 179.4876 -17.2872 -53.1306 0.6369
# 4 3.5387 -18.2326 -17.2872 46.4336 -0.8867 -5.1008
# 5 -17.7068 -16.4340 -53.1306 -0.8867 53.4885 4.1172
# 6 -1.0103 -31.1952 0.6369 -5.1008 4.1172 56.0974
#
#
#
# Elastic Compliance Matrix: (Units=1/GPa)
#
#
# Indices 1 2 3 4 5 6 
#
# 1 0.008667 -0.002218 -0.000164 -0.001704 0.002103 -0.001385
# 2 -0.002218 0.005177 -0.001398 0.002007 -0.000737 0.003091
# 3 -0.000164 -0.001398 0.008824 0.002772 0.008423 -0.001247
# 4 -0.001704 0.002007 0.002772 0.023873 0.002971 0.003007
# 5 0.002103 -0.000737 0.008423 0.002971 0.027753 -0.002234
# 6 -0.001385 0.003091 -0.001247 0.003007 -0.002234 0.019972
#
#
# Mechanical properties :
#
#
# Convention : Reuss Voigt Hill
#
# Bulk Modulus (GPa) = 66.18683 97.39754 81.79218
# Shear Modulus (GPa) = 46.79005 59.56647 53.17826
#
# Velocity S-wave (km/s) = 4.26410 4.81118 4.54587
# Velocity P-wave (km/s) = 7.06848 8.28925 7.70309
#
# Compressibility (1/GPa) = 0.01510875
#
# Stress axis : x y z
#
# Youngs Moduli (GPa) = 115.38511 193.15645 113.33313
#
# Poissons Ratio (x) = 0.42833 0.01857
# Poissons Ratio (y) = 0.25587 0.15843
# Poissons Ratio (z) = 0.01890 0.27002
#
# Static dielectric constant tensor:
#      x y z
#    x 2.630670 -0.240930 0.598030 
#    y -0.240930 2.176860 -0.379610 
#    z 0.598030 -0.379610 2.658910 
# 
# From -- ./inp_files/148506.got.cif
#   From: 2010.05.17/outbox.cif.g08.bks.cpg/sg2_75_cif.got.tgz:148506.got - 2010.06.03 11:33:40.
