data_PCOD9045822
_publ_section_title
;
Structure prediction by ZEFSAII (Michael W. Deem and Ramdas Pophale) SiO2 
 PCOD9045822
Probable space group: P -1
;
_chemical_formula_sum "Si O2"
_cell_formula_units_Z 12
_cell_length_a 9.024044
_cell_length_b 11.769549
_cell_length_c 9.394224
_cell_angle_alpha 46.128761
_cell_angle_beta 48.157178
_cell_angle_gamma 74.096447
_cell_volume 501.829275
_symmetry_space_group_name_H-M "P -1"
_symmetry_group_IT_number 2
_symmetry_cell_setting 'triclinic'
loop_
_space_group_symop_operation_xyz
x,y,z
-x,-y,-z
loop_
_atom_site_type_symbol
_atom_site_label
_atom_site_fract_x
_atom_site_fract_y
_atom_site_fract_z
Si Si1 0.758799 0.886203 0.715416
Si Si2 0.567360 0.757454 0.662383
Si Si3 0.515509 0.126620 0.686429
Si Si4 0.186998 0.480940 0.299126
Si Si5 0.301726 0.326756 0.798200
Si Si6 0.913659 0.438158 0.262711
O O1 0.727483 0.868747 0.581196
O O2 0.580318 0.964984 0.809546
O O3 0.713802 0.719920 0.984453
O O4 0.000000 0.000000 0.500000
O O5 0.501439 0.846346 0.495062
O O6 0.675597 0.629104 0.638924
O O7 0.362259 0.652168 0.979713
O O8 0.317134 0.163930 0.850185
O O9 0.707672 0.276954 0.505235
O O10 0.000000 0.500000 0.500000
O O11 0.065750 0.391728 0.312162
O O12 0.500000 0.500000 0.500000
O O13 0.119609 0.393250 0.803228
O O14 0.000000 0.500000 0.000000
#
# Coordination Sequence:
#
# PCOD9045822 Si02
#       6
#     2   2   2   2   2   2
#     4  12  26  46  68  97 142 184 223 279 355 409
#     4  11  25  43  67 101 139 181 229 287 339 408
#     4  11  23  43  67  96 138 176 223 283 344 404
#     4  11  24  40  69 103 138 175 234 286 339 402
#     4  10  24  41  72 101 130 177 235 280 334 408
#     4  11  20  40  68  98 132 175 225 278 337 403
#
# _framework density 23.912516
#
# number of rings (size 3 to 8) (size 9 to 14) (size 15 to 20)
#    0.000    1.000    1.667    5.000   11.667    0.000 
#    3.000    0.833    0.000    0.000    0.000    0.000 
#    0.000    0.000    0.000    0.000    0.000    0.000 
#
# Total GULP energy -67004.964783 kJ/mol
# GULP energy per Si atom -5583.747065 kJ/mol
# Density = 2.385809 g / cm^3
# Si number density = 23.912516 Si / 1000 Ang^3
#
#
#
# Elastic Constant Matrix: (Units=GPa)
#
#
# Indices 1 2 3 4 5 6 
#
# 1 133.7662 18.1331 29.6232 -15.0467 13.7401 4.2019
# 2 18.1331 98.7314 15.6887 17.1528 4.2285 -22.2885
# 3 29.6232 15.6887 81.4249 8.6574 10.6460 -6.1918
# 4 -15.0467 17.1528 8.6574 32.7239 -10.1773 2.6323
# 5 13.7401 4.2285 10.6460 -10.1773 37.6568 -5.1016
# 6 4.2019 -22.2885 -6.1918 2.6323 -5.1016 52.6332
#
#
#
# Elastic Compliance Matrix: (Units=1/GPa)
#
#
# Indices 1 2 3 4 5 6 
#
# 1 0.009692 -0.003043 -0.003844 0.007124 -0.000579 -0.002927
# 2 -0.003043 0.013945 0.000290 -0.010044 -0.002378 0.006454
# 3 -0.003844 0.000290 0.015204 -0.007571 -0.004684 0.002143
# 4 0.007124 -0.010044 -0.007571 0.045386 0.012012 -0.006818
# 5 -0.000579 -0.002378 -0.004684 0.012012 0.031735 0.000964
# 6 -0.002927 0.006454 0.002143 -0.006818 0.000964 0.022653
#
#
# Mechanical properties :
#
#
# Convention : Reuss Voigt Hill
#
# Bulk Modulus (GPa) = 38.99062 48.97916 43.98489
# Shear Modulus (GPa) = 31.17997 41.30129 36.24063
#
# Velocity S-wave (km/s) = 3.61490 4.16045 3.89723
# Velocity P-wave (km/s) = 5.81070 6.60350 6.21975
#
# Compressibility (1/GPa) = 0.02564720
#
# Stress axis : x y z
#
# Youngs Moduli (GPa) = 103.17490 71.70967 65.77061
#
# Poissons Ratio (x) = 0.21820 0.25283
# Poissons Ratio (y) = 0.31394 -0.01905
# Poissons Ratio (z) = 0.39662 -0.02077
#
# Static dielectric constant tensor:
#      x y z
#    x 1.918610 -0.044830 -0.040080 
#    y -0.044830 2.077300 0.100170 
#    z -0.040080 0.100170 1.901310 
# 
# From -- ./inp_files/156533.got.cif
#   From: 2010.05.17/outbox.cif.g08.bks.cpg/sg2_79_cif.got.tgz:156533.got - 2010.06.03 11:33:40.
