data_PCOD9045421
_publ_section_title
;
Structure prediction by ZEFSAII (Michael W. Deem and Ramdas Pophale) SiO2 
 PCOD9045421
Probable space group: P -1
;
_chemical_formula_sum "Si O2"
_cell_formula_units_Z 14
_cell_length_a 7.119830
_cell_length_b 17.777958
_cell_length_c 9.747968
_cell_angle_alpha 118.123207
_cell_angle_beta 133.724800
_cell_angle_gamma 44.019783
_cell_volume 618.817870
_symmetry_space_group_name_H-M "P -1"
_symmetry_group_IT_number 2
_symmetry_cell_setting 'triclinic'
loop_
_space_group_symop_operation_xyz
x,y,z
-x,-y,-z
loop_
_atom_site_type_symbol
_atom_site_label
_atom_site_fract_x
_atom_site_fract_y
_atom_site_fract_z
Si Si1 0.121116 0.191529 0.611430
Si Si2 0.638539 0.406672 0.376427
Si Si3 0.247849 0.713152 0.221298
Si Si4 0.163836 0.869908 0.081984
Si Si5 0.254776 0.327530 0.136778
Si Si6 0.927607 0.096776 0.241596
Si Si7 0.759121 0.483244 0.230099
O O1 0.470417 0.165544 0.794779
O O2 0.921798 0.295512 0.499982
O O3 0.888451 0.219911 0.649421
O O4 0.164291 0.095325 0.467303
O O5 0.500000 0.500000 0.500000
O O6 0.379222 0.387261 0.176599
O O7 0.742769 0.434576 0.318798
O O8 0.174774 0.788078 0.119181
O O9 0.623521 0.604877 0.301280
O O10 0.031472 0.669839 0.073143
O O11 0.019251 0.879867 0.867187
O O12 0.968685 0.987382 0.155380
O O13 0.563818 0.201155 0.194432
O O14 0.111305 0.395774 0.263378
O O15 0.500000 0.500000 0.000000
#
# Coordination Sequence:
#
# PCOD9045421 Si02
#       7
#     2   2   2   2   2   2   2
#     4  11  24  44  67 101 139 169 229 278 338 403
#     4  11  24  43  65  98 138 181 217 274 337 395
#     4  11  24  42  66 105 133 176 225 276 341 399
#     4  11  25  47  71  96 138 176 228 286 334 398
#     4  10  24  42  67  96 136 173 229 269 330 405
#     4  10  24  48  70  98 130 185 228 275 347 392
#     4  10  24  40  65  99 131 177 218 265 336 400
#
# _framework density 22.623781000000001
#
# number of rings (size 3 to 8) (size 9 to 14) (size 15 to 20)
#    0.000    1.429    2.857    0.429   10.000    6.286 
#    0.000    0.000    0.000    0.000    0.000    0.000 
#    0.000    0.000    0.000    0.000    0.000    0.000 
#
# Total GULP energy -78220.296934 kJ/mol
# GULP energy per Si atom -5587.164067 kJ/mol
# Density = 2.257229 g / cm^3
# Si number density = 22.623781 Si / 1000 Ang^3
#
#
#
# Elastic Constant Matrix: (Units=GPa)
#
#
# Indices 1 2 3 4 5 6 
#
# 1 65.7905 39.9287 25.4865 0.1734 -14.5940 7.1332
# 2 39.9287 121.5614 0.4534 19.3181 -9.3850 -19.1741
# 3 25.4865 0.4534 82.6482 25.4988 -7.6102 -1.2624
# 4 0.1734 19.3181 25.4988 28.8290 1.6656 -7.1285
# 5 -14.5940 -9.3850 -7.6102 1.6656 35.7027 -3.0048
# 6 7.1332 -19.1741 -1.2624 -7.1285 -3.0048 37.1333
#
#
#
# Elastic Compliance Matrix: (Units=1/GPa)
#
#
# Indices 1 2 3 4 5 6 
#
# 1 0.033312 -0.015819 -0.016950 0.022571 0.003909 -0.010494
# 2 -0.015819 0.018187 0.011299 -0.019955 0.002426 0.009179
# 3 -0.016950 0.011299 0.027086 -0.030537 0.003614 0.004441
# 4 0.022571 -0.019955 -0.030537 0.074842 -0.006173 -0.001810
# 5 0.003909 0.002426 0.003614 -0.006173 0.031470 0.001986
# 6 -0.010494 0.009179 0.004441 -0.001810 0.001986 0.033650
#
#
# Mechanical properties :
#
#
# Convention : Reuss Voigt Hill
#
# Bulk Modulus (GPa) = 28.05437 44.63751 36.34594
# Shear Modulus (GPa) = 18.29032 33.94175 26.11604
#
# Velocity S-wave (km/s) = 2.84642 3.87753 3.40128
# Velocity P-wave (km/s) = 4.81976 6.31032 5.61473
#
# Compressibility (1/GPa) = 0.03564506
#
# Stress axis : x y z
#
# Youngs Moduli (GPa) = 30.01922 54.98575 36.91909
#
# Poissons Ratio (x) = 0.86982 0.62576
# Poissons Ratio (y) = 0.47487 -0.41714
# Poissons Ratio (z) = 0.50881 -0.62127
#
# Static dielectric constant tensor:
#      x y z
#    x 1.822820 -0.057640 0.051080 
#    y -0.057640 1.851250 0.013400 
#    z 0.051080 0.013400 1.905680 
# 
# From -- ./inp_files/139263.got.cif
#   From: 2010.05.17/outbox.cif.g08.bks.cpg/sg2_70_cif.got.tgz:139263.got - 2010.06.03 11:33:40.
