data_PCOD9045870
_publ_section_title
;
Structure prediction by ZEFSAII (Michael W. Deem and Ramdas Pophale) SiO2 
 PCOD9045870
Probable space group: P -1
;
_chemical_formula_sum "Si O2"
_cell_formula_units_Z 16
_cell_length_a 11.829390
_cell_length_b 11.678632
_cell_length_c 9.317793
_cell_angle_alpha 51.561315
_cell_angle_beta 83.212345
_cell_angle_gamma 58.085001
_cell_volume 811.848731
_symmetry_space_group_name_H-M "P -1"
_symmetry_group_IT_number 2
_symmetry_cell_setting 'triclinic'
loop_
_space_group_symop_operation_xyz
x,y,z
-x,-y,-z
loop_
_atom_site_type_symbol
_atom_site_label
_atom_site_fract_x
_atom_site_fract_y
_atom_site_fract_z
Si Si1 0.789024 0.450434 0.214516
Si Si2 0.548567 0.448785 0.368549
Si Si3 0.889533 0.125769 0.235583
Si Si4 0.086932 0.489556 0.357473
Si Si5 0.904356 0.790648 0.577007
Si Si6 0.762210 0.319148 0.809336
Si Si7 0.787002 0.087966 0.712167
Si Si8 0.142405 0.274267 0.038648
O O1 0.644581 0.512765 0.260279
O O2 0.821296 0.308011 0.195947
O O3 0.927691 0.332277 0.386017
O O4 0.785743 0.622382 0.039103
O O5 0.500000 0.500000 0.500000
O O6 0.402829 0.545853 0.231717
O O7 0.659266 0.232915 0.516932
O O8 0.849229 0.993723 0.396007
O O9 0.845523 0.186269 0.032060
O O10 0.059249 0.008079 0.306607
O O11 0.164318 0.285627 0.447542
O O12 0.179189 0.562265 0.320579
O O13 0.000000 0.500000 0.500000
O O14 0.986116 0.610513 0.143824
O O15 0.897823 0.742820 0.780375
O O16 0.782194 0.197783 0.764710
O O17 0.772001 0.928628 0.875322
#
# Coordination Sequence:
#
# PCOD9045870 Si02
#       8
#     2   2   2   2   2   2   2   2
#     4  11  21  39  64  92 125 163 211 258 316 370
#     4  10  24  42  61  86 127 177 207 249 315 393
#     4  12  21  37  69  97 123 158 217 273 308 363
#     4  11  23  37  61  93 130 162 200 272 321 356
#     4  11  21  37  63  98 124 156 212 265 314 365
#     4  11  24  41  60  95 135 164 205 260 326 373
#     4  11  21  40  64  93 125 168 218 258 304 380
#     4  11  23  38  64  98 125 161 212 268 312 368
#
# _framework density 19.708103999999999
#
# number of rings (size 3 to 8) (size 9 to 14) (size 15 to 20)
#    0.000    1.000    3.750    4.500    7.000    0.500 
#    0.000    3.750    0.000    3.000    0.000    0.000 
#    0.000    0.000    0.000    0.000    0.000    0.000 
#
# Total GULP energy -89274.290977 kJ/mol
# GULP energy per Si atom -5579.643186 kJ/mol
# Density = 1.966325 g / cm^3
# Si number density = 19.708104 Si / 1000 Ang^3
#
#
#
# Elastic Constant Matrix: (Units=GPa)
#
#
# Indices 1 2 3 4 5 6 
#
# 1 110.7432 64.3893 52.3416 -16.6574 -37.3788 3.7935
# 2 64.3893 115.2975 41.9966 -8.8273 -22.9730 25.3166
# 3 52.3416 41.9966 88.4453 -17.4587 -33.3076 10.6784
# 4 -16.6574 -8.8273 -17.4587 37.2676 7.4616 -9.6825
# 5 -37.3788 -22.9730 -33.3076 7.4616 35.8188 -10.0198
# 6 3.7935 25.3166 10.6784 -9.6825 -10.0198 42.9725
#
#
#
# Elastic Compliance Matrix: (Units=1/GPa)
#
#
# Indices 1 2 3 4 5 6 
#
# 1 0.021503 -0.009682 -0.002309 0.005531 0.015516 0.009244
# 2 -0.009682 0.016205 -0.003287 -0.003624 -0.004754 -0.009800
# 3 -0.002309 -0.003287 0.020226 0.005328 0.013596 0.001485
# 4 0.005531 -0.003624 0.005328 0.032354 0.004057 0.008558
# 5 0.015516 -0.004754 0.013596 0.004057 0.056238 0.012079
# 6 0.009244 -0.009800 0.001485 0.008558 0.012079 0.032604
#
#
# Mechanical properties :
#
#
# Convention : Reuss Voigt Hill
#
# Bulk Modulus (GPa) = 36.52584 70.21565 53.37075
# Shear Modulus (GPa) = 22.85043 33.59568 28.22306
#
# Velocity S-wave (km/s) = 3.40875 4.13324 3.78835
# Velocity P-wave (km/s) = 5.83665 7.64744 6.80257
#
# Compressibility (1/GPa) = 0.02737788
#
# Stress axis : x y z
#
# Youngs Moduli (GPa) = 46.50411 61.70921 49.44087
#
# Poissons Ratio (x) = 0.59750 0.11416
# Poissons Ratio (y) = 0.45027 0.16251
# Poissons Ratio (z) = 0.10738 0.20283
#
# Static dielectric constant tensor:
#      x y z
#    x 1.716520 0.014630 -0.017480 
#    y 0.014630 1.758130 0.005780 
#    z -0.017480 0.005780 1.726940 
# 
# From -- ./inp_files/256336.got.cif
#   From: 2010.05.17/outbox.cif.g08.bks.cpg/sg2_129_cif.got.tgz:256336.got - 2010.06.03 11:33:40.
