data_PCOD9045416
_publ_section_title
;
Structure prediction by ZEFSAII (Michael W. Deem and Ramdas Pophale) SiO2 
 PCOD9045416
Probable space group: P -1
;
_chemical_formula_sum "Si O2"
_cell_formula_units_Z 16
_cell_length_a 13.424397
_cell_length_b 17.556045
_cell_length_c 8.032075
_cell_angle_alpha 79.792912
_cell_angle_beta 69.998436
_cell_angle_gamma 26.057404
_cell_volume 741.573823
_symmetry_space_group_name_H-M "P -1"
_symmetry_group_IT_number 2
_symmetry_cell_setting 'triclinic'
loop_
_space_group_symop_operation_xyz
x,y,z
-x,-y,-z
loop_
_atom_site_type_symbol
_atom_site_label
_atom_site_fract_x
_atom_site_fract_y
_atom_site_fract_z
Si Si1 0.879134 0.695226 0.213944
Si Si2 0.638922 0.033698 0.679435
Si Si3 0.071231 0.636567 0.473584
Si Si4 0.449048 0.613817 0.573805
Si Si5 0.273372 0.851258 0.351863
Si Si6 0.893122 0.602341 0.697080
Si Si7 0.935407 0.971358 0.928266
Si Si8 0.324999 0.012919 0.927284
O O1 0.606286 0.835629 0.322338
O O2 0.984889 0.662529 0.334570
O O3 0.818435 0.811144 0.090970
O O4 0.058681 0.500416 0.161284
O O5 0.677709 0.098926 0.611429
O O6 0.878864 0.829849 0.558713
O O7 0.626886 0.026338 0.887326
O O8 0.043115 0.583389 0.639606
O O9 0.343648 0.493373 0.375536
O O10 0.500000 0.500000 0.500000
O O11 0.456918 0.668710 0.395806
O O12 0.183593 0.788255 0.750649
O O13 0.000000 0.000000 0.500000
O O14 0.271399 0.862908 0.150857
O O15 0.000000 0.500000 0.500000
O O16 0.603744 0.819920 0.766443
O O17 0.832488 0.957387 0.058935
O O18 0.000000 0.000000 0.000000
#
# Coordination Sequence:
#
# PCOD9045416 Si02
#       8
#     2   2   2   2   2   2   2   2
#     4  11  24  41  66  95 131 178 214 270 338 389
#     4  11  22  42  65  96 134 170 219 271 335 391
#     4  11  23  41  67  98 128 168 225 274 322 396
#     4  11  23  44  67  96 132 172 227 274 321 402
#     4   9  20  41  65  91 124 180 217 260 327 394
#     4  10  24  40  65  97 129 166 224 266 328 394
#     4  10  24  43  68  96 133 176 219 275 334 390
#     4  11  24  45  64  96 138 169 215 279 331 397
#
# _framework density 21.575734000000001
#
# number of rings (size 3 to 8) (size 9 to 14) (size 15 to 20)
#    0.000    1.500    1.250    3.750    5.250    3.500 
#    9.000    1.250    0.000    0.000    0.000    0.000 
#    0.000    0.000    0.000    0.000    0.000    0.000 
#
# Total GULP energy -89277.844111 kJ/mol
# GULP energy per Si atom -5579.865257 kJ/mol
# Density = 2.152663 g / cm^3
# Si number density = 21.575734 Si / 1000 Ang^3
#
#
#
# Elastic Constant Matrix: (Units=GPa)
#
#
# Indices 1 2 3 4 5 6 
#
# 1 64.6094 51.2436 30.0831 3.8747 -38.6017 7.2785
# 2 51.2436 105.0145 13.0502 -19.2370 -4.3600 19.2716
# 3 30.0831 13.0502 18.3696 -4.7337 -0.0642 -0.5272
# 4 3.8747 -19.2370 -4.7337 20.0568 9.3606 -9.9206
# 5 -38.6017 -4.3600 -0.0642 9.3606 27.7905 -2.6714
# 6 7.2785 19.2716 -0.5272 -9.9206 -2.6714 49.1105
#
#
#
# Elastic Compliance Matrix: (Units=1/GPa)
#
#
# Indices 1 2 3 4 5 6 
#
# 1 -0.009377 0.004954 0.017231 0.020876 -0.018969 0.002816
# 2 0.004954 0.010020 -0.015657 -0.001249 0.008393 -0.004630
# 3 0.017231 -0.015657 0.031101 -0.024691 0.029921 0.000564
# 4 0.020876 -0.001249 -0.024691 0.032635 0.018205 0.004714
# 5 -0.018969 0.008393 0.029921 0.018205 0.005255 0.003802
# 6 0.002816 -0.004630 0.000564 0.004714 0.003802 0.022927
#
#
# Mechanical properties :
#
#
# Convention : Reuss Voigt Hill
#
# Bulk Modulus (GPa) = 22.32172 41.86083 32.09128
# Shear Modulus (GPa) = 52.94502 25.63266 39.28884
#
# Velocity S-wave (km/s) = 4.95907 3.45052 4.27192
# Velocity P-wave (km/s) = 6.56948 5.94296 6.26406
#
# Compressibility (1/GPa) = 0.04479941
#
# Stress axis : x y z
#
# Youngs Moduli (GPa) = -106.64160 99.79995 32.15380
#
# Poissons Ratio (x) = -0.49443 -0.55405
# Poissons Ratio (y) = 0.52833 0.50344
# Poissons Ratio (z) = 1.83756 1.56261
#
# Static dielectric constant tensor:
#      x y z
#    x 1.683160 0.036260 -0.005930 
#    y 0.036260 1.823480 -0.052810 
#    z -0.005930 -0.052810 1.824930 
# 
# From -- ./inp_files/272850.got.cif
#   From: 2010.05.17/outbox.cif.g08.bks.cpg/sg2_137_cif.got.tgz:272850.got - 2010.06.03 11:33:40.
