data_PCOD9045803
_publ_section_title
;
Structure prediction by ZEFSAII (Michael W. Deem and Ramdas Pophale) SiO2 
 PCOD9045803
Probable space group: P -1
;
_chemical_formula_sum "Si O2"
_cell_formula_units_Z 16
_cell_length_a 9.339596
_cell_length_b 13.004819
_cell_length_c 9.235014
_cell_angle_alpha 81.728419
_cell_angle_beta 55.623669
_cell_angle_gamma 119.265693
_cell_volume 656.060089
_symmetry_space_group_name_H-M "P -1"
_symmetry_group_IT_number 2
_symmetry_cell_setting 'triclinic'
loop_
_space_group_symop_operation_xyz
x,y,z
-x,-y,-z
loop_
_atom_site_type_symbol
_atom_site_label
_atom_site_fract_x
_atom_site_fract_y
_atom_site_fract_z
Si Si1 0.933759 0.401229 0.862058
Si Si2 0.223092 0.246949 0.001116
Si Si3 0.214174 0.858575 0.193894
Si Si4 0.824916 0.820554 0.273614
Si Si5 0.437651 0.813723 0.632342
Si Si6 0.568621 0.408051 0.007017
Si Si7 0.218270 0.869338 0.521983
Si Si8 0.425535 0.545251 0.690808
O O1 0.861343 0.278798 0.817923
O O2 0.837950 0.472044 0.841623
O O3 0.213028 0.511605 0.727330
O O4 0.780518 0.314733 0.113425
O O5 0.162387 0.158210 0.909945
O O6 0.423671 0.287650 0.988739
O O7 0.321447 0.396309 0.847421
O O8 0.995984 0.177510 0.245065
O O9 0.137605 0.820707 0.413567
O O10 0.078452 0.897841 0.184895
O O11 0.500000 0.000000 0.000000
O O12 0.660938 0.838300 0.440249
O O13 0.663601 0.648824 0.436737
O O14 0.318275 0.810123 0.556757
O O15 0.564136 0.957112 0.625487
O O16 0.500000 0.500000 0.000000
O O17 0.491481 0.361537 0.226634
#
# Coordination Sequence:
#
# PCOD9045803 Si02
#       8
#     2   2   2   2   2   2   2   2
#     4  12  23  47  73 105 146 196 232 296 369 423
#     4  11  24  45  69 102 150 185 235 299 357 414
#     4  12  27  47  74 104 146 188 245 296 360 430
#     4  12  26  44  72 110 138 192 242 295 355 433
#     4  11  25  44  74 103 141 191 240 291 363 419
#     4  10  24  41  70 105 140 186 235 294 351 427
#     4  11  25  47  68 103 144 188 240 299 350 428
#     4  11  22  46  73 101 146 186 238 287 361 429
#
# _framework density 24.388009
#
# number of rings (size 3 to 8) (size 9 to 14) (size 15 to 20)
#    0.000    0.750    5.000    1.500    3.500    2.000 
#    0.000    0.625    0.000    0.000    0.000    0.000 
#    0.000    0.000    0.000    0.000    0.000    0.000 
#
# Total GULP energy -89427.052218 kJ/mol
# GULP energy per Si atom -5589.190764 kJ/mol
# Density = 2.433250 g / cm^3
# Si number density = 24.388009 Si / 1000 Ang^3
#
#
#
# Elastic Constant Matrix: (Units=GPa)
#
#
# Indices 1 2 3 4 5 6 
#
# 1 184.0031 49.7507 45.6618 24.7278 -21.6901 36.8476
# 2 49.7507 97.4068 37.7300 23.7120 8.9654 25.5939
# 3 45.6618 37.7300 112.7910 24.1301 -2.9474 23.4113
# 4 24.7278 23.7120 24.1301 48.6270 18.8099 4.2343
# 5 -21.6901 8.9654 -2.9474 18.8099 37.1133 6.2864
# 6 36.8476 25.5939 23.4113 4.2343 6.2864 44.1608
#
#
#
# Elastic Compliance Matrix: (Units=1/GPa)
#
#
# Indices 1 2 3 4 5 6 
#
# 1 0.010128 -0.002281 0.000459 -0.008214 0.012076 -0.008303
# 2 -0.002281 0.014624 -0.002337 -0.003430 -0.002526 -0.004646
# 3 0.000459 -0.002337 0.012388 -0.007237 0.006471 -0.005824
# 4 -0.008214 -0.003430 -0.007237 0.039170 -0.026550 0.012702
# 5 0.012076 -0.002526 0.006471 -0.026550 0.051431 -0.016818
# 6 -0.008303 -0.004646 -0.005824 0.012702 -0.016818 0.036529
#
#
# Mechanical properties :
#
#
# Convention : Reuss Voigt Hill
#
# Bulk Modulus (GPa) = 34.69375 73.38735 54.04055
# Shear Modulus (GPa) = 27.44333 43.38410 35.41372
#
# Velocity S-wave (km/s) = 3.35816 4.22229 3.81477
# Velocity P-wave (km/s) = 5.41229 7.34351 6.45059
#
# Compressibility (1/GPa) = 0.02882363
#
# Stress axis : x y z
#
# Youngs Moduli (GPa) = 98.74085 68.37914 80.72429
#
# Poissons Ratio (x) = 0.15595 -0.03707
# Poissons Ratio (y) = 0.22520 0.18862
# Poissons Ratio (z) = -0.04535 0.15977
#
# Static dielectric constant tensor:
#      x y z
#    x 1.939020 -0.077440 0.005410 
#    y -0.077440 2.155100 -0.029210 
#    z 0.005410 -0.029210 1.893620 
# 
# From -- ./inp_files/206781.got.cif
#   From: 2010.05.17/outbox.cif.g08.bks.cpg/sg2_104_cif.got.tgz:206781.got - 2010.06.03 11:33:40.
