data_PCOD9045218
_publ_section_title
;
Structure prediction by ZEFSAII (Michael W. Deem and Ramdas Pophale) SiO2 
 PCOD9045218
Probable space group: P -1
;
_chemical_formula_sum "Si O2"
_cell_formula_units_Z 12
_cell_length_a 25.018935
_cell_length_b 5.155782
_cell_length_c 4.958547
_cell_angle_alpha 90.416192
_cell_angle_beta 110.452405
_cell_angle_gamma 50.401365
_cell_volume 440.728820
_symmetry_space_group_name_H-M "P -1"
_symmetry_group_IT_number 2
_symmetry_cell_setting 'triclinic'
loop_
_space_group_symop_operation_xyz
x,y,z
-x,-y,-z
loop_
_atom_site_type_symbol
_atom_site_label
_atom_site_fract_x
_atom_site_fract_y
_atom_site_fract_z
Si Si1 0.984064 0.737693 0.222322
Si Si2 0.164674 0.983745 0.903778
Si Si3 0.586002 0.822026 0.079015
Si Si4 0.708628 0.116166 0.094164
Si Si5 0.586714 0.133354 0.583639
Si Si6 0.137973 0.392079 0.374703
O O1 0.000000 0.500000 0.500000
O O2 0.051070 0.751838 0.309931
O O3 0.890881 0.072673 0.082745
O O4 0.000000 0.500000 0.000000
O O5 0.144924 0.279715 0.079478
O O6 0.141755 0.112712 0.555434
O O7 0.255425 0.756147 0.020587
O O8 0.598400 0.031474 0.291838
O O9 0.655284 0.406612 0.233001
O O10 0.587410 0.874173 0.765313
O O11 0.500000 0.000000 0.000000
O O12 0.782603 0.736150 0.359450
O O13 0.654265 0.103816 0.820113
O O14 0.500000 0.500000 0.500000
#
# Coordination Sequence:
#
# PCOD9045218 Si02
#       6
#     2   2   2   2   2   2
#     4   8  12  24  42  78 108 144 196 224 273 347
#     4   8  16  27  51  79 114 150 189 238 282 342
#     4  12  27  43  66  89 118 159 202 247 304 363
#     4  10  24  37  64  86 126 148 202 247 300 344
#     4  12  27  43  66  89 118 159 202 247 304 363
#     4   8  16  27  51  79 114 150 189 238 282 342
#
# _framework density 27.227622
#
# number of rings (size 3 to 8) (size 9 to 14) (size 15 to 20)
#    1.000    1.333    1.667    1.000    4.667    0.000 
#    0.000    0.000    0.000    0.000    0.000    9.333 
#    0.000    0.000    0.000    0.000    0.000    0.000 
#
# Total GULP energy -66859.303232 kJ/mol
# GULP energy per Si atom -5571.608603 kJ/mol
# Density = 2.716565 g / cm^3
# Si number density = 27.227622 Si / 1000 Ang^3
#
#
#
# Elastic Constant Matrix: (Units=GPa)
#
#
# Indices 1 2 3 4 5 6 
#
# 1 132.5531 63.3797 28.5421 -8.4756 40.3269 -43.7133
# 2 63.3797 93.4547 30.9054 -6.9888 17.4318 -23.3828
# 3 28.5421 30.9054 135.4102 7.8572 24.9086 -8.7122
# 4 -8.4756 -6.9888 7.8572 35.7916 -14.0655 8.3049
# 5 40.3269 17.4318 24.9086 -14.0655 69.5055 -11.9729
# 6 -43.7133 -23.3828 -8.7122 8.3049 -11.9729 42.7577
#
#
#
# Elastic Compliance Matrix: (Units=1/GPa)
#
#
# Indices 1 2 3 4 5 6 
#
# 1 0.016765 -0.007512 0.000302 -0.002859 -0.006492 0.011830
# 2 -0.007512 0.016771 -0.002661 0.002562 0.001788 0.000952
# 3 0.000302 -0.002661 0.008794 -0.003799 -0.003352 0.000445
# 4 -0.002859 0.002562 -0.003799 0.033246 0.007983 -0.006519
# 5 -0.006492 0.001788 -0.003352 0.007983 0.020134 -0.002255
# 6 0.011830 0.000952 0.000445 -0.006519 -0.002255 0.036729
#
#
# Mechanical properties :
#
#
# Convention : Reuss Voigt Hill
#
# Bulk Modulus (GPa) = 44.27097 67.45251 55.86174
# Shear Modulus (GPa) = 31.30674 45.51703 38.41189
#
# Velocity S-wave (km/s) = 3.39457 4.09311 3.76010
# Velocity P-wave (km/s) = 5.62664 6.86770 6.27791
#
# Compressibility (1/GPa) = 0.02258817
#
# Stress axis : x y z
#
# Youngs Moduli (GPa) = 59.64933 59.62532 113.71185
#
# Poissons Ratio (x) = 0.44793 -0.03436
# Poissons Ratio (y) = 0.44811 0.30255
# Poissons Ratio (z) = -0.01802 0.15864
#
# Static dielectric constant tensor:
#      x y z
#    x 2.205300 -0.022490 0.107350 
#    y -0.022490 2.354930 -0.252290 
#    z 0.107350 -0.252290 2.224820 
# 
# From -- ./inp_files/5016.got.cif
#   From: 2010.05.17/outbox.cif.g08.bks.cpg/sg2_3_cif.got.tgz:5016.got - 2010.06.03 11:33:40.
