data_PCOD9045074
_publ_section_title
;
Structure prediction by ZEFSAII (Michael W. Deem and Ramdas Pophale) SiO2 
 PCOD9045074
Probable space group: P -1
;
_chemical_formula_sum "Si O2"
_cell_formula_units_Z 16
_cell_length_a 13.436414
_cell_length_b 9.624261
_cell_length_c 5.051214
_cell_angle_alpha 117.114490
_cell_angle_beta 93.663971
_cell_angle_gamma 71.867763
_cell_volume 550.189567
_symmetry_space_group_name_H-M "P -1"
_symmetry_group_IT_number 2
_symmetry_cell_setting 'triclinic'
loop_
_space_group_symop_operation_xyz
x,y,z
-x,-y,-z
loop_
_atom_site_type_symbol
_atom_site_label
_atom_site_fract_x
_atom_site_fract_y
_atom_site_fract_z
Si Si1 0.083717 0.370157 0.093220
Si Si2 0.583555 0.814511 0.361551
Si Si3 0.573588 0.436127 0.208809
Si Si4 0.759456 0.928136 0.425891
Si Si5 0.294594 0.460021 0.281379
Si Si6 0.038922 0.806521 0.758880
Si Si7 0.567810 0.121732 0.190056
Si Si8 0.823539 0.235152 0.773177
O O1 0.140726 0.207879 0.791485
O O2 0.180714 0.434181 0.243069
O O3 0.000000 0.500000 0.000000
O O4 0.039227 0.298150 0.278369
O O5 0.671370 0.492630 0.384186
O O6 0.676233 0.016514 0.256772
O O7 0.512154 0.759652 0.509839
O O8 0.627702 0.695138 0.010711
O O9 0.500000 0.500000 0.500000
O O10 0.595519 0.236037 0.069725
O O11 0.500000 0.500000 0.000000
O O12 0.689999 0.842966 0.513496
O O13 0.796722 0.069388 0.677313
O O14 0.276477 0.622963 0.236829
O O15 0.088054 0.796682 0.468622
O O16 0.128908 0.724040 0.916446
O O17 0.000000 0.000000 0.000000
O O18 0.500000 0.000000 0.500000
O O19 0.500000 0.000000 0.000000
#
# Coordination Sequence:
#
# PCOD9045074 Si02
#       8
#     2   2   2   2   2   2   2   2
#     4  11  24  51  89 133 179 235 304 379 455 547
#     4   9  23  48  87 124 175 234 303 377 460 545
#     4  12  32  55  86 129 179 237 304 381 460 543
#     4  10  23  48  83 125 173 234 295 370 452 552
#     4  11  26  55  89 128 185 245 309 374 471 545
#     4  12  27  50  83 127 177 232 299 373 451 538
#     4  11  26  52  86 127 179 240 301 377 460 554
#     4  12  26  52  84 123 173 236 299 370 455 540
#
# _framework density 29.080883
#
# number of rings (size 3 to 8) (size 9 to 14) (size 15 to 20)
#    0.000    1.000    3.750    0.375    7.000    3.500 
#    0.000    1.250    0.000    0.000    0.000    0.000 
#    0.000    0.000    0.000    0.000    0.000    0.000 
#
# Total GULP energy -89594.403588 kJ/mol
# GULP energy per Si atom -5599.650224 kJ/mol
# Density = 2.901469 g / cm^3
# Si number density = 29.080883 Si / 1000 Ang^3
#
#
#
# Elastic Constant Matrix: (Units=GPa)
#
#
# Indices 1 2 3 4 5 6 
#
# 1 193.3284 73.2102 90.0525 3.4144 1.9503 3.1569
# 2 73.2102 188.6793 54.6600 5.5324 2.4881 9.9921
# 3 90.0525 54.6600 176.6746 -1.4662 1.4505 0.2736
# 4 3.4144 5.5324 -1.4662 54.1964 -0.3011 9.1592
# 5 1.9503 2.4881 1.4505 -0.3011 70.7462 7.0496
# 6 3.1569 9.9921 0.2736 9.1592 7.0496 71.2736
#
#
#
# Elastic Compliance Matrix: (Units=1/GPa)
#
#
# Indices 1 2 3 4 5 6 
#
# 1 0.007390 -0.001938 -0.003169 -0.000355 -0.000073 0.000009
# 2 -0.001938 0.006392 -0.000992 -0.000432 -0.000079 -0.000743
# 3 -0.003169 -0.000992 0.007586 0.000473 -0.000051 0.000194
# 4 -0.000355 -0.000432 0.000473 0.018937 0.000334 -0.002392
# 5 -0.000073 -0.000079 -0.000051 0.000334 0.014286 -0.001441
# 6 0.000009 -0.000743 0.000194 -0.002392 -0.001441 0.014583
#
#
# Mechanical properties :
#
#
# Convention : Reuss Voigt Hill
#
# Bulk Modulus (GPa) = 109.04847 110.50306 109.77577
# Shear Modulus (GPa) = 59.22109 61.96055 60.59082
#
# Velocity S-wave (km/s) = 4.51757 4.62088 4.56952
# Velocity P-wave (km/s) = 8.04929 8.15788 8.10377
#
# Compressibility (1/GPa) = 0.00917023
#
# Stress axis : x y z
#
# Youngs Moduli (GPa) = 135.32464 156.43616 131.81627
#
# Poissons Ratio (x) = 0.30322 0.41776
# Poissons Ratio (y) = 0.26230 0.13070
# Poissons Ratio (z) = 0.42888 0.15511
#
# Static dielectric constant tensor:
#      x y z
#    x 1.533750 -0.216720 0.069470 
#    y -0.216720 2.644600 -0.199350 
#    z 0.069470 -0.199350 2.442380 
# 
# From -- ./inp_files/107365.got.cif
#   From: 2010.05.17/outbox.cif.g08.bks.cpg/sg2_54_cif.got.tgz:107365.got - 2010.06.03 11:33:40.
