data_PCOD9045686
_publ_section_title
;
Structure prediction by ZEFSAII (Michael W. Deem and Ramdas Pophale) SiO2 
 PCOD9045686
Probable space group: P -1
;
_chemical_formula_sum "Si O2"
_cell_formula_units_Z 12
_cell_length_a 18.203989
_cell_length_b 7.358936
_cell_length_c 13.549188
_cell_angle_alpha 120.313900
_cell_angle_beta 158.078747
_cell_angle_gamma 46.417889
_cell_volume 425.525602
_symmetry_space_group_name_H-M "P -1"
_symmetry_group_IT_number 2
_symmetry_cell_setting 'triclinic'
loop_
_space_group_symop_operation_xyz
x,y,z
-x,-y,-z
loop_
_atom_site_type_symbol
_atom_site_label
_atom_site_fract_x
_atom_site_fract_y
_atom_site_fract_z
Si Si1 0.765651 0.481487 0.892367
Si Si2 0.332644 0.057511 0.403292
Si Si3 0.357978 0.878627 0.790315
Si Si4 0.922824 0.176072 0.200416
Si Si5 0.497482 0.292031 0.822188
Si Si6 0.017074 0.411678 0.635018
O O1 0.487927 0.748965 0.566395
O O2 0.800600 0.276597 0.965753
O O3 0.008011 0.266517 0.057130
O O4 0.840443 0.632788 0.095243
O O5 0.367315 0.238934 0.563229
O O6 0.500000 0.000000 0.500000
O O7 0.242732 0.926460 0.546718
O O8 0.128825 0.114244 0.650362
O O9 0.434670 0.585554 0.828780
O O10 0.500000 0.000000 0.000000
O O11 0.889749 0.445516 0.268540
O O12 0.796849 0.099018 0.095094
O O13 0.307737 0.351951 0.692869
#
# Coordination Sequence:
#
# PCOD9045686 Si02
#       6
#     2   2   2   2   2   2
#     4   9  23  43  71  98 139 178 220 293 343 402
#     4  11  24  48  73 100 133 179 233 293 349 408
#     4  12  23  41  66 100 144 184 225 277 338 412
#     4  10  24  41  66  96 145 178 227 279 338 404
#     4  11  25  40  69  97 134 183 233 281 341 406
#     4   9  22  41  62  99 136 184 224 276 333 403
#
# _framework density 28.200420999999999
#
# number of rings (size 3 to 8) (size 9 to 14) (size 15 to 20)
#    1.000    0.667    1.667    1.500    9.333    0.667 
#    0.000    1.667    0.000    0.000    0.000    0.000 
#    0.000    0.000    0.000    0.000    0.000    0.000 
#
# Total GULP energy -66833.442912 kJ/mol
# GULP energy per Si atom -5569.453576 kJ/mol
# Density = 2.813624 g / cm^3
# Si number density = 28.200421 Si / 1000 Ang^3
#
#
#
# Elastic Constant Matrix: (Units=GPa)
#
#
# Indices 1 2 3 4 5 6 
#
# 1 139.7167 37.4730 16.7985 -3.0665 27.4062 23.0419
# 2 37.4730 78.1077 -2.5213 15.4294 -1.1322 -9.3634
# 3 16.7985 -2.5213 89.5751 -2.2537 16.2465 14.3342
# 4 -3.0665 15.4294 -2.2537 30.4206 1.7265 6.6108
# 5 27.4062 -1.1322 16.2465 1.7265 56.4185 6.7749
# 6 23.0419 -9.3634 14.3342 6.6108 6.7749 51.3458
#
#
#
# Elastic Compliance Matrix: (Units=1/GPa)
#
#
# Indices 1 2 3 4 5 6 
#
# 1 0.011528 -0.007771 -0.000205 0.006843 -0.005097 -0.006742
# 2 -0.007771 0.020172 -0.000321 -0.013084 0.003657 0.008457
# 3 -0.000205 -0.000321 0.012328 0.001938 -0.003126 -0.003245
# 4 0.006843 -0.013084 0.001938 0.042964 -0.004140 -0.010983
# 5 -0.005097 0.003657 -0.003126 -0.004140 0.021112 0.001574
# 6 -0.006742 0.008457 -0.003245 -0.010983 0.001574 0.026156
#
#
# Mechanical properties :
#
#
# Convention : Reuss Voigt Hill
#
# Bulk Modulus (GPa) = 36.45044 45.65556 41.05300
# Shear Modulus (GPa) = 31.25026 44.68026 37.96526
#
# Velocity S-wave (km/s) = 3.33250 3.98475 3.67313
# Velocity P-wave (km/s) = 5.26887 6.11521 5.70775
#
# Compressibility (1/GPa) = 0.02743451
#
# Stress axis : x y z
#
# Youngs Moduli (GPa) = 86.74535 49.57318 81.11361
#
# Poissons Ratio (x) = 0.38524 0.01665
# Poissons Ratio (y) = 0.67410 0.02601
# Poissons Ratio (z) = 0.01781 0.01590
#
# Static dielectric constant tensor:
#      x y z
#    x 2.304080 -0.050860 -0.059050 
#    y -0.050860 2.291730 -0.322610 
#    z -0.059050 -0.322610 2.829570 
# 
# From -- ./inp_files/540307.got.cif
#   From: 2010.05.17/outbox.cif.g08.bks.cpg/sg2_271_cif.got.tgz:540307.got - 2010.06.03 11:33:40.
