data_PCOD9045895
_publ_section_title
;
Structure prediction by ZEFSAII (Michael W. Deem and Ramdas Pophale) SiO2 
 PCOD9045895
Probable space group: P -1
;
_chemical_formula_sum "Si O2"
_cell_formula_units_Z 16
_cell_length_a 8.811789
_cell_length_b 18.763731
_cell_length_c 6.143532
_cell_angle_alpha 112.722460
_cell_angle_beta 106.193220
_cell_angle_gamma 50.453529
_cell_volume 721.711606
_symmetry_space_group_name_H-M "P -1"
_symmetry_group_IT_number 2
_symmetry_cell_setting 'triclinic'
loop_
_space_group_symop_operation_xyz
x,y,z
-x,-y,-z
loop_
_atom_site_type_symbol
_atom_site_label
_atom_site_fract_x
_atom_site_fract_y
_atom_site_fract_z
Si Si1 0.134597 0.365403 0.871209
Si Si2 0.580872 0.481267 0.252546
Si Si3 0.010481 0.113186 0.770577
Si Si4 0.248570 0.472360 0.313359
Si Si5 0.023339 0.701988 0.929643
Si Si6 0.683295 0.810915 0.570298
Si Si7 0.658926 0.983232 0.863787
Si Si8 0.709827 0.074028 0.611837
O O1 0.258571 0.263703 0.684121
O O2 0.982634 0.443540 0.721995
O O3 0.266594 0.389318 0.081542
O O4 0.996724 0.362433 0.987241
O O5 0.388934 0.500501 0.316665
O O6 0.668733 0.541067 0.423648
O O7 0.775512 0.369641 0.208753
O O8 0.500000 0.500000 0.000000
O O9 0.809937 0.126617 0.746639
O O10 0.125783 0.035513 0.531542
O O11 0.980838 0.213458 0.855772
O O12 0.144872 0.059763 0.972826
O O13 0.830634 0.754755 0.762129
O O14 0.697837 0.897302 0.626758
O O15 0.450597 0.868633 0.574894
O O16 0.613975 0.066830 0.784202
O O17 0.500000 0.000000 0.000000
#
# Coordination Sequence:
#
# PCOD9045895 Si02
#       8
#     2   2   2   2   2   2   2   2
#     4  11  23  42  64  93 131 164 219 271 317 396
#     4  11  22  44  67  92 129 167 210 265 328 391
#     4  10  24  42  63  93 129 170 222 267 325 390
#     4  10  24  42  65  94 124 173 211 260 335 388
#     4  11  24  41  63  98 124 169 215 271 324 384
#     4  11  24  38  65  94 129 168 220 266 322 389
#     4  11  22  40  66  93 128 174 216 265 332 391
#     4  11  23  42  64  92 130 175 216 272 324 387
#
# _framework density 22.169518
#
# number of rings (size 3 to 8) (size 9 to 14) (size 15 to 20)
#    0.000    1.250    3.750    1.500    5.250    1.500 
#    0.000    0.000    0.000    0.000    0.000    0.000 
#    0.000    0.000    0.000    0.000    0.000    0.000 
#
# Total GULP energy -89176.801935 kJ/mol
# GULP energy per Si atom -5573.550121 kJ/mol
# Density = 2.211906 g / cm^3
# Si number density = 22.169518 Si / 1000 Ang^3
#
#
#
# Elastic Constant Matrix: (Units=GPa)
#
#
# Indices 1 2 3 4 5 6 
#
# 1 81.4273 21.7321 54.8289 -4.7638 36.5490 -6.0691
# 2 21.7321 38.7072 6.5460 -2.5205 14.5303 -9.1723
# 3 54.8289 6.5460 95.4204 12.2882 46.9404 9.5112
# 4 -4.7638 -2.5205 12.2882 42.6143 -9.8865 7.9823
# 5 36.5490 14.5303 46.9404 -9.8865 48.9517 -0.9233
# 6 -6.0691 -9.1723 9.5112 7.9823 -0.9233 22.8536
#
#
#
# Elastic Compliance Matrix: (Units=1/GPa)
#
#
# Indices 1 2 3 4 5 6 
#
# 1 0.026808 -0.009938 -0.015929 0.005404 -0.000552 0.007850
# 2 -0.009938 0.037087 0.010421 -0.007209 -0.014852 0.009826
# 3 -0.015929 0.010421 0.037154 -0.016913 -0.030448 -0.010833
# 4 0.005404 -0.007209 -0.016913 0.034486 0.021182 -0.005609
# 5 -0.000552 -0.014852 -0.030448 0.021182 0.058752 0.001540
# 6 0.007850 0.009826 -0.010833 -0.005609 0.001540 0.056315
#
#
# Mechanical properties :
#
#
# Convention : Reuss Voigt Hill
#
# Bulk Modulus (GPa) = 14.25388 42.41879 28.33633
# Shear Modulus (GPa) = 16.39991 31.71377 24.05684
#
# Velocity S-wave (km/s) = 2.72279 3.78631 3.29771
# Velocity P-wave (km/s) = 4.04082 6.18791 5.22582
#
# Compressibility (1/GPa) = 0.07015632
#
# Stress axis : x y z
#
# Youngs Moduli (GPa) = 37.30203 26.96386 26.91496
#
# Poissons Ratio (x) = 0.26798 0.42874
# Poissons Ratio (y) = 0.37072 -0.28049
# Poissons Ratio (z) = 0.59420 -0.28100
#
# Static dielectric constant tensor:
#      x y z
#    x 1.865100 0.001870 -0.110520 
#    y 0.001870 1.837610 -0.030480 
#    z -0.110520 -0.030480 2.221090 
# 
# From -- ./inp_files/49072.got.cif
#   From: 2010.05.17/outbox.cif.g08.bks.cpg/sg2_25_cif.got.tgz:49072.got - 2010.06.03 11:33:40.
