data_PCOD9045790
_publ_section_title
;
Structure prediction by ZEFSAII (Michael W. Deem and Ramdas Pophale) SiO2 
 PCOD9045790
Probable space group: P -1
;
_chemical_formula_sum "Si O2"
_cell_formula_units_Z 16
_cell_length_a 11.908793
_cell_length_b 9.410996
_cell_length_c 18.377725
_cell_angle_alpha 82.580327
_cell_angle_beta 54.718643
_cell_angle_gamma 37.803509
_cell_volume 779.662018
_symmetry_space_group_name_H-M "P -1"
_symmetry_group_IT_number 2
_symmetry_cell_setting 'triclinic'
loop_
_space_group_symop_operation_xyz
x,y,z
-x,-y,-z
loop_
_atom_site_type_symbol
_atom_site_label
_atom_site_fract_x
_atom_site_fract_y
_atom_site_fract_z
Si Si1 0.870143 0.645246 0.618305
Si Si2 0.225736 0.781324 0.636582
Si Si3 0.011408 0.685187 0.278077
Si Si4 0.601634 0.791553 0.035508
Si Si5 0.440401 0.716595 0.986441
Si Si6 0.214330 0.603401 0.791286
Si Si7 0.199106 0.289001 0.789590
Si Si8 0.751018 0.014094 0.724020
O O1 0.988840 0.423003 0.647195
O O2 0.000000 0.500000 0.500000
O O3 0.519003 0.954048 0.719910
O O4 0.927312 0.755207 0.617142
O O5 0.500000 0.500000 0.500000
O O6 0.282124 0.659918 0.702212
O O7 0.151486 0.017043 0.659572
O O8 0.953384 0.940673 0.694742
O O9 0.342547 0.426145 0.147704
O O10 0.880548 0.724589 0.253075
O O11 0.400303 0.968347 0.169380
O O12 0.535540 0.705849 0.025693
O O13 0.949865 0.488440 0.930563
O O14 0.500000 0.000000 0.000000
O O15 0.500000 0.500000 0.000000
O O16 0.100199 0.068223 0.077461
O O17 0.189980 0.469695 0.770343
O O18 0.478098 0.344615 0.766390
#
# Coordination Sequence:
#
# PCOD9045790 Si02
#       8
#     2   2   2   2   2   2   2   2
#     4  11  27  44  65  97 136 170 229 275 321 394
#     4  12  27  46  69  92 133 185 225 266 333 398
#     4  11  25  43  68  98 132 174 220 278 329 387
#     4  11  19  39  69  96 132 167 220 267 329 400
#     4  11  20  40  65  98 137 170 217 267 334 399
#     4  11  23  43  68  98 135 173 221 270 338 396
#     4  10  24  41  70 100 130 173 217 270 336 388
#     4  11  25  44  69  99 131 178 219 278 331 391
#
# _framework density 20.521713999999999
#
# number of rings (size 3 to 8) (size 9 to 14) (size 15 to 20)
#    0.000    1.000    3.750    2.250    7.000    3.000 
#    0.000    1.250    0.000    0.000    0.000    0.000 
#    0.000    0.000    0.000    0.000    0.000    0.000 
#
# Total GULP energy -89408.752879 kJ/mol
# GULP energy per Si atom -5588.047055 kJ/mol
# Density = 2.047501 g / cm^3
# Si number density = 20.521714 Si / 1000 Ang^3
#
#
#
# Elastic Constant Matrix: (Units=GPa)
#
#
# Indices 1 2 3 4 5 6 
#
# 1 78.5812 51.3038 20.5931 -1.7545 3.9804 11.7197
# 2 51.3038 118.6757 20.0267 3.5417 -1.5515 6.0524
# 3 20.5931 20.0267 79.9495 13.3866 8.0933 -4.9498
# 4 -1.7545 3.5417 13.3866 25.0166 0.4427 7.4243
# 5 3.9804 -1.5515 8.0933 0.4427 31.3189 5.8375
# 6 11.7197 6.0524 -4.9498 7.4243 5.8375 33.2268
#
#
#
# Elastic Compliance Matrix: (Units=1/GPa)
#
#
# Indices 1 2 3 4 5 6 
#
# 1 0.020630 -0.007864 -0.005135 0.007777 -0.000247 -0.008304
# 2 -0.007864 0.012007 -0.000772 -0.002056 0.001705 0.000631
# 3 -0.005135 -0.000772 0.016977 -0.011611 -0.005094 0.007970
# 4 0.007777 -0.002056 -0.011611 0.051822 0.004239 -0.016422
# 5 -0.000247 0.001705 -0.005094 0.004239 0.034801 -0.008044
# 6 -0.008304 0.000631 0.007970 -0.016422 -0.008044 0.039180
#
#
# Mechanical properties :
#
#
# Convention : Reuss Voigt Hill
#
# Bulk Modulus (GPa) = 45.30271 51.22818 48.26544
# Shear Modulus (GPa) = 23.77372 30.26462 27.01917
#
# Velocity S-wave (km/s) = 3.40732 3.84443 3.63245
# Velocity P-wave (km/s) = 6.13214 6.68755 6.41586
#
# Compressibility (1/GPa) = 0.02207374
#
# Stress axis : x y z
#
# Youngs Moduli (GPa) = 48.47319 83.28167 58.90280
#
# Poissons Ratio (x) = 0.65490 0.30248
# Poissons Ratio (y) = 0.38118 0.04544
# Poissons Ratio (z) = 0.24892 0.06425
#
# Static dielectric constant tensor:
#      x y z
#    x 1.731850 -0.011090 0.002630 
#    y -0.011090 1.701710 0.001170 
#    z 0.002630 0.001170 1.780920 
# 
# From -- ./inp_files/282595.got.cif
#   From: 2010.05.17/outbox.cif.g08.bks.cpg/sg2_142_cif.got.tgz:282595.got - 2010.06.03 11:33:40.
