data_PCOD9045282
_publ_section_title
;
Structure prediction by ZEFSAII (Michael W. Deem and Ramdas Pophale) SiO2 
 PCOD9045282
Probable space group: P -1
;
_chemical_formula_sum "Si O2"
_cell_formula_units_Z 15
_cell_length_a 10.953450
_cell_length_b 20.082506
_cell_length_c 7.053208
_cell_angle_alpha 119.416957
_cell_angle_beta 81.495359
_cell_angle_gamma 144.215656
_cell_volume 688.032743
_symmetry_space_group_name_H-M "P -1"
_symmetry_group_IT_number 2
_symmetry_cell_setting 'triclinic'
loop_
_space_group_symop_operation_xyz
x,y,z
-x,-y,-z
loop_
_atom_site_type_symbol
_atom_site_label
_atom_site_fract_x
_atom_site_fract_y
_atom_site_fract_z
Si Si1 0.452889 0.376671 0.745936
Si Si2 0.219790 0.476363 0.782118
Si Si3 0.805801 0.677072 0.956427
Si Si4 0.217576 0.642243 0.895386
Si Si5 0.500000 0.500000 0.500000
Si Si6 0.333493 0.827850 0.602912
Si Si7 0.300216 0.850767 0.090245
Si Si8 0.651987 0.328877 0.523824
O O1 0.546450 0.488660 0.726564
O O2 0.468822 0.300871 0.557164
O O3 0.674317 0.499139 0.013340
O O4 0.238741 0.291296 0.809970
O O5 0.278264 0.598213 0.936243
O O6 0.339096 0.491715 0.609079
O O7 0.937342 0.316836 0.609034
O O8 0.766426 0.687726 0.770956
O O9 0.042073 0.753959 0.033332
O O10 0.310102 0.669088 0.702760
O O11 0.926964 0.494780 0.753290
O O12 0.314677 0.778829 0.100668
O O13 0.426584 0.790247 0.520328
O O14 0.496306 0.978625 0.683078
O O15 0.319825 0.838871 0.846709
#
# Coordination Sequence:
#
# PCOD9045282 Si02
#       8
#     2   2   2   2   1   2   2   2
#     4  10  20  31  52  77 111 131 171 214 258 299
#     4  10  19  32  51  84 100 137 170 215 253 302
#     4  10  19  33  52  79 102 139 168 215 258 300
#     4   9  17  29  56  74 100 132 177 213 253 287
#     4  10  18  32  56  76 102 128 180 218 242 304
#     4   9  19  30  54  78 104 133 173 212 261 295
#     4  10  17  34  53  79 103 135 170 218 253 308
#     4   9  16  31  48  77  98 134 171 216 247 297
#
# _framework density 21.801288
#
# number of rings (size 3 to 8) (size 9 to 14) (size 15 to 20)
#    0.000    2.400    2.667    1.600    0.000    2.133 
#    0.000    1.333    0.000    0.800   10.400    0.000 
#    0.000    0.000    0.000    0.000    0.000    0.000 
#
# Total GULP energy -83520.346223 kJ/mol
# GULP energy per Si atom -5568.023082 kJ/mol
# Density = 2.175167 g / cm^3
# Si number density = 21.801288 Si / 1000 Ang^3
#
#
#
# Elastic Constant Matrix: (Units=GPa)
#
#
# Indices 1 2 3 4 5 6 
#
# 1 157.3569 63.0676 44.7762 6.5948 -36.8441 9.8877
# 2 63.0676 86.8192 40.9312 -11.7363 -26.8678 0.7591
# 3 44.7762 40.9312 62.7506 -0.9632 -28.6262 -9.5476
# 4 6.5948 -11.7363 -0.9632 39.0649 -2.3497 -11.7138
# 5 -36.8441 -26.8678 -28.6262 -2.3497 41.0701 -12.5665
# 6 9.8877 0.7591 -9.5476 -11.7138 -12.5665 39.1170
#
#
#
# Elastic Compliance Matrix: (Units=1/GPa)
#
#
# Indices 1 2 3 4 5 6 
#
# 1 0.010750 -0.006310 -0.003862 -0.005161 0.001079 -0.004736
# 2 -0.006310 0.022273 -0.006237 0.009348 0.006480 0.004522
# 3 -0.003862 -0.006237 0.037620 0.007434 0.025428 0.020674
# 4 -0.005161 0.009348 0.007434 0.035794 0.014300 0.018250
# 5 0.001079 0.006480 0.025428 0.014300 0.056764 0.028326
# 6 -0.004736 0.004522 0.020674 0.018250 0.028326 0.046285
#
#
# Mechanical properties :
#
#
# Convention : Reuss Voigt Hill
#
# Bulk Modulus (GPa) = 26.43916 67.16408 46.80162
# Shear Modulus (GPa) = 19.61458 34.39385 27.00421
#
# Velocity S-wave (km/s) = 3.00275 3.97622 3.52327
# Velocity P-wave (km/s) = 4.91688 7.20796 6.16970
#
# Compressibility (1/GPa) = 0.03782269
#
# Stress axis : x y z
#
# Youngs Moduli (GPa) = 93.02658 44.89836 26.58162
#
# Poissons Ratio (x) = 0.28333 0.10265
# Poissons Ratio (y) = 0.58704 0.16580
# Poissons Ratio (z) = 0.35926 0.28005
#
# Static dielectric constant tensor:
#      x y z
#    x 1.858480 -0.086590 0.025080 
#    y -0.086590 1.890060 -0.082790 
#    z 0.025080 -0.082790 1.881100 
# 
# From -- ./inp_files/167799.got.cif
#   From: 2010.05.17/outbox.cif.g08.bks.cpg/sg2_84_cif.got.tgz:167799.got - 2010.06.03 11:33:40.
