data_PCOD9045424
_publ_section_title
;
Structure prediction by ZEFSAII (Michael W. Deem and Ramdas Pophale) SiO2 
 PCOD9045424
Probable space group: P -1
;
_chemical_formula_sum "Si O2"
_cell_formula_units_Z 16
_cell_length_a 5.283134
_cell_length_b 17.166686
_cell_length_c 12.539951
_cell_angle_alpha 40.912838
_cell_angle_beta 113.613347
_cell_angle_gamma 101.029293
_cell_volume 670.600099
_symmetry_space_group_name_H-M "P -1"
_symmetry_group_IT_number 2
_symmetry_cell_setting 'triclinic'
loop_
_space_group_symop_operation_xyz
x,y,z
-x,-y,-z
loop_
_atom_site_type_symbol
_atom_site_label
_atom_site_fract_x
_atom_site_fract_y
_atom_site_fract_z
Si Si1 0.503552 0.556305 0.600782
Si Si2 0.404322 0.223523 0.071965
Si Si3 0.935262 0.324097 0.439018
Si Si4 0.882639 0.196526 0.343355
Si Si5 0.097900 0.097250 0.837602
Si Si6 0.633932 0.129163 0.999759
Si Si7 0.189801 0.062670 0.348594
Si Si8 0.139032 0.648990 0.244901
O O1 0.759877 0.632500 0.544820
O O2 0.256700 0.581758 0.442529
O O3 0.671899 0.421603 0.744896
O O4 0.334672 0.583284 0.655256
O O5 0.580780 0.242249 0.187472
O O6 0.223118 0.121304 0.179637
O O7 0.632270 0.161391 0.089517
O O8 0.181461 0.330074 0.870622
O O9 0.912264 0.206066 0.630087
O O10 0.917968 0.285215 0.353368
O O11 0.088571 0.170830 0.303197
O O12 0.942866 0.057937 0.542878
O O13 0.312029 0.158739 0.877897
O O14 0.265663 0.010110 0.866050
O O15 0.000000 0.000000 0.000000
O O16 0.782990 0.219511 0.865039
O O17 0.500000 0.000000 0.500000
#
# Coordination Sequence:
#
# PCOD9045424 Si02
#       8
#     2   2   2   2   2   2   2   2
#     4  11  28  49  76 103 138 195 249 300 359 411
#     4  11  23  40  69  99 138 183 235 295 353 426
#     4  12  27  47  72 105 149 189 234 301 362 432
#     4  10  24  40  66 101 144 185 238 283 363 433
#     4  11  25  40  65 106 147 183 223 295 370 436
#     4  11  23  40  67 101 138 178 234 291 363 428
#     4   9  21  40  63 101 135 191 230 284 348 428
#     4  11  25  47  74 100 138 183 253 300 348 431
#
# _framework density 23.859231000000001
#
# number of rings (size 3 to 8) (size 9 to 14) (size 15 to 20)
#    0.000    1.250    1.250    3.000   15.750    1.000 
#    0.000    1.250    0.000    0.000    0.000    0.000 
#    0.000    0.000    0.000    0.000    0.000    0.000 
#
# Total GULP energy -89278.450145 kJ/mol
# GULP energy per Si atom -5579.903134 kJ/mol
# Density = 2.380493 g / cm^3
# Si number density = 23.859231 Si / 1000 Ang^3
#
#
#
# Elastic Constant Matrix: (Units=GPa)
#
#
# Indices 1 2 3 4 5 6 
#
# 1 106.8230 33.6008 17.8841 1.5868 7.1243 -10.0649
# 2 33.6008 130.4821 35.4386 6.7326 14.7689 -14.2586
# 3 17.8841 35.4386 55.5113 6.4772 20.5828 8.6339
# 4 1.5868 6.7326 6.4772 36.9840 2.5102 6.5151
# 5 7.1243 14.7689 20.5828 2.5102 37.7476 -3.4721
# 6 -10.0649 -14.2586 8.6339 6.5151 -3.4721 39.5679
#
#
#
# Elastic Compliance Matrix: (Units=1/GPa)
#
#
# Indices 1 2 3 4 5 6 
#
# 1 0.010617 -0.001670 -0.002975 -0.000164 0.000543 0.002823
# 2 -0.001670 0.010609 -0.007100 -0.001586 0.000626 0.005263
# 3 -0.002975 -0.007100 0.030666 -0.001023 -0.014334 -0.011096
# 4 -0.000164 -0.001586 -0.001023 0.028506 -0.001163 -0.005186
# 5 0.000543 0.000626 -0.014334 -0.001163 0.034657 0.006724
# 6 0.002823 0.005263 -0.011096 -0.005186 0.006724 0.031753
#
#
# Mechanical properties :
#
#
# Convention : Reuss Voigt Hill
#
# Bulk Modulus (GPa) = 35.21083 51.85151 43.53117
# Shear Modulus (GPa) = 27.81419 36.58609 32.20014
#
# Velocity S-wave (km/s) = 3.41803 3.92013 3.67766
# Velocity P-wave (km/s) = 5.51063 6.50149 6.02646
#
# Compressibility (1/GPa) = 0.02840035
#
# Stress axis : x y z
#
# Youngs Moduli (GPa) = 94.18851 94.26386 32.60976
#
# Poissons Ratio (x) = 0.15747 0.09701
# Poissons Ratio (y) = 0.15734 0.23153
# Poissons Ratio (z) = 0.28021 0.66926
#
# Static dielectric constant tensor:
#      x y z
#    x 2.027850 0.003670 -0.018190 
#    y 0.003670 1.922730 0.035890 
#    z -0.018190 0.035890 1.973650 
# 
# From -- ./inp_files/84474.got.cif
#   From: 2010.05.17/outbox.cif.g08.bks.cpg/sg2_43_cif.got.tgz:84474.got - 2010.06.03 11:33:40.
