data_PCOD9045532
_publ_section_title
;
Structure prediction by ZEFSAII (Michael W. Deem and Ramdas Pophale) SiO2 
 PCOD9045532
Probable space group: P -1
;
_chemical_formula_sum "Si O2"
_cell_formula_units_Z 13
_cell_length_a 8.559044
_cell_length_b 15.946005
_cell_length_c 5.275274
_cell_angle_alpha 122.874790
_cell_angle_beta 122.739287
_cell_angle_gamma 62.648488
_cell_volume 494.401549
_symmetry_space_group_name_H-M "P -1"
_symmetry_group_IT_number 2
_symmetry_cell_setting 'triclinic'
loop_
_space_group_symop_operation_xyz
x,y,z
-x,-y,-z
loop_
_atom_site_type_symbol
_atom_site_label
_atom_site_fract_x
_atom_site_fract_y
_atom_site_fract_z
Si Si1 0.037183 0.753023 0.436640
Si Si2 0.937221 0.119139 0.821462
Si Si3 0.334712 0.987621 0.023914
Si Si4 0.725249 0.464267 0.676920
Si Si5 0.764145 0.655071 0.323576
Si Si6 0.000000 0.500000 0.500000
Si Si7 0.473661 0.850646 0.340182
O O1 0.013245 0.823598 0.287679
O O2 0.213529 0.654781 0.397495
O O3 0.856712 0.705298 0.261634
O O4 0.064283 0.812227 0.815774
O O5 0.720246 0.106081 0.599658
O O6 0.108397 0.019021 0.839636
O O7 0.365649 0.083336 0.388233
O O8 0.401845 0.877572 0.035937
O O9 0.500000 0.000000 0.000000
O O10 0.500000 0.500000 0.500000
O O11 0.843970 0.482977 0.565897
O O12 0.777286 0.533752 0.069826
O O13 0.562471 0.733568 0.306669
O O14 0.907898 0.627718 0.636844
#
# Coordination Sequence:
#
# PCOD9045532 Si02
#       7
#     2   2   2   2   2   1   2
#     4  11  26  46  74 108 148 196 241 307 368 442
#     4  12  27  48  76 110 150 189 251 302 373 451
#     4  11  26  47  75 102 149 188 249 307 378 441
#     4  11  26  43  69 105 146 195 255 301 370 449
#     4  11  24  45  72  99 148 195 246 302 373 437
#     4  10  24  40  70  98 142 192 240 306 364 434
#     4  11  26  46  73 109 139 198 243 309 373 443
#
# _framework density 26.294415000000001
#
# number of rings (size 3 to 8) (size 9 to 14) (size 15 to 20)
#    0.000    0.923    1.538    4.154   15.077    2.462 
#    0.000    0.000    0.000    0.000    0.000    0.000 
#    0.000    0.000    0.000    0.000    0.000    0.000 
#
# Total GULP energy -72537.868934 kJ/mol
# GULP energy per Si atom -5579.836072 kJ/mol
# Density = 2.623457 g / cm^3
# Si number density = 26.294415 Si / 1000 Ang^3
#
#
#
# Elastic Constant Matrix: (Units=GPa)
#
#
# Indices 1 2 3 4 5 6 
#
# 1 123.6587 53.8040 16.5829 -13.3037 8.3896 -18.7146
# 2 53.8040 195.7666 4.0258 -1.9868 -9.8436 -32.3388
# 3 16.5829 4.0258 65.2088 14.6518 1.6888 -5.4372
# 4 -13.3037 -1.9868 14.6518 34.4120 -1.2811 -3.5305
# 5 8.3896 -9.8436 1.6888 -1.2811 40.6067 -16.6675
# 6 -18.7146 -32.3388 -5.4372 -3.5305 -16.6675 71.8043
#
#
#
# Elastic Compliance Matrix: (Units=1/GPa)
#
#
# Indices 1 2 3 4 5 6 
#
# 1 0.010664 -0.002731 -0.003647 0.005548 -0.002104 0.001058
# 2 -0.002731 0.006508 0.000567 -0.000488 0.003340 0.003013
# 3 -0.003647 0.000567 0.018304 -0.009150 -0.000066 0.000226
# 4 0.005548 -0.000488 -0.009150 0.035384 0.001288 0.002572
# 5 -0.002104 0.003340 -0.000066 0.001288 0.029103 0.007770
# 6 0.001058 0.003013 0.000226 0.002572 0.007770 0.017507
#
#
# Mechanical properties :
#
#
# Convention : Reuss Voigt Hill
#
# Bulk Modulus (GPa) = 41.92121 59.27327 50.59724
# Shear Modulus (GPa) = 36.48513 50.04604 43.26559
#
# Velocity S-wave (km/s) = 3.72904 4.36741 4.06079
# Velocity P-wave (km/s) = 5.87525 6.92990 6.42425
#
# Compressibility (1/GPa) = 0.02385427
#
# Stress axis : x y z
#
# Youngs Moduli (GPa) = 93.77678 153.66490 54.63207
#
# Poissons Ratio (x) = 0.41959 0.19925
# Poissons Ratio (y) = 0.25606 -0.03098
# Poissons Ratio (z) = 0.34201 -0.08713
#
# Static dielectric constant tensor:
#      x y z
#    x 2.024160 -0.014770 -0.038690 
#    y -0.014770 2.011540 0.172770 
#    z -0.038690 0.172770 1.944800 
# 
# From -- ./inp_files/26590.got.cif
#   From: 2010.05.17/outbox.cif.g08.bks.cpg/sg2_14_cif.got.tgz:26590.got - 2010.06.03 11:33:40.
