data_PCOD9045478
_publ_section_title
;
Structure prediction by ZEFSAII (Michael W. Deem and Ramdas Pophale) SiO2 
 PCOD9045478
Probable space group: P -1
;
_chemical_formula_sum "Si O2"
_cell_formula_units_Z 16
_cell_length_a 10.593799
_cell_length_b 8.176692
_cell_length_c 9.032164
_cell_angle_alpha 109.389284
_cell_angle_beta 86.877820
_cell_angle_gamma 101.861985
_cell_volume 722.172725
_symmetry_space_group_name_H-M "P -1"
_symmetry_group_IT_number 2
_symmetry_cell_setting 'triclinic'
loop_
_space_group_symop_operation_xyz
x,y,z
-x,-y,-z
loop_
_atom_site_type_symbol
_atom_site_label
_atom_site_fract_x
_atom_site_fract_y
_atom_site_fract_z
Si Si1 0.099258 0.771010 0.566099
Si Si2 0.042730 0.475602 0.735267
Si Si3 0.478966 0.775353 0.166456
Si Si4 0.691267 0.920946 0.723842
Si Si5 0.981813 0.042547 0.842651
Si Si6 0.644770 0.986594 0.435372
Si Si7 0.149749 0.414512 0.987645
Si Si8 0.400585 0.392237 0.143625
O O1 0.009959 0.701588 0.409931
O O2 0.077749 0.621388 0.648348
O O3 0.054938 0.935261 0.695112
O O4 0.249692 0.834153 0.534032
O O5 0.160200 0.512806 0.858559
O O6 0.920232 0.504303 0.849969
O O7 0.615102 0.883165 0.252803
O O8 0.436587 0.604776 0.226126
O O9 0.386885 0.918257 0.203367
O O10 0.493730 0.682936 0.981539
O O11 0.832441 0.993084 0.798967
O O12 0.696506 0.886714 0.537692
O O13 0.631456 0.738696 0.755479
O O14 0.046973 0.245158 0.889721
O O15 0.000000 0.000000 0.000000
O O16 0.500000 0.000000 0.500000
O O17 0.276136 0.370219 0.037649
#
# Coordination Sequence:
#
# PCOD9045478 Si02
#       8
#     2   2   2   2   2   2   2   2
#     4  11  23  45  68 101 143 178 240 284 344 428
#     4  10  24  40  68 107 137 185 221 294 361 408
#     4  10  25  44  66  98 134 183 238 282 337 406
#     4  11  24  44  70  96 138 182 223 292 355 400
#     4  12  23  41  69 103 134 178 227 287 355 421
#     4  10  24  44  67  97 134 187 231 278 337 413
#     4  11  23  41  66 103 142 175 227 291 357 418
#     4  11  23  43  68  99 137 176 236 286 334 420
#
# _framework density 22.155366000000001
#
# number of rings (size 3 to 8) (size 9 to 14) (size 15 to 20)
#    0.000    1.250    2.500    1.875    7.000    3.500 
#    9.000    0.000    0.000    0.000    0.000    0.000 
#    0.000    0.000    0.000    0.000    0.000    0.000 
#
# Total GULP energy -89295.213588 kJ/mol
# GULP energy per Si atom -5580.950849 kJ/mol
# Density = 2.210494 g / cm^3
# Si number density = 22.155366 Si / 1000 Ang^3
#
#
#
# Elastic Constant Matrix: (Units=GPa)
#
#
# Indices 1 2 3 4 5 6 
#
# 1 77.3196 14.8560 22.1707 -0.5986 11.3636 -2.5971
# 2 14.8560 68.7710 3.8370 -3.1465 4.3481 4.6663
# 3 22.1707 3.8370 93.3942 -10.4197 5.7062 -1.8054
# 4 -0.5986 -3.1465 -10.4197 34.8877 -8.6212 3.8072
# 5 11.3636 4.3481 5.7062 -8.6212 34.8428 3.8080
# 6 -2.5971 4.6663 -1.8054 3.8072 3.8080 23.2996
#
#
#
# Elastic Compliance Matrix: (Units=1/GPa)
#
#
# Indices 1 2 3 4 5 6 
#
# 1 0.015364 -0.003155 -0.003440 -0.002669 -0.005080 0.003344
# 2 -0.003155 0.015550 0.000245 0.001804 -0.000098 -0.003726
# 3 -0.003440 0.000245 0.011905 0.003535 0.000027 -0.000092
# 4 -0.002669 0.001804 0.003535 0.032844 0.008982 -0.007219
# 5 -0.005080 -0.000098 0.000027 0.008982 0.033404 -0.007472
# 6 0.003344 -0.003726 -0.000092 -0.007219 -0.007472 0.046432
#
#
# Mechanical properties :
#
#
# Convention : Reuss Voigt Hill
#
# Bulk Modulus (GPa) = 33.20103 35.69027 34.44565
# Shear Modulus (GPa) = 28.05231 31.84742 29.94986
#
# Velocity S-wave (km/s) = 3.56218 3.79550 3.68069
# Velocity P-wave (km/s) = 5.65127 5.94574 5.80037
#
# Compressibility (1/GPa) = 0.03011955
#
# Stress axis : x y z
#
# Youngs Moduli (GPa) = 65.08637 64.30706 83.99870
#
# Poissons Ratio (x) = 0.20288 0.28899
# Poissons Ratio (y) = 0.20534 -0.02060
# Poissons Ratio (z) = 0.22392 -0.01577
#
# Static dielectric constant tensor:
#      x y z
#    x 1.850620 -0.075000 -0.005540 
#    y -0.075000 2.186040 -0.233900 
#    z -0.005540 -0.233900 1.900690 
# 
# From -- ./inp_files/240466.got.cif
#   From: 2010.05.17/outbox.cif.g08.bks.cpg/sg2_121_cif.got.tgz:240466.got - 2010.06.03 11:33:40.
