data_PCOD9045621
_publ_section_title
;
Structure prediction by ZEFSAII (Michael W. Deem and Ramdas Pophale) SiO2 
 PCOD9045621
Probable space group: P -1
;
_chemical_formula_sum "Si O2"
_cell_formula_units_Z 14
_cell_length_a 20.573293
_cell_length_b 5.340387
_cell_length_c 7.594707
_cell_angle_alpha 61.102360
_cell_angle_beta 68.042219
_cell_angle_gamma 106.841873
_cell_volume 552.237715
_symmetry_space_group_name_H-M "P -1"
_symmetry_group_IT_number 2
_symmetry_cell_setting 'triclinic'
loop_
_space_group_symop_operation_xyz
x,y,z
-x,-y,-z
loop_
_atom_site_type_symbol
_atom_site_label
_atom_site_fract_x
_atom_site_fract_y
_atom_site_fract_z
Si Si1 0.934242 0.421986 0.839708
Si Si2 0.310123 0.379900 0.042050
Si Si3 0.451605 0.683904 0.516121
Si Si4 0.243498 0.787558 0.813070
Si Si5 0.630876 0.449689 0.701717
Si Si6 0.786684 0.398992 0.486033
Si Si7 0.031757 0.127856 0.698857
O O1 0.953255 0.649249 0.567954
O O2 0.977829 0.217797 0.843985
O O3 0.831509 0.185807 0.048713
O O4 0.979862 0.722579 0.839137
O O5 0.377438 0.538491 0.083799
O O6 0.236685 0.979746 0.302835
O O7 0.360056 0.421171 0.797553
O O8 0.268139 0.590022 0.984151
O O9 0.500000 0.500000 0.500000
O O10 0.438425 0.783005 0.299853
O O11 0.500000 0.000000 0.500000
O O12 0.207559 0.577702 0.737933
O O13 0.328438 0.157290 0.543073
O O14 0.705300 0.391680 0.627441
O O15 0.873111 0.704921 0.384724
#
# Coordination Sequence:
#
# PCOD9045621 Si02
#       7
#     2   2   2   2   2   2   2
#     4  10  24  41  67 101 150 198 248 314 374 418
#     4  11  27  49  79 108 153 199 244 315 368 445
#     4  12  29  52  80 116 153 190 244 305 381 463
#     4  11  25  46  75 107 147 204 255 307 364 442
#     4  11  27  49  77 114 147 197 259 294 378 457
#     4  11  26  44  76 108 144 198 262 298 369 452
#     4  10  24  41  64 106 145 196 253 309 373 430
#
# _framework density 25.351402
#
# number of rings (size 3 to 8) (size 9 to 14) (size 15 to 20)
#    0.000    1.143    1.429    1.714   20.000    2.286 
#    0.000    0.000    0.000    0.000    0.000    0.000 
#    0.000    0.000    0.000    0.000    0.000    0.000 
#
# Total GULP energy -78505.833584 kJ/mol
# GULP energy per Si atom -5607.559542 kJ/mol
# Density = 2.529370 g / cm^3
# Si number density = 25.351402 Si / 1000 Ang^3
#
#
#
# Elastic Constant Matrix: (Units=GPa)
#
#
# Indices 1 2 3 4 5 6 
#
# 1 142.5660 51.2748 24.7811 -0.2855 13.9293 0.5110
# 2 51.2748 122.0602 17.5719 8.3372 4.5115 9.6495
# 3 24.7811 17.5719 74.5391 10.5676 16.0966 8.1781
# 4 -0.2855 8.3372 10.5676 52.7211 1.6694 0.2483
# 5 13.9293 4.5115 16.0966 1.6694 46.7188 5.4111
# 6 0.5110 9.6495 8.1781 0.2483 5.4111 56.0134
#
#
#
# Elastic Compliance Matrix: (Units=1/GPa)
#
#
# Indices 1 2 3 4 5 6 
#
# 1 0.008782 -0.003489 -0.001974 0.001046 -0.001751 0.000974
# 2 -0.003489 0.009996 -0.000958 -0.001420 0.000642 -0.001606
# 3 -0.001974 -0.000958 0.015861 -0.002889 -0.004485 -0.001687
# 4 0.001046 -0.001420 -0.002889 0.019773 0.000049 0.000565
# 5 -0.001751 0.000642 -0.004485 0.000049 0.023608 -0.001721
# 6 0.000974 -0.001606 -0.001687 0.000565 -0.001721 0.018531
#
#
# Mechanical properties :
#
#
# Convention : Reuss Voigt Hill
#
# Bulk Modulus (GPa) = 45.87467 58.49119 52.18293
# Shear Modulus (GPa) = 42.86068 47.45983 45.16026
#
# Velocity S-wave (km/s) = 4.11623 4.33145 4.22521
# Velocity P-wave (km/s) = 6.38169 6.93812 6.66571
#
# Compressibility (1/GPa) = 0.02179852
#
# Stress axis : x y z
#
# Youngs Moduli (GPa) = 113.87146 100.03717 63.04782
#
# Poissons Ratio (x) = 0.34898 0.12446
# Poissons Ratio (y) = 0.39724 0.06038
# Poissons Ratio (z) = 0.22479 0.09580
#
# Static dielectric constant tensor:
#      x y z
#    x 1.961370 0.030180 0.024370 
#    y 0.030180 2.042860 -0.034490 
#    z 0.024370 -0.034490 2.021250 
# 
# From -- ./inp_files/339617.got.cif
#   From: 2010.05.17/outbox.cif.g08.bks.cpg/sg2_170_cif.got.tgz:339617.got - 2010.06.03 11:33:40.
