data_PCOD9045889
_publ_section_title
;
Structure prediction by ZEFSAII (Michael W. Deem and Ramdas Pophale) SiO2 
 PCOD9045889
Probable space group: P -1
;
_chemical_formula_sum "Si O2"
_cell_formula_units_Z 14
_cell_length_a 17.452971
_cell_length_b 6.511898
_cell_length_c 8.866705
_cell_angle_alpha 58.374478
_cell_angle_beta 51.356508
_cell_angle_gamma 70.179658
_cell_volume 670.087025
_symmetry_space_group_name_H-M "P -1"
_symmetry_group_IT_number 2
_symmetry_cell_setting 'triclinic'
loop_
_space_group_symop_operation_xyz
x,y,z
-x,-y,-z
loop_
_atom_site_type_symbol
_atom_site_label
_atom_site_fract_x
_atom_site_fract_y
_atom_site_fract_z
Si Si1 0.926649 0.590500 0.680987
Si Si2 0.198391 0.950381 0.355538
Si Si3 0.849908 0.105445 0.917462
Si Si4 0.387718 0.247984 0.028093
Si Si5 0.973540 0.253137 0.204979
Si Si6 0.524444 0.007981 0.714328
Si Si7 0.641847 0.194768 0.224225
O O1 0.852355 0.793186 0.640146
O O2 0.870706 0.352327 0.885009
O O3 0.000000 0.500000 0.500000
O O4 0.987182 0.715381 0.686975
O O5 0.311102 0.026711 0.188507
O O6 0.170151 0.873182 0.247982
O O7 0.142593 0.787658 0.610928
O O8 0.742958 0.040999 0.135611
O O9 0.949573 0.946947 0.878049
O O10 0.426236 0.208765 0.165841
O O11 0.347984 0.518741 0.936653
O O12 0.474982 0.189899 0.825749
O O13 0.000000 0.500000 0.000000
O O14 0.439259 0.904304 0.753298
O O15 0.600610 0.144296 0.460994
#
# Coordination Sequence:
#
# PCOD9045889 Si02
#       7
#     2   2   2   2   2   2   2
#     4  11  19  39  66  81 116 168 204 242 301 371
#     4  11  21  39  63  90 123 160 212 249 308 379
#     4  11  21  40  64  90 121 167 208 247 310 377
#     4  11  22  41  67  91 125 168 205 259 323 363
#     4  11  25  40  58  96 131 156 202 265 306 364
#     4  10  24  42  62  96 126 159 212 264 308 381
#     4  11  22  42  66  92 126 164 211 258 314 373
#
# _framework density 20.892809
#
# number of rings (size 3 to 8) (size 9 to 14) (size 15 to 20)
#    0.000    1.143    5.714    1.714    0.000    1.714 
#    5.143    1.429    0.000    0.000    0.000    0.000 
#    0.000    0.000    0.000    0.000    0.000    0.000 
#
# Total GULP energy -77969.807692 kJ/mol
# GULP energy per Si atom -5569.271978 kJ/mol
# Density = 2.084526 g / cm^3
# Si number density = 20.892809 Si / 1000 Ang^3
#
#
#
# Elastic Constant Matrix: (Units=GPa)
#
#
# Indices 1 2 3 4 5 6 
#
# 1 27.1584 -12.3072 24.9595 7.2039 -9.9242 1.1855
# 2 -12.3072 52.9109 14.1543 1.9346 3.7817 -3.4786
# 3 24.9595 14.1543 143.5767 7.4485 -13.2687 -11.7770
# 4 7.2039 1.9346 7.4485 32.2925 -1.2211 -9.1974
# 5 -9.9242 3.7817 -13.2687 -1.2211 28.7707 -3.3569
# 6 1.1855 -3.4786 -11.7770 -9.1974 -3.3569 20.8446
#
#
#
# Elastic Compliance Matrix: (Units=1/GPa)
#
#
# Indices 1 2 3 4 5 6 
#
# 1 0.065022 0.017210 -0.012062 -0.015884 0.012454 -0.012644
# 2 0.017210 0.024379 -0.005333 -0.004645 -0.000158 -0.001998
# 3 -0.012062 -0.005333 0.010236 0.002772 0.002214 0.007159
# 4 -0.015884 -0.004645 0.002772 0.039642 0.000337 0.019240
# 5 0.012454 -0.000158 0.002214 0.000337 0.040957 0.007261
# 6 -0.012644 -0.001998 0.007159 0.019240 0.007261 0.062063
#
#
# Mechanical properties :
#
#
# Convention : Reuss Voigt Hill
#
# Bulk Modulus (GPa) = 10.07377 30.80657 20.44017
# Shear Modulus (GPa) = 18.13192 29.50419 23.81806
#
# Velocity S-wave (km/s) = 2.94913 3.76196 3.38007
# Velocity P-wave (km/s) = 4.05322 5.80059 5.00377
#
# Compressibility (1/GPa) = 0.09926766
#
# Stress axis : x y z
#
# Youngs Moduli (GPa) = 15.37938 41.01854 97.69899
#
# Poissons Ratio (x) = -0.70595 1.17848
# Poissons Ratio (y) = -0.26469 0.52101
# Poissons Ratio (z) = 0.18551 0.21874
#
# Static dielectric constant tensor:
#      x y z
#    x 1.763610 -0.000260 -0.062830 
#    y -0.000260 1.778600 -0.052800 
#    z -0.062830 -0.052800 1.872530 
# 
# From -- ./inp_files/31583.got.cif
#   From: 2010.05.17/outbox.cif.g08.bks.cpg/sg2_16_cif.got.tgz:31583.got - 2010.06.03 11:33:40.
