data_PCOD9045737
_publ_section_title
;
Structure prediction by ZEFSAII (Michael W. Deem and Ramdas Pophale) SiO2 
 PCOD9045737
Probable space group: P -1
;
_chemical_formula_sum "Si O2"
_cell_formula_units_Z 16
_cell_length_a 14.840502
_cell_length_b 11.704800
_cell_length_c 12.731924
_cell_angle_alpha 101.446255
_cell_angle_beta 19.384457
_cell_angle_gamma 102.512754
_cell_volume 716.486734
_symmetry_space_group_name_H-M "P -1"
_symmetry_group_IT_number 2
_symmetry_cell_setting 'triclinic'
loop_
_space_group_symop_operation_xyz
x,y,z
-x,-y,-z
loop_
_atom_site_type_symbol
_atom_site_label
_atom_site_fract_x
_atom_site_fract_y
_atom_site_fract_z
Si Si1 0.284927 0.526552 0.058676
Si Si2 0.021198 0.930874 0.667229
Si Si3 0.931750 0.740920 0.212035
Si Si4 0.583650 0.047591 0.032528
Si Si5 0.387022 0.590721 0.720066
Si Si6 0.080427 0.307122 0.371972
Si Si7 0.801618 0.015712 0.125619
Si Si8 0.341971 0.268257 0.280751
O O1 0.283462 0.535832 0.936137
O O2 0.577323 0.593112 0.776638
O O3 0.234210 0.397685 0.138076
O O4 0.095073 0.610526 0.348004
O O5 0.063706 0.802502 0.552662
O O6 0.314415 0.998685 0.384063
O O7 0.850986 0.001257 0.781314
O O8 0.843731 0.927557 0.967335
O O9 0.629695 0.694693 0.495001
O O10 0.898525 0.757527 0.376736
O O11 0.128790 0.640475 0.960113
O O12 0.091662 0.857172 0.013185
O O13 0.569865 0.186645 0.057693
O O14 0.500000 0.000000 0.000000
O O15 0.500000 0.500000 0.500000
O O16 0.270026 0.246428 0.235530
O O17 0.500000 0.000000 0.500000
O O18 0.000000 0.000000 0.000000
#
# Coordination Sequence:
#
# PCOD9045737 Si02
#       8
#     2   2   2   2   2   2   2   2
#     4  10  24  41  67  99 140 189 228 286 359 418
#     4  12  27  44  68 107 137 185 236 293 351 429
#     4  11  24  43  73  96 137 178 232 296 353 419
#     4  12  24  39  70 104 141 172 232 288 348 421
#     4  11  24  45  72 104 132 183 244 292 343 411
#     4  11  23  43  65 101 145 184 230 289 357 427
#     4  12  27  48  70 100 140 190 238 294 365 420
#     4  11  22  40  69  97 138 181 229 280 358 421
#
# _framework density 22.331188000000001
#
# number of rings (size 3 to 8) (size 9 to 14) (size 15 to 20)
#    0.000    0.750    3.750    3.375    5.250    2.000 
#    0.000    0.000    0.000    0.000    0.000    0.000 
#    0.000    0.000    0.000    0.000    0.000    0.000 
#
# Total GULP energy -89395.080034 kJ/mol
# GULP energy per Si atom -5587.192502 kJ/mol
# Density = 2.228036 g / cm^3
# Si number density = 22.331188 Si / 1000 Ang^3
#
#
#
# Elastic Constant Matrix: (Units=GPa)
#
#
# Indices 1 2 3 4 5 6 
#
# 1 74.4442 23.4528 32.8762 -1.9479 7.7656 -4.2400
# 2 23.4528 121.1520 39.3829 -20.0889 12.1446 -7.1150
# 3 32.8762 39.3829 121.9222 -14.5791 16.1112 -15.3084
# 4 -1.9479 -20.0889 -14.5791 49.1333 2.4924 7.2621
# 5 7.7656 12.1446 16.1112 2.4924 43.9038 3.0217
# 6 -4.2400 -7.1150 -15.3084 7.2621 3.0217 29.3939
#
#
#
# Elastic Compliance Matrix: (Units=1/GPa)
#
#
# Indices 1 2 3 4 5 6 
#
# 1 0.015719 -0.001977 -0.003596 -0.001255 -0.000864 0.000315
# 2 -0.001977 0.010084 -0.001994 0.003484 -0.001937 0.000455
# 3 -0.003596 -0.001994 0.011049 0.001801 -0.003289 0.004646
# 4 -0.001255 0.003484 0.001801 0.022950 -0.002442 -0.003819
# 5 -0.000864 -0.001937 -0.003289 -0.002442 0.025106 -0.004284
# 6 0.000315 0.000455 0.004646 -0.003819 -0.004284 0.037980
#
#
# Mechanical properties :
#
#
# Convention : Reuss Voigt Hill
#
# Bulk Modulus (GPa) = 46.04767 56.54915 51.29841
# Shear Modulus (GPa) = 34.42046 39.27329 36.84688
#
# Velocity S-wave (km/s) = 3.93028 4.19821 4.06645
# Velocity P-wave (km/s) = 6.42349 6.99127 6.71338
#
# Compressibility (1/GPa) = 0.02171662
#
# Stress axis : x y z
#
# Youngs Moduli (GPa) = 63.61662 99.17043 90.50382
#
# Poissons Ratio (x) = 0.19604 0.32549
# Poissons Ratio (y) = 0.12576 0.18051
# Poissons Ratio (z) = 0.22879 0.19779
#
# Static dielectric constant tensor:
#      x y z
#    x 2.011660 0.026140 -0.030320 
#    y 0.026140 1.830050 0.003310 
#    z -0.030320 0.003310 1.899630 
# 
# From -- ./inp_files/364616.got.cif
#   From: 2010.05.17/outbox.cif.g08.bks.cpg/sg2_183_cif.got.tgz:364616.got - 2010.06.03 11:33:40.
