data_PCOD9045566
_publ_section_title
;
Structure prediction by ZEFSAII (Michael W. Deem and Ramdas Pophale) SiO2 
 PCOD9045566
Probable space group: P -1
;
_chemical_formula_sum "Si O2"
_cell_formula_units_Z 15
_cell_length_a 12.348648
_cell_length_b 12.383754
_cell_length_c 5.005932
_cell_angle_alpha 81.916341
_cell_angle_beta 60.964045
_cell_angle_gamma 61.130280
_cell_volume 581.716894
_symmetry_space_group_name_H-M "P -1"
_symmetry_group_IT_number 2
_symmetry_cell_setting 'triclinic'
loop_
_space_group_symop_operation_xyz
x,y,z
-x,-y,-z
loop_
_atom_site_type_symbol
_atom_site_label
_atom_site_fract_x
_atom_site_fract_y
_atom_site_fract_z
Si Si1 0.393953 0.130615 0.720779
Si Si2 0.000000 0.500000 0.000000
Si Si3 0.090581 0.922770 0.673030
Si Si4 0.621072 0.221880 0.375952
Si Si5 0.781144 0.546576 0.794720
Si Si6 0.055463 0.702466 0.588134
Si Si7 0.798744 0.771971 0.562026
Si Si8 0.535093 0.364803 0.915943
O O1 0.484623 0.202372 0.558705
O O2 0.262153 0.175284 0.667164
O O3 0.500000 0.000000 0.500000
O O4 0.325674 0.156748 0.091368
O O5 0.152805 0.465689 0.991062
O O6 0.006431 0.371286 0.143962
O O7 0.248853 0.890576 0.587823
O O8 0.097303 0.789178 0.674167
O O9 0.000000 0.000000 0.500000
O O10 0.000000 0.000000 0.000000
O O11 0.590712 0.338262 0.558586
O O12 0.634535 0.257878 0.043739
O O13 0.822412 0.411301 0.680775
O O14 0.851015 0.620812 0.526021
O O15 0.616614 0.630681 0.916223
O O16 0.932208 0.783060 0.496917
O O17 0.500000 0.500000 0.000000
#
# Coordination Sequence:
#
# PCOD9045566 Si02
#       8
#     2   1   2   2   2   2   2   2
#     4  12  26  45  73 103 142 189 239 296 352 430
#     4  10  24  40  74 102 152 182 238 304 366 436
#     4  12  31  53  78 104 147 201 254 305 363 446
#     4  12  26  50  71 106 142 187 244 296 355 432
#     4  11  24  43  69 107 147 185 235 298 376 431
#     4  11  28  43  75 107 149 192 247 303 372 436
#     4  11  25  44  72 108 141 186 233 300 367 424
#     4  12  26  43  75 103 145 186 231 291 365 437
#
# _framework density 25.785737999999998
#
# number of rings (size 3 to 8) (size 9 to 14) (size 15 to 20)
#    0.000    0.533    2.667    4.000   16.800    0.000 
#    0.000    0.000    0.000    0.000    0.000    0.000 
#    0.000    0.000    0.000    0.000    0.000    0.000 
#
# Total GULP energy -83720.561593 kJ/mol
# GULP energy per Si atom -5581.370773 kJ/mol
# Density = 2.572705 g / cm^3
# Si number density = 25.785738 Si / 1000 Ang^3
#
#
#
# Elastic Constant Matrix: (Units=GPa)
#
#
# Indices 1 2 3 4 5 6 
#
# 1 131.5941 25.8392 25.6193 -5.3933 20.4804 -19.8286
# 2 25.8392 74.2273 28.4891 17.1999 17.3198 -5.5660
# 3 25.6193 28.4891 110.8757 7.7555 31.9996 -2.3796
# 4 -5.3933 17.1999 7.7555 45.5702 -3.3684 16.0275
# 5 20.4804 17.3198 31.9996 -3.3684 41.4190 3.0429
# 6 -19.8286 -5.5660 -2.3796 16.0275 3.0429 61.1265
#
#
#
# Elastic Compliance Matrix: (Units=1/GPa)
#
#
# Indices 1 2 3 4 5 6 
#
# 1 0.009083 -0.002158 -0.000605 0.000811 -0.003252 0.002676
# 2 -0.002158 0.018667 -0.001788 -0.008705 -0.006324 0.003527
# 3 -0.000605 -0.001788 0.012369 -0.002589 -0.008811 0.001240
# 4 0.000811 -0.008705 -0.002589 0.029462 0.008279 -0.008767
# 5 -0.003252 -0.006324 -0.008811 0.008279 0.036314 -0.005952
# 6 0.002676 0.003527 0.001240 -0.008767 -0.005952 0.020192
#
#
# Mechanical properties :
#
#
# Convention : Reuss Voigt Hill
#
# Bulk Modulus (GPa) = 32.24059 52.95470 42.59765
# Shear Modulus (GPa) = 34.35764 45.40644 39.88204
#
# Velocity S-wave (km/s) = 3.65420 4.20088 3.93704
# Velocity P-wave (km/s) = 5.50769 6.64160 6.10105
#
# Compressibility (1/GPa) = 0.03101680
#
# Stress axis : x y z
#
# Youngs Moduli (GPa) = 110.09306 53.57069 80.84800
#
# Poissons Ratio (x) = 0.11562 0.04891
# Poissons Ratio (y) = 0.23761 0.14454
# Poissons Ratio (z) = 0.06661 0.09578
#
# Static dielectric constant tensor:
#      x y z
#    x 2.000500 -0.024510 -0.098540 
#    y -0.024510 2.071610 -0.013490 
#    z -0.098540 -0.013490 1.885750 
# 
# From -- ./inp_files/67125.got.cif
#   From: 2010.05.17/outbox.cif.g08.bks.cpg/sg2_34_cif.got.tgz:67125.got - 2010.06.03 11:33:40.
