data_PCOD9045289
_publ_section_title
;
Structure prediction by ZEFSAII (Michael W. Deem and Ramdas Pophale) SiO2 
 PCOD9045289
Probable space group: P -1
;
_chemical_formula_sum "Si O2"
_cell_formula_units_Z 16
_cell_length_a 19.297020
_cell_length_b 9.648970
_cell_length_c 8.291592
_cell_angle_alpha 124.148560
_cell_angle_beta 76.023011
_cell_angle_gamma 143.087859
_cell_volume 697.440222
_symmetry_space_group_name_H-M "P -1"
_symmetry_group_IT_number 2
_symmetry_cell_setting 'triclinic'
loop_
_space_group_symop_operation_xyz
x,y,z
-x,-y,-z
loop_
_atom_site_type_symbol
_atom_site_label
_atom_site_fract_x
_atom_site_fract_y
_atom_site_fract_z
Si Si1 0.641597 0.254511 0.890720
Si Si2 0.209355 0.744569 0.368146
Si Si3 0.469232 0.417489 0.776410
Si Si4 0.108965 0.066316 0.165584
Si Si5 0.143525 0.936487 0.373821
Si Si6 0.391695 0.645235 0.329788
Si Si7 0.975231 0.154680 0.286486
Si Si8 0.593056 0.396380 0.279415
O O1 0.741413 0.324657 0.797717
O O2 0.632099 0.399039 0.878125
O O3 0.511111 0.897089 0.745052
O O4 0.659085 0.369492 0.129794
O O5 0.144772 0.740835 0.271776
O O6 0.107806 0.504682 0.405022
O O7 0.328914 0.071619 0.593951
O O8 0.561966 0.444577 0.696676
O O9 0.481711 0.612247 0.794503
O O10 0.500000 0.500000 0.000000
O O11 0.253708 0.417534 0.331567
O O12 0.010538 0.028215 0.204755
O O13 0.084694 0.894406 0.215590
O O14 0.097313 0.969676 0.926875
O O15 0.088912 0.903417 0.552373
O O16 0.290612 0.275118 0.502757
O O17 0.500000 0.000000 0.500000
#
# Coordination Sequence:
#
# PCOD9045289 Si02
#       8
#     2   2   2   2   2   2   2   2
#     4  11  21  41  61  94 136 179 220 274 348 401
#     4  11  25  43  68  96 139 183 221 289 342 408
#     4  11  23  39  65  99 136 174 226 280 345 407
#     4  11  25  42  74 100 129 190 225 286 342 402
#     4  11  25  44  68 104 135 176 237 281 339 409
#     4  12  21  39  66  97 132 174 227 273 344 411
#     4  11  24  48  69  97 140 180 235 280 340 402
#     4  10  24  39  64  99 139 176 220 291 338 407
#
# _framework density 22.941033999999998
#
# number of rings (size 3 to 8) (size 9 to 14) (size 15 to 20)
#    0.000    1.000    3.750    2.250    5.250    1.500 
#    0.000    0.000    0.000    0.000    0.000    0.000 
#    0.000    0.000    0.000    0.000    0.000    0.000 
#
# Total GULP energy -89336.825499 kJ/mol
# GULP energy per Si atom -5583.551594 kJ/mol
# Density = 2.288882 g / cm^3
# Si number density = 22.941034 Si / 1000 Ang^3
#
#
#
# Elastic Constant Matrix: (Units=GPa)
#
#
# Indices 1 2 3 4 5 6 
#
# 1 125.4124 59.9308 39.3024 -24.6112 6.2724 -20.2271
# 2 59.9308 148.9721 32.4122 -13.4743 7.4052 -5.4023
# 3 39.3024 32.4122 73.9984 -11.7291 4.1811 -2.1720
# 4 -24.6112 -13.4743 -11.7291 35.9950 -5.5871 10.6625
# 5 6.2724 7.4052 4.1811 -5.5871 25.7631 -8.1990
# 6 -20.2271 -5.4023 -2.1720 10.6625 -8.1990 33.7871
#
#
#
# Elastic Compliance Matrix: (Units=1/GPa)
#
#
# Indices 1 2 3 4 5 6 
#
# 1 0.012847 -0.003664 -0.004419 0.004492 0.001448 0.005755
# 2 -0.003664 0.008623 -0.001727 0.000324 -0.001694 -0.001439
# 3 -0.004419 -0.001727 0.017019 0.002521 -0.001602 -0.003012
# 4 0.004492 0.000324 0.002521 0.034459 0.003620 -0.007093
# 5 0.001448 -0.001694 -0.001602 0.003620 0.043118 0.009814
# 6 0.005755 -0.001439 -0.003012 -0.007093 0.009814 0.037238
#
#
# Mechanical properties :
#
#
# Convention : Reuss Voigt Hill
#
# Bulk Modulus (GPa) = 52.99359 67.96375 60.47867
# Shear Modulus (GPa) = 27.89971 33.55821 30.72896
#
# Velocity S-wave (km/s) = 3.49112 3.82881 3.66386
# Velocity P-wave (km/s) = 6.27699 7.01684 6.65720
#
# Compressibility (1/GPa) = 0.01887021
#
# Stress axis : x y z
#
# Youngs Moduli (GPa) = 77.84112 115.96225 58.75783
#
# Poissons Ratio (x) = 0.42484 0.25967
# Poissons Ratio (y) = 0.28518 0.10145
# Poissons Ratio (z) = 0.34401 0.20022
#
# Static dielectric constant tensor:
#      x y z
#    x 1.871240 -0.010590 0.043910 
#    y -0.010590 1.859230 -0.009880 
#    z 0.043910 -0.009880 1.936580 
# 
# From -- ./inp_files/329433.got.cif
#   From: 2010.05.17/outbox.cif.g08.bks.cpg/sg2_165_cif.got.tgz:329433.got - 2010.06.03 11:33:40.
