data_PCOD9045681
_publ_section_title
;
Structure prediction by ZEFSAII (Michael W. Deem and Ramdas Pophale) SiO2 
 PCOD9045681
Probable space group: P -1
;
_chemical_formula_sum "Si O2"
_cell_formula_units_Z 14
_cell_length_a 9.465478
_cell_length_b 13.571707
_cell_length_c 11.380426
_cell_angle_alpha 47.103551
_cell_angle_beta 139.015803
_cell_angle_gamma 106.499671
_cell_volume 616.850697
_symmetry_space_group_name_H-M "P -1"
_symmetry_group_IT_number 2
_symmetry_cell_setting 'triclinic'
loop_
_space_group_symop_operation_xyz
x,y,z
-x,-y,-z
loop_
_atom_site_type_symbol
_atom_site_label
_atom_site_fract_x
_atom_site_fract_y
_atom_site_fract_z
Si Si1 0.423859 0.150179 0.084677
Si Si2 0.269510 0.767555 0.640143
Si Si3 0.753688 0.602270 0.584667
Si Si4 0.789318 0.287692 0.922095
Si Si5 0.981008 0.393946 0.474835
Si Si6 0.887398 0.849295 0.541598
Si Si7 0.867030 0.958419 0.846726
O O1 0.502350 0.264772 0.106459
O O2 0.663405 0.016388 0.283966
O O3 0.331905 0.075765 0.187740
O O4 0.208654 0.230741 0.789834
O O5 0.035538 0.828524 0.531435
O O6 0.251640 0.634587 0.663661
O O7 0.240304 0.900689 0.425381
O O8 0.780184 0.452626 0.787589
O O9 0.487967 0.679829 0.293008
O O10 0.958940 0.552896 0.653193
O O11 0.782469 0.728575 0.575126
O O12 0.924792 0.193966 0.197936
O O13 0.942521 0.191337 0.983901
O O14 0.000000 0.500000 0.500000
O O15 0.000000 0.000000 0.000000
#
# Coordination Sequence:
#
# PCOD9045681 Si02
#       7
#     2   2   2   2   2   2   2
#     4  12  24  42  70  98 132 173 217 271 333 379
#     4  11  25  42  69  98 132 169 221 272 324 389
#     4  10  24  41  66  95 129 179 212 268 326 386
#     4  11  23  44  66  94 136 169 221 267 324 388
#     4  11  25  45  65  95 135 173 219 267 329 394
#     4  11  24  42  69  99 128 170 223 270 321 387
#     4  12  24  42  66 101 134 173 217 271 326 389
#
# _framework density 22.695929
#
# number of rings (size 3 to 8) (size 9 to 14) (size 15 to 20)
#    0.000    0.857    2.857    3.857    2.000    1.714 
#    0.000    1.429    0.000    0.000    0.000    0.000 
#    0.000    0.000    0.000    0.000    0.000    0.000 
#
# Total GULP energy -78372.617920 kJ/mol
# GULP energy per Si atom -5598.044137 kJ/mol
# Density = 2.264427 g / cm^3
# Si number density = 22.695929 Si / 1000 Ang^3
#
#
#
# Elastic Constant Matrix: (Units=GPa)
#
#
# Indices 1 2 3 4 5 6 
#
# 1 71.4426 21.9690 -4.6629 0.8322 -4.8941 17.7471
# 2 21.9690 158.0815 20.4950 21.9883 8.8966 8.0660
# 3 -4.6629 20.4950 68.3592 15.8553 -12.7608 1.4659
# 4 0.8322 21.9883 15.8553 36.4969 0.1884 3.6169
# 5 -4.8941 8.8966 -12.7608 0.1884 17.6012 8.9034
# 6 17.7471 8.0660 1.4659 3.6169 8.9034 37.4303
#
#
#
# Elastic Compliance Matrix: (Units=1/GPa)
#
#
# Indices 1 2 3 4 5 6 
#
# 1 0.020400 -0.004124 0.006415 0.000488 0.019321 -0.013678
# 2 -0.004124 0.008260 -0.003789 -0.003477 -0.009510 0.002922
# 3 0.006415 -0.003789 0.022518 -0.006958 0.024248 -0.008202
# 4 0.000488 -0.003477 -0.006958 0.032693 -0.002618 -0.001746
# 5 0.019321 -0.009510 0.024248 -0.002618 0.100662 -0.031752
# 6 -0.013678 0.002922 -0.008202 -0.001746 -0.031752 0.040614
#
#
# Mechanical properties :
#
#
# Convention : Reuss Voigt Hill
#
# Bulk Modulus (GPa) = 20.75521 41.49839 31.12680
# Shear Modulus (GPa) = 20.47466 35.64450 28.05958
#
# Velocity S-wave (km/s) = 3.00681 3.96728 3.51996
# Velocity P-wave (km/s) = 4.60644 6.26977 5.50133
#
# Compressibility (1/GPa) = 0.04818068
#
# Stress axis : x y z
#
# Youngs Moduli (GPa) = 49.02063 121.06648 44.40800
#
# Poissons Ratio (x) = 0.49928 -0.28486
# Poissons Ratio (y) = 0.20216 0.16827
# Poissons Ratio (z) = -0.31444 0.45874
#
# Static dielectric constant tensor:
#      x y z
#    x 1.806650 -0.002970 0.008880 
#    y -0.002970 1.887700 -0.010910 
#    z 0.008880 -0.010910 1.810430 
# 
# From -- ./inp_files/383839.got.cif
#   From: 2010.05.17/outbox.cif.g08.bks.cpg/sg2_192_cif.got.tgz:383839.got - 2010.06.03 11:33:40.
