data_PCOD9045348
_publ_section_title
;
Structure prediction by ZEFSAII (Michael W. Deem and Ramdas Pophale) SiO2 
 PCOD9045348
Probable space group: P -1
;
_chemical_formula_sum "Si O2"
_cell_formula_units_Z 13
_cell_length_a 12.230425
_cell_length_b 15.634923
_cell_length_c 4.931129
_cell_angle_alpha 82.268270
_cell_angle_beta 64.479759
_cell_angle_gamma 42.869453
_cell_volume 553.125259
_symmetry_space_group_name_H-M "P -1"
_symmetry_group_IT_number 2
_symmetry_cell_setting 'triclinic'
loop_
_space_group_symop_operation_xyz
x,y,z
-x,-y,-z
loop_
_atom_site_type_symbol
_atom_site_label
_atom_site_fract_x
_atom_site_fract_y
_atom_site_fract_z
Si Si1 0.795528 0.857715 0.207888
Si Si2 0.956656 0.943181 0.873803
Si Si3 0.500000 0.000000 0.000000
Si Si4 0.309062 0.797120 0.286667
Si Si5 0.438354 0.327893 0.404730
Si Si6 0.026465 0.581182 0.816359
Si Si7 0.305617 0.230771 0.278493
O O1 0.682772 0.876028 0.573702
O O2 0.661823 0.948025 0.064945
O O3 0.897001 0.892658 0.132248
O O4 0.934253 0.706241 0.039545
O O5 0.143350 0.825428 0.556015
O O6 0.800235 0.062554 0.785375
O O7 0.000000 0.000000 0.000000
O O8 0.436500 0.138569 0.928070
O O9 0.442909 0.742626 0.420164
O O10 0.435771 0.695982 0.949168
O O11 0.242762 0.479642 0.592551
O O12 0.377843 0.267414 0.370618
O O13 0.901927 0.645081 0.651157
O O14 0.000000 0.500000 0.000000
#
# Coordination Sequence:
#
# PCOD9045348 Si02
#       7
#     2   2   1   2   2   2   2
#     4  11  25  42  70 106 142 181 239 292 365 427
#     4  11  25  49  73 102 146 191 238 298 359 418
#     4  10  24  40  60 110 138 176 224 298 360 426
#     4  11  26  45  76 104 134 197 243 295 349 428
#     4  12  24  43  76 103 142 190 243 288 357 432
#     4  11  24  45  67 104 148 190 230 294 368 430
#     4  11  24  40  70 105 146 183 226 303 369 425
#
# _framework density 23.502814000000001
#
# number of rings (size 3 to 8) (size 9 to 14) (size 15 to 20)
#    0.000    0.923    3.077    2.769    6.462    6.154 
#    0.000    1.538    0.000    0.000    0.000    0.000 
#    0.000    0.000    0.000    0.000    0.000    0.000 
#
# Total GULP energy -72546.572844 kJ/mol
# GULP energy per Si atom -5580.505603 kJ/mol
# Density = 2.344932 g / cm^3
# Si number density = 23.502814 Si / 1000 Ang^3
#
#
#
# Elastic Constant Matrix: (Units=GPa)
#
#
# Indices 1 2 3 4 5 6 
#
# 1 89.1148 54.2029 13.9783 -0.6402 11.5584 -9.3810
# 2 54.2029 123.1422 34.6082 29.6604 -7.7214 -24.1182
# 3 13.9783 34.6082 95.8784 25.6769 -4.0103 -2.7328
# 4 -0.6402 29.6604 25.6769 45.6917 -7.3594 -5.1176
# 5 11.5584 -7.7214 -4.0103 -7.3594 37.9997 -8.3363
# 6 -9.3810 -24.1182 -2.7328 -5.1176 -8.3363 53.2822
#
#
#
# Elastic Compliance Matrix: (Units=1/GPa)
#
#
# Indices 1 2 3 4 5 6 
#
# 1 0.018174 -0.009953 -0.000993 0.005951 -0.006912 -0.001866
# 2 -0.009953 0.016503 -0.001902 -0.008197 0.005854 0.005749
# 3 -0.000993 -0.001902 0.012873 -0.006145 -0.000132 -0.000987
# 4 0.005951 -0.008197 -0.006145 0.031096 0.001968 0.000317
# 5 -0.006912 0.005854 -0.000132 0.001968 0.031407 0.006529
# 6 -0.001866 0.005749 -0.000987 0.000317 0.006529 0.022043
#
#
# Mechanical properties :
#
#
# Convention : Reuss Voigt Hill
#
# Bulk Modulus (GPa) = 45.75692 57.07937 51.41814
# Shear Modulus (GPa) = 30.28891 41.08446 35.68669
#
# Velocity S-wave (km/s) = 3.59379 4.18552 3.90089
# Velocity P-wave (km/s) = 6.06064 6.90630 6.49725
#
# Compressibility (1/GPa) = 0.02185462
#
# Stress axis : x y z
#
# Youngs Moduli (GPa) = 55.02508 60.59364 77.67979
#
# Poissons Ratio (x) = 0.60306 0.07715
# Poissons Ratio (y) = 0.54764 0.14776
# Poissons Ratio (z) = 0.05465 0.11526
#
# Static dielectric constant tensor:
#      x y z
#    x 1.921840 0.038940 0.053260 
#    y 0.038940 1.981070 0.179330 
#    z 0.053260 0.179330 2.280630 
# 
# From -- ./inp_files/75652.got.cif
#   From: 2010.05.17/outbox.cif.g08.bks.cpg/sg2_38_cif.got.tgz:75652.got - 2010.06.03 11:33:40.
