data_PCOD9045428
_publ_section_title
;
Structure prediction by ZEFSAII (Michael W. Deem and Ramdas Pophale) SiO2 
 PCOD9045428
Probable space group: P -1
;
_chemical_formula_sum "Si O2"
_cell_formula_units_Z 14
_cell_length_a 8.491770
_cell_length_b 11.509753
_cell_length_c 18.296049
_cell_angle_alpha 149.751894
_cell_angle_beta 53.474150
_cell_angle_gamma 135.329169
_cell_volume 632.371648
_symmetry_space_group_name_H-M "P -1"
_symmetry_group_IT_number 2
_symmetry_cell_setting 'triclinic'
loop_
_space_group_symop_operation_xyz
x,y,z
-x,-y,-z
loop_
_atom_site_type_symbol
_atom_site_label
_atom_site_fract_x
_atom_site_fract_y
_atom_site_fract_z
Si Si1 0.349039 0.592857 0.137096
Si Si2 0.971157 0.528561 0.437017
Si Si3 0.822270 0.752894 0.867046
Si Si4 0.510066 0.880314 0.676390
Si Si5 0.481439 0.011845 0.918024
Si Si6 0.001463 0.988263 0.583260
Si Si7 0.153765 0.576473 0.869339
O O1 0.314217 0.481777 0.166986
O O2 0.097521 0.483174 0.113602
O O3 0.465369 0.907348 0.275365
O O4 0.500000 0.500000 0.000000
O O5 0.704490 0.394140 0.427296
O O6 0.070388 0.799347 0.507967
O O7 0.000000 0.500000 0.500000
O O8 0.055645 0.340664 0.274133
O O9 0.651290 0.844285 0.934604
O O10 0.000000 0.000000 0.000000
O O11 0.742340 0.882175 0.616574
O O12 0.477524 0.997508 0.825000
O O13 0.327523 0.715624 0.829584
O O14 0.733914 0.202011 0.978481
O O15 0.000000 0.000000 0.500000
O O16 0.134766 0.294358 0.737756
#
# Coordination Sequence:
#
# PCOD9045428 Si02
#       7
#     2   2   2   2   2   2   2
#     4  11  20  38  67 104 140 177 234 299 361 422
#     4  12  27  46  72 108 145 188 244 305 359 435
#     4  12  22  44  71  97 141 188 236 296 363 420
#     4  11  23  43  68  98 135 196 237 289 366 430
#     4  11  22  42  70 102 139 180 244 301 351 422
#     4  11  25  47  71  95 149 196 239 285 370 453
#     4  10  24  40  66 104 135 184 237 294 350 422
#
# _framework density 22.138881999999999
#
# number of rings (size 3 to 8) (size 9 to 14) (size 15 to 20)
#    0.000    0.857    4.286    3.000    0.000    6.857 
#    2.571    2.143    0.000    0.000    0.000    0.000 
#    0.000    0.000    0.000    0.000    0.000    0.000 
#
# Total GULP energy -78152.068749 kJ/mol
# GULP energy per Si atom -5582.290625 kJ/mol
# Density = 2.208849 g / cm^3
# Si number density = 22.138882 Si / 1000 Ang^3
#
#
#
# Elastic Constant Matrix: (Units=GPa)
#
#
# Indices 1 2 3 4 5 6 
#
# 1 61.6296 33.3765 38.6033 9.7633 -8.2691 -12.6362
# 2 33.3765 124.1720 56.2732 16.7968 1.5359 -16.4561
# 3 38.6033 56.2732 89.4625 -1.6764 -10.2017 -14.3708
# 4 9.7633 16.7968 -1.6764 43.9515 -2.6766 -5.0728
# 5 -8.2691 1.5359 -10.2017 -2.6766 32.1049 -0.1687
# 6 -12.6362 -16.4561 -14.3708 -5.0728 -0.1687 45.8964
#
#
#
# Elastic Compliance Matrix: (Units=1/GPa)
#
#
# Indices 1 2 3 4 5 6 
#
# 1 0.024321 -0.001614 -0.008737 -0.004591 0.003197 0.002886
# 2 -0.001614 0.012875 -0.007750 -0.004959 -0.003901 0.001183
# 3 -0.008737 -0.007750 0.020874 0.006259 0.005286 0.002063
# 4 -0.004591 -0.004959 0.006259 0.026316 0.003247 0.001838
# 5 0.003197 -0.003901 0.005286 0.003247 0.034117 0.001621
# 6 0.002886 0.001183 0.002063 0.001838 0.001621 0.023862
#
#
# Mechanical properties :
#
#
# Convention : Reuss Voigt Hill
#
# Bulk Modulus (GPa) = 45.72852 59.08557 52.40705
# Shear Modulus (GPa) = 26.90239 34.19129 30.54684
#
# Velocity S-wave (km/s) = 3.48970 3.93415 3.71857
# Velocity P-wave (km/s) = 6.07762 6.88355 6.49310
#
# Compressibility (1/GPa) = 0.02186819
#
# Stress axis : x y z
#
# Youngs Moduli (GPa) = 41.11705 77.66900 47.90537
#
# Poissons Ratio (x) = 0.12533 0.41857
# Poissons Ratio (y) = 0.06635 0.37127
# Poissons Ratio (z) = 0.35926 0.60195
#
# Static dielectric constant tensor:
#      x y z
#    x 1.939310 -0.082550 -0.016280 
#    y -0.082550 1.876410 0.021660 
#    z -0.016280 0.021660 1.822320 
# 
# From -- ./inp_files/176435.got.cif
#   From: 2010.05.17/outbox.cif.g08.bks.cpg/sg2_89_cif.got.tgz:176435.got - 2010.06.03 11:33:40.
