data_PCOD9045017
_publ_section_title
;
Structure prediction by ZEFSAII (Michael W. Deem and Ramdas Pophale) SiO2 
 PCOD9045017
Probable space group: P -1
;
_chemical_formula_sum "Si O2"
_cell_formula_units_Z 16
_cell_length_a 9.504358
_cell_length_b 14.938878
_cell_length_c 5.395903
_cell_angle_alpha 93.089904
_cell_angle_beta 81.454397
_cell_angle_gamma 71.492010
_cell_volume 714.258319
_symmetry_space_group_name_H-M "P -1"
_symmetry_group_IT_number 2
_symmetry_cell_setting 'triclinic'
loop_
_space_group_symop_operation_xyz
x,y,z
-x,-y,-z
loop_
_atom_site_type_symbol
_atom_site_label
_atom_site_fract_x
_atom_site_fract_y
_atom_site_fract_z
Si Si1 0.108907 0.375689 0.205858
Si Si2 0.639713 0.911999 0.346366
Si Si3 0.128104 0.041874 0.384572
Si Si4 0.731729 0.280130 0.766719
Si Si5 0.660706 0.063936 0.049896
Si Si6 0.071172 0.597719 0.245973
Si Si7 0.431280 0.240631 0.941779
Si Si8 0.139610 0.834554 0.784067
O O1 0.033029 0.359491 0.480266
O O2 0.104984 0.484873 0.228522
O O3 0.013510 0.366268 0.986708
O O4 0.279205 0.308994 0.108576
O O5 0.791567 0.903084 0.452410
O O6 0.607359 0.815651 0.289475
O O7 0.500000 0.000000 0.500000
O O8 0.650679 0.961654 0.090107
O O9 0.037052 0.113692 0.204262
O O10 0.000000 0.000000 0.500000
O O11 0.261437 0.950634 0.238672
O O12 0.557026 0.288416 0.845584
O O13 0.794364 0.229191 0.482538
O O14 0.778122 0.374419 0.773885
O O15 0.817522 0.220276 0.975033
O O16 0.777915 0.086218 0.205693
O O17 0.515261 0.155622 0.096933
#
# Coordination Sequence:
#
# PCOD9045017 Si02
#       8
#     2   2   2   2   2   2   2   2
#     4  10  24  46  76 106 139 172 228 280 351 420
#     4  12  25  42  62  90 139 182 230 288 343 390
#     4  12  24  42  65  91 129 187 239 288 337 396
#     4  11  25  45  69 100 144 176 229 286 344 417
#     4  11  24  43  61  89 138 176 233 285 337 390
#     4  10  23  48  73 106 140 176 216 288 350 421
#     4  11  25  44  66 103 136 187 231 287 342 419
#     4  11  24  40  66 101 132 181 237 287 332 403
#
# _framework density 22.400857999999999
#
# number of rings (size 3 to 8) (size 9 to 14) (size 15 to 20)
#    0.000    1.000    2.500    3.750    3.500    4.500 
#    0.000    0.000    0.000    8.250    0.000    0.000 
#    0.000    0.000    0.000    0.000    0.000    0.000 
#
# Total GULP energy -89421.663364 kJ/mol
# GULP energy per Si atom -5588.853960 kJ/mol
# Density = 2.234987 g / cm^3
# Si number density = 22.400858 Si / 1000 Ang^3
#
#
#
# Elastic Constant Matrix: (Units=GPa)
#
#
# Indices 1 2 3 4 5 6 
#
# 1 180.0596 53.4518 52.9138 17.5013 13.8282 14.4681
# 2 53.4518 39.7971 28.1107 12.5053 -3.2933 4.8306
# 3 52.9138 28.1107 128.2918 8.6389 4.5363 -0.1054
# 4 17.5013 12.5053 8.6389 24.0935 -8.9549 -5.4013
# 5 13.8282 -3.2933 4.5363 -8.9549 41.0032 4.8573
# 6 14.4681 4.8306 -0.1054 -5.4013 4.8573 49.1907
#
#
#
# Elastic Compliance Matrix: (Units=1/GPa)
#
#
# Indices 1 2 3 4 5 6 
#
# 1 0.010350 -0.012356 -0.001204 -0.002820 -0.004768 -0.001672
# 2 -0.012356 0.050810 -0.005318 -0.013973 0.006201 -0.003513
# 3 -0.001204 -0.005318 0.009499 0.000015 -0.001189 0.001016
# 4 -0.002820 -0.013973 0.000015 0.056650 0.011334 0.007303
# 5 -0.004768 0.006201 -0.001189 0.011334 0.029202 -0.000848
# 6 -0.001672 -0.003513 0.001016 0.007303 -0.000848 0.022054
#
#
# Mechanical properties :
#
#
# Convention : Reuss Voigt Hill
#
# Bulk Modulus (GPa) = 30.39406 68.56680 49.48043
# Shear Modulus (GPa) = 21.99842 37.10229 29.55035
#
# Velocity S-wave (km/s) = 3.13714 4.07417 3.63597
# Velocity P-wave (km/s) = 5.16913 7.26686 6.30584
#
# Compressibility (1/GPa) = 0.03290117
#
# Stress axis : x y z
#
# Youngs Moduli (GPa) = 96.61554 19.68119 105.27833
#
# Poissons Ratio (x) = 0.24319 0.12680
# Poissons Ratio (y) = 1.19380 0.55989
# Poissons Ratio (z) = 0.11637 0.10467
#
# Static dielectric constant tensor:
#      x y z
#    x 1.896090 0.046580 -0.066900 
#    y 0.046580 1.860600 -0.087240 
#    z -0.066900 -0.087240 1.995750 
# 
# From -- ./inp_files/39249.got.cif
#   From: 2010.05.17/outbox.cif.g08.bks.cpg/sg2_20_cif.got.tgz:39249.got - 2010.06.03 11:33:40.
