data_PCOD9045980
_publ_section_title
;
Structure prediction by ZEFSAII (Michael W. Deem and Ramdas Pophale) SiO2 
 PCOD9045980
Probable space group: P -1
;
_chemical_formula_sum "Si O2"
_cell_formula_units_Z 14
_cell_length_a 5.854985
_cell_length_b 9.478044
_cell_length_c 20.428426
_cell_angle_alpha 141.348048
_cell_angle_beta 82.835485
_cell_angle_gamma 119.146776
_cell_volume 546.292578
_symmetry_space_group_name_H-M "P -1"
_symmetry_group_IT_number 2
_symmetry_cell_setting 'triclinic'
loop_
_space_group_symop_operation_xyz
x,y,z
-x,-y,-z
loop_
_atom_site_type_symbol
_atom_site_label
_atom_site_fract_x
_atom_site_fract_y
_atom_site_fract_z
Si Si1 0.273195 0.719853 0.991322
Si Si2 0.935531 0.212894 0.102860
Si Si3 0.581665 0.316671 0.374063
Si Si4 0.003713 0.136809 0.834601
Si Si5 0.940768 0.970478 0.569449
Si Si6 0.034568 0.381357 0.298642
Si Si7 0.593357 0.080369 0.419869
O O1 0.143276 0.795103 0.080405
O O2 0.597970 0.001933 0.064047
O O3 0.062369 0.627567 0.902736
O O4 0.270763 0.454200 0.914040
O O5 0.121352 0.392741 0.225092
O O6 0.000000 0.000000 0.000000
O O7 0.698080 0.643994 0.489861
O O8 0.690375 0.230855 0.399266
O O9 0.740319 0.341565 0.309464
O O10 0.238322 0.058986 0.283332
O O11 0.054548 0.922011 0.783058
O O12 0.759876 0.092159 0.628213
O O13 0.243272 0.058137 0.622562
O O14 0.000000 0.000000 0.500000
O O15 0.273661 0.666397 0.436953
#
# Coordination Sequence:
#
# PCOD9045980 Si02
#       7
#     2   2   2   2   2   2   2
#     4  10  24  42  65  97 129 171 228 286 335 411
#     4  11  22  42  64  91 132 173 214 280 349 400
#     4  11  24  44  67  97 135 183 224 278 340 415
#     4  11  22  42  68  95 130 174 230 280 338 407
#     4  11  23  44  69  98 138 183 224 288 339 402
#     4  11  22  40  68  94 130 179 220 278 346 405
#     4  11  25  45  71  99 141 183 231 279 343 414
#
# _framework density 25.627293999999999
#
# number of rings (size 3 to 8) (size 9 to 14) (size 15 to 20)
#    0.000    1.143    4.286    2.571    2.000    1.714 
#    7.714    0.000    0.000    0.000    0.000    0.000 
#    0.000    0.000    0.000    0.000    0.000    0.000 
#
# Total GULP energy -78255.129843 kJ/mol
# GULP energy per Si atom -5589.652132 kJ/mol
# Density = 2.556897 g / cm^3
# Si number density = 25.627294 Si / 1000 Ang^3
#
#
#
# Elastic Constant Matrix: (Units=GPa)
#
#
# Indices 1 2 3 4 5 6 
#
# 1 97.9261 15.4367 4.8225 1.7930 -12.9632 -10.2292
# 2 15.4367 106.1194 35.1530 -6.1069 0.2023 -21.0711
# 3 4.8225 35.1530 118.9087 -15.5471 -13.6645 -8.5974
# 4 1.7930 -6.1069 -15.5471 51.3655 -7.5356 -4.8022
# 5 -12.9632 0.2023 -13.6645 -7.5356 34.0867 -0.0404
# 6 -10.2292 -21.0711 -8.5974 -4.8022 -0.0404 44.8627
#
#
#
# Elastic Compliance Matrix: (Units=1/GPa)
#
#
# Indices 1 2 3 4 5 6 
#
# 1 0.011232 -0.001439 0.000731 0.000542 0.004696 0.002087
# 2 -0.001439 0.011634 -0.003163 0.000652 -0.001735 0.004598
# 3 0.000731 -0.003163 0.010481 0.003651 0.005307 0.001085
# 4 0.000542 0.000652 0.003651 0.021913 0.006514 0.003481
# 5 0.004696 -0.001735 0.005307 0.006514 0.034703 0.002001
# 6 0.002087 0.004598 0.001085 0.003481 0.002001 0.025508
#
#
# Mechanical properties :
#
#
# Convention : Reuss Voigt Hill
#
# Bulk Modulus (GPa) = 39.05355 48.19763 43.62559
# Shear Modulus (GPa) = 37.95108 43.89912 40.92510
#
# Velocity S-wave (km/s) = 3.85240 4.14331 4.00050
# Velocity P-wave (km/s) = 5.92116 6.46044 6.19667
#
# Compressibility (1/GPa) = 0.02560587
#
# Stress axis : x y z
#
# Youngs Moduli (GPa) = 89.02803 85.95290 95.41254
#
# Poissons Ratio (x) = 0.12373 -0.06979
# Poissons Ratio (y) = 0.12815 0.30177
# Poissons Ratio (z) = -0.06512 0.27185
#
# Static dielectric constant tensor:
#      x y z
#    x 2.047720 0.001700 0.006300 
#    y 0.001700 2.087720 -0.042470 
#    z 0.006300 -0.042470 2.067730 
# 
# From -- ./inp_files/45931.got.cif
#   From: 2010.05.17/outbox.cif.g08.bks.cpg/sg2_23_cif.got.tgz:45931.got - 2010.06.03 11:33:40.
