data_PCOD9045933
_publ_section_title
;
Structure prediction by ZEFSAII (Michael W. Deem and Ramdas Pophale) SiO2 
 PCOD9045933
Probable space group: P -1
;
_chemical_formula_sum "Si O2"
_cell_formula_units_Z 15
_cell_length_a 8.506214
_cell_length_b 9.643307
_cell_length_c 13.876924
_cell_angle_alpha 134.019396
_cell_angle_beta 100.679313
_cell_angle_gamma 73.497371
_cell_volume 784.714996
_symmetry_space_group_name_H-M "P -1"
_symmetry_group_IT_number 2
_symmetry_cell_setting 'triclinic'
loop_
_space_group_symop_operation_xyz
x,y,z
-x,-y,-z
loop_
_atom_site_type_symbol
_atom_site_label
_atom_site_fract_x
_atom_site_fract_y
_atom_site_fract_z
Si Si1 0.489461 0.229017 0.729250
Si Si2 0.214093 0.309978 0.229429
Si Si3 0.524826 0.041059 0.847497
Si Si4 0.102907 0.748227 0.501702
Si Si5 0.225859 0.845840 0.769368
Si Si6 0.517530 0.353677 0.156957
Si Si7 0.243787 0.018858 0.502282
Si Si8 0.000000 0.000000 0.000000
O O1 0.513375 0.174618 0.817003
O O2 0.489007 0.453518 0.813429
O O3 0.324833 0.171481 0.644401
O O4 0.633065 0.090703 0.617465
O O5 0.133462 0.517318 0.368766
O O6 0.342565 0.351200 0.182962
O O7 0.333444 0.156883 0.240364
O O8 0.084203 0.193798 0.117117
O O9 0.352408 0.982267 0.819521
O O10 0.569441 0.160553 0.002329
O O11 0.148912 0.779835 0.632246
O O12 0.920672 0.864524 0.510578
O O13 0.212445 0.853331 0.493962
O O14 0.346266 0.667009 0.754012
O O15 0.091176 0.951955 0.880950
#
# Coordination Sequence:
#
# PCOD9045933 Si02
#       8
#     2   2   2   2   2   2   2   1
#     4  11  23  42  68  96 129 181 218 260 328 400
#     4  11  24  42  70  95 134 170 222 272 326 384
#     4  11  22  44  66  98 132 177 218 269 322 398
#     4  11  24  44  66 100 133 175 212 281 332 378
#     4  11  24  42  70  95 134 170 222 272 326 384
#     4  11  22  44  66  98 132 177 218 269 322 398
#     4  10  24  42  64  94 141 167 216 271 331 389
#     4  12  24  44  64 102 132 164 222 276 330 384
#
# _framework density 19.115221999999999
#
# number of rings (size 3 to 8) (size 9 to 14) (size 15 to 20)
#    0.000    1.067    5.333    1.200    3.733    4.800 
#    0.000    0.000    0.000    4.800    0.000    0.000 
#    0.000    0.000    0.000    0.000    0.000    0.000 
#
# Total GULP energy -83541.630033 kJ/mol
# GULP energy per Si atom -5569.442002 kJ/mol
# Density = 1.907172 g / cm^3
# Si number density = 19.115222 Si / 1000 Ang^3
#
#
#
# Elastic Constant Matrix: (Units=GPa)
#
#
# Indices 1 2 3 4 5 6 
#
# 1 48.8555 37.6108 37.1039 0.8598 7.4526 10.3487
# 2 37.6108 141.4416 55.2403 1.1102 4.2319 11.2819
# 3 37.1039 55.2403 127.6217 5.3836 5.1358 -1.5923
# 4 0.8598 1.1102 5.3836 29.2024 8.4830 1.7062
# 5 7.4526 4.2319 5.1358 8.4830 21.6811 2.8508
# 6 10.3487 11.2819 -1.5923 1.7062 2.8508 16.3044
#
#
#
# Elastic Compliance Matrix: (Units=1/GPa)
#
#
# Indices 1 2 3 4 5 6 
#
# 1 0.035669 -0.004373 -0.008559 0.004300 -0.008510 -0.019412
# 2 -0.004373 0.009753 -0.003052 0.000357 0.000767 -0.004443
# 3 -0.008559 -0.003052 0.011839 -0.002490 0.000542 0.008866
# 4 0.004300 0.000357 -0.002490 0.039413 -0.015776 -0.004586
# 5 -0.008510 0.000767 0.000542 -0.015776 0.055351 -0.003103
# 6 -0.019412 -0.004443 0.008866 -0.004586 -0.003103 0.078616
#
#
# Mechanical properties :
#
#
# Convention : Reuss Voigt Hill
#
# Bulk Modulus (GPa) = 39.53380 64.20322 51.86851
# Shear Modulus (GPa) = 18.44744 25.96850 22.20797
#
# Velocity S-wave (km/s) = 3.10992 3.68982 3.41221
# Velocity P-wave (km/s) = 5.79847 7.19815 6.53589
#
# Compressibility (1/GPa) = 0.02529481
#
# Stress axis : x y z
#
# Youngs Moduli (GPa) = 28.03533 102.52889 84.46912
#
# Poissons Ratio (x) = 0.44836 0.72293
# Poissons Ratio (y) = 0.12260 0.25777
# Poissons Ratio (z) = 0.23994 0.31288
#
# Static dielectric constant tensor:
#      x y z
#    x 1.690380 0.002070 0.008980 
#    y 0.002070 1.647020 -0.000460 
#    z 0.008980 -0.000460 1.623400 
# 
# From -- ./inp_files/377719.got.cif
#   From: 2010.05.17/outbox.cif.g08.bks.cpg/sg2_189_cif.got.tgz:377719.got - 2010.06.03 11:33:40.
