data_PCOD9045624
_publ_section_title
;
Structure prediction by ZEFSAII (Michael W. Deem and Ramdas Pophale) SiO2 
 PCOD9045624
Probable space group: P -1
;
_chemical_formula_sum "Si O2"
_cell_formula_units_Z 14
_cell_length_a 12.112054
_cell_length_b 11.622274
_cell_length_c 10.373974
_cell_angle_alpha 88.047161
_cell_angle_beta 61.845822
_cell_angle_gamma 138.841858
_cell_volume 628.347572
_symmetry_space_group_name_H-M "P -1"
_symmetry_group_IT_number 2
_symmetry_cell_setting 'triclinic'
loop_
_space_group_symop_operation_xyz
x,y,z
-x,-y,-z
loop_
_atom_site_type_symbol
_atom_site_label
_atom_site_fract_x
_atom_site_fract_y
_atom_site_fract_z
Si Si1 0.134010 0.774318 0.276186
Si Si2 0.325391 0.160116 0.094988
Si Si3 0.308345 0.799503 0.921144
Si Si4 0.725418 0.716280 0.673199
Si Si5 0.195903 0.241237 0.952055
Si Si6 0.977551 0.314782 0.132746
Si Si7 0.845461 0.554193 0.691123
O O1 0.146575 0.719736 0.135541
O O2 0.929148 0.576548 0.504899
O O3 0.113406 0.894423 0.251098
O O4 0.402562 0.975065 0.196491
O O5 0.420467 0.302187 0.163224
O O6 0.242695 0.202634 0.055599
O O7 0.562387 0.283295 0.895104
O O8 0.196655 0.583296 0.963554
O O9 0.261342 0.837399 0.817877
O O10 0.483324 0.488291 0.723404
O O11 0.803196 0.657431 0.695853
O O12 0.000000 0.000000 0.500000
O O13 0.056035 0.249360 0.052818
O O14 0.000000 0.000000 0.000000
O O15 0.968558 0.315296 0.294092
#
# Coordination Sequence:
#
# PCOD9045624 Si02
#       7
#     2   2   2   2   2   2   2
#     4  11  22  41  66  96 126 174 226 277 326 393
#     4  11  20  41  67  96 132 171 219 275 336 402
#     4  10  24  41  64  89 134 177 221 277 328 384
#     4  11  20  38  69 100 131 176 221 266 340 414
#     4  11  22  38  68  98 134 172 214 279 340 392
#     4  11  21  43  65  92 132 181 212 272 340 392
#     4  11  21  36  72  97 125 173 227 269 331 405
#
# _framework density 22.280662
#
# number of rings (size 3 to 8) (size 9 to 14) (size 15 to 20)
#    0.000    1.143    5.714    1.714    0.000    1.143 
#    0.000    0.714   15.714    0.000    0.000    0.000 
#    0.000    0.000    0.000    0.000    0.000    0.000 
#
# Total GULP energy -78002.558047 kJ/mol
# GULP energy per Si atom -5571.611289 kJ/mol
# Density = 2.222995 g / cm^3
# Si number density = 22.280662 Si / 1000 Ang^3
#
#
#
# Elastic Constant Matrix: (Units=GPa)
#
#
# Indices 1 2 3 4 5 6 
#
# 1 114.3298 15.4920 -2.9932 -2.4548 1.6870 -16.0383
# 2 15.4920 78.9243 3.9985 -11.7211 -0.2415 -13.1490
# 3 -2.9932 3.9985 67.1586 -3.9977 11.8678 1.8671
# 4 -2.4548 -11.7211 -3.9977 33.8459 -0.8343 -0.5863
# 5 1.6870 -0.2415 11.8678 -0.8343 16.7256 1.6942
# 6 -16.0383 -13.1490 1.8671 -0.5863 1.6942 33.4324
#
#
#
# Elastic Compliance Matrix: (Units=1/GPa)
#
#
# Indices 1 2 3 4 5 6 
#
# 1 0.009547 -0.001160 0.000739 0.000404 -0.001908 0.004186
# 2 -0.001160 0.014560 -0.000888 0.004961 0.000671 0.005273
# 3 0.000739 -0.000888 0.017230 0.001475 -0.012208 -0.000312
# 4 0.000404 0.004961 0.001475 0.031519 0.000293 0.002600
# 5 -0.001908 0.000671 -0.012208 0.000293 0.069018 -0.003462
# 6 0.004186 0.005273 -0.000312 0.002600 -0.003462 0.034232
#
#
# Mechanical properties :
#
#
# Convention : Reuss Voigt Hill
#
# Bulk Modulus (GPa) = 25.82682 32.60080 29.21381
# Shear Modulus (GPa) = 26.09180 33.06181 29.57680
#
# Velocity S-wave (km/s) = 3.42578 3.85629 3.64739
# Velocity P-wave (km/s) = 5.22156 5.87296 5.55681
#
# Compressibility (1/GPa) = 0.03871944
#
# Stress axis : x y z
#
# Youngs Moduli (GPa) = 104.74219 68.67963 58.03933
#
# Poissons Ratio (x) = 0.07966 -0.04292
# Poissons Ratio (y) = 0.12150 0.05156
# Poissons Ratio (z) = -0.07745 0.06102
#
# Static dielectric constant tensor:
#      x y z
#    x 1.840570 0.043260 0.005140 
#    y 0.043260 1.910980 -0.024510 
#    z 0.005140 -0.024510 1.954900 
# 
# From -- ./inp_files/399923.got.cif
#   From: 2010.05.17/outbox.cif.g08.bks.cpg/sg2_200_cif.got.tgz:399923.got - 2010.06.03 11:33:40.
