data_PCOD9045604
_publ_section_title
;
Structure prediction by ZEFSAII (Michael W. Deem and Ramdas Pophale) SiO2 
 PCOD9045604
Probable space group: P -1
;
_chemical_formula_sum "Si O2"
_cell_formula_units_Z 16
_cell_length_a 11.662754
_cell_length_b 8.526316
_cell_length_c 11.565868
_cell_angle_alpha 139.629982
_cell_angle_beta 78.254103
_cell_angle_gamma 95.469875
_cell_volume 726.106663
_symmetry_space_group_name_H-M "P -1"
_symmetry_group_IT_number 2
_symmetry_cell_setting 'triclinic'
loop_
_space_group_symop_operation_xyz
x,y,z
-x,-y,-z
loop_
_atom_site_type_symbol
_atom_site_label
_atom_site_fract_x
_atom_site_fract_y
_atom_site_fract_z
Si Si1 0.385243 0.383358 0.004579
Si Si2 0.424607 0.243603 0.175610
Si Si3 0.757356 0.566690 0.528680
Si Si4 0.633652 0.111199 0.404881
Si Si5 0.151197 0.099578 0.620896
Si Si6 0.784807 0.405885 0.022740
Si Si7 0.599933 0.571153 0.346312
Si Si8 0.922297 0.913440 0.639161
O O1 0.269165 0.527077 0.054936
O O2 0.381731 0.108134 0.804056
O O3 0.500000 0.500000 0.000000
O O4 0.391662 0.380053 0.139461
O O5 0.308225 0.227263 0.260674
O O6 0.515299 0.382075 0.309693
O O7 0.500000 0.000000 0.000000
O O8 0.710566 0.318173 0.448535
O O9 0.699105 0.609787 0.439475
O O10 0.887519 0.650722 0.541554
O O11 0.715867 0.999561 0.429352
O O12 0.502446 0.211425 0.528356
O O13 0.121232 0.070318 0.476585
O O14 0.139670 0.380420 0.825075
O O15 0.059500 0.952356 0.627998
O O16 0.668829 0.444826 0.151634
O O17 0.857116 0.144061 0.851333
#
# Coordination Sequence:
#
# PCOD9045604 Si02
#       8
#     2   2   2   2   2   2   2   2
#     4  11  23  37  60  95 129 174 212 256 321 385
#     4  11  21  37  56  90 136 169 209 249 315 406
#     4  11  23  40  63  94 128 176 208 263 332 378
#     4  10  24  41  62  92 139 163 205 273 319 390
#     4  10  24  46  64  95 127 171 223 274 313 368
#     4  11  23  39  67  96 131 160 217 272 316 379
#     4  11  21  38  60  97 128 170 200 257 332 381
#     4  11  24  42  72  90 123 178 227 262 316 383
#
# _framework density 22.035330999999999
#
# number of rings (size 3 to 8) (size 9 to 14) (size 15 to 20)
#    0.000    1.250    2.500    4.125    5.250    2.500 
#    0.000    0.000    0.000    2.250    0.000    0.000 
#    0.000    0.000    0.000    0.000    0.000    0.000 
#
# Total GULP energy -89239.698992 kJ/mol
# GULP energy per Si atom -5577.481187 kJ/mol
# Density = 2.198518 g / cm^3
# Si number density = 22.035331 Si / 1000 Ang^3
#
#
#
# Elastic Constant Matrix: (Units=GPa)
#
#
# Indices 1 2 3 4 5 6 
#
# 1 92.4803 24.0729 33.1872 4.6447 9.0536 16.9888
# 2 24.0729 57.3299 22.2119 4.2021 3.3953 16.6446
# 3 33.1872 22.2119 80.0463 2.8742 11.9459 1.4084
# 4 4.6447 4.2021 2.8742 39.8337 2.5552 12.0149
# 5 9.0536 3.3953 11.9459 2.5552 28.6235 5.5645
# 6 16.9888 16.6446 1.4084 12.0149 5.5645 47.6323
#
#
#
# Elastic Compliance Matrix: (Units=1/GPa)
#
#
# Indices 1 2 3 4 5 6 
#
# 1 0.014101 -0.002914 -0.004769 0.000233 -0.001413 -0.003764
# 2 -0.002914 0.022585 -0.005208 0.000328 0.001745 -0.006985
# 3 -0.004769 -0.005208 0.016704 -0.000923 -0.005522 0.003905
# 4 0.000233 0.000328 -0.000923 0.027258 -0.000809 -0.006952
# 5 -0.001413 0.001745 -0.005522 -0.000809 0.038374 -0.004221
# 6 -0.003764 -0.006985 0.003905 -0.006952 -0.004221 0.026909
#
#
# Mechanical properties :
#
#
# Convention : Reuss Voigt Hill
#
# Bulk Modulus (GPa) = 36.22211 43.20008 39.71110
# Shear Modulus (GPa) = 27.63731 33.24354 30.44043
#
# Velocity S-wave (km/s) = 3.54535 3.88834 3.72080
# Velocity P-wave (km/s) = 5.76483 6.30923 6.04316
#
# Compressibility (1/GPa) = 0.02760745
#
# Stress axis : x y z
#
# Youngs Moduli (GPa) = 70.91656 44.27709 59.86700
#
# Poissons Ratio (x) = 0.12902 0.28550
# Poissons Ratio (y) = 0.20665 0.31180
# Poissons Ratio (z) = 0.33820 0.23061
#
# Static dielectric constant tensor:
#      x y z
#    x 1.773660 0.011540 -0.023340 
#    y 0.011540 1.909170 0.063590 
#    z -0.023340 0.063590 1.814500 
# 
# From -- ./inp_files/418593.got.cif
#   From: 2010.05.17/outbox.cif.g08.bks.cpg/sg2_210_cif.got.tgz:418593.got - 2010.06.03 11:33:40.
