data_PCOD9045356
_publ_section_title
;
Structure prediction by ZEFSAII (Michael W. Deem and Ramdas Pophale) SiO2 
 PCOD9045356
Probable space group: P -1
;
_chemical_formula_sum "Si O2"
_cell_formula_units_Z 16
_cell_length_a 7.844214
_cell_length_b 19.600251
_cell_length_c 5.713246
_cell_angle_alpha 103.284633
_cell_angle_beta 119.808926
_cell_angle_gamma 65.323113
_cell_volume 692.299541
_symmetry_space_group_name_H-M "P -1"
_symmetry_group_IT_number 2
_symmetry_cell_setting 'triclinic'
loop_
_space_group_symop_operation_xyz
x,y,z
-x,-y,-z
loop_
_atom_site_type_symbol
_atom_site_label
_atom_site_fract_x
_atom_site_fract_y
_atom_site_fract_z
Si Si1 0.184279 0.499507 0.377338
Si Si2 0.670684 0.766891 0.528197
Si Si3 0.897629 0.824966 0.080735
Si Si4 0.105860 0.008303 0.830154
Si Si5 0.445220 0.586263 0.782257
Si Si6 0.457316 0.857112 0.060489
Si Si7 0.320417 0.745570 0.594266
Si Si8 0.780061 0.612194 0.306833
O O1 0.284082 0.543639 0.662550
O O2 0.357638 0.468980 0.273633
O O3 0.154489 0.429963 0.434629
O O4 0.960304 0.562266 0.213695
O O5 0.505943 0.841655 0.355766
O O6 0.529715 0.738396 0.584412
O O7 0.760356 0.697708 0.357440
O O8 0.859774 0.784520 0.789706
O O9 0.690248 0.831752 0.092405
O O10 0.112609 0.780784 0.325537
O O11 0.886698 0.909025 0.095617
O O12 0.328678 0.940138 0.949127
O O13 0.000000 0.000000 0.500000
O O14 0.000000 0.000000 0.000000
O O15 0.340396 0.664377 0.636029
O O16 0.552783 0.608107 0.095356
O O17 0.330941 0.804021 0.848806
#
# Coordination Sequence:
#
# PCOD9045356 Si02
#       8
#     2   2   2   2   2   2   2   2
#     4  10  24  40  61  95 126 174 229 284 356 419
#     4  11  25  42  68 101 138 185 230 293 348 426
#     4  11  27  45  72 106 139 185 238 283 357 428
#     4  12  27  50  81 109 152 195 238 300 366 429
#     4  11  22  41  65  92 130 176 227 287 350 420
#     4  11  25  46  74 102 141 185 237 282 356 421
#     4  11  23  44  66  99 142 179 228 289 350 421
#     4  11  22  43  63  91 134 174 228 287 351 414
#
# _framework density 23.111384999999999
#
# number of rings (size 3 to 8) (size 9 to 14) (size 15 to 20)
#    0.000    1.000    3.750    1.875    5.250    2.500 
#    9.000    0.000    0.000    0.000    0.000    0.000 
#    0.000    0.000    0.000    0.000    0.000    0.000 
#
# Total GULP energy -89432.084204 kJ/mol
# GULP energy per Si atom -5589.505263 kJ/mol
# Density = 2.305878 g / cm^3
# Si number density = 23.111385 Si / 1000 Ang^3
#
#
#
# Elastic Constant Matrix: (Units=GPa)
#
#
# Indices 1 2 3 4 5 6 
#
# 1 63.0012 27.0796 26.7694 -5.3379 15.9336 7.9006
# 2 27.0796 136.7704 50.9318 -18.7657 22.0884 15.8015
# 3 26.7694 50.9318 131.1484 -2.7361 34.8500 9.3622
# 4 -5.3379 -18.7657 -2.7361 34.5774 2.6779 4.1539
# 5 15.9336 22.0884 34.8500 2.6779 38.2950 -3.7512
# 6 7.9006 15.8015 9.3622 4.1539 -3.7512 33.9817
#
#
#
# Elastic Compliance Matrix: (Units=1/GPa)
#
#
# Indices 1 2 3 4 5 6 
#
# 1 0.019603 -0.001275 -0.001231 0.003357 -0.007007 -0.004810
# 2 -0.001275 0.010589 -0.002108 0.006383 -0.004628 -0.005338
# 3 -0.001231 -0.002108 0.011264 0.000589 -0.008846 -0.002885
# 4 0.003357 0.006383 0.000589 0.034740 -0.008939 -0.009144
# 5 -0.007007 -0.004628 -0.008846 -0.008939 0.041539 0.011896
# 6 -0.004810 -0.005338 -0.002885 -0.009144 0.011896 0.036254
#
#
# Mechanical properties :
#
#
# Convention : Reuss Voigt Hill
#
# Bulk Modulus (GPa) = 31.02874 60.05353 45.54113
# Shear Modulus (GPa) = 28.74229 36.44675 32.59452
#
# Velocity S-wave (km/s) = 3.53036 3.97546 3.75950
# Velocity P-wave (km/s) = 5.48387 6.86390 6.21232
#
# Compressibility (1/GPa) = 0.03222819
#
# Stress axis : x y z
#
# Youngs Moduli (GPa) = 51.01143 94.43956 88.77974
#
# Poissons Ratio (x) = 0.12042 0.10928
# Poissons Ratio (y) = 0.06504 0.18714
# Poissons Ratio (z) = 0.06279 0.19907
#
# Static dielectric constant tensor:
#      x y z
#    x 1.881950 -0.041710 -0.076690 
#    y -0.041710 1.845810 0.012910 
#    z -0.076690 0.012910 1.987020 
# 
# From -- ./inp_files/44876.got.cif
#   From: 2010.05.17/outbox.cif.g08.bks.cpg/sg2_23_cif.got.tgz:44876.got - 2010.06.03 11:33:40.
