data_PCOD9045129
_publ_section_title
;
Structure prediction by ZEFSAII (Michael W. Deem and Ramdas Pophale) SiO2 
 PCOD9045129
Probable space group: P -1
;
_chemical_formula_sum "Si O2"
_cell_formula_units_Z 14
_cell_length_a 18.230557
_cell_length_b 6.144458
_cell_length_c 18.994224
_cell_angle_alpha 101.142287
_cell_angle_beta 24.893691
_cell_angle_gamma 118.008963
_cell_volume 616.464342
_symmetry_space_group_name_H-M "P -1"
_symmetry_group_IT_number 2
_symmetry_cell_setting 'triclinic'
loop_
_space_group_symop_operation_xyz
x,y,z
-x,-y,-z
loop_
_atom_site_type_symbol
_atom_site_label
_atom_site_fract_x
_atom_site_fract_y
_atom_site_fract_z
Si Si1 0.874005 0.170777 0.052206
Si Si2 0.184273 0.623946 0.411298
Si Si3 0.281350 0.153785 0.699058
Si Si4 0.528832 0.694289 0.766375
Si Si5 0.966124 0.509958 0.856169
Si Si6 0.093507 0.295646 0.608295
Si Si7 0.571120 0.625572 0.025018
O O1 0.668434 0.899309 0.269869
O O2 0.846486 0.231016 0.000355
O O3 0.000000 0.500000 0.000000
O O4 0.058647 0.130023 0.889481
O O5 0.059500 0.361980 0.563570
O O6 0.428694 0.722738 0.175115
O O7 0.000000 0.500000 0.500000
O O8 0.278862 0.931295 0.385220
O O9 0.500000 0.500000 0.500000
O O10 0.188451 0.859229 0.716468
O O11 0.643796 0.592882 0.617230
O O12 0.521784 0.629863 0.851298
O O13 0.257338 0.525826 0.970065
O O14 0.064585 0.459757 0.701486
O O15 0.864542 0.922378 0.796505
O O16 0.500000 0.500000 0.000000
#
# Coordination Sequence:
#
# PCOD9045129 Si02
#       7
#     2   2   2   2   2   2   2
#     4   9  22  47  69 102 139 173 225 274 344 426
#     4  11  24  43  68 100 138 187 238 285 344 415
#     4  10  23  49  75 102 135 181 225 275 347 420
#     4  11  26  45  66 103 141 178 237 288 346 405
#     4  11  25  47  71 101 144 179 225 293 346 409
#     4  11  26  45  66 104 139 180 238 283 352 404
#     4  11  24  43  69  98 140 186 237 288 341 417
#
# _framework density 22.710151
#
# number of rings (size 3 to 8) (size 9 to 14) (size 15 to 20)
#    0.000    1.429    1.429    1.714    6.000    5.714 
#   20.571    0.000    0.000    0.000    0.000    0.000 
#    0.000    0.000    0.000    0.000    0.000    0.000 
#
# Total GULP energy -78280.461627 kJ/mol
# GULP energy per Si atom -5591.461545 kJ/mol
# Density = 2.265846 g / cm^3
# Si number density = 22.710151 Si / 1000 Ang^3
#
#
#
# Elastic Constant Matrix: (Units=GPa)
#
#
# Indices 1 2 3 4 5 6 
#
# 1 112.3947 20.6395 50.8755 20.7330 9.1113 -7.5540
# 2 20.6395 70.3599 30.6730 6.3365 10.8855 0.8156
# 3 50.8755 30.6730 110.9871 18.0381 14.3187 0.0332
# 4 20.7330 6.3365 18.0381 48.1986 -4.7885 6.2011
# 5 9.1113 10.8855 14.3187 -4.7885 31.6651 -2.1908
# 6 -7.5540 0.8156 0.0332 6.2011 -2.1908 39.2200
#
#
#
# Elastic Compliance Matrix: (Units=1/GPa)
#
#
# Indices 1 2 3 4 5 6 
#
# 1 0.012149 -0.001073 -0.004436 -0.003949 -0.001517 0.002906
# 2 -0.001073 0.016749 -0.003496 -0.000747 -0.004027 -0.000659
# 3 -0.004436 -0.003496 0.012959 -0.002791 -0.003843 -0.000566
# 4 -0.003949 -0.000747 -0.002791 0.024750 0.006100 -0.004315
# 5 -0.001517 -0.004027 -0.003843 0.006100 0.036120 0.000848
# 6 0.002906 -0.000659 -0.000566 -0.004315 0.000848 0.026801
#
#
# Mechanical properties :
#
#
# Convention : Reuss Voigt Hill
#
# Bulk Modulus (GPa) = 41.93231 55.34638 48.63934
# Shear Modulus (GPa) = 32.15690 36.58698 34.37194
#
# Velocity S-wave (km/s) = 3.76702 4.01813 3.89460
# Velocity P-wave (km/s) = 6.11758 6.77871 6.45661
#
# Compressibility (1/GPa) = 0.02384796
#
# Stress axis : x y z
#
# Youngs Moduli (GPa) = 82.31197 59.70358 77.16636
#
# Poissons Ratio (x) = 0.06409 0.34227
# Poissons Ratio (y) = 0.08835 0.26975
# Poissons Ratio (z) = 0.36510 0.20871
#
# Static dielectric constant tensor:
#      x y z
#    x 1.838090 0.015840 0.012060 
#    y 0.015840 1.883530 0.040830 
#    z 0.012060 0.040830 1.915090 
# 
# From -- ./inp_files/600688.got.cif
#   From: 2010.05.17/outbox.cif.g08.bks.cpg/sg2_301_cif.got.tgz:600688.got - 2010.06.03 11:33:40.
