data_PCOD9045224
_publ_section_title
;
Structure prediction by ZEFSAII (Michael W. Deem and Ramdas Pophale) SiO2 
 PCOD9045224
Probable space group: P -1
;
_chemical_formula_sum "Si O2"
_cell_formula_units_Z 14
_cell_length_a 13.759366
_cell_length_b 9.900068
_cell_length_c 5.511928
_cell_angle_alpha 109.549084
_cell_angle_beta 121.609964
_cell_angle_gamma 56.539028
_cell_volume 532.352200
_symmetry_space_group_name_H-M "P -1"
_symmetry_group_IT_number 2
_symmetry_cell_setting 'triclinic'
loop_
_space_group_symop_operation_xyz
x,y,z
-x,-y,-z
loop_
_atom_site_type_symbol
_atom_site_label
_atom_site_fract_x
_atom_site_fract_y
_atom_site_fract_z
Si Si1 0.225871 0.369423 0.006642
Si Si2 0.336111 0.478848 0.843052
Si Si3 0.119523 0.119279 0.753534
Si Si4 0.467086 0.856094 0.307614
Si Si5 0.482129 0.758319 0.760127
Si Si6 0.153312 0.944176 0.188960
Si Si7 0.824720 0.314730 0.607919
O O1 0.216588 0.464299 0.799451
O O2 0.151294 0.268459 0.887428
O O3 0.379780 0.243579 0.114095
O O4 0.183045 0.514561 0.228611
O O5 0.408621 0.321073 0.672932
O O6 0.282880 0.640109 0.714713
O O7 0.449750 0.429807 0.166178
O O8 0.964394 0.192303 0.617644
O O9 0.161669 0.036007 0.497422
O O10 0.178923 0.009316 0.006467
O O11 0.405112 0.824841 0.451143
O O12 0.500000 0.000000 0.500000
O O13 0.416954 0.870217 0.974501
O O14 0.206761 0.758715 0.239619
O O15 0.000000 0.000000 0.000000
#
# Coordination Sequence:
#
# PCOD9045224 Si02
#       7
#     2   2   2   2   2   2   2
#     4   9  20  33  51  76 101 131 173 211 252 290
#     4   8  19  28  51  72 105 126 161 212 251 290
#     4  11  24  35  53  72  99 139 183 208 241 304
#     4   9  15  28  45  68 102 132 151 187 254 314
#     4   8  17  28  42  72  99 125 150 208 244 287
#     4  10  24  38  49  69 100 137 177 218 253 285
#     4  11  19  35  52  70 104 138 171 211 258 287
#
# _framework density 26.298380999999999
#
# number of rings (size 3 to 8) (size 9 to 14) (size 15 to 20)
#    1.714    0.571    1.429    2.571    8.000    0.571 
#    0.000    0.000    0.000    0.000    0.000    0.000 
#    0.000   16.000    0.000    0.000    0.000    0.000 
#
# Total GULP energy -78071.818663 kJ/mol
# GULP energy per Si atom -5576.558476 kJ/mol
# Density = 2.623852 g / cm^3
# Si number density = 26.298381 Si / 1000 Ang^3
#
#
#
# Elastic Constant Matrix: (Units=GPa)
#
#
# Indices 1 2 3 4 5 6 
#
# 1 92.5759 25.8437 24.4236 -0.1243 -23.8338 1.7738
# 2 25.8437 142.9615 71.1692 -10.8683 3.1090 9.7074
# 3 24.4236 71.1692 189.6936 -25.2736 -37.0340 -6.3199
# 4 -0.1243 -10.8683 -25.2736 61.8189 -5.7905 4.7708
# 5 -23.8338 3.1090 -37.0340 -5.7905 39.5739 3.5145
# 6 1.7738 9.7074 -6.3199 4.7708 3.5145 35.5613
#
#
#
# Elastic Compliance Matrix: (Units=1/GPa)
#
#
# Indices 1 2 3 4 5 6 
#
# 1 0.014055 -0.003477 0.001683 0.001142 0.010537 -0.000648
# 2 -0.003477 0.010493 -0.005174 -0.000780 -0.007630 -0.002752
# 3 0.001683 -0.005174 0.009716 0.003982 0.010967 0.001437
# 4 0.001142 -0.000780 0.003982 0.018544 0.007398 -0.002355
# 5 0.010537 -0.007630 0.010967 0.007398 0.043721 -0.001807
# 6 -0.000648 -0.002752 0.001437 -0.002355 -0.001807 0.029654
#
#
# Mechanical properties :
#
#
# Convention : Reuss Voigt Hill
#
# Bulk Modulus (GPa) = 49.19587 74.23377 61.71482
# Shear Modulus (GPa) = 34.03766 47.64379 40.84073
#
# Velocity S-wave (km/s) = 3.60152 4.26098 3.94506
# Velocity P-wave (km/s) = 6.00350 7.24546 6.65352
#
# Compressibility (1/GPa) = 0.02032691
#
# Stress axis : x y z
#
# Youngs Moduli (GPa) = 71.14683 95.30381 102.92419
#
# Poissons Ratio (x) = 0.33136 -0.17317
# Poissons Ratio (y) = 0.24737 0.53256
# Poissons Ratio (z) = -0.11971 0.49313
#
# Static dielectric constant tensor:
#      x y z
#    x 2.116470 -0.084010 -0.023010 
#    y -0.084010 2.139250 -0.040990 
#    z -0.023010 -0.040990 2.219360 
# 
# From -- ./inp_files/115160.got.cif
#   From: 2010.05.17/outbox.cif.g08.bks.cpg/sg2_58_cif.got.tgz:115160.got - 2010.06.03 11:33:40.
