data_PCOD9045589
_publ_section_title
;
Structure prediction by ZEFSAII (Michael W. Deem and Ramdas Pophale) SiO2 
 PCOD9045589
Probable space group: P -1
;
_chemical_formula_sum "Si O2"
_cell_formula_units_Z 14
_cell_length_a 15.273566
_cell_length_b 9.798303
_cell_length_c 9.820378
_cell_angle_alpha 45.710364
_cell_angle_beta 130.056410
_cell_angle_gamma 130.195534
_cell_volume 751.926690
_symmetry_space_group_name_H-M "P -1"
_symmetry_group_IT_number 2
_symmetry_cell_setting 'triclinic'
loop_
_space_group_symop_operation_xyz
x,y,z
-x,-y,-z
loop_
_atom_site_type_symbol
_atom_site_label
_atom_site_fract_x
_atom_site_fract_y
_atom_site_fract_z
Si Si1 0.805182 0.813251 0.803687
Si Si2 0.401301 0.919339 0.336590
Si Si3 0.217581 0.569751 0.800685
Si Si4 0.943906 0.557152 0.040762
Si Si5 0.858503 0.251613 0.658051
Si Si6 0.478286 0.388332 0.414612
Si Si7 0.496942 0.669195 0.987569
O O1 0.664496 0.751658 0.657777
O O2 0.867696 0.047040 0.743522
O O3 0.798240 0.667619 0.029128
O O4 0.882530 0.728805 0.835022
O O5 0.270985 0.822451 0.343225
O O6 0.439957 0.750707 0.417343
O O7 0.500000 0.000000 0.500000
O O8 0.410797 0.111044 0.118139
O O9 0.148625 0.608150 0.573838
O O10 0.362284 0.685828 0.846834
O O11 0.164057 0.614990 0.860499
O O12 0.043331 0.644932 0.199316
O O13 0.000000 0.500000 0.000000
O O14 0.500000 0.500000 0.500000
O O15 0.516309 0.569099 0.216009
O O16 0.500000 0.500000 0.000000
#
# Coordination Sequence:
#
# PCOD9045589 Si02
#       7
#     2   2   2   2   2   2   2
#     4   9  21  39  61  85 117 154 202 241 294 348
#     4  12  21  35  64  95 119 154 202 248 299 364
#     4   9  20  36  64  84 117 157 200 242 295 348
#     4  10  24  41  60  86 122 158 198 252 299 341
#     4  12  20  39  67  86 117 159 205 240 294 363
#     4  11  23  38  60  90 127 160 195 246 310 357
#     4  11  19  38  61  92 124 155 199 250 298 364
#
# _framework density 18.618836999999999
#
# number of rings (size 3 to 8) (size 9 to 14) (size 15 to 20)
#    0.857    0.571    4.286    1.714    2.000    0.571 
#    0.000    2.143    0.000    0.000    0.000    0.000 
#    0.000    0.000    0.000    0.000    0.000    0.000 
#
# Total GULP energy -78009.610059 kJ/mol
# GULP energy per Si atom -5572.115004 kJ/mol
# Density = 1.857646 g / cm^3
# Si number density = 18.618837 Si / 1000 Ang^3
#
#
#
# Elastic Constant Matrix: (Units=GPa)
#
#
# Indices 1 2 3 4 5 6 
#
# 1 137.4069 32.1759 26.4109 2.2039 2.1539 -23.7568
# 2 32.1759 55.4975 27.0527 -4.8402 -7.3228 -21.1845
# 3 26.4109 27.0527 76.3257 -8.5377 -16.8439 -12.5170
# 4 2.2039 -4.8402 -8.5377 15.3136 -8.3583 3.1789
# 5 2.1539 -7.3228 -16.8439 -8.3583 31.8146 2.8717
# 6 -23.7568 -21.1845 -12.5170 3.1789 2.8717 34.7814
#
#
#
# Elastic Compliance Matrix: (Units=1/GPa)
#
#
# Indices 1 2 3 4 5 6 
#
# 1 0.009915 -0.003860 -0.003758 -0.009125 -0.006346 0.004427
# 2 -0.003860 0.028458 -0.004909 0.007079 0.005001 0.011870
# 3 -0.003758 -0.004909 0.021769 0.020037 0.015993 -0.000874
# 4 -0.009125 0.007079 0.020037 0.103882 0.040831 -0.007576
# 5 -0.006346 0.005001 0.015993 0.040831 0.052533 -0.003602
# 6 0.004427 0.011870 -0.000874 -0.007576 -0.003602 0.039680
#
#
# Mechanical properties :
#
#
# Convention : Reuss Voigt Hill
#
# Bulk Modulus (GPa) = 28.49916 48.94547 38.72231
# Shear Modulus (GPa) = 17.06562 28.62128 22.84345
#
# Velocity S-wave (km/s) = 3.03079 3.92500 3.50651
# Velocity P-wave (km/s) = 5.25237 6.84734 6.10219
#
# Compressibility (1/GPa) = 0.03508876
#
# Stress axis : x y z
#
# Youngs Moduli (GPa) = 100.85663 35.13969 45.93600
#
# Poissons Ratio (x) = 0.13564 0.17263
# Poissons Ratio (y) = 0.38931 0.22549
# Poissons Ratio (z) = 0.37902 0.17249
#
# Static dielectric constant tensor:
#      x y z
#    x 1.738030 0.026830 0.025870 
#    y 0.026830 1.648380 -0.013840 
#    z 0.025870 -0.013840 1.641040 
# 
# From -- ./inp_files/271110.got.cif
#   From: 2010.05.17/outbox.cif.g08.bks.cpg/sg2_136_cif.got.tgz:271110.got - 2010.06.03 11:33:40.
