data_PCOD9045518
_publ_section_title
;
Structure prediction by ZEFSAII (Michael W. Deem and Ramdas Pophale) SiO2 
 PCOD9045518
Probable space group: P -1
;
_chemical_formula_sum "Si O2"
_cell_formula_units_Z 15
_cell_length_a 13.910590
_cell_length_b 14.609347
_cell_length_c 5.367363
_cell_angle_alpha 73.160898
_cell_angle_beta 58.429865
_cell_angle_gamma 40.151663
_cell_volume 587.011696
_symmetry_space_group_name_H-M "P -1"
_symmetry_group_IT_number 2
_symmetry_cell_setting 'triclinic'
loop_
_space_group_symop_operation_xyz
x,y,z
-x,-y,-z
loop_
_atom_site_type_symbol
_atom_site_label
_atom_site_fract_x
_atom_site_fract_y
_atom_site_fract_z
Si Si1 0.269928 0.048168 0.436314
Si Si2 0.000000 0.500000 0.500000
Si Si3 0.037489 0.065095 0.078070
Si Si4 0.180102 0.624879 0.824188
Si Si5 0.387941 0.476654 0.158829
Si Si6 0.373312 0.848037 0.065828
Si Si7 0.355328 0.192058 0.447136
Si Si8 0.105467 0.295742 0.095066
O O1 0.136189 0.082442 0.769522
O O2 0.359493 0.084710 0.399458
O O3 0.159542 0.165127 0.266748
O O4 0.380340 0.892324 0.291377
O O5 0.789523 0.656421 0.625278
O O6 0.997027 0.570101 0.692786
O O7 0.176785 0.949850 0.188445
O O8 0.876902 0.228697 0.263395
O O9 0.000000 0.000000 0.000000
O O10 0.304601 0.515993 0.513929
O O11 0.021777 0.650975 0.000751
O O12 0.251553 0.574368 0.044650
O O13 0.512920 0.314503 0.022670
O O14 0.500000 0.500000 0.000000
O O15 0.463251 0.872761 0.757734
O O16 0.273740 0.232703 0.797040
#
# Coordination Sequence:
#
# PCOD9045518 Si02
#       8
#     2   1   2   2   2   2   2   2
#     4  11  24  47  73 108 153 200 264 326 401 475
#     4  10  24  40  70 108 152 208 254 314 390 482
#     4  12  28  48  81 112 151 209 271 328 398 482
#     4  12  26  52  81 112 159 212 266 333 407 481
#     4  12  30  52  81 116 163 212 269 340 406 477
#     4  12  28  47  75 116 154 205 263 332 401 473
#     4  11  24  44  72 112 154 202 264 325 405 474
#     4  11  23  45  74 110 152 209 261 321 398 484
#
# _framework density 25.553156000000001
#
# number of rings (size 3 to 8) (size 9 to 14) (size 15 to 20)
#    0.000    0.533    2.667    3.600    7.467    4.800 
#    0.000    0.000    0.000    0.000    0.000    0.000 
#    0.000    0.000    0.000    0.000    0.000    0.000 
#
# Total GULP energy -83875.274655 kJ/mol
# GULP energy per Si atom -5591.684977 kJ/mol
# Density = 2.549500 g / cm^3
# Si number density = 25.553156 Si / 1000 Ang^3
#
#
#
# Elastic Constant Matrix: (Units=GPa)
#
#
# Indices 1 2 3 4 5 6 
#
# 1 165.1414 32.5499 12.9057 17.3724 20.2971 22.7595
# 2 32.5499 105.6018 -2.6219 40.4597 17.9964 19.1317
# 3 12.9057 -2.6219 87.1170 24.6917 16.3502 19.6401
# 4 17.3724 40.4597 24.6917 47.9853 12.9629 23.4890
# 5 20.2971 17.9964 16.3502 12.9629 37.6797 9.2555
# 6 22.7595 19.1317 19.6401 23.4890 9.2555 51.1420
#
#
#
# Elastic Compliance Matrix: (Units=1/GPa)
#
#
# Indices 1 2 3 4 5 6 
#
# 1 0.006939 -0.001610 -0.000314 0.000810 -0.002553 -0.002275
# 2 -0.001610 0.016777 0.005940 -0.015453 -0.004421 0.000057
# 3 -0.000314 0.005940 0.016293 -0.010579 -0.005488 -0.002488
# 4 0.000810 -0.015453 -0.010579 0.044621 -0.001163 -0.010800
# 5 -0.002553 -0.004421 -0.005488 -0.001163 0.032938 -0.000529
# 6 -0.002275 0.000057 -0.002488 -0.010800 -0.000529 0.026557
#
#
# Mechanical properties :
#
#
# Convention : Reuss Voigt Hill
#
# Bulk Modulus (GPa) = 20.81490 49.28084 35.04787
# Shear Modulus (GPa) = 32.87194 48.36315 40.61755
#
# Velocity S-wave (km/s) = 3.59055 4.35518 3.99122
# Velocity P-wave (km/s) = 5.03516 6.67964 5.91483
#
# Compressibility (1/GPa) = 0.04804252
#
# Stress axis : x y z
#
# Youngs Moduli (GPa) = 144.10489 59.60547 61.37523
#
# Poissons Ratio (x) = 0.09595 0.01927
# Poissons Ratio (y) = 0.23198 -0.36459
# Poissons Ratio (z) = 0.04524 -0.35407
#
# Static dielectric constant tensor:
#      x y z
#    x 1.993380 -0.049590 -0.002890 
#    y -0.049590 2.162460 -0.081050 
#    z -0.002890 -0.081050 2.201710 
# 
# From -- ./inp_files/96966.got.cif
#   From: 2010.05.17/outbox.cif.g08.bks.cpg/sg2_49_cif.got.tgz:96966.got - 2010.06.03 11:33:40.
