data_PCOD9045009
_publ_section_title
;
Structure prediction by ZEFSAII (Michael W. Deem and Ramdas Pophale) SiO2 
 PCOD9045009
Probable space group: P -1
;
_chemical_formula_sum "Si O2"
_cell_formula_units_Z 14
_cell_length_a 16.924695
_cell_length_b 11.284079
_cell_length_c 8.094735
_cell_angle_alpha 77.698913
_cell_angle_beta 47.890507
_cell_angle_gamma 40.771895
_cell_volume 594.382521
_symmetry_space_group_name_H-M "P -1"
_symmetry_group_IT_number 2
_symmetry_cell_setting 'triclinic'
loop_
_space_group_symop_operation_xyz
x,y,z
-x,-y,-z
loop_
_atom_site_type_symbol
_atom_site_label
_atom_site_fract_x
_atom_site_fract_y
_atom_site_fract_z
Si Si1 0.824886 0.405792 0.914521
Si Si2 0.947260 0.931136 0.699668
Si Si3 0.143659 0.233982 0.699566
Si Si4 0.426524 0.116529 0.891926
Si Si5 0.418319 0.566238 0.908644
Si Si6 0.805401 0.254951 0.278575
Si Si7 0.094132 0.290478 0.139912
O O1 0.051942 0.220452 0.709725
O O2 0.729496 0.625300 0.942580
O O3 0.733758 0.399409 0.913044
O O4 0.745333 0.419318 0.190281
O O5 0.947832 0.792718 0.676079
O O6 0.107361 0.778064 0.665450
O O7 0.000000 0.000000 0.500000
O O8 0.721561 0.181148 0.005180
O O9 0.055843 0.450863 0.704279
O O10 0.380557 0.014310 0.427364
O O11 0.084830 0.271258 0.962482
O O12 0.311732 0.127438 0.941209
O O13 0.500000 0.000000 0.000000
O O14 0.607652 0.372855 0.577054
O O15 0.500000 0.500000 0.000000
O O16 0.000000 0.000000 0.000000
#
# Coordination Sequence:
#
# PCOD9045009 Si02
#       7
#     2   2   2   2   2   2   2
#     4  11  26  44  72 103 138 189 248 296 361 440
#     4  12  26  45  73 109 149 192 235 305 373 431
#     4  10  23  48  73 101 138 189 241 301 356 427
#     4  11  27  44  69 106 141 188 234 305 367 423
#     4  12  28  45  69 110 148 192 241 300 371 436
#     4  12  26  47  70 105 145 196 245 299 359 439
#     4  10  24  45  72 104 139 187 243 292 359 437
#
# _framework density 23.553858000000002
#
# number of rings (size 3 to 8) (size 9 to 14) (size 15 to 20)
#    0.000    0.857    4.286    0.857    6.000    5.714 
#    0.000    0.000    0.000    0.000    0.000    0.000 
#    0.000    0.000    0.000    0.000    0.000    0.000 
#
# Total GULP energy -78179.357960 kJ/mol
# GULP energy per Si atom -5584.239854 kJ/mol
# Density = 2.350025 g / cm^3
# Si number density = 23.553858 Si / 1000 Ang^3
#
#
#
# Elastic Constant Matrix: (Units=GPa)
#
#
# Indices 1 2 3 4 5 6 
#
# 1 166.9712 36.7051 29.8571 -10.8033 -37.5929 -15.9303
# 2 36.7051 104.7554 13.6867 -17.0721 -10.7092 -9.0054
# 3 29.8571 13.6867 97.5351 1.4536 -20.2546 9.3929
# 4 -10.8033 -17.0721 1.4536 37.5158 -3.8274 -6.6290
# 5 -37.5929 -10.7092 -20.2546 -3.8274 40.5771 -1.6158
# 6 -15.9303 -9.0054 9.3929 -6.6290 -1.6158 38.3760
#
#
#
# Elastic Compliance Matrix: (Units=1/GPa)
#
#
# Indices 1 2 3 4 5 6 
#
# 1 0.008962 -0.001120 -0.001482 0.003774 0.007815 0.004801
# 2 -0.001120 0.011591 -0.001294 0.005863 0.002075 0.003672
# 3 -0.001482 -0.001294 0.012136 -0.001788 0.004014 -0.004029
# 4 0.003774 0.005863 -0.001788 0.032917 0.007630 0.009387
# 5 0.007815 0.002075 0.004014 0.007630 0.035377 0.005556
# 6 0.004801 0.003672 -0.004029 0.009387 0.005556 0.031754
#
#
# Mechanical properties :
#
#
# Convention : Reuss Voigt Hill
#
# Bulk Modulus (GPa) = 40.16437 58.86217 49.51327
# Shear Modulus (GPa) = 33.59607 42.56129 38.07868
#
# Velocity S-wave (km/s) = 3.78080 4.25547 4.02514
# Velocity P-wave (km/s) = 6.01236 7.01356 6.53217
#
# Compressibility (1/GPa) = 0.02489769
#
# Stress axis : x y z
#
# Youngs Moduli (GPa) = 111.58287 86.27634 82.39773
#
# Poissons Ratio (x) = 0.09661 0.12212
# Poissons Ratio (y) = 0.12495 0.10660
# Poissons Ratio (z) = 0.16537 0.11162
#
# Static dielectric constant tensor:
#      x y z
#    x 1.915130 0.038900 0.056190 
#    y 0.038900 1.828830 -0.004850 
#    z 0.056190 -0.004850 1.990490 
# 
# From -- ./inp_files/333088.got.cif
#   From: 2010.05.17/outbox.cif.g08.bks.cpg/sg2_167_cif.got.tgz:333088.got - 2010.06.03 11:33:40.
