data_PCOD9045019
_publ_section_title
;
Structure prediction by ZEFSAII (Michael W. Deem and Ramdas Pophale) SiO2 
 PCOD9045019
Probable space group: P -1
;
_chemical_formula_sum "Si O2"
_cell_formula_units_Z 16
_cell_length_a 5.300322
_cell_length_b 24.613322
_cell_length_c 6.210035
_cell_angle_alpha 81.601792
_cell_angle_beta 86.257072
_cell_angle_gamma 125.209396
_cell_volume 643.540403
_symmetry_space_group_name_H-M "P -1"
_symmetry_group_IT_number 2
_symmetry_cell_setting 'triclinic'
loop_
_space_group_symop_operation_xyz
x,y,z
-x,-y,-z
loop_
_atom_site_type_symbol
_atom_site_label
_atom_site_fract_x
_atom_site_fract_y
_atom_site_fract_z
Si Si1 0.100050 0.493411 0.251707
Si Si2 0.098223 0.762244 0.285938
Si Si3 0.776716 0.792514 0.576147
Si Si4 0.092930 0.864207 0.913073
Si Si5 0.247588 0.118613 0.780930
Si Si6 0.221582 0.654556 0.793070
Si Si7 0.671494 0.639522 0.086661
Si Si8 0.371108 0.045086 0.495190
O O1 0.463018 0.558624 0.192671
O O2 0.000000 0.500000 0.500000
O O3 0.969020 0.415017 0.292558
O O4 0.000000 0.500000 0.000000
O O5 0.468266 0.803413 0.217610
O O6 0.015129 0.774016 0.519365
O O7 0.839004 0.686819 0.259630
O O8 0.064980 0.812722 0.115916
O O9 0.881171 0.863076 0.422343
O O10 0.441672 0.721500 0.598017
O O11 0.804569 0.813327 0.805303
O O12 0.413241 0.900451 0.737555
O O13 0.017396 0.912689 0.003964
O O14 0.386843 0.080378 0.701095
O O15 0.444401 0.652151 0.959452
O O16 0.964146 0.658767 0.917402
O O17 0.500000 0.000000 0.500000
O O18 0.000000 0.000000 0.500000
#
# Coordination Sequence:
#
# PCOD9045019 Si02
#       8
#     2   2   2   2   2   2   2   2
#     4  10  23  48  73 106 156 206 260 322 386 466
#     4  11  24  42  73 109 140 191 250 305 370 439
#     4  11  23  44  71 108 147 190 250 306 370 434
#     4  11  25  47  74 102 151 186 237 315 366 447
#     4  11  27  45  76 109 141 194 245 306 374 446
#     4  11  24  43  73 107 147 202 248 312 376 445
#     4  11  24  44  71 110 146 196 254 307 381 441
#     4  12  29  51  75 107 145 190 241 296 372 462
#
# _framework density 24.862463000000002
#
# number of rings (size 3 to 8) (size 9 to 14) (size 15 to 20)
#    0.000    1.000    2.500    2.625   10.500    1.000 
#    0.000    5.000    0.000    0.000    0.000    0.000 
#    0.000    0.000    0.000    0.000    0.000    0.000 
#
# Total GULP energy -89164.394863 kJ/mol
# GULP energy per Si atom -5572.774679 kJ/mol
# Density = 2.480587 g / cm^3
# Si number density = 24.862463 Si / 1000 Ang^3
#
#
#
# Elastic Constant Matrix: (Units=GPa)
#
#
# Indices 1 2 3 4 5 6 
#
# 1 90.7926 34.7814 27.1036 4.8464 -29.7908 -0.4375
# 2 34.7814 143.8233 27.3754 10.0949 -14.4390 13.4365
# 3 27.1036 27.3754 91.4553 22.4648 -36.4592 -15.1534
# 4 4.8464 10.0949 22.4648 34.9851 4.8101 -1.5986
# 5 -29.7908 -14.4390 -36.4592 4.8101 45.5745 -4.6029
# 6 -0.4375 13.4365 -15.1534 -1.5986 -4.6029 33.5307
#
#
#
# Elastic Compliance Matrix: (Units=1/GPa)
#
#
# Indices 1 2 3 4 5 6 
#
# 1 0.015822 -0.003263 0.003605 -0.005167 0.013214 0.004711
# 2 -0.003263 0.008677 -0.004123 0.000791 -0.003352 -0.005805
# 3 0.003605 -0.004123 0.033101 -0.024066 0.032082 0.019915
# 4 -0.005167 0.000791 -0.024066 0.047885 -0.028738 -0.012922
# 5 0.013214 -0.003352 0.032082 -0.028738 0.060535 0.022954
# 6 0.004711 -0.005805 0.019915 -0.012922 0.022954 0.043746
#
#
# Mechanical properties :
#
#
# Convention : Reuss Voigt Hill
#
# Bulk Modulus (GPa) = 19.98462 56.06577 38.02519
# Shear Modulus (GPa) = 21.36685 38.60544 29.98615
#
# Velocity S-wave (km/s) = 2.93474 3.94478 3.47664
# Velocity P-wave (km/s) = 4.42030 6.58390 5.60744
#
# Compressibility (1/GPa) = 0.05003849
#
# Stress axis : x y z
#
# Youngs Moduli (GPa) = 63.20192 115.24426 30.21077
#
# Poissons Ratio (x) = 0.37610 -0.10892
# Poissons Ratio (y) = 0.20626 0.12455
# Poissons Ratio (z) = -0.22787 0.47513
#
# Static dielectric constant tensor:
#      x y z
#    x 2.099530 -0.010600 0.053530 
#    y -0.010600 1.981730 0.034220 
#    z 0.053530 0.034220 2.068350 
# 
# From -- ./inp_files/12729.got.cif
#   From: 2010.05.17/outbox.cif.g08.bks.cpg/sg2_7_cif.got.tgz:12729.got - 2010.06.03 11:33:40.
