data_PCOD9045179
_publ_section_title
;
Structure prediction by ZEFSAII (Michael W. Deem and Ramdas Pophale) SiO2 
 PCOD9045179
Probable space group: P -1
;
_chemical_formula_sum "Si O2"
_cell_formula_units_Z 12
_cell_length_a 12.938860
_cell_length_b 5.400467
_cell_length_c 6.771886
_cell_angle_alpha 97.554715
_cell_angle_beta 94.427623
_cell_angle_gamma 97.642839
_cell_volume 462.753015
_symmetry_space_group_name_H-M "P -1"
_symmetry_group_IT_number 2
_symmetry_cell_setting 'triclinic'
loop_
_space_group_symop_operation_xyz
x,y,z
-x,-y,-z
loop_
_atom_site_type_symbol
_atom_site_label
_atom_site_fract_x
_atom_site_fract_y
_atom_site_fract_z
Si Si1 0.975114 0.637097 0.814468
Si Si2 0.640461 0.417700 0.467065
Si Si3 0.096280 0.837470 0.523015
Si Si4 0.343842 0.832901 0.915567
Si Si5 0.774625 0.873600 0.750769
Si Si6 0.494308 0.746617 0.244077
O O1 0.927692 0.421035 0.630348
O O2 0.884460 0.808941 0.845077
O O3 0.080273 0.778042 0.744873
O O4 0.000000 0.500000 0.000000
O O5 0.710402 0.330058 0.291435
O O6 0.700308 0.622175 0.645083
O O7 0.556538 0.546197 0.339106
O O8 0.582004 0.200743 0.579200
O O9 0.194505 0.986164 0.438334
O O10 0.000000 0.000000 0.500000
O O11 0.424691 0.038030 0.826876
O O12 0.411453 0.670580 0.047599
O O13 0.278727 0.973213 0.075963
#
# Coordination Sequence:
#
# PCOD9045179 Si02
#       6
#     2   2   2   2   2   2
#     4  10  23  51  75 100 140 185 225 289 364 421
#     4  11  26  46  70 102 146 190 237 293 348 407
#     4   9  22  49  70 101 140 176 225 292 357 423
#     4  11  26  46  70 103 144 191 240 286 352 413
#     4  11  27  45  72 110 141 180 244 291 343 432
#     4  10  26  46  70 102 145 196 236 287 353 413
#
# _framework density 25.931760000000001
#
# number of rings (size 3 to 8) (size 9 to 14) (size 15 to 20)
#    0.000    1.667    0.000    1.000   16.333    2.667 
#   24.000    0.000    0.000    0.000    0.000    0.000 
#    0.000    0.000    0.000    0.000    0.000    0.000 
#
# Total GULP energy -67095.467710 kJ/mol
# GULP energy per Si atom -5591.288976 kJ/mol
# Density = 2.587274 g / cm^3
# Si number density = 25.931760 Si / 1000 Ang^3
#
#
#
# Elastic Constant Matrix: (Units=GPa)
#
#
# Indices 1 2 3 4 5 6 
#
# 1 138.1423 33.3538 81.9764 -7.2690 -34.7269 -17.1156
# 2 33.3538 63.2485 53.9259 -15.1996 -21.5099 11.5271
# 3 81.9764 53.9259 219.1529 -25.6364 -32.0701 -6.2526
# 4 -7.2690 -15.1996 -25.6364 73.4701 -4.1657 -6.4760
# 5 -34.7269 -21.5099 -32.0701 -4.1657 50.8979 -6.3519
# 6 -17.1156 11.5271 -6.2526 -6.4760 -6.3519 45.0473
#
#
#
# Elastic Compliance Matrix: (Units=1/GPa)
#
#
# Indices 1 2 3 4 5 6 
#
# 1 0.011677 -0.002884 -0.002577 0.000497 0.005879 0.005717
# 2 -0.002884 0.024519 -0.004013 0.003092 0.005278 -0.006738
# 3 -0.002577 -0.004013 0.006906 0.001515 0.001196 0.001393
# 4 0.000497 0.003092 0.001515 0.015274 0.004149 0.002389
# 5 0.005879 0.005278 0.001196 0.004149 0.027674 0.005547
# 6 0.005717 -0.006738 0.001393 0.002389 0.005547 0.027414
#
#
# Mechanical properties :
#
#
# Convention : Reuss Voigt Hill
#
# Bulk Modulus (GPa) = 41.39927 84.33955 62.86941
# Shear Modulus (GPa) = 35.59683 50.63557 43.11620
#
# Velocity S-wave (km/s) = 3.70903 4.42367 4.08202
# Velocity P-wave (km/s) = 5.86020 7.66068 6.82012
#
# Compressibility (1/GPa) = 0.02415501
#
# Stress axis : x y z
#
# Youngs Moduli (GPa) = 85.64188 40.78502 144.79923
#
# Poissons Ratio (x) = 0.11763 0.37308
# Poissons Ratio (y) = 0.24700 0.58101
# Poissons Ratio (z) = 0.22066 0.16365
#
# Static dielectric constant tensor:
#      x y z
#    x 2.191840 0.017190 0.024860 
#    y 0.017190 2.111200 0.033350 
#    z 0.024860 0.033350 2.019560 
# 
# From -- ./inp_files/85665.got.cif
#   From: 2010.05.17/outbox.cif.g08.bks.cpg/sg2_43_cif.got.tgz:85665.got - 2010.06.03 11:33:40.
