data_PCOD9045783
_publ_section_title
;
Structure prediction by ZEFSAII (Michael W. Deem and Ramdas Pophale) SiO2 
 PCOD9045783
Probable space group: P -1
;
_chemical_formula_sum "Si O2"
_cell_formula_units_Z 16
_cell_length_a 14.561180
_cell_length_b 14.954216
_cell_length_c 12.453252
_cell_angle_alpha 144.243335
_cell_angle_beta 121.485878
_cell_angle_gamma 32.803287
_cell_volume 741.037533
_symmetry_space_group_name_H-M "P -1"
_symmetry_group_IT_number 2
_symmetry_cell_setting 'triclinic'
loop_
_space_group_symop_operation_xyz
x,y,z
-x,-y,-z
loop_
_atom_site_type_symbol
_atom_site_label
_atom_site_fract_x
_atom_site_fract_y
_atom_site_fract_z
Si Si1 0.339500 0.945574 0.492171
Si Si2 0.823417 0.537377 0.028356
Si Si3 0.093462 0.142224 0.014077
Si Si4 0.096041 0.800757 0.666796
Si Si5 0.308684 0.808586 0.138937
Si Si6 0.031141 0.119472 0.569535
Si Si7 0.389462 0.930985 0.122823
Si Si8 0.235321 0.439556 0.595103
O O1 0.266850 0.000955 0.380892
O O2 0.571320 0.697025 0.384029
O O3 0.247698 0.206832 0.741423
O O4 0.254681 0.901699 0.463901
O O5 0.622581 0.679205 0.027311
O O6 0.960745 0.325770 0.006065
O O7 0.944120 0.359545 0.821539
O O8 0.942961 0.337047 0.212535
O O9 0.274598 0.042206 0.049180
O O10 0.183527 0.865295 0.790501
O O11 0.185763 0.570206 0.576440
O O12 0.078286 0.768899 0.502308
O O13 0.875010 0.082854 0.853032
O O14 0.340283 0.838970 0.071790
O O15 0.500000 0.500000 0.000000
O O16 0.000000 0.000000 0.500000
O O17 0.295520 0.192170 0.375065
#
# Coordination Sequence:
#
# PCOD9045783 Si02
#       8
#     2   2   2   2   2   2   2   2
#     4  10  24  41  69  92 127 177 217 266 331 384
#     4  11  24  46  65  98 129 175 223 266 322 390
#     4  12  23  40  70  97 137 168 209 268 328 397
#     4  11  24  40  63  95 131 168 217 269 323 386
#     4  11  22  38  65  99 133 173 210 265 330 390
#     4  11  24  46  65  90 128 173 227 275 318 378
#     4  11  25  40  66 101 135 170 212 266 329 394
#     4  11  23  42  63 102 133 164 213 268 334 395
#
# _framework density 21.591349999999998
#
# number of rings (size 3 to 8) (size 9 to 14) (size 15 to 20)
#    0.000    1.000    2.500    4.125    7.000    2.000 
#    2.250    2.500    0.000    0.000    0.000    0.000 
#    0.000    0.000    0.000    0.000    0.000    0.000 
#
# Total GULP energy -89392.124109 kJ/mol
# GULP energy per Si atom -5587.007757 kJ/mol
# Density = 2.154221 g / cm^3
# Si number density = 21.591350 Si / 1000 Ang^3
#
#
#
# Elastic Constant Matrix: (Units=GPa)
#
#
# Indices 1 2 3 4 5 6 
#
# 1 61.2464 34.7726 1.5463 -7.7882 0.3717 -2.5550
# 2 34.7726 108.9746 10.5000 -11.0494 -2.1034 -10.1964
# 3 1.5463 10.5000 59.5795 -10.7933 1.1012 0.2086
# 4 -7.7882 -11.0494 -10.7933 28.4586 0.8499 7.0302
# 5 0.3717 -2.1034 1.1012 0.8499 23.5251 -2.4929
# 6 -2.5550 -10.1964 0.2086 7.0302 -2.4929 38.4878
#
#
#
# Elastic Compliance Matrix: (Units=1/GPa)
#
#
# Indices 1 2 3 4 5 6 
#
# 1 0.020362 -0.006357 0.001329 0.003925 -0.001214 -0.001135
# 2 -0.006357 0.011785 -0.001669 0.001537 0.001444 0.002522
# 3 0.001329 -0.001669 0.018381 0.007192 -0.001488 -0.001864
# 4 0.003925 0.001537 0.007192 0.041363 -0.002507 -0.007089
# 5 -0.001214 0.001444 -0.001488 -0.002507 0.043194 0.003566
# 6 -0.001135 0.002522 -0.001864 -0.007089 0.003566 0.028111
#
#
# Mechanical properties :
#
#
# Convention : Reuss Voigt Hill
#
# Bulk Modulus (GPa) = 26.92894 35.93758 31.43326
# Shear Modulus (GPa) = 26.45935 30.29307 28.37621
#
# Velocity S-wave (km/s) = 3.50446 3.74975 3.62918
# Velocity P-wave (km/s) = 5.37346 5.95215 5.67019
#
# Compressibility (1/GPa) = 0.03713476
#
# Stress axis : x y z
#
# Youngs Moduli (GPa) = 49.11033 84.85030 54.40463
#
# Poissons Ratio (x) = 0.53941 -0.07232
# Poissons Ratio (y) = 0.31220 0.09081
# Poissons Ratio (z) = -0.06529 0.14162
#
# Static dielectric constant tensor:
#      x y z
#    x 1.786320 -0.035990 0.014750 
#    y -0.035990 1.826530 0.005120 
#    z 0.014750 0.005120 1.774200 
# 
# From -- ./inp_files/218610.got.cif
#   From: 2010.05.17/outbox.cif.g08.bks.cpg/sg2_110_cif.got.tgz:218610.got - 2010.06.03 11:33:40.
