data_PCOD9045971
_publ_section_title
;
Structure prediction by ZEFSAII (Michael W. Deem and Ramdas Pophale) SiO2 
 PCOD9045971
Probable space group: P -1
;
_chemical_formula_sum "Si O2"
_cell_formula_units_Z 16
_cell_length_a 9.034193
_cell_length_b 22.140970
_cell_length_c 6.838748
_cell_angle_alpha 132.679030
_cell_angle_beta 50.408397
_cell_angle_gamma 115.571867
_cell_volume 774.959052
_symmetry_space_group_name_H-M "P -1"
_symmetry_group_IT_number 2
_symmetry_cell_setting 'triclinic'
loop_
_space_group_symop_operation_xyz
x,y,z
-x,-y,-z
loop_
_atom_site_type_symbol
_atom_site_label
_atom_site_fract_x
_atom_site_fract_y
_atom_site_fract_z
Si Si1 0.597485 0.911777 0.253592
Si Si2 0.796609 0.488523 0.747205
Si Si3 0.609566 0.434851 0.400749
Si Si4 0.865225 0.824656 0.532923
Si Si5 0.218087 0.827030 0.536822
Si Si6 0.116852 0.641878 0.290219
Si Si7 0.953397 0.912200 0.253198
Si Si8 0.256559 0.349534 0.593032
O O1 0.428128 0.853148 0.346779
O O2 0.769883 0.917232 0.276503
O O3 0.500000 0.000000 0.500000
O O4 0.700047 0.878348 0.897024
O O5 0.650241 0.473992 0.661939
O O6 0.813026 0.408592 0.694060
O O7 0.000000 0.500000 0.500000
O O8 0.762162 0.568244 0.082853
O O9 0.500000 0.500000 0.500000
O O10 0.476510 0.354221 0.352050
O O11 0.804702 0.408064 0.072905
O O12 0.901936 0.850399 0.336883
O O13 0.802630 0.730383 0.411354
O O14 0.063894 0.837153 0.512582
O O15 0.201109 0.732910 0.412717
O O16 0.133280 0.881695 0.905190
O O17 0.887804 0.646421 0.461247
O O18 0.000000 0.000000 0.500000
#
# Coordination Sequence:
#
# PCOD9045971 Si02
#       8
#     2   2   2   2   2   2   2   2
#     4  11  23  43  68  95 127 165 208 256 314 381
#     4  12  24  40  64  91 123 170 213 255 313 369
#     4  12  24  41  62  88 122 167 215 259 309 365
#     4  10  24  43  64  95 130 164 207 260 315 372
#     4  10  24  42  65  95 129 166 206 262 313 371
#     4  11  24  43  63  91 128 164 211 261 311 367
#     4  11  24  42  66  97 126 166 208 254 316 380
#     4  11  23  43  63  91 128 165 208 263 311 367
#
# _framework density 20.646252
#
# number of rings (size 3 to 8) (size 9 to 14) (size 15 to 20)
#    0.000    1.000    2.500    3.750    1.750    6.000 
#    2.250    0.000    0.000    0.000    0.000    0.000 
#    0.000    0.000    0.000    0.000    0.000    0.000 
#
# Total GULP energy -89492.611189 kJ/mol
# GULP energy per Si atom -5593.288199 kJ/mol
# Density = 2.059926 g / cm^3
# Si number density = 20.646252 Si / 1000 Ang^3
#
#
#
# Elastic Constant Matrix: (Units=GPa)
#
#
# Indices 1 2 3 4 5 6 
#
# 1 74.3912 28.1828 4.1977 -6.4376 6.8750 7.1566
# 2 28.1828 57.9758 -3.8099 2.1176 11.0991 -4.5608
# 3 4.1977 -3.8099 39.6169 -1.3884 -0.8877 -2.0529
# 4 -6.4376 2.1176 -1.3884 38.9041 2.1454 -3.4842
# 5 6.8750 11.0991 -0.8877 2.1454 28.5852 -6.3834
# 6 7.1566 -4.5608 -2.0529 -3.4842 -6.3834 44.4709
#
#
#
# Elastic Compliance Matrix: (Units=1/GPa)
#
#
# Indices 1 2 3 4 5 6 
#
# 1 0.017805 -0.008878 -0.002883 0.003085 -0.002040 -0.003960
# 2 -0.008878 0.023219 0.003121 -0.002029 -0.005975 0.002937
# 3 -0.002883 0.003121 0.025989 0.000430 0.000730 0.002122
# 4 0.003085 -0.002029 0.000430 0.026536 -0.001675 0.001154
# 5 -0.002040 -0.005975 0.000730 -0.001675 0.039111 0.005232
# 6 -0.003960 0.002937 0.002122 0.001154 0.005232 0.024365
#
#
# Mechanical properties :
#
#
# Convention : Reuss Voigt Hill
#
# Bulk Modulus (GPa) = 20.10815 25.45835 22.78325
# Shear Modulus (GPa) = 26.19414 31.95292 29.07353
#
# Velocity S-wave (km/s) = 3.56576 3.93827 3.75664
# Velocity P-wave (km/s) = 5.16850 5.74782 5.46584
#
# Compressibility (1/GPa) = 0.04973108
#
# Stress axis : x y z
#
# Youngs Moduli (GPa) = 56.16350 43.06892 38.47808
#
# Poissons Ratio (x) = 0.38238 0.11094
# Poissons Ratio (y) = 0.49864 -0.12009
# Poissons Ratio (z) = 0.16193 -0.13441
#
# Static dielectric constant tensor:
#      x y z
#    x 1.826610 0.046820 0.012190 
#    y 0.046820 1.738930 0.003700 
#    z 0.012190 0.003700 1.765390 
# 
# From -- ./inp_files/53902.got.cif
#   From: 2010.05.17/outbox.cif.g08.bks.cpg/sg2_27_cif.got.tgz:53902.got - 2010.06.03 11:33:40.
