data_PCOD9045644
_publ_section_title
;
Structure prediction by ZEFSAII (Michael W. Deem and Ramdas Pophale) SiO2 
 PCOD9045644
Probable space group: P -1
;
_chemical_formula_sum "Si O2"
_cell_formula_units_Z 16
_cell_length_a 15.563483
_cell_length_b 9.536224
_cell_length_c 8.632389
_cell_angle_alpha 110.857793
_cell_angle_beta 99.144981
_cell_angle_gamma 136.593990
_cell_volume 624.953852
_symmetry_space_group_name_H-M "P -1"
_symmetry_group_IT_number 2
_symmetry_cell_setting 'triclinic'
loop_
_space_group_symop_operation_xyz
x,y,z
-x,-y,-z
loop_
_atom_site_type_symbol
_atom_site_label
_atom_site_fract_x
_atom_site_fract_y
_atom_site_fract_z
Si Si1 0.254869 0.663173 0.534690
Si Si2 0.665591 0.776356 0.344210
Si Si3 0.350025 0.967273 0.399987
Si Si4 0.054403 0.852797 0.948731
Si Si5 0.299520 0.347443 0.986412
Si Si6 0.138085 0.424231 0.926774
Si Si7 0.458393 0.700122 0.710924
Si Si8 0.181845 0.721687 0.819967
O O1 0.380892 0.913675 0.541402
O O2 0.344022 0.677989 0.678594
O O3 0.181185 0.692017 0.624695
O O4 0.112824 0.369854 0.284786
O O5 0.750361 0.840570 0.238693
O O6 0.622282 0.568393 0.353397
O O7 0.744379 0.023769 0.563461
O O8 0.491090 0.596562 0.170702
O O9 0.236420 0.695672 0.156707
O O10 0.491969 0.232694 0.430603
O O11 0.098840 0.744743 0.882977
O O12 0.016771 0.834121 0.108509
O O13 0.198191 0.160262 0.036834
O O14 0.249788 0.440113 0.954701
O O15 0.109610 0.464142 0.773007
O O16 0.625285 0.973426 0.961635
#
# Coordination Sequence:
#
# PCOD9045644 Si02
#       8
#     2   2   2   2   2   2   2   2
#     4  11  24  40  70  98 137 176 220 276 334 396
#     4  11  24  41  69  99 137 172 225 276 334 389
#     4  10  24  41  65 101 133 175 216 280 329 390
#     4  11  23  45  63  98 135 182 217 269 337 400
#     4  11  24  43  68  99 133 180 221 274 333 396
#     4  10  24  43  69  99 133 176 225 274 330 397
#     4  11  23  42  64 103 132 175 224 278 327 391
#     4  11  22  42  67  99 135 174 227 271 331 395
#
# _framework density 25.601890999999998
#
# number of rings (size 3 to 8) (size 9 to 14) (size 15 to 20)
#    0.000    1.250    1.250    3.750    8.750    1.000 
#    0.000    5.000    0.000    0.000    0.000    0.000 
#    0.000    0.000    0.000    0.000    0.000    0.000 
#
# Total GULP energy -89645.422287 kJ/mol
# GULP energy per Si atom -5602.838893 kJ/mol
# Density = 2.554362 g / cm^3
# Si number density = 25.601891 Si / 1000 Ang^3
#
#
#
# Elastic Constant Matrix: (Units=GPa)
#
#
# Indices 1 2 3 4 5 6 
#
# 1 114.0935 16.8931 23.5787 -2.0860 -8.1363 -7.7844
# 2 16.8931 86.6024 -0.1591 -18.2165 -1.6256 -3.6451
# 3 23.5787 -0.1591 51.2238 3.0270 -11.7241 4.2619
# 4 -2.0860 -18.2165 3.0270 32.7179 5.6622 -5.9236
# 5 -8.1363 -1.6256 -11.7241 5.6622 42.0940 -4.5037
# 6 -7.7844 -3.6451 4.2619 -5.9236 -4.5037 42.0530
#
#
#
# Elastic Compliance Matrix: (Units=1/GPa)
#
#
# Indices 1 2 3 4 5 6 
#
# 1 0.010240 -0.001814 -0.004758 0.000374 0.000786 0.002357
# 2 -0.001814 0.013634 0.000102 0.007921 -0.000660 0.001881
# 3 -0.004758 0.000102 0.023553 -0.004016 0.005842 -0.003199
# 4 0.000374 0.007921 -0.004016 0.037321 -0.005133 0.005870
# 5 0.000786 -0.000660 0.005842 -0.005133 0.026371 0.001597
# 6 0.002357 0.001881 -0.003199 0.005870 0.001597 0.025701
#
#
# Mechanical properties :
#
#
# Convention : Reuss Voigt Hill
#
# Bulk Modulus (GPa) = 28.99563 36.94944 32.97254
# Shear Modulus (GPa) = 31.00665 37.48011 34.24338
#
# Velocity S-wave (km/s) = 3.48387 3.83032 3.66120
# Velocity P-wave (km/s) = 5.24722 5.83314 5.54792
#
# Compressibility (1/GPa) = 0.03448795
#
# Stress axis : x y z
#
# Youngs Moduli (GPa) = 97.65418 73.34687 42.45716
#
# Poissons Ratio (x) = 0.13302 0.20199
# Poissons Ratio (y) = 0.17710 -0.00431
# Poissons Ratio (z) = 0.46460 -0.00745
#
# Static dielectric constant tensor:
#      x y z
#    x 2.018910 0.019000 0.022000 
#    y 0.019000 2.048120 -0.003390 
#    z 0.022000 -0.003390 2.033660 
# 
# From -- ./inp_files/299279.got.cif
#   From: 2010.05.17/outbox.cif.g08.bks.cpg/sg2_150_cif.got.tgz:299279.got - 2010.06.03 11:33:40.
