data_PCOD9045830
_publ_section_title
;
Structure prediction by ZEFSAII (Michael W. Deem and Ramdas Pophale) SiO2 
 PCOD9045830
Probable space group: P -1
;
_chemical_formula_sum "Si O2"
_cell_formula_units_Z 16
_cell_length_a 7.144560
_cell_length_b 9.195991
_cell_length_c 13.306035
_cell_angle_alpha 53.214025
_cell_angle_beta 71.095781
_cell_angle_gamma 82.222259
_cell_volume 660.392229
_symmetry_space_group_name_H-M "P -1"
_symmetry_group_IT_number 2
_symmetry_cell_setting 'triclinic'
loop_
_space_group_symop_operation_xyz
x,y,z
-x,-y,-z
loop_
_atom_site_type_symbol
_atom_site_label
_atom_site_fract_x
_atom_site_fract_y
_atom_site_fract_z
Si Si1 0.068427 0.626347 0.707215
Si Si2 0.606141 0.463777 0.650363
Si Si3 0.816888 0.343498 0.108605
Si Si4 0.582615 0.237846 0.547871
Si Si5 0.559715 0.629716 0.072934
Si Si6 0.853016 0.294709 0.831647
Si Si7 0.832847 0.934450 0.638187
Si Si8 0.086403 0.062346 0.147602
O O1 0.024518 0.411357 0.809760
O O2 0.855794 0.717901 0.713548
O O3 0.180897 0.704519 0.753390
O O4 0.206924 0.674220 0.568699
O O5 0.561907 0.317665 0.629812
O O6 0.582751 0.666175 0.527991
O O7 0.452675 0.422862 0.784760
O O8 0.808208 0.418075 0.689286
O O9 0.622478 0.448548 0.081688
O O10 0.887354 0.163169 0.121061
O O11 0.000000 0.500000 0.000000
O O12 0.624102 0.024585 0.621458
O O13 0.344141 0.702812 0.068184
O O14 0.725732 0.791229 0.957413
O O15 0.896093 0.101483 0.863195
O O16 0.900796 0.994898 0.713714
O O17 0.000000 0.000000 0.500000
#
# Coordination Sequence:
#
# PCOD9045830 Si02
#       8
#     2   2   2   2   2   2   2   2
#     4  10  19  33  55  80 108 133 174 227 268 305
#     4   9  19  31  55  78 103 142 177 215 265 313
#     4   9  18  35  57  71  99 146 181 204 253 325
#     4  10  17  34  55  74 105 142 186 206 257 330
#     4   9  18  35  55  74 106 142 179 213 260 322
#     4  10  20  33  53  85 108 132 173 230 275 297
#     4   9  18  32  53  78  98 139 182 213 248 326
#     4  10  18  34  56  79 102 144 182 214 257 325
#
# _framework density 24.228027999999998
#
# number of rings (size 3 to 8) (size 9 to 14) (size 15 to 20)
#    0.750    1.750    2.500    0.375    0.000    0.500 
#    0.000    8.750    5.500    0.000    0.000    0.000 
#    0.000    0.000    0.000    0.000    0.000    0.000 
#
# Total GULP energy -89216.454614 kJ/mol
# GULP energy per Si atom -5576.028413 kJ/mol
# Density = 2.417288 g / cm^3
# Si number density = 24.228028 Si / 1000 Ang^3
#
#
#
# Elastic Constant Matrix: (Units=GPa)
#
#
# Indices 1 2 3 4 5 6 
#
# 1 71.7713 32.9084 10.9736 -4.4015 16.6917 -26.9954
# 2 32.9084 169.3362 25.3056 -7.6266 0.8965 -48.2948
# 3 10.9736 25.3056 59.1600 20.5776 17.3098 -4.3779
# 4 -4.4015 -7.6266 20.5776 40.8708 -4.8899 6.6396
# 5 16.6917 0.8965 17.3098 -4.8899 31.4737 -3.7305
# 6 -26.9954 -48.2948 -4.3779 6.6396 -3.7305 36.9764
#
#
#
# Elastic Compliance Matrix: (Units=1/GPa)
#
#
# Indices 1 2 3 4 5 6 
#
# 1 0.021927 -0.000035 0.000779 -0.001783 -0.010518 0.015314
# 2 -0.000035 0.010790 -0.006575 0.003839 0.005483 0.013152
# 3 0.000779 -0.006575 0.032454 -0.019591 -0.021453 -0.002824
# 4 -0.001783 0.003839 -0.019591 0.037478 0.017005 -0.003621
# 5 -0.010518 0.005483 -0.021453 0.017005 0.051527 -0.000913
# 6 0.015314 0.013152 -0.002824 -0.003621 -0.000913 0.055627
#
#
# Mechanical properties :
#
#
# Convention : Reuss Voigt Hill
#
# Bulk Modulus (GPa) = 18.68886 48.73807 33.71347
# Shear Modulus (GPa) = 20.89423 37.26951 29.08187
#
# Velocity S-wave (km/s) = 2.93985 3.92635 3.46835
# Velocity P-wave (km/s) = 4.38795 6.38083 5.47582
#
# Compressibility (1/GPa) = 0.05350781
#
# Stress axis : x y z
#
# Youngs Moduli (GPa) = 45.60617 92.68106 30.81298
#
# Poissons Ratio (x) = 0.00320 -0.02399
# Poissons Ratio (y) = 0.00157 0.20260
# Poissons Ratio (z) = -0.03550 0.60940
#
# Static dielectric constant tensor:
#      x y z
#    x 1.993250 -0.051610 0.096000 
#    y -0.051610 1.907740 -0.023880 
#    z 0.096000 -0.023880 2.007550 
# 
# From -- ./inp_files/494357.got.cif
#   From: 2010.05.17/outbox.cif.g08.bks.cpg/sg2_248_cif.got.tgz:494357.got - 2010.06.03 11:33:40.
