data_PCOD9045964
_publ_section_title
;
Structure prediction by ZEFSAII (Michael W. Deem and Ramdas Pophale) SiO2 
 PCOD9045964
Probable space group: P -1
;
_chemical_formula_sum "Si O2"
_cell_formula_units_Z 16
_cell_length_a 13.699868
_cell_length_b 14.850971
_cell_length_c 14.241640
_cell_angle_alpha 141.940679
_cell_angle_beta 158.762510
_cell_angle_gamma 38.864109
_cell_volume 633.933043
_symmetry_space_group_name_H-M "P -1"
_symmetry_group_IT_number 2
_symmetry_cell_setting 'triclinic'
loop_
_space_group_symop_operation_xyz
x,y,z
-x,-y,-z
loop_
_atom_site_type_symbol
_atom_site_label
_atom_site_fract_x
_atom_site_fract_y
_atom_site_fract_z
Si Si1 0.833596 0.013818 0.060086
Si Si2 0.688643 0.667323 0.447580
Si Si3 0.750016 0.346961 0.259351
Si Si4 0.198749 0.488676 0.256519
Si Si5 0.150658 0.847815 0.058826
Si Si6 0.526666 0.764230 0.579060
Si Si7 0.086898 0.987773 0.459973
Si Si8 0.820660 0.696845 0.230574
O O1 0.786156 0.180336 0.113398
O O2 0.855452 0.019955 0.197516
O O3 0.107055 0.907781 0.177155
O O4 0.616050 0.917165 0.755083
O O5 0.723401 0.499353 0.303658
O O6 0.968041 0.725036 0.768381
O O7 0.540905 0.668157 0.418477
O O8 0.473696 0.780670 0.284631
O O9 0.023226 0.337550 0.558890
O O10 0.465900 0.357058 0.070713
O O11 0.500000 0.500000 0.500000
O O12 0.246612 0.334505 0.231024
O O13 0.045730 0.617446 0.293597
O O14 0.000000 0.500000 0.000000
O O15 0.000000 0.000000 0.000000
O O16 0.263126 0.825898 0.457879
O O17 0.237378 0.126769 0.694033
O O18 0.000000 0.000000 0.500000
#
# Coordination Sequence:
#
# PCOD9045964 Si02
#       8
#     2   2   2   2   2   2   2   2
#     4  10  24  42  65  93 132 174 215 270 330 385
#     4  11  23  42  72  99 131 173 215 266 327 395
#     4  11  22  42  65  93 130 172 215 262 327 392
#     4  12  27  40  59  87 129 172 227 283 328 377
#     4  11  24  45  73 105 133 166 215 268 327 397
#     4  11  23  42  63  91 125 178 226 269 327 384
#     4  11  23  39  62  90 130 176 226 273 321 385
#     4  11  23  40  58  91 127 176 219 273 324 377
#
# _framework density 25.239256999999998
#
# number of rings (size 3 to 8) (size 9 to 14) (size 15 to 20)
#    0.000    1.000    3.750    2.625    5.250    1.500 
#    0.000    1.250    0.000    0.000    0.000    0.000 
#    0.000    0.000    0.000    0.000    0.000    0.000 
#
# Total GULP energy -89437.375348 kJ/mol
# GULP energy per Si atom -5589.835959 kJ/mol
# Density = 2.518181 g / cm^3
# Si number density = 25.239257 Si / 1000 Ang^3
#
#
#
# Elastic Constant Matrix: (Units=GPa)
#
#
# Indices 1 2 3 4 5 6 
#
# 1 70.9326 22.2280 21.4546 -6.0482 1.8577 -9.6648
# 2 22.2280 151.5640 48.9217 9.0832 -1.7723 -10.6856
# 3 21.4546 48.9217 113.3007 -4.6006 -7.0238 -2.8805
# 4 -6.0482 9.0832 -4.6006 50.9542 3.4900 -3.7888
# 5 1.8577 -1.7723 -7.0238 3.4900 30.8101 -9.1662
# 6 -9.6648 -10.6856 -2.8805 -3.7888 -9.1662 36.6078
#
#
#
# Elastic Compliance Matrix: (Units=1/GPa)
#
#
# Indices 1 2 3 4 5 6 
#
# 1 0.015956 -0.001508 -0.002230 0.002283 -0.000730 0.003650
# 2 -0.001508 0.008085 -0.003205 -0.001823 0.000523 0.001652
# 3 -0.002230 -0.003205 0.010821 0.001128 0.002295 0.000018
# 4 0.002283 -0.001823 0.001128 0.020582 -0.001767 0.001847
# 5 -0.000730 0.000523 0.002295 -0.001767 0.035917 0.008951
# 6 0.003650 0.001652 0.000018 0.001847 0.008951 0.031196
#
#
# Mechanical properties :
#
#
# Convention : Reuss Voigt Hill
#
# Bulk Modulus (GPa) = 47.67432 57.88954 52.78193
# Shear Modulus (GPa) = 34.85868 39.88729 37.37299
#
# Velocity S-wave (km/s) = 3.72039 3.97970 3.85222
# Velocity P-wave (km/s) = 6.11433 6.64104 6.38312
#
# Compressibility (1/GPa) = 0.02097565
#
# Stress axis : x y z
#
# Youngs Moduli (GPa) = 62.67171 123.67874 92.41472
#
# Poissons Ratio (x) = 0.18655 0.20608
# Poissons Ratio (y) = 0.09453 0.29620
# Poissons Ratio (z) = 0.13975 0.39641
#
# Static dielectric constant tensor:
#      x y z
#    x 2.137950 0.001720 0.033220 
#    y 0.001720 1.991170 -0.010960 
#    z 0.033220 -0.010960 1.953990 
# 
# From -- ./inp_files/38244.got.cif
#   From: 2010.05.17/outbox.cif.g08.bks.cpg/sg2_20_cif.got.tgz:38244.got - 2010.06.03 11:33:40.
