data_PCOD9045580
_publ_section_title
;
Structure prediction by ZEFSAII (Michael W. Deem and Ramdas Pophale) SiO2 
 PCOD9045580
Probable space group: P -1
;
_chemical_formula_sum "Si O2"
_cell_formula_units_Z 14
_cell_length_a 12.093136
_cell_length_b 9.347806
_cell_length_c 9.303633
_cell_angle_alpha 62.034636
_cell_angle_beta 99.595844
_cell_angle_gamma 133.857239
_cell_volume 648.813356
_symmetry_space_group_name_H-M "P -1"
_symmetry_group_IT_number 2
_symmetry_cell_setting 'triclinic'
loop_
_space_group_symop_operation_xyz
x,y,z
-x,-y,-z
loop_
_atom_site_type_symbol
_atom_site_label
_atom_site_fract_x
_atom_site_fract_y
_atom_site_fract_z
Si Si1 0.949120 0.113357 0.859767
Si Si2 0.941769 0.464640 0.166762
Si Si3 0.549812 0.748057 0.266620
Si Si4 0.579327 0.753530 0.937973
Si Si5 0.001535 0.235451 0.494241
Si Si6 0.561481 0.070139 0.315861
Si Si7 0.746905 0.779318 0.510924
O O1 0.028193 0.253386 0.661554
O O2 0.992958 0.294553 0.895300
O O3 0.764662 0.919031 0.876905
O O4 0.000000 0.000000 0.000000
O O5 0.014630 0.413097 0.323188
O O6 0.751947 0.265360 0.242808
O O7 0.000000 0.500000 0.000000
O O8 0.709935 0.835345 0.328160
O O9 0.417997 0.471937 0.368212
O O10 0.506456 0.857860 0.307059
O O11 0.565969 0.798804 0.079257
O O12 0.504920 0.825931 0.801066
O O13 0.500000 0.500000 0.000000
O O14 0.129019 0.239030 0.460864
O O15 0.826033 0.988265 0.536115
O O16 0.500000 0.000000 0.500000
#
# Coordination Sequence:
#
# PCOD9045580 Si02
#       7
#     2   2   2   2   2   2   2
#     4  12  27  45  73 105 144 184 238 293 363 426
#     4  12  28  47  72 105 148 188 241 295 357 425
#     4  11  24  45  71 102 141 184 235 289 357 419
#     4  12  27  45  73 105 144 184 238 293 363 426
#     4  11  24  45  71 102 141 184 235 289 357 419
#     4  12  28  47  72 105 148 188 241 295 357 425
#     4  10  24  40  76 100 136 178 240 286 350 412
#
# _framework density 21.577853999999999
#
# number of rings (size 3 to 8) (size 9 to 14) (size 15 to 20)
#    0.000    0.571    1.429    5.143   14.000    0.000 
#    0.000    0.000    0.000    0.000    0.000    0.000 
#    0.000    0.000    0.000    0.000    0.000    0.000 
#
# Total GULP energy -78202.587770 kJ/mol
# GULP energy per Si atom -5585.899126 kJ/mol
# Density = 2.152874 g / cm^3
# Si number density = 21.577854 Si / 1000 Ang^3
#
#
#
# Elastic Constant Matrix: (Units=GPa)
#
#
# Indices 1 2 3 4 5 6 
#
# 1 107.0128 17.8353 72.4252 -0.1629 38.6592 -5.6087
# 2 17.8353 85.9021 28.4764 -0.8312 12.4862 -21.5311
# 3 72.4252 28.4764 182.2062 23.3827 26.2273 -18.4303
# 4 -0.1629 -0.8312 23.3827 33.7628 -0.6000 1.1330
# 5 38.6592 12.4862 26.2273 -0.6000 48.2056 -8.3411
# 6 -5.6087 -21.5311 -18.4303 1.1330 -8.3411 45.2799
#
#
#
# Elastic Compliance Matrix: (Units=1/GPa)
#
#
# Indices 1 2 3 4 5 6 
#
# 1 0.017319 -0.000664 -0.006024 0.004138 -0.010860 -0.002726
# 2 -0.000664 0.013833 -0.001250 0.000987 -0.001370 0.005710
# 3 -0.006024 -0.001250 0.009084 -0.006429 0.000587 0.002626
# 4 0.004138 0.000987 -0.006429 0.034198 -0.000084 -0.002506
# 5 -0.010860 -0.001370 0.000587 -0.000084 0.030146 0.003797
# 6 -0.002726 0.005710 0.002626 -0.002506 0.003797 0.026293
#
#
# Mechanical properties :
#
#
# Convention : Reuss Voigt Hill
#
# Bulk Modulus (GPa) = 41.04881 68.06609 54.55745
# Shear Modulus (GPa) = 32.28547 42.54194 37.41371
#
# Velocity S-wave (km/s) = 3.87231 4.44504 4.16852
# Velocity P-wave (km/s) = 6.24964 7.61297 6.96474
#
# Compressibility (1/GPa) = 0.02436124
#
# Stress axis : x y z
#
# Youngs Moduli (GPa) = 57.74052 72.28988 110.08007
#
# Poissons Ratio (x) = 0.04798 0.66311
# Poissons Ratio (y) = 0.03832 0.13760
# Poissons Ratio (z) = 0.34782 0.09036
#
# Static dielectric constant tensor:
#      x y z
#    x 1.759770 -0.001970 -0.039250 
#    y -0.001970 1.770860 0.044210 
#    z -0.039250 0.044210 2.092210 
# 
# From -- ./inp_files/183957.got.cif
#   From: 2010.05.17/outbox.cif.g08.bks.cpg/sg2_92_cif.got.tgz:183957.got - 2010.06.03 11:33:40.
