data_PCOD9045219
_publ_section_title
;
Structure prediction by ZEFSAII (Michael W. Deem and Ramdas Pophale) SiO2 
 PCOD9045219
Probable space group: P -1
;
_chemical_formula_sum "Si O2"
_cell_formula_units_Z 16
_cell_length_a 22.225912
_cell_length_b 24.411819
_cell_length_c 9.994458
_cell_angle_alpha 143.903871
_cell_angle_beta 146.023341
_cell_angle_gamma 12.355263
_cell_volume 648.356636
_symmetry_space_group_name_H-M "P -1"
_symmetry_group_IT_number 2
_symmetry_cell_setting 'triclinic'
loop_
_space_group_symop_operation_xyz
x,y,z
-x,-y,-z
loop_
_atom_site_type_symbol
_atom_site_label
_atom_site_fract_x
_atom_site_fract_y
_atom_site_fract_z
Si Si1 0.627072 0.764392 0.169477
Si Si2 0.277891 0.190388 0.191442
Si Si3 0.811215 0.063502 0.942064
Si Si4 0.583126 0.369306 0.772214
Si Si5 0.319001 0.354185 0.480400
Si Si6 0.603608 0.482281 0.772298
Si Si7 0.899135 0.818415 0.786578
Si Si8 0.802429 0.495553 0.738041
O O1 0.976547 0.468963 0.259156
O O2 0.504528 0.951628 0.229602
O O3 0.429767 0.923205 0.251987
O O4 0.590564 0.710963 0.886884
O O5 0.408946 0.178027 0.342300
O O6 0.127706 0.243817 0.907323
O O7 0.582132 0.219492 0.711358
O O8 0.923368 0.872429 0.817301
O O9 0.623393 0.252570 0.093514
O O10 0.071608 0.929191 0.145165
O O11 0.599975 0.419147 0.770004
O O12 0.337687 0.490229 0.528319
O O13 0.500000 0.500000 0.000000
O O14 0.201435 0.446320 0.294501
O O15 0.075200 0.588886 0.599839
O O16 0.500000 0.500000 0.500000
O O17 0.916791 0.282845 0.951302
#
# Coordination Sequence:
#
# PCOD9045219 Si02
#       8
#     2   2   2   2   2   2   2   2
#     4  10  26  44  71 104 139 178 239 289 350 408
#     4  10  26  46  72 106 138 186 235 296 349 414
#     4  10  24  41  67  97 137 182 226 285 353 419
#     4  11  24  44  66 102 140 179 236 289 353 421
#     4  11  24  46  69  98 139 187 230 289 356 427
#     4  10  24  37  66  94 135 183 231 286 352 420
#     4  10  24  42  65 100 138 183 232 289 352 421
#     4  10  25  42  71 102 139 183 237 295 346 423
#
# _framework density 24.677776999999999
#
# number of rings (size 3 to 8) (size 9 to 14) (size 15 to 20)
#    0.750    1.000    0.000    2.625   10.500    6.500 
#    0.000    0.000    0.000    0.000    0.000    0.000 
#    0.000    0.000    0.000    0.000    0.000    0.000 
#
# Total GULP energy -89331.479913 kJ/mol
# GULP energy per Si atom -5583.217495 kJ/mol
# Density = 2.462161 g / cm^3
# Si number density = 24.677777 Si / 1000 Ang^3
#
#
#
# Elastic Constant Matrix: (Units=GPa)
#
#
# Indices 1 2 3 4 5 6 
#
# 1 60.3186 -7.7953 18.0946 -6.2185 -5.3805 -0.6363
# 2 -7.7953 76.4934 25.8498 -18.8957 2.2193 -2.3905
# 3 18.0946 25.8498 146.0926 -26.8666 -3.0811 -6.6297
# 4 -6.2185 -18.8957 -26.8666 33.0690 1.3523 6.5133
# 5 -5.3805 2.2193 -3.0811 1.3523 46.4110 2.2101
# 6 -0.6363 -2.3905 -6.6297 6.5133 2.2101 32.2786
#
#
#
# Elastic Compliance Matrix: (Units=1/GPa)
#
#
# Indices 1 2 3 4 5 6 
#
# 1 0.018201 0.003428 -0.002180 0.003677 0.001727 -0.000695
# 2 0.003428 0.016140 -0.001743 0.008635 -0.000704 -0.000789
# 3 -0.002180 -0.001743 0.008432 0.005344 0.000212 0.000467
# 4 0.003677 0.008635 0.005344 0.041515 -0.000531 -0.006531
# 5 0.001727 -0.000704 0.000212 -0.000531 0.021875 -0.001365
# 6 -0.000695 -0.000789 0.000467 -0.006531 -0.001365 0.032415
#
#
# Mechanical properties :
#
#
# Convention : Reuss Voigt Hill
#
# Bulk Modulus (GPa) = 23.93298 39.46697 31.69997
# Shear Modulus (GPa) = 32.57395 38.80208 35.68801
#
# Velocity S-wave (km/s) = 3.63708 3.96959 3.80697
# Velocity P-wave (km/s) = 5.23040 6.08587 5.67428
#
# Compressibility (1/GPa) = 0.04178336
#
# Stress axis : x y z
#
# Youngs Moduli (GPa) = 54.94094 61.95670 118.59888
#
# Poissons Ratio (x) = -0.21238 0.25853
# Poissons Ratio (y) = -0.18833 0.20673
# Poissons Ratio (z) = 0.11976 0.10800
#
# Static dielectric constant tensor:
#      x y z
#    x 2.007940 0.005970 0.017440 
#    y 0.005970 2.079960 -0.067500 
#    z 0.017440 -0.067500 1.931980 
# 
# From -- ./inp_files/477284.got.cif
#   From: 2010.05.17/outbox.cif.g08.bks.cpg/sg2_239_cif.got.tgz:477284.got - 2010.06.03 11:33:40.
