data_PCOD9045026
_publ_section_title
;
Structure prediction by ZEFSAII (Michael W. Deem and Ramdas Pophale) SiO2 
 PCOD9045026
Probable space group: P -1
;
_chemical_formula_sum "Si O2"
_cell_formula_units_Z 14
_cell_length_a 7.807402
_cell_length_b 12.561312
_cell_length_c 8.742294
_cell_angle_alpha 78.710787
_cell_angle_beta 126.664064
_cell_angle_gamma 76.333940
_cell_volume 602.642912
_symmetry_space_group_name_H-M "P -1"
_symmetry_group_IT_number 2
_symmetry_cell_setting 'triclinic'
loop_
_space_group_symop_operation_xyz
x,y,z
-x,-y,-z
loop_
_atom_site_type_symbol
_atom_site_label
_atom_site_fract_x
_atom_site_fract_y
_atom_site_fract_z
Si Si1 0.095011 0.327243 0.040683
Si Si2 0.225814 0.916653 0.045120
Si Si3 0.409414 0.133521 0.492364
Si Si4 0.278284 0.149493 0.954613
Si Si5 0.972695 0.739199 0.514806
Si Si6 0.205671 0.873218 0.710309
Si Si7 0.762161 0.479500 0.083583
O O1 0.307512 0.245249 0.291008
O O2 0.861115 0.403773 0.997634
O O3 0.077542 0.226878 0.950671
O O4 0.181859 0.407598 0.957853
O O5 0.414789 0.849509 0.297461
O O6 0.185997 0.855184 0.889336
O O7 0.297509 0.017160 0.983511
O O8 0.000000 0.000000 0.000000
O O9 0.183423 0.161049 0.470735
O O10 0.500000 0.000000 0.500000
O O11 0.184617 0.226167 0.729176
O O12 0.531004 0.134570 0.153892
O O13 0.197879 0.769021 0.626680
O O14 0.057703 0.606416 0.665674
O O15 0.000000 0.000000 0.500000
O O16 0.500000 0.500000 0.000000
#
# Coordination Sequence:
#
# PCOD9045026 Si02
#       7
#     2   2   2   2   2   2   2
#     4  10  24  42  74 100 136 185 233 288 355 412
#     4  12  25  37  60 101 146 181 226 269 344 423
#     4  11  21  41  67 100 147 183 217 290 346 415
#     4  12  24  44  65 103 139 180 234 287 345 422
#     4  11  24  43  71  99 138 182 234 285 349 412
#     4  12  24  40  67  99 140 190 226 275 345 414
#     4  10  23  48  73  98 134 185 239 294 349 413
#
# _framework density 23.231003999999999
#
# number of rings (size 3 to 8) (size 9 to 14) (size 15 to 20)
#    0.000    0.857    4.286    3.000    4.000    1.714 
#    0.000    0.714    0.000    0.000    0.000    0.000 
#    0.000    0.000    0.000    0.000    0.000    0.000 
#
# Total GULP energy -78092.551465 kJ/mol
# GULP energy per Si atom -5578.039390 kJ/mol
# Density = 2.317813 g / cm^3
# Si number density = 23.231004 Si / 1000 Ang^3
#
#
#
# Elastic Constant Matrix: (Units=GPa)
#
#
# Indices 1 2 3 4 5 6 
#
# 1 112.7303 13.9803 31.9049 -7.7866 -1.1285 -11.0321
# 2 13.9803 72.8825 34.2164 -5.6618 -3.1151 -3.3355
# 3 31.9049 34.2164 167.6674 -8.0741 -17.3366 11.5647
# 4 -7.7866 -5.6618 -8.0741 39.8289 8.8604 -11.0591
# 5 -1.1285 -3.1151 -17.3366 8.8604 36.4567 -3.0976
# 6 -11.0321 -3.3355 11.5647 -11.0591 -3.0976 44.0975
#
#
#
# Elastic Compliance Matrix: (Units=1/GPa)
#
#
# Indices 1 2 3 4 5 6 
#
# 1 0.010046 -0.000657 -0.002004 0.002695 -0.001048 0.003591
# 2 -0.000657 0.015592 -0.003168 0.002221 -0.000533 0.002365
# 3 -0.002004 -0.003168 0.007468 -0.000777 0.003180 -0.002671
# 4 0.002695 0.002221 -0.000777 0.029471 -0.006581 0.007975
# 5 -0.001048 -0.000533 0.003180 -0.006581 0.030408 -0.000651
# 6 0.003591 0.002365 -0.002671 0.007975 -0.000651 0.026409
#
#
# Mechanical properties :
#
#
# Convention : Reuss Voigt Hill
#
# Bulk Modulus (GPa) = 46.62570 57.05371 51.83971
# Shear Modulus (GPa) = 36.17873 42.28851 39.23362
#
# Velocity S-wave (km/s) = 3.95060 4.27118 4.11402
# Velocity P-wave (km/s) = 6.39717 6.99547 6.70300
#
# Compressibility (1/GPa) = 0.02144740
#
# Stress axis : x y z
#
# Youngs Moduli (GPa) = 99.53719 64.13464 133.91047
#
# Poissons Ratio (x) = 0.04217 0.26834
# Poissons Ratio (y) = 0.06544 0.42425
# Poissons Ratio (z) = 0.19946 0.20319
#
# Static dielectric constant tensor:
#      x y z
#    x 2.209840 0.034800 0.208970 
#    y 0.034800 1.993700 0.023220 
#    z 0.208970 0.023220 2.086260 
# 
# From -- ./inp_files/201598.got.cif
#   From: 2010.05.17/outbox.cif.g08.bks.cpg/sg2_101_cif.got.tgz:201598.got - 2010.06.03 11:33:40.
