data_PCOD9045060
_publ_section_title
;
Structure prediction by ZEFSAII (Michael W. Deem and Ramdas Pophale) SiO2 
 PCOD9045060
Probable space group: P -1
;
_chemical_formula_sum "Si O2"
_cell_formula_units_Z 14
_cell_length_a 23.330329
_cell_length_b 7.745737
_cell_length_c 7.183038
_cell_angle_alpha 129.465096
_cell_angle_beta 42.146642
_cell_angle_gamma 136.483357
_cell_volume 586.132794
_symmetry_space_group_name_H-M "P -1"
_symmetry_group_IT_number 2
_symmetry_cell_setting 'triclinic'
loop_
_space_group_symop_operation_xyz
x,y,z
-x,-y,-z
loop_
_atom_site_type_symbol
_atom_site_label
_atom_site_fract_x
_atom_site_fract_y
_atom_site_fract_z
Si Si1 0.795205 0.810629 0.239722
Si Si2 0.821081 0.514111 0.261858
Si Si3 0.494325 0.978054 0.274090
Si Si4 0.968901 0.345191 0.278760
Si Si5 0.096911 0.271241 0.424780
Si Si6 0.693585 0.957566 0.283739
Si Si7 0.436708 0.579961 0.842420
O O1 0.757835 0.576755 0.312384
O O2 0.877149 0.063428 0.319668
O O3 0.721484 0.884030 0.364511
O O4 0.851090 0.746467 0.898658
O O5 0.825344 0.637922 0.534717
O O6 0.784597 0.212632 0.159205
O O7 0.934788 0.655645 0.024666
O O8 0.392222 0.968469 0.456418
O O9 0.500000 0.000000 0.500000
O O10 0.577005 0.226609 0.132536
O O11 0.486798 0.732992 0.015429
O O12 0.935894 0.512637 0.349605
O O13 0.000000 0.500000 0.500000
O O14 0.000000 0.000000 0.500000
O O15 0.653403 0.697044 0.085055
O O16 0.500000 0.500000 0.500000
#
# Coordination Sequence:
#
# PCOD9045060 Si02
#       7
#     2   2   2   2   2   2   2
#     4  12  26  45  65 100 144 184 237 295 349 406
#     4  12  25  45  66 102 139 189 238 292 355 405
#     4  10  23  48  78 107 139 186 231 277 362 445
#     4  12  23  45  66  94 138 195 242 289 346 405
#     4  12  23  42  69  92 137 187 243 293 340 420
#     4  11  26  43  70 111 140 178 231 296 353 420
#     4   9  22  47  73 106 144 175 226 287 348 433
#
# _framework density 23.885372
#
# number of rings (size 3 to 8) (size 9 to 14) (size 15 to 20)
#    0.000    0.857    4.286    2.571    4.000    2.286 
#    0.000    7.143    0.000    0.000    0.000    0.000 
#    0.000    0.000    0.000    0.000    0.000    0.000 
#
# Total GULP energy -78246.289773 kJ/mol
# GULP energy per Si atom -5589.020698 kJ/mol
# Density = 2.383101 g / cm^3
# Si number density = 23.885372 Si / 1000 Ang^3
#
#
#
# Elastic Constant Matrix: (Units=GPa)
#
#
# Indices 1 2 3 4 5 6 
#
# 1 153.7696 32.5946 45.7294 14.7652 12.5035 -13.4316
# 2 32.5946 124.9245 9.8344 41.4213 16.6112 -3.1255
# 3 45.7294 9.8344 98.0653 19.5671 10.9565 9.6515
# 4 14.7652 41.4213 19.5671 31.6753 14.9264 1.7044
# 5 12.5035 16.6112 10.9565 14.9264 55.2699 4.4271
# 6 -13.4316 -3.1255 9.6515 1.7044 4.4271 32.8197
#
#
#
# Elastic Compliance Matrix: (Units=1/GPa)
#
#
# Indices 1 2 3 4 5 6 
#
# 1 0.008666 -0.002340 -0.004565 0.002212 -0.001328 0.004730
# 2 -0.002340 0.015485 0.003772 -0.021999 0.001036 0.000411
# 3 -0.004565 0.003772 0.014785 -0.011944 0.000620 -0.005320
# 4 0.002212 -0.021999 -0.011944 0.071830 -0.010925 0.000066
# 5 -0.001328 0.001036 0.000620 -0.010925 0.021143 -0.002912
# 6 0.004730 0.000411 -0.005320 0.000066 -0.002912 0.034398
#
#
# Mechanical properties :
#
#
# Convention : Reuss Voigt Hill
#
# Bulk Modulus (GPa) = 30.60926 61.45291 46.03109
# Shear Modulus (GPa) = 27.25340 43.19306 35.22323
#
# Velocity S-wave (km/s) = 3.38155 4.25708 3.84432
# Velocity P-wave (km/s) = 5.29994 7.06737 6.24648
#
# Compressibility (1/GPa) = 0.03266985
#
# Stress axis : x y z
#
# Youngs Moduli (GPa) = 115.39948 64.57736 67.63565
#
# Poissons Ratio (x) = 0.15111 0.30874
# Poissons Ratio (y) = 0.27004 -0.25510
# Poissons Ratio (z) = 0.52676 -0.24356
#
# Static dielectric constant tensor:
#      x y z
#    x 2.035040 -0.000790 -0.035970 
#    y -0.000790 1.989760 -0.038430 
#    z -0.035970 -0.038430 1.952310 
# 
# From -- ./inp_files/352473.got.cif
#   From: 2010.05.17/outbox.cif.g08.bks.cpg/sg2_177_cif.got.tgz:352473.got - 2010.06.03 11:33:40.
