data_PCOD9045576
_publ_section_title
;
Structure prediction by ZEFSAII (Michael W. Deem and Ramdas Pophale) SiO2 
 PCOD9045576
Probable space group: P -1
;
_chemical_formula_sum "Si O2"
_cell_formula_units_Z 12
_cell_length_a 12.353223
_cell_length_b 10.547674
_cell_length_c 9.470652
_cell_angle_alpha 95.754549
_cell_angle_beta 84.625775
_cell_angle_gamma 156.941163
_cell_volume 480.891470
_symmetry_space_group_name_H-M "P -1"
_symmetry_group_IT_number 2
_symmetry_cell_setting 'triclinic'
loop_
_space_group_symop_operation_xyz
x,y,z
-x,-y,-z
loop_
_atom_site_type_symbol
_atom_site_label
_atom_site_fract_x
_atom_site_fract_y
_atom_site_fract_z
Si Si1 0.747447 0.867158 0.010601
Si Si2 0.203643 0.842622 0.781284
Si Si3 0.490422 0.271977 0.345845
Si Si4 0.028463 0.239762 0.457054
Si Si5 0.623294 0.104780 0.842406
Si Si6 0.025972 0.045884 0.760744
O O1 0.953884 0.032385 0.121049
O O2 0.681210 0.931355 0.093231
O O3 0.500000 0.500000 0.000000
O O4 0.876878 0.001508 0.854248
O O5 0.087690 0.790182 0.651662
O O6 0.941508 0.487512 0.838595
O O7 0.448965 0.007705 0.746974
O O8 0.680417 0.585942 0.287409
O O9 0.695507 0.429428 0.455209
O O10 0.221978 0.036840 0.431261
O O11 0.417769 0.083308 0.223689
O O12 0.092970 0.172275 0.370388
O O13 0.500000 0.000000 0.000000
#
# Coordination Sequence:
#
# PCOD9045576 Si02
#       6
#     2   2   2   2   2   2
#     4  10  24  40  74  99 133 181 222 284 348 390
#     4  11  26  46  70  99 140 173 234 275 331 409
#     4  12  26  44  70 100 140 182 227 273 341 406
#     4  11  26  44  71 100 137 185 224 278 339 395
#     4  12  27  46  71 100 135 180 224 285 336 397
#     4  10  24  42  66 104 137 173 228 285 335 403
#
# _framework density 24.953657
#
# number of rings (size 3 to 8) (size 9 to 14) (size 15 to 20)
#    0.000    1.000    0.000    4.500   16.333    4.000 
#    0.000    0.000    0.000    0.000    0.000    0.000 
#    0.000    0.000    0.000    0.000    0.000    0.000 
#
# Total GULP energy -67205.425992 kJ/mol
# GULP energy per Si atom -5600.452166 kJ/mol
# Density = 2.489686 g / cm^3
# Si number density = 24.953657 Si / 1000 Ang^3
#
#
#
# Elastic Constant Matrix: (Units=GPa)
#
#
# Indices 1 2 3 4 5 6 
#
# 1 113.4587 -6.5967 27.0682 16.6289 -3.2416 3.2639
# 2 -6.5967 110.9316 32.2885 12.4898 -18.2791 -0.4339
# 3 27.0682 32.2885 150.9521 3.6801 -5.6955 -12.1147
# 4 16.6289 12.4898 3.6801 38.0463 -6.6214 -7.8802
# 5 -3.2416 -18.2791 -5.6955 -6.6214 48.2053 4.5558
# 6 3.2639 -0.4339 -12.1147 -7.8802 4.5558 39.6047
#
#
#
# Elastic Compliance Matrix: (Units=1/GPa)
#
#
# Indices 1 2 3 4 5 6 
#
# 1 0.010383 0.002016 -0.002352 -0.005412 0.000697 -0.002710
# 2 0.002016 0.010941 -0.002633 -0.004017 0.003617 -0.002067
# 3 -0.002352 -0.002633 0.007792 0.001695 -0.000279 0.002918
# 4 -0.005412 -0.004017 0.001695 0.031596 0.001994 0.006978
# 5 0.000697 0.003617 -0.000279 0.001994 0.022622 -0.002309
# 6 -0.002710 -0.002067 0.002918 0.006978 -0.002309 0.027997
#
#
# Mechanical properties :
#
#
# Convention : Reuss Voigt Hill
#
# Bulk Modulus (GPa) = 43.14638 53.42914 48.28776
# Shear Modulus (GPa) = 40.00108 46.67676 43.33892
#
# Velocity S-wave (km/s) = 4.00811 4.32966 4.17199
# Velocity P-wave (km/s) = 6.22479 6.81561 6.52689
#
# Compressibility (1/GPa) = 0.02317691
#
# Stress axis : x y z
#
# Youngs Moduli (GPa) = 96.30792 91.39911 128.33659
#
# Poissons Ratio (x) = -0.18425 0.30189
# Poissons Ratio (y) = -0.19414 0.33794
# Poissons Ratio (z) = 0.22655 0.24068
#
# Static dielectric constant tensor:
#      x y z
#    x 2.115890 0.007520 0.073700 
#    y 0.007520 1.902530 0.009760 
#    z 0.073700 0.009760 2.005570 
# 
# From -- ./inp_files/18441.got.cif
#   From: 2010.05.17/outbox.cif.g08.bks.cpg/sg2_10_cif.got.tgz:18441.got - 2010.06.03 11:33:40.
