data_PCOD9045406
_publ_section_title
;
Structure prediction by ZEFSAII (Michael W. Deem and Ramdas Pophale) SiO2 
 PCOD9045406
Probable space group: P -1
;
_chemical_formula_sum "Si O2"
_cell_formula_units_Z 14
_cell_length_a 8.965561
_cell_length_b 15.862782
_cell_length_c 6.819175
_cell_angle_alpha 103.179233
_cell_angle_beta 46.424279
_cell_angle_gamma 121.303396
_cell_volume 586.898381
_symmetry_space_group_name_H-M "P -1"
_symmetry_group_IT_number 2
_symmetry_cell_setting 'triclinic'
loop_
_space_group_symop_operation_xyz
x,y,z
-x,-y,-z
loop_
_atom_site_type_symbol
_atom_site_label
_atom_site_fract_x
_atom_site_fract_y
_atom_site_fract_z
Si Si1 0.852555 0.780604 0.820891
Si Si2 0.747869 0.902199 0.231252
Si Si3 0.425999 0.581739 0.251715
Si Si4 0.716670 0.134838 0.208581
Si Si5 0.999253 0.901479 0.365234
Si Si6 0.298953 0.513515 0.919399
Si Si7 0.777632 0.346122 0.191120
O O1 0.078737 0.825440 0.787731
O O2 0.945548 0.822158 0.543245
O O3 0.695685 0.830013 0.057542
O O4 0.676779 0.663806 0.963743
O O5 0.542765 0.923373 0.487556
O O6 0.795253 0.855737 0.358456
O O7 0.000000 0.000000 0.000000
O O8 0.257037 0.519733 0.192388
O O9 0.326187 0.637003 0.503660
O O10 0.490611 0.512413 0.288798
O O11 0.737226 0.235708 0.152648
O O12 0.768247 0.076828 0.959915
O O13 0.000000 0.000000 0.500000
O O14 0.063141 0.424822 0.982027
O O15 0.339485 0.617106 0.846555
#
# Coordination Sequence:
#
# PCOD9045406 Si02
#       7
#     2   2   2   2   2   2   2
#     4  11  24  44  67  98 140 175 230 283 334 412
#     4  11  24  48  70  98 134 177 224 283 347 407
#     4  11  22  42  67  97 135 183 228 277 337 393
#     4  11  26  43  72 100 138 184 223 282 348 401
#     4  11  26  47  68 103 134 177 230 280 345 416
#     4  10  24  40  65 101 136 181 224 280 336 403
#     4  11  22  44  65  99 139 178 230 277 340 399
#
# _framework density 23.854213999999999
#
# number of rings (size 3 to 8) (size 9 to 14) (size 15 to 20)
#    0.000    1.143    4.286    0.857    2.000    5.143 
#   10.286    0.000    0.000    0.000    0.000    0.000 
#    0.000    0.000    0.000    0.000    0.000    0.000 
#
# Total GULP energy -78276.146437 kJ/mol
# GULP energy per Si atom -5591.153317 kJ/mol
# Density = 2.379992 g / cm^3
# Si number density = 23.854214 Si / 1000 Ang^3
#
#
#
# Elastic Constant Matrix: (Units=GPa)
#
#
# Indices 1 2 3 4 5 6 
#
# 1 80.2148 21.1436 38.6247 -13.3656 8.1947 -20.1885
# 2 21.1436 82.6506 26.8346 3.1913 -9.0183 -24.4015
# 3 38.6247 26.8346 143.5451 9.2084 -15.4142 -8.3818
# 4 -13.3656 3.1913 9.2084 40.8114 -8.8258 1.1378
# 5 8.1947 -9.0183 -15.4142 -8.8258 41.5328 -1.9827
# 6 -20.1885 -24.4015 -8.3818 1.1378 -1.9827 34.9245
#
#
#
# Elastic Compliance Matrix: (Units=1/GPa)
#
#
# Indices 1 2 3 4 5 6 
#
# 1 0.018907 -0.001421 -0.005201 0.006332 -0.004230 0.008242
# 2 -0.001421 0.016546 -0.001651 -0.000909 0.003572 0.010575
# 3 -0.005201 -0.001651 0.009121 -0.002857 0.003365 -0.001687
# 4 0.006332 -0.000909 -0.002857 0.028009 0.003522 0.001627
# 5 -0.004230 0.003572 0.003365 0.003522 0.027796 0.002321
# 6 0.008242 0.010575 -0.001687 0.001627 0.002321 0.040460
#
#
# Mechanical properties :
#
#
# Convention : Reuss Voigt Hill
#
# Bulk Modulus (GPa) = 35.67994 53.29070 44.48532
# Shear Modulus (GPa) = 29.98911 38.10757 34.04834
#
# Velocity S-wave (km/s) = 3.54952 4.00123 3.78213
# Velocity P-wave (km/s) = 5.63816 6.61326 6.14508
#
# Compressibility (1/GPa) = 0.02802695
#
# Stress axis : x y z
#
# Youngs Moduli (GPa) = 52.89048 60.43838 109.64012
#
# Poissons Ratio (x) = 0.08587 0.57024
# Poissons Ratio (y) = 0.07515 0.18106
# Poissons Ratio (z) = 0.27508 0.09981
#
# Static dielectric constant tensor:
#      x y z
#    x 1.925970 -0.026030 -0.015270 
#    y -0.026030 1.960140 -0.014680 
#    z -0.015270 -0.014680 1.929920 
# 
# From -- ./inp_files/45252.got.cif
#   From: 2010.05.17/outbox.cif.g08.bks.cpg/sg2_23_cif.got.tgz:45252.got - 2010.06.03 11:33:40.
