data_PCOD9045758
_publ_section_title
;
Structure prediction by ZEFSAII (Michael W. Deem and Ramdas Pophale) SiO2 
 PCOD9045758
Probable space group: P -1
;
_chemical_formula_sum "Si O2"
_cell_formula_units_Z 12
_cell_length_a 11.875160
_cell_length_b 11.034692
_cell_length_c 6.926967
_cell_angle_alpha 72.486558
_cell_angle_beta 96.492123
_cell_angle_gamma 139.003279
_cell_volume 558.346639
_symmetry_space_group_name_H-M "P -1"
_symmetry_group_IT_number 2
_symmetry_cell_setting 'triclinic'
loop_
_space_group_symop_operation_xyz
x,y,z
-x,-y,-z
loop_
_atom_site_type_symbol
_atom_site_label
_atom_site_fract_x
_atom_site_fract_y
_atom_site_fract_z
Si Si1 0.279093 0.240580 0.457749
Si Si2 0.517076 0.145177 0.052173
Si Si3 0.187996 0.609905 0.676605
Si Si4 0.597764 0.376749 0.587364
Si Si5 0.133659 0.803101 0.317750
Si Si6 0.034330 0.002594 0.225581
O O1 0.420906 0.251998 0.494871
O O2 0.333086 0.421746 0.467732
O O3 0.115268 0.061796 0.643590
O O4 0.216778 0.208913 0.243201
O O5 0.675813 0.276396 0.174649
O O6 0.326586 0.997759 0.182400
O O7 0.556294 0.284526 0.832472
O O8 0.500000 0.000000 0.000000
O O9 0.279599 0.611350 0.516812
O O10 0.154255 0.723226 0.537964
O O11 0.998774 0.380263 0.770678
O O12 0.045408 0.860876 0.327154
O O13 0.000000 0.000000 0.000000
#
# Coordination Sequence:
#
# PCOD9045758 Si02
#       6
#     2   2   2   2   2   2
#     4  10  24  41  68  93 133 176 215 271 324 393
#     4  12  26  42  69 102 130 176 223 268 335 401
#     4  11  25  46  69  97 139 171 216 285 329 388
#     4  11  23  46  66  98 132 173 222 269 332 389
#     4  11  24  46  68  99 136 174 217 278 336 380
#     4  11  23  42  66  99 130 173 221 267 326 394
#
# _framework density 21.492025000000002
#
# number of rings (size 3 to 8) (size 9 to 14) (size 15 to 20)
#    0.000    1.000    3.333    2.500    4.667    0.667 
#    0.000    4.167    0.000    0.000    0.000    0.000 
#    0.000    0.000    0.000    0.000    0.000    0.000 
#
# Total GULP energy -67039.731183 kJ/mol
# GULP energy per Si atom -5586.644265 kJ/mol
# Density = 2.144311 g / cm^3
# Si number density = 21.492025 Si / 1000 Ang^3
#
#
#
# Elastic Constant Matrix: (Units=GPa)
#
#
# Indices 1 2 3 4 5 6 
#
# 1 98.2880 20.1912 17.9168 5.6741 16.7482 7.5254
# 2 20.1912 93.1135 40.0910 30.1098 8.5103 30.1272
# 3 17.9168 40.0910 80.2489 27.9429 13.5836 21.6989
# 4 5.6741 30.1098 27.9429 33.4381 3.3353 6.1960
# 5 16.7482 8.5103 13.5836 3.3353 21.6085 7.2943
# 6 7.5254 30.1272 21.6989 6.1960 7.2943 37.7403
#
#
#
# Elastic Compliance Matrix: (Units=1/GPa)
#
#
# Indices 1 2 3 4 5 6 
#
# 1 0.012099 -0.002370 -0.000979 0.001483 -0.008548 0.001451
# 2 -0.002370 0.020779 -0.001317 -0.014894 0.001218 -0.013148
# 3 -0.000979 -0.001317 0.021734 -0.014684 -0.007633 -0.007364
# 4 0.001483 -0.014894 -0.014684 0.053108 0.002064 0.010919
# 5 -0.008548 0.001218 -0.007633 0.002064 0.059148 -0.006650
# 6 0.001451 -0.013148 -0.007364 0.010919 -0.006650 0.040430
#
#
# Mechanical properties :
#
#
# Convention : Reuss Voigt Hill
#
# Bulk Modulus (GPa) = 22.08426 47.56092 34.82259
# Shear Modulus (GPa) = 21.57744 31.45413 26.51578
#
# Velocity S-wave (km/s) = 3.17199 3.82976 3.51629
# Velocity P-wave (km/s) = 4.86963 6.46016 5.72044
#
# Compressibility (1/GPa) = 0.04528111
#
# Stress axis : x y z
#
# Youngs Moduli (GPa) = 82.64924 48.12464 46.01099
#
# Poissons Ratio (x) = 0.11404 0.04505
# Poissons Ratio (y) = 0.19585 0.06059
# Poissons Ratio (z) = 0.08093 0.06337
#
# Static dielectric constant tensor:
#      x y z
#    x 1.757540 0.037140 -0.015990 
#    y 0.037140 1.879900 0.011720 
#    z -0.015990 0.011720 1.773110 
# 
# From -- ./inp_files/18605.got.cif
#   From: 2010.05.17/outbox.cif.g08.bks.cpg/sg2_10_cif.got.tgz:18605.got - 2010.06.03 11:33:40.
