data_PCOD9045572
_publ_section_title
;
Structure prediction by ZEFSAII (Michael W. Deem and Ramdas Pophale) SiO2 
 PCOD9045572
Probable space group: P -1
;
_chemical_formula_sum "Si O2"
_cell_formula_units_Z 15
_cell_length_a 20.832190
_cell_length_b 9.003777
_cell_length_c 9.385174
_cell_angle_alpha 31.348430
_cell_angle_beta 47.900446
_cell_angle_gamma 49.861089
_cell_volume 667.560218
_symmetry_space_group_name_H-M "P -1"
_symmetry_group_IT_number 2
_symmetry_cell_setting 'triclinic'
loop_
_space_group_symop_operation_xyz
x,y,z
-x,-y,-z
loop_
_atom_site_type_symbol
_atom_site_label
_atom_site_fract_x
_atom_site_fract_y
_atom_site_fract_z
Si Si1 0.168913 0.462363 0.594316
Si Si2 0.416313 0.520376 0.505158
Si Si3 0.544573 0.217984 0.346923
Si Si4 0.000000 0.000000 0.000000
Si Si5 0.986924 0.592638 0.629145
Si Si6 0.699404 0.849958 0.858053
Si Si7 0.857316 0.878960 0.803861
Si Si8 0.335643 0.323484 0.256693
O O1 0.258509 0.367262 0.451723
O O2 0.087526 0.422447 0.646519
O O3 0.152589 0.796337 0.390773
O O4 0.166728 0.291257 0.883648
O O5 0.500000 0.500000 0.500000
O O6 0.462831 0.440955 0.351199
O O7 0.352766 0.826402 0.353777
O O8 0.359737 0.288893 0.829426
O O9 0.500000 0.000000 0.500000
O O10 0.602548 0.992148 0.554921
O O11 0.608632 0.418727 0.022594
O O12 0.942880 0.318525 0.877992
O O13 0.016841 0.164711 0.685815
O O14 0.950538 0.738062 0.712245
O O15 0.791265 0.860050 0.787081
O O16 0.702465 0.677038 0.846427
#
# Coordination Sequence:
#
# PCOD9045572 Si02
#       8
#     2   2   2   1   2   2   2   2
#     4  12  27  47  74 104 152 187 235 305 359 427
#     4  12  23  46  70  96 136 185 238 283 364 416
#     4  12  27  44  72  99 141 186 237 293 355 443
#     4  10  24  40  74 112 136 180 244 294 342 418
#     4  11  24  49  74 107 148 192 243 288 361 423
#     4  12  26  44  71 103 140 181 239 303 342 433
#     4  12  27  47  74 107 142 193 245 289 364 427
#     4  12  26  47  66 109 140 184 235 298 367 408
#
# _framework density 22.469884
#
# number of rings (size 3 to 8) (size 9 to 14) (size 15 to 20)
#    0.000    0.267    2.667    5.600    9.333    0.000 
#    0.000    0.000    0.000    0.000    0.000    0.000 
#    0.000    0.000    0.000    0.000    0.000    0.000 
#
# Total GULP energy -83681.916956 kJ/mol
# GULP energy per Si atom -5578.794464 kJ/mol
# Density = 2.241874 g / cm^3
# Si number density = 22.469884 Si / 1000 Ang^3
#
#
#
# Elastic Constant Matrix: (Units=GPa)
#
#
# Indices 1 2 3 4 5 6 
#
# 1 70.1651 1.7040 -4.6674 12.2138 16.8470 -12.2114
# 2 1.7040 123.1393 23.8564 17.2771 3.1950 1.5529
# 3 -4.6674 23.8564 88.8796 8.3152 24.8247 -39.1948
# 4 12.2138 17.2771 8.3152 39.3180 0.6511 14.0470
# 5 16.8470 3.1950 24.8247 0.6511 23.4785 8.6024
# 6 -12.2114 1.5529 -39.1948 14.0470 8.6024 5.8494
#
#
#
# Elastic Compliance Matrix: (Units=1/GPa)
#
#
# Indices 1 2 3 4 5 6 
#
# 1 0.011656 0.000742 -0.004760 0.001024 0.000616 -0.011123
# 2 0.000742 0.008972 -0.001366 -0.004238 -0.000564 0.001018
# 3 -0.004760 -0.001366 0.002860 0.006502 0.005650 -0.014336
# 4 0.001024 -0.004238 0.006502 0.022328 -0.011201 0.009686
# 5 0.000616 -0.000564 0.005650 -0.011201 0.026698 0.026928
# 6 -0.011123 0.001018 -0.014336 0.009686 0.026928 -0.011453
#
#
# Mechanical properties :
#
#
# Convention : Reuss Voigt Hill
#
# Bulk Modulus (GPa) = 78.63081 35.99667 57.31374
# Shear Modulus (GPa) = 65.73086 31.14859 48.43973
#
# Velocity S-wave (km/s) = 5.41446 3.72726 4.64806
# Velocity P-wave (km/s) = 8.61152 5.88031 7.37348
#
# Compressibility (1/GPa) = 0.01271766
#
# Stress axis : x y z
#
# Youngs Moduli (GPa) = 85.79621 111.46116 349.67910
#
# Poissons Ratio (x) = -0.08265 1.66445
# Poissons Ratio (y) = -0.06362 0.47776
# Poissons Ratio (z) = 0.40838 0.15229
#
# Static dielectric constant tensor:
#      x y z
#    x -4.798270 -0.434630 3.835850 
#    y -0.434630 1.735560 0.292120 
#    z 3.835850 0.292120 -0.445410 
# 
# From -- ./inp_files/217965.got.cif
#   From: 2010.05.17/outbox.cif.g08.bks.cpg/sg2_109_cif.got.tgz:217965.got - 2010.06.03 11:33:40.
