data_PCOD9045274
_publ_section_title
;
Structure prediction by ZEFSAII (Michael W. Deem and Ramdas Pophale) SiO2 
 PCOD9045274
Probable space group: P -1
;
_chemical_formula_sum "Si O2"
_cell_formula_units_Z 14
_cell_length_a 22.886799
_cell_length_b 5.463739
_cell_length_c 8.218081
_cell_angle_alpha 115.869184
_cell_angle_beta 143.498005
_cell_angle_gamma 65.609577
_cell_volume 546.312451
_symmetry_space_group_name_H-M "P -1"
_symmetry_group_IT_number 2
_symmetry_cell_setting 'triclinic'
loop_
_space_group_symop_operation_xyz
x,y,z
-x,-y,-z
loop_
_atom_site_type_symbol
_atom_site_label
_atom_site_fract_x
_atom_site_fract_y
_atom_site_fract_z
Si Si1 0.607384 0.332347 0.146877
Si Si2 0.691486 0.526960 0.049752
Si Si3 0.785929 0.985313 0.571017
Si Si4 0.119058 0.269919 0.779284
Si Si5 0.715530 0.999415 0.771130
Si Si6 0.510147 0.865560 0.659407
Si Si7 0.045375 0.915489 0.815742
O O1 0.644858 0.425659 0.083857
O O2 0.711156 0.266950 0.457723
O O3 0.500000 0.500000 0.000000
O O4 0.574029 0.031505 0.971092
O O5 0.761818 0.754906 0.322140
O O6 0.747738 0.275334 0.003942
O O7 0.589185 0.601876 0.742547
O O8 0.752324 0.898858 0.649227
O O9 0.900346 0.015962 0.875242
O O10 0.086913 0.593352 0.790261
O O11 0.070915 0.104297 0.479362
O O12 0.075864 0.127066 0.804402
O O13 0.237414 0.216397 0.052555
O O14 0.599951 0.070140 0.506368
O O15 0.500000 0.000000 0.500000
#
# Coordination Sequence:
#
# PCOD9045274 Si02
#       7
#     2   2   2   2   2   2   2
#     4  11  23  37  59  85 124 163 212 258 311 384
#     4  11  24  42  55  93 127 160 216 263 306 384
#     4  10  24  39  62  90 121 170 205 263 322 377
#     4   9  20  37  64  99 120 164 215 264 312 394
#     4  11  22  40  67  88 122 169 215 258 322 376
#     4  11  23  37  57  88 122 167 206 261 314 369
#     4   9  19  39  64  93 131 158 211 266 324 372
#
# _framework density 25.626358
#
# number of rings (size 3 to 8) (size 9 to 14) (size 15 to 20)
#    0.000    1.714    1.429    2.143    8.000    3.429 
#    0.000    0.714    0.000    0.857    0.000    0.000 
#    0.000    0.000    0.000    0.000    0.000    0.000 
#
# Total GULP energy -77961.202139 kJ/mol
# GULP energy per Si atom -5568.657296 kJ/mol
# Density = 2.556803 g / cm^3
# Si number density = 25.626358 Si / 1000 Ang^3
#
#
#
# Elastic Constant Matrix: (Units=GPa)
#
#
# Indices 1 2 3 4 5 6 
#
# 1 65.0890 9.5695 22.5972 5.3132 15.8352 14.3235
# 2 9.5695 44.0509 8.1565 -7.2679 6.7249 11.7043
# 3 22.5972 8.1565 160.0353 -7.0305 8.9983 3.8374
# 4 5.3132 -7.2679 -7.0305 47.1040 -0.1317 -8.5797
# 5 15.8352 6.7249 8.9983 -0.1317 35.2472 -0.8773
# 6 14.3235 11.7043 3.8374 -8.5797 -0.8773 19.0594
#
#
#
# Elastic Compliance Matrix: (Units=1/GPa)
#
#
# Indices 1 2 3 4 5 6 
#
# 1 0.024232 0.001722 -0.002654 -0.006972 -0.011121 -0.022385
# 2 0.001722 0.028535 -0.000858 0.000667 -0.006460 -0.018642
# 3 -0.002654 -0.000858 0.006706 0.001501 -0.000305 0.001832
# 4 -0.006972 0.000667 0.001501 0.025275 0.003116 0.016049
# 5 -0.011121 -0.006460 -0.000305 0.003116 0.035073 0.015403
# 6 -0.022385 -0.018642 0.001832 0.016049 0.015403 0.088303
#
#
# Mechanical properties :
#
#
# Convention : Reuss Voigt Hill
#
# Bulk Modulus (GPa) = 17.89070 38.86909 28.37989
# Shear Modulus (GPa) = 21.70752 35.53891 28.62322
#
# Velocity S-wave (km/s) = 2.91362 3.72803 3.34570
# Velocity P-wave (km/s) = 4.27965 5.80788 5.10132
#
# Compressibility (1/GPa) = 0.05589496
#
# Stress axis : x y z
#
# Youngs Moduli (GPa) = 41.26705 35.04447 149.11607
#
# Poissons Ratio (x) = -0.06035 0.39570
# Poissons Ratio (y) = -0.07107 0.12794
# Poissons Ratio (z) = 0.10951 0.03007
#
# Static dielectric constant tensor:
#      x y z
#    x 2.066790 0.125020 0.020450 
#    y 0.125020 2.039550 0.067260 
#    z 0.020450 0.067260 2.082790 
# 
# From -- ./inp_files/32878.got.cif
#   From: 2010.05.17/outbox.cif.g08.bks.cpg/sg2_17_cif.got.tgz:32878.got - 2010.06.03 11:33:40.
