data_PCOD9045733
_publ_section_title
;
Structure prediction by ZEFSAII (Michael W. Deem and Ramdas Pophale) SiO2 
 PCOD9045733
Probable space group: P -1
;
_chemical_formula_sum "Si O2"
_cell_formula_units_Z 12
_cell_length_a 11.194221
_cell_length_b 5.398899
_cell_length_c 22.161324
_cell_angle_alpha 116.443224
_cell_angle_beta 25.328695
_cell_angle_gamma 117.554511
_cell_volume 506.688710
_symmetry_space_group_name_H-M "P -1"
_symmetry_group_IT_number 2
_symmetry_cell_setting 'triclinic'
loop_
_space_group_symop_operation_xyz
x,y,z
-x,-y,-z
loop_
_atom_site_type_symbol
_atom_site_label
_atom_site_fract_x
_atom_site_fract_y
_atom_site_fract_z
Si Si1 0.756281 0.619181 0.208154
Si Si2 0.127941 0.640586 0.147402
Si Si3 0.772382 0.197751 0.696513
Si Si4 0.799309 0.205459 0.547761
Si Si5 0.225609 0.287393 0.181176
Si Si6 0.197162 0.895727 0.949922
O O1 0.470425 0.742246 0.360930
O O2 0.711670 0.385712 0.150364
O O3 0.883082 0.512860 0.199228
O O4 0.010239 0.839401 0.088442
O O5 0.125384 0.445796 0.185736
O O6 0.097769 0.962825 0.210164
O O7 0.434813 0.677373 0.978792
O O8 0.693727 0.119047 0.654662
O O9 0.844272 0.527385 0.710152
O O10 0.486866 0.096401 0.852696
O O11 0.022789 0.029240 0.580445
O O12 0.000000 0.500000 0.500000
O O13 0.000000 0.000000 0.000000
#
# Coordination Sequence:
#
# PCOD9045733 Si02
#       6
#     2   2   2   2   2   2
#     4  11  24  39  64 100 130 168 224 277 335 390
#     4  10  24  41  67  98 136 174 221 278 327 394
#     4  11  24  41  67  95 131 178 223 266 342 401
#     4  11  24  43  64  95 133 177 214 280 338 398
#     4  10  24  43  66  97 135 179 220 272 332 396
#     4  11  22  37  65  97 129 164 216 287 336 383
#
# _framework density 23.683178999999999
#
# number of rings (size 3 to 8) (size 9 to 14) (size 15 to 20)
#    0.000    1.333    3.333    1.000   14.000    0.000 
#    0.000    1.667    0.000    0.000    0.000    0.000 
#    0.000    0.000    0.000    0.000    0.000    0.000 
#
# Total GULP energy -67211.757036 kJ/mol
# GULP energy per Si atom -5600.979753 kJ/mol
# Density = 2.362927 g / cm^3
# Si number density = 23.683179 Si / 1000 Ang^3
#
#
#
# Elastic Constant Matrix: (Units=GPa)
#
#
# Indices 1 2 3 4 5 6 
#
# 1 103.1933 3.6275 27.4587 10.7624 -27.3843 -11.3331
# 2 3.6275 118.1397 36.0242 30.1368 -1.1634 4.8773
# 3 27.4587 36.0242 80.1326 11.5891 -18.1224 -2.1805
# 4 10.7624 30.1368 11.5891 38.9041 -4.6877 3.9894
# 5 -27.3843 -1.1634 -18.1224 -4.6877 31.3690 8.0939
# 6 -11.3331 4.8773 -2.1805 3.9894 8.0939 34.1436
#
#
#
# Elastic Compliance Matrix: (Units=1/GPa)
#
#
# Indices 1 2 3 4 5 6 
#
# 1 0.013308 0.001088 -0.002486 -0.002907 0.009204 0.002261
# 2 0.001088 0.012186 -0.005279 -0.008516 -0.002912 -0.000031
# 3 -0.002486 -0.005279 0.017399 0.000658 0.008026 -0.000939
# 4 -0.002907 -0.008516 0.000658 0.033828 0.003756 -0.004549
# 5 0.009204 -0.002912 0.008026 0.003756 0.046961 -0.007588
# 6 0.002261 -0.000031 -0.000939 -0.004549 -0.007588 0.032313
#
#
# Mechanical properties :
#
#
# Convention : Reuss Voigt Hill
#
# Bulk Modulus (GPa) = 33.85369 48.40960 41.13165
# Shear Modulus (GPa) = 27.90264 36.50703 32.20484
#
# Velocity S-wave (km/s) = 3.43616 3.93042 3.69157
# Velocity P-wave (km/s) = 5.48346 6.40956 5.96451
#
# Compressibility (1/GPa) = 0.02953888
#
# Stress axis : x y z
#
# Youngs Moduli (GPa) = 75.14519 82.06260 57.47487
#
# Poissons Ratio (x) = -0.08930 0.14288
# Poissons Ratio (y) = -0.08177 0.30341
# Poissons Ratio (z) = 0.18680 0.43321
#
# Static dielectric constant tensor:
#      x y z
#    x 1.914790 -0.016630 0.043990 
#    y -0.016630 1.965750 -0.000550 
#    z 0.043990 -0.000550 1.866720 
# 
# From -- ./inp_files/20960.got.cif
#   From: 2010.05.17/outbox.cif.g08.bks.cpg/sg2_11_cif.got.tgz:20960.got - 2010.06.03 11:33:40.
