data_PCOD9045901
_publ_section_title
;
Structure prediction by ZEFSAII (Michael W. Deem and Ramdas Pophale) SiO2 
 PCOD9045901
Probable space group: P -1
;
_chemical_formula_sum "Si O2"
_cell_formula_units_Z 16
_cell_length_a 21.258655
_cell_length_b 18.084624
_cell_length_c 9.479003
_cell_angle_alpha 143.985997
_cell_angle_beta 39.173281
_cell_angle_gamma 160.530290
_cell_volume 712.716592
_symmetry_space_group_name_H-M "P -1"
_symmetry_group_IT_number 2
_symmetry_cell_setting 'triclinic'
loop_
_space_group_symop_operation_xyz
x,y,z
-x,-y,-z
loop_
_atom_site_type_symbol
_atom_site_label
_atom_site_fract_x
_atom_site_fract_y
_atom_site_fract_z
Si Si1 0.835606 0.607447 0.515825
Si Si2 0.810430 0.871977 0.296278
Si Si3 0.837768 0.930869 0.663482
Si Si4 0.062127 0.413457 0.980992
Si Si5 0.499644 0.341181 0.018956
Si Si6 0.219471 0.664516 0.594803
Si Si7 0.600857 0.208547 0.814575
Si Si8 0.554147 0.702353 0.257398
O O1 0.917613 0.608327 0.250001
O O2 0.828905 0.519808 0.534417
O O3 0.626473 0.425582 0.558938
O O4 0.965326 0.871072 0.711061
O O5 0.769730 0.861465 0.513202
O O6 0.702431 0.625050 0.081319
O O7 0.722270 0.874031 0.340420
O O8 0.652700 0.720715 0.756679
O O9 0.000000 0.000000 0.500000
O O10 0.939153 0.170939 0.893199
O O11 0.266162 0.636622 0.043267
O O12 0.947609 0.418161 0.209456
O O13 0.525102 0.259781 0.963437
O O14 0.419243 0.206289 0.801176
O O15 0.270176 0.707148 0.407426
O O16 0.415533 0.925794 0.724465
O O17 0.500000 0.500000 0.000000
#
# Coordination Sequence:
#
# PCOD9045901 Si02
#       8
#     2   2   2   2   2   2   2   2
#     4  11  25  44  66  99 133 174 221 269 325 395
#     4  10  25  41  68  95 137 170 215 268 328 389
#     4  11  24  42  68 103 135 169 217 273 331 398
#     4  11  25  41  69  96 131 173 222 268 331 392
#     4  11  22  44  67  98 134 171 219 271 330 393
#     4  11  24  47  64  95 135 169 228 271 323 393
#     4  11  24  44  70  96 130 173 219 277 330 380
#     4  10  24  42  63  95 134 175 215 266 320 395
#
# _framework density 22.449314999999999
#
# number of rings (size 3 to 8) (size 9 to 14) (size 15 to 20)
#    0.000    1.250    2.500    1.875    8.750    4.500 
#    0.000    0.000    0.000    0.000    0.000    0.000 
#    0.000    0.000    0.000    0.000    0.000    0.000 
#
# Total GULP energy -89449.601859 kJ/mol
# GULP energy per Si atom -5590.600116 kJ/mol
# Density = 2.239822 g / cm^3
# Si number density = 22.449315 Si / 1000 Ang^3
#
#
#
# Elastic Constant Matrix: (Units=GPa)
#
#
# Indices 1 2 3 4 5 6 
#
# 1 71.8569 29.7744 29.2932 -3.6609 7.0440 13.2852
# 2 29.7744 78.3205 18.8333 -3.6663 8.6750 -4.9511
# 3 29.2932 18.8333 69.4299 -17.6959 -8.1993 11.0828
# 4 -3.6609 -3.6663 -17.6959 38.1238 6.8204 -3.9942
# 5 7.0440 8.6750 -8.1993 6.8204 41.6127 6.0811
# 6 13.2852 -4.9511 11.0828 -3.9942 6.0811 34.5472
#
#
#
# Elastic Compliance Matrix: (Units=1/GPa)
#
#
# Indices 1 2 3 4 5 6 
#
# 1 0.020668 -0.006528 -0.006672 -0.002046 -0.002152 -0.006601
# 2 -0.006528 0.016958 -0.003178 0.000997 -0.004216 0.006818
# 3 -0.006672 -0.003178 0.021416 0.007503 0.005492 -0.004860
# 4 -0.002046 0.000997 0.007503 0.030577 -0.003793 0.002726
# 5 -0.002152 -0.004216 0.005492 -0.003793 0.027987 -0.006903
# 6 -0.006601 0.006818 -0.004860 0.002726 -0.006903 0.035551
#
#
# Mechanical properties :
#
#
# Convention : Reuss Voigt Hill
#
# Bulk Modulus (GPa) = 38.03889 41.71212 39.87550
# Shear Modulus (GPa) = 25.68386 32.30382 28.99384
#
# Velocity S-wave (km/s) = 3.38610 3.79749 3.59768
# Velocity P-wave (km/s) = 5.68055 6.15214 5.92104
#
# Compressibility (1/GPa) = 0.02628889
#
# Stress axis : x y z
#
# Youngs Moduli (GPa) = 48.38349 58.96748 46.69301
#
# Poissons Ratio (x) = 0.38492 0.31151
# Poissons Ratio (y) = 0.31583 0.14839
# Poissons Ratio (z) = 0.32279 0.18740
#
# Static dielectric constant tensor:
#      x y z
#    x 1.826320 -0.016880 0.000430 
#    y -0.016880 1.832220 -0.001150 
#    z 0.000430 -0.001150 1.829640 
# 
# From -- ./inp_files/348926.got.cif
#   From: 2010.05.17/outbox.cif.g08.bks.cpg/sg2_175_cif.got.tgz:348926.got - 2010.06.03 11:33:40.
