data_PCOD9045022
_publ_section_title
;
Structure prediction by ZEFSAII (Michael W. Deem and Ramdas Pophale) SiO2 
 PCOD9045022
Probable space group: P -1
;
_chemical_formula_sum "Si O2"
_cell_formula_units_Z 10
_cell_length_a 7.322944
_cell_length_b 4.940831
_cell_length_c 14.410405
_cell_angle_alpha 82.844572
_cell_angle_beta 49.876737
_cell_angle_gamma 78.670156
_cell_volume 390.914403
_symmetry_space_group_name_H-M "P -1"
_symmetry_group_IT_number 2
_symmetry_cell_setting 'triclinic'
loop_
_space_group_symop_operation_xyz
x,y,z
-x,-y,-z
loop_
_atom_site_type_symbol
_atom_site_label
_atom_site_fract_x
_atom_site_fract_y
_atom_site_fract_z
Si Si1 0.968011 0.729729 0.578811
Si Si2 0.307289 0.837659 0.617953
Si Si3 0.310276 0.377744 0.001144
Si Si4 0.560719 0.331215 0.222621
Si Si5 0.996405 0.087909 0.865216
O O1 0.699629 0.752679 0.707668
O O2 0.000000 0.500000 0.500000
O O3 0.167400 0.686104 0.595130
O O4 0.000000 0.000000 0.500000
O O5 0.420454 0.640103 0.673295
O O6 0.109263 0.060195 0.726401
O O7 0.500000 0.000000 0.500000
O O8 0.229090 0.082858 0.055912
O O9 0.072269 0.603479 0.089933
O O10 0.500000 0.500000 0.000000
O O11 0.405703 0.417248 0.864889
O O12 0.788216 0.091726 0.138982
#
# Coordination Sequence:
#
# PCOD9045022 Si02
#       5
#     2   2   2   2   2
#     4  12  26  46  70 107 146 190 242 297 359 430
#     4  10  23  48  73 108 146 191 242 297 364 429
#     4  12  24  46  71 109 140 190 241 301 358 435
#     4  10  25  46  75 105 147 193 241 298 365 432
#     4  10  25  44  73  98 150 183 242 293 365 421
#
# _framework density 25.581043999999999
#
# number of rings (size 3 to 8) (size 9 to 14) (size 15 to 20)
#    1.200    0.000    2.000    3.000    0.000    8.800 
#    0.000    0.000    0.000    0.000    0.000    0.000 
#    0.000    0.000    0.000    0.000    0.000    0.000 
#
# Total GULP energy -56029.986965 kJ/mol
# GULP energy per Si atom -5602.998697 kJ/mol
# Density = 2.552282 g / cm^3
# Si number density = 25.581044 Si / 1000 Ang^3
#
#
#
# Elastic Constant Matrix: (Units=GPa)
#
#
# Indices 1 2 3 4 5 6 
#
# 1 194.9655 15.2400 59.0931 -15.3836 -1.5548 8.0317
# 2 15.2400 91.6753 24.6783 -6.2526 -2.2094 30.7088
# 3 59.0931 24.6783 172.8709 -29.7958 -6.8820 11.5745
# 4 -15.3836 -6.2526 -29.7958 33.4090 -2.8692 -4.4242
# 5 -1.5548 -2.2094 -6.8820 -2.8692 58.4041 2.5721
# 6 8.0317 30.7088 11.5745 -4.4242 2.5721 33.0848
#
#
#
# Elastic Compliance Matrix: (Units=1/GPa)
#
#
# Indices 1 2 3 4 5 6 
#
# 1 0.005772 -0.000295 -0.001731 0.001008 0.000005 -0.000388
# 2 -0.000295 0.016209 -0.001190 -0.000007 0.001110 -0.014644
# 3 -0.001731 -0.001190 0.007623 0.005815 0.001113 -0.000451
# 4 0.001008 -0.000007 0.005815 0.036099 0.002381 0.002370
# 5 0.000005 0.001110 0.001113 0.002381 0.017521 -0.002464
# 6 -0.000388 -0.014644 -0.000451 0.002370 -0.002464 0.044579
#
#
# Mechanical properties :
#
#
# Convention : Reuss Voigt Hill
#
# Bulk Modulus (GPa) = 43.15390 73.05939 58.10664
# Shear Modulus (GPa) = 35.22154 49.01293 42.11723
#
# Velocity S-wave (km/s) = 3.71463 4.38195 4.06202
# Velocity P-wave (km/s) = 5.94173 7.36369 6.69059
#
# Compressibility (1/GPa) = 0.02317288
#
# Stress axis : x y z
#
# Youngs Moduli (GPa) = 173.23733 61.69377 131.18212
#
# Poissons Ratio (x) = 0.01819 0.22711
# Poissons Ratio (y) = 0.05108 0.15607
# Poissons Ratio (z) = 0.29992 0.07340
#
# Static dielectric constant tensor:
#      x y z
#    x 2.037630 -0.072310 0.016610 
#    y -0.072310 1.977130 0.037230 
#    z 0.016610 0.037230 2.033840 
# 
# From -- ./inp_files/63623.got.cif
#   From: 2010.05.17/outbox.cif.g08.bks.cpg/sg2_32_cif.got.tgz:63623.got - 2010.06.03 11:33:40.
