data_PCOD9045955
_publ_section_title
;
Structure prediction by ZEFSAII (Michael W. Deem and Ramdas Pophale) SiO2 
 PCOD9045955
Probable space group: P -1
;
_chemical_formula_sum "Si O2"
_cell_formula_units_Z 13
_cell_length_a 15.110052
_cell_length_b 5.069980
_cell_length_c 22.483734
_cell_angle_alpha 66.153459
_cell_angle_beta 20.491439
_cell_angle_gamma 63.196268
_cell_volume 537.275436
_symmetry_space_group_name_H-M "P -1"
_symmetry_group_IT_number 2
_symmetry_cell_setting 'triclinic'
loop_
_space_group_symop_operation_xyz
x,y,z
-x,-y,-z
loop_
_atom_site_type_symbol
_atom_site_label
_atom_site_fract_x
_atom_site_fract_y
_atom_site_fract_z
Si Si1 0.815590 0.201371 0.515381
Si Si2 0.022339 0.322390 0.940116
Si Si3 0.671729 0.771951 0.739465
Si Si4 0.448841 0.617710 0.642632
Si Si5 0.500000 0.000000 0.500000
Si Si6 0.658215 0.680509 0.037971
Si Si7 0.145116 0.720608 0.652909
O O1 0.710328 0.948170 0.638611
O O2 0.596708 0.509590 0.619255
O O3 0.878272 0.139086 0.411637
O O4 0.058041 0.263957 0.392593
O O5 0.300064 0.370990 0.741713
O O6 0.000000 0.500000 0.000000
O O7 0.811645 0.478671 0.011875
O O8 0.000000 0.000000 0.000000
O O9 0.457851 0.995672 0.892378
O O10 0.577679 0.471100 0.817005
O O11 0.302831 0.938447 0.688489
O O12 0.663261 0.605828 0.453785
O O13 0.294103 0.878715 0.591034
O O14 0.868283 0.691576 0.853754
#
# Coordination Sequence:
#
# PCOD9045955 Si02
#       7
#     2   2   2   2   1   2   2
#     4   9  24  49  70 102 137 196 236 299 352 436
#     4  12  26  42  69 103 144 183 234 295 360 423
#     4  11  26  49  74 100 148 184 251 291 357 425
#     4  10  24  42  65 100 138 184 233 284 356 428
#     4  12  22  40  72  96 146 184 234 294 350 446
#     4  12  26  44  71 108 141 190 231 308 354 423
#     4  10  26  42  67 103 144 182 240 287 366 421
#
# _framework density 24.196155000000001
#
# number of rings (size 3 to 8) (size 9 to 14) (size 15 to 20)
#    0.923    0.308    1.538    3.231    4.308    6.154 
#    0.000    0.000    0.000    0.000    0.000    0.000 
#    0.000    0.000    0.000    0.000    0.000    0.000 
#
# Total GULP energy -72514.242903 kJ/mol
# GULP energy per Si atom -5578.018685 kJ/mol
# Density = 2.414108 g / cm^3
# Si number density = 24.196155 Si / 1000 Ang^3
#
#
#
# Elastic Constant Matrix: (Units=GPa)
#
#
# Indices 1 2 3 4 5 6 
#
# 1 131.8431 36.7801 40.9966 -17.0255 5.7012 -8.0738
# 2 36.7801 88.9228 12.4312 -21.5496 2.4894 3.3784
# 3 40.9966 12.4312 100.2574 -26.5651 13.5944 -3.8542
# 4 -17.0255 -21.5496 -26.5651 40.2112 -1.0388 2.1094
# 5 5.7012 2.4894 13.5944 -1.0388 43.2761 1.6908
# 6 -8.0738 3.3784 -3.8542 2.1094 1.6908 36.8001
#
#
#
# Elastic Compliance Matrix: (Units=1/GPa)
#
#
# Indices 1 2 3 4 5 6 
#
# 1 0.009819 -0.003716 -0.003540 -0.000287 -0.000058 0.002144
# 2 -0.003716 0.014444 0.001675 0.007382 -0.000598 -0.002361
# 3 -0.003540 0.001675 0.014006 0.008541 -0.003833 0.000223
# 4 -0.000287 0.007382 0.008541 0.034380 -0.002177 -0.001717
# 5 -0.000058 -0.000598 -0.003833 -0.002177 0.024354 -0.001354
# 6 0.002144 -0.002361 0.000223 -0.001717 -0.001354 0.028045
#
#
# Mechanical properties :
#
#
# Convention : Reuss Voigt Hill
#
# Bulk Modulus (GPa) = 36.89107 55.71544 46.30325
# Shear Modulus (GPa) = 34.42475 39.44517 36.93496
#
# Velocity S-wave (km/s) = 3.77601 4.04198 3.91126
# Velocity P-wave (km/s) = 5.85583 6.69777 6.29090
#
# Compressibility (1/GPa) = 0.02710683
#
# Stress axis : x y z
#
# Youngs Moduli (GPa) = 101.84480 69.23330 71.40029
#
# Poissons Ratio (x) = 0.25724 0.25275
# Poissons Ratio (y) = 0.37842 -0.11958
# Poissons Ratio (z) = 0.36052 -0.11595
#
# Static dielectric constant tensor:
#      x y z
#    x 1.946360 -0.040380 0.116570 
#    y -0.040380 2.059340 0.043790 
#    z 0.116570 0.043790 2.061020 
# 
# From -- ./inp_files/611147.got.cif
#   From: 2010.05.17/outbox.cif.g08.bks.cpg/sg2_306_cif.got.tgz:611147.got - 2010.06.03 11:33:40.
