data_PCOD9045187
_publ_section_title
;
Structure prediction by ZEFSAII (Michael W. Deem and Ramdas Pophale) SiO2 
 PCOD9045187
Probable space group: P -1
;
_chemical_formula_sum "Si O2"
_cell_formula_units_Z 10
_cell_length_a 10.190392
_cell_length_b 13.211288
_cell_length_c 9.740413
_cell_angle_alpha 32.510172
_cell_angle_beta 128.428849
_cell_angle_gamma 147.902229
_cell_volume 354.147840
_symmetry_space_group_name_H-M "P -1"
_symmetry_group_IT_number 2
_symmetry_cell_setting 'triclinic'
loop_
_space_group_symop_operation_xyz
x,y,z
-x,-y,-z
loop_
_atom_site_type_symbol
_atom_site_label
_atom_site_fract_x
_atom_site_fract_y
_atom_site_fract_z
Si Si1 0.697570 0.346713 0.574027
Si Si2 0.074080 0.913469 0.336708
Si Si3 0.384721 0.693318 0.750605
Si Si4 0.363161 0.144314 0.852350
Si Si5 0.880812 0.694982 0.732386
O O1 0.668723 0.374743 0.365808
O O2 0.476188 0.225871 0.676573
O O3 0.957300 0.668943 0.431502
O O4 0.698226 0.121999 0.841950
O O5 0.072302 0.804163 0.608005
O O6 0.367852 0.224192 0.142633
O O7 0.123412 0.081099 0.786837
O O8 0.500000 0.000000 0.500000
O O9 0.152415 0.445032 0.987669
O O10 0.602376 0.425857 0.780895
O O11 0.000000 0.000000 0.500000
#
# Coordination Sequence:
#
# PCOD9045187 Si02
#       5
#     2   2   2   2   2
#     4  10  23  52  83 117 168 209 268 339 402 486
#     4  11  28  50  84 119 161 214 268 339 402 483
#     4  12  28  53  80 125 159 214 279 327 410 485
#     4  10  23  52  81 123 161 216 269 329 417 473
#     4  11  26  51  78 118 164 209 267 336 395 483
#
# _framework density 28.236792999999999
#
# number of rings (size 3 to 8) (size 9 to 14) (size 15 to 20)
#    0.000    1.200    2.000    2.400    5.600    4.800 
#    7.200    1.000    0.000    0.000    0.000    0.000 
#    0.000    0.000    0.000    0.000    0.000    0.000 
#
# Total GULP energy -56165.756318 kJ/mol
# GULP energy per Si atom -5616.575632 kJ/mol
# Density = 2.817252 g / cm^3
# Si number density = 28.236793 Si / 1000 Ang^3
#
#
#
# Elastic Constant Matrix: (Units=GPa)
#
#
# Indices 1 2 3 4 5 6 
#
# 1 149.0284 60.4959 71.2545 -8.4686 8.0981 -16.5906
# 2 60.4959 199.9964 74.1856 -2.0588 7.6988 -57.4123
# 3 71.2545 74.1856 177.0639 13.6841 14.4864 -49.6753
# 4 -8.4686 -2.0588 13.6841 55.1732 -25.3258 -7.5966
# 5 8.0981 7.6988 14.4864 -25.3258 59.0739 -1.4407
# 6 -16.5906 -57.4123 -49.6753 -7.5966 -1.4407 50.8509
#
#
#
# Elastic Compliance Matrix: (Units=1/GPa)
#
#
# Indices 1 2 3 4 5 6 
#
# 1 0.009196 -0.002187 -0.003831 0.002291 0.000877 -0.002845
# 2 -0.002187 0.008206 -0.000281 0.001218 0.000028 0.008459
# 3 -0.003831 -0.000281 0.009955 -0.003495 -0.003194 0.007546
# 4 0.002291 0.001218 -0.003495 0.024866 0.011111 0.002738
# 5 0.000877 0.000028 -0.003194 0.011111 0.022339 -0.000510
# 6 -0.002845 0.008459 0.007546 0.002738 -0.000510 0.036053
#
#
# Mechanical properties :
#
#
# Convention : Reuss Voigt Hill
#
# Bulk Modulus (GPa) = 67.75827 104.21785 85.98806
# Shear Modulus (GPa) = 39.02225 54.36311 46.69268
#
# Velocity S-wave (km/s) = 3.72151 4.39254 4.07087
# Velocity P-wave (km/s) = 6.52033 7.91925 7.25359
#
# Compressibility (1/GPa) = 0.01475835
#
# Stress axis : x y z
#
# Youngs Moduli (GPa) = 108.74859 121.86618 100.44906
#
# Poissons Ratio (x) = 0.26655 0.38481
# Poissons Ratio (y) = 0.23786 0.02822
# Poissons Ratio (z) = 0.41660 0.03424
#
# Static dielectric constant tensor:
#      x y z
#    x 2.246940 0.071180 0.006640 
#    y 0.071180 2.203300 0.046640 
#    z 0.006640 0.046640 2.175580 
# 
# From -- ./inp_files/50048.got.cif
#   From: 2010.05.17/outbox.cif.g08.bks.cpg/sg2_26_cif.got.tgz:50048.got - 2010.06.03 11:33:40.
