data_PCOD9045863
_publ_section_title
;
Structure prediction by ZEFSAII (Michael W. Deem and Ramdas Pophale) SiO2 
 PCOD9045863
Probable space group: P -1
;
_chemical_formula_sum "Si O2"
_cell_formula_units_Z 14
_cell_length_a 7.389053
_cell_length_b 8.006422
_cell_length_c 16.623385
_cell_angle_alpha 128.553381
_cell_angle_beta 66.152080
_cell_angle_gamma 125.104316
_cell_volume 627.563942
_symmetry_space_group_name_H-M "P -1"
_symmetry_group_IT_number 2
_symmetry_cell_setting 'triclinic'
loop_
_space_group_symop_operation_xyz
x,y,z
-x,-y,-z
loop_
_atom_site_type_symbol
_atom_site_label
_atom_site_fract_x
_atom_site_fract_y
_atom_site_fract_z
Si Si1 0.398068 0.338159 0.818016
Si Si2 0.330585 0.157287 0.038791
Si Si3 0.289418 0.267886 0.362404
Si Si4 0.203837 0.919330 0.604017
Si Si5 0.665179 0.179887 0.845297
Si Si6 0.063206 0.312574 0.010648
Si Si7 0.405169 0.215863 0.505355
O O1 0.531977 0.621341 0.860657
O O2 0.562408 0.248954 0.805909
O O3 0.278947 0.160764 0.714404
O O4 0.220891 0.315982 0.911204
O O5 0.162388 0.238252 0.048402
O O6 0.489878 0.143572 0.936702
O O7 0.182765 0.894182 0.020522
O O8 0.293410 0.219799 0.442805
O O9 0.496323 0.526544 0.391117
O O10 0.050586 0.254729 0.383394
O O11 0.306797 0.053512 0.248379
O O12 0.374567 0.814854 0.562301
O O13 0.249641 0.004645 0.528779
O O14 0.890062 0.416452 0.899505
#
# Coordination Sequence:
#
# PCOD9045863 Si02
#       7
#     2   2   2   2   2   2   2
#     4   9  17  32  55  82 115 148 185 233 279 332
#     4   8  15  29  50  82 116 146 187 228 271 338
#     4  11  22  40  62  86 115 152 191 238 292 341
#     4  11  22  40  62  86 115 152 191 238 292 341
#     4   9  17  32  55  82 115 148 185 233 279 332
#     4   8  15  29  52  81 112 153 187 220 279 339
#     4  10  24  42  60  84 116 150 194 242 286 344
#
# _framework density 22.308484
#
# number of rings (size 3 to 8) (size 9 to 14) (size 15 to 20)
#    0.000    2.571    1.429    2.571    0.000    2.286 
#    0.000    2.857    0.000    5.143    0.000    0.000 
#    0.000    0.000    0.000    0.000    0.000    0.000 
#
# Total GULP energy -78255.152059 kJ/mol
# GULP energy per Si atom -5589.653719 kJ/mol
# Density = 2.225771 g / cm^3
# Si number density = 22.308484 Si / 1000 Ang^3
#
#
#
# Elastic Constant Matrix: (Units=GPa)
#
#
# Indices 1 2 3 4 5 6 
#
# 1 56.1360 3.8861 -3.5452 4.2479 0.3206 -2.2290
# 2 3.8861 68.5084 7.6509 23.3530 1.4606 14.9169
# 3 -3.5452 7.6509 94.8678 34.0015 -2.9610 6.9561
# 4 4.2479 23.3530 34.0015 27.2961 -3.8037 8.4052
# 5 0.3206 1.4606 -2.9610 -3.8037 25.5196 3.1297
# 6 -2.2290 14.9169 6.9561 8.4052 3.1297 23.8116
#
#
#
# Elastic Compliance Matrix: (Units=1/GPa)
#
#
# Indices 1 2 3 4 5 6 
#
# 1 0.018928 0.001260 0.004012 -0.010431 -0.001857 0.003737
# 2 0.001260 0.026977 0.010928 -0.035441 -0.004735 -0.006841
# 3 0.004012 0.010928 0.024428 -0.041481 -0.004219 0.001590
# 4 -0.010431 -0.035441 -0.041481 0.127023 0.017979 -0.013857
# 5 -0.001857 -0.004735 -0.004219 0.017979 0.042642 -0.007926
# 6 0.003737 -0.006841 0.001590 -0.013857 -0.007926 0.052100
#
#
# Mechanical properties :
#
#
# Convention : Reuss Voigt Hill
#
# Bulk Modulus (GPa) = 9.73390 26.16621 17.95005
# Shear Modulus (GPa) = 17.01010 29.42680 23.21845
#
# Velocity S-wave (km/s) = 2.76433 3.63586 3.22963
# Velocity P-wave (km/s) = 3.81595 5.42040 4.68733
#
# Compressibility (1/GPa) = 0.10273373
#
# Stress axis : x y z
#
# Youngs Moduli (GPa) = 52.83072 37.06912 40.93606
#
# Poissons Ratio (x) = -0.04671 -0.16425
# Poissons Ratio (y) = -0.06657 -0.44734
# Poissons Ratio (z) = -0.21198 -0.40508
#
# Static dielectric constant tensor:
#      x y z
#    x 1.832460 -0.017820 0.012560 
#    y -0.017820 1.842420 0.026390 
#    z 0.012560 0.026390 1.785400 
# 
# From -- ./inp_files/201063.got.cif
#   From: 2010.05.17/outbox.cif.g08.bks.cpg/sg2_101_cif.got.tgz:201063.got - 2010.06.03 11:33:40.
