data_PCOD9045641
_publ_section_title
;
Structure prediction by ZEFSAII (Michael W. Deem and Ramdas Pophale) SiO2 
 PCOD9045641
Probable space group: P -1
;
_chemical_formula_sum "Si O2"
_cell_formula_units_Z 14
_cell_length_a 11.707946
_cell_length_b 14.206627
_cell_length_c 10.191563
_cell_angle_alpha 55.914705
_cell_angle_beta 147.771096
_cell_angle_gamma 137.416196
_cell_volume 602.513247
_symmetry_space_group_name_H-M "P -1"
_symmetry_group_IT_number 2
_symmetry_cell_setting 'triclinic'
loop_
_space_group_symop_operation_xyz
x,y,z
-x,-y,-z
loop_
_atom_site_type_symbol
_atom_site_label
_atom_site_fract_x
_atom_site_fract_y
_atom_site_fract_z
Si Si1 0.997847 0.120651 0.148331
Si Si2 0.792053 0.995326 0.401631
Si Si3 0.458197 0.861661 0.943266
Si Si4 0.602673 0.658829 0.815631
Si Si5 0.908952 0.462948 0.726049
Si Si6 0.602724 0.392175 0.057143
Si Si7 0.819792 0.610717 0.733318
O O1 0.155309 0.052973 0.375535
O O2 0.103227 0.213859 0.045934
O O3 0.099790 0.237242 0.271222
O O4 0.691711 0.995640 0.977766
O O5 0.524480 0.886904 0.143475
O O6 0.000000 0.000000 0.500000
O O7 0.786573 0.127945 0.319303
O O8 0.469880 0.734123 0.011405
O O9 0.395244 0.650927 0.519465
O O10 0.545973 0.504951 0.874075
O O11 0.531496 0.670609 0.884696
O O12 0.925443 0.586977 0.722344
O O13 0.077219 0.514299 0.716035
O O14 0.046322 0.419663 0.994681
O O15 0.500000 0.500000 0.500000
#
# Coordination Sequence:
#
# PCOD9045641 Si02
#       7
#     2   2   2   2   2   2   2
#     4  11  23  40  66  98 133 171 217 279 331 404
#     4   9  22  39  62  94 136 169 208 274 332 403
#     4  10  24  41  64  98 135 173 218 267 349 393
#     4  11  25  45  67  95 133 177 235 272 328 385
#     4  11  23  38  66  98 132 167 219 281 334 398
#     4  11  25  44  67  94 134 183 223 279 323 399
#     4  11  23  38  65 104 130 167 214 279 345 393
#
# _framework density 23.236004000000001
#
# number of rings (size 3 to 8) (size 9 to 14) (size 15 to 20)
#    0.000    1.429    2.857    0.429   12.000    1.714 
#    0.000    0.714    0.000    0.000    0.000    0.000 
#    0.000    0.000    0.000    0.000    0.000    0.000 
#
# Total GULP energy -78079.172926 kJ/mol
# GULP energy per Si atom -5577.083780 kJ/mol
# Density = 2.318312 g / cm^3
# Si number density = 23.236004 Si / 1000 Ang^3
#
#
#
# Elastic Constant Matrix: (Units=GPa)
#
#
# Indices 1 2 3 4 5 6 
#
# 1 117.9010 15.5735 17.6881 -14.8306 14.9505 14.0595
# 2 15.5735 90.9390 21.6267 -16.3002 12.0131 6.6524
# 3 17.6881 21.6267 73.0161 -18.4915 14.1702 0.0222
# 4 -14.8306 -16.3002 -18.4915 28.8654 0.2226 9.6073
# 5 14.9505 12.0131 14.1702 0.2226 28.7823 -2.7434
# 6 14.0595 6.6524 0.0222 9.6073 -2.7434 42.2503
#
#
#
# Elastic Compliance Matrix: (Units=1/GPa)
#
#
# Indices 1 2 3 4 5 6 
#
# 1 0.011003 0.000917 0.000647 0.008720 -0.007080 -0.006249
# 2 0.000917 0.013975 -0.000622 0.009727 -0.006569 -0.005144
# 3 0.000647 -0.000622 0.019093 0.013574 -0.009949 -0.003860
# 4 0.008720 0.009727 0.013574 0.059834 -0.017564 -0.019187
# 5 -0.007080 -0.006569 -0.009949 -0.017564 0.047193 0.010454
# 6 -0.006249 -0.005144 -0.003860 -0.019187 0.010454 0.031601
#
#
# Mechanical properties :
#
#
# Convention : Reuss Voigt Hill
#
# Bulk Modulus (GPa) = 21.75992 43.51475 32.63733
# Shear Modulus (GPa) = 25.49300 35.11077 30.30188
#
# Velocity S-wave (km/s) = 3.31589 3.89144 3.61514
# Velocity P-wave (km/s) = 4.90360 6.24172 5.61268
#
# Compressibility (1/GPa) = 0.04595605
#
# Stress axis : x y z
#
# Youngs Moduli (GPa) = 90.88167 71.55820 52.37621
#
# Poissons Ratio (x) = -0.06563 -0.03389
# Poissons Ratio (y) = -0.08336 0.03256
# Poissons Ratio (z) = -0.05881 0.04448
#
# Static dielectric constant tensor:
#      x y z
#    x 1.891580 0.055200 0.017810 
#    y 0.055200 1.962260 0.006210 
#    z 0.017810 0.006210 1.944010 
# 
# From -- ./inp_files/432654.got.cif
#   From: 2010.05.17/outbox.cif.g08.bks.cpg/sg2_217_cif.got.tgz:432654.got - 2010.06.03 11:33:40.
