data_PCOD9045297
_publ_section_title
;
Structure prediction by ZEFSAII (Michael W. Deem and Ramdas Pophale) SiO2 
 PCOD9045297
Probable space group: P -1
;
_chemical_formula_sum "Si O2"
_cell_formula_units_Z 14
_cell_length_a 13.196870
_cell_length_b 9.551913
_cell_length_c 8.311807
_cell_angle_alpha 68.189489
_cell_angle_beta 53.049334
_cell_angle_gamma 40.060113
_cell_volume 530.839890
_symmetry_space_group_name_H-M "P -1"
_symmetry_group_IT_number 2
_symmetry_cell_setting 'triclinic'
loop_
_space_group_symop_operation_xyz
x,y,z
-x,-y,-z
loop_
_atom_site_type_symbol
_atom_site_label
_atom_site_fract_x
_atom_site_fract_y
_atom_site_fract_z
Si Si1 0.965254 0.752448 0.593263
Si Si2 0.308438 0.257888 0.066300
Si Si3 0.733927 0.209016 0.507959
Si Si4 0.213453 0.099577 0.637974
Si Si5 0.423291 0.621436 0.849698
Si Si6 0.649318 0.696021 0.627003
Si Si7 0.133069 0.693169 0.925571
O O1 0.854205 0.722608 0.808896
O O2 0.927246 0.741311 0.446909
O O3 0.183116 0.551069 0.496062
O O4 0.859821 0.002886 0.598650
O O5 0.315960 0.324584 0.207139
O O6 0.265166 0.430787 0.912598
O O7 0.500000 0.000000 0.000000
O O8 0.681624 0.128633 0.456346
O O9 0.850164 0.229676 0.287467
O O10 0.323467 0.159404 0.527061
O O11 0.220527 0.730887 0.960459
O O12 0.070833 0.179977 0.880091
O O13 0.458745 0.771133 0.749989
O O14 0.556021 0.429365 0.671494
O O15 0.500000 0.500000 0.000000
#
# Coordination Sequence:
#
# PCOD9045297 Si02
#       7
#     2   2   2   2   2   2   2
#     4   9  18  37  63  89 118 162 213 242 294 373
#     4  11  19  33  64  91 117 162 217 245 289 376
#     4  10  24  39  66  92 124 165 210 246 311 378
#     4   9  19  39  67  88 117 168 214 243 296 381
#     4  12  25  39  59  94 134 159 196 268 317 346
#     4  11  20  39  61  92 124 158 206 263 301 350
#     4  12  21  42  65  94 124 164 205 259 304 368
#
# _framework density 26.373301000000001
#
# number of rings (size 3 to 8) (size 9 to 14) (size 15 to 20)
#    0.857    0.571    4.286    2.571    0.000    0.571 
#    0.000    1.429    0.000    0.000    0.000    0.000 
#    0.000    0.000    0.000    0.000    0.000    0.000 
#
# Total GULP energy -78351.634292 kJ/mol
# GULP energy per Si atom -5596.545307 kJ/mol
# Density = 2.631327 g / cm^3
# Si number density = 26.373301 Si / 1000 Ang^3
#
#
#
# Elastic Constant Matrix: (Units=GPa)
#
#
# Indices 1 2 3 4 5 6 
#
# 1 85.4611 24.8940 35.9556 -0.5427 -20.7562 -8.1797
# 2 24.8940 139.6769 44.2150 -6.1118 -16.1430 21.7780
# 3 35.9556 44.2150 141.3649 -22.3908 -31.4108 14.5705
# 4 -0.5427 -6.1118 -22.3908 53.3964 5.0805 -12.6846
# 5 -20.7562 -16.1430 -31.4108 5.0805 48.6208 2.4928
# 6 -8.1797 21.7780 14.5705 -12.6846 2.4928 35.3303
#
#
#
# Elastic Compliance Matrix: (Units=1/GPa)
#
#
# Indices 1 2 3 4 5 6 
#
# 1 0.014996 -0.002232 -0.002985 -0.000327 0.003473 0.005716
# 2 -0.002232 0.009100 -0.001505 -0.001193 0.001531 -0.006042
# 3 -0.002985 -0.001505 0.010116 0.002827 0.004632 -0.003247
# 4 -0.000327 -0.001193 0.002827 0.021651 -0.001349 0.007362
# 5 0.003473 0.001531 0.004632 -0.001349 0.025916 -0.004363
# 6 0.005716 -0.006042 -0.003247 0.007362 -0.004363 0.037642
#
#
# Mechanical properties :
#
#
# Convention : Reuss Voigt Hill
#
# Bulk Modulus (GPa) = 48.15101 64.07022 56.11061
# Shear Modulus (GPa) = 35.76877 44.89871 40.33374
#
# Velocity S-wave (km/s) = 3.68672 4.13053 3.91492
# Velocity P-wave (km/s) = 6.03487 6.86256 6.46198
#
# Compressibility (1/GPa) = 0.02076800
#
# Stress axis : x y z
#
# Youngs Moduli (GPa) = 66.68470 109.88719 98.85777
#
# Poissons Ratio (x) = 0.24524 0.29513
# Poissons Ratio (y) = 0.14883 0.14875
# Poissons Ratio (z) = 0.19908 0.16534
#
# Static dielectric constant tensor:
#      x y z
#    x 2.126250 -0.098660 -0.009140 
#    y -0.098660 2.332280 -0.046600 
#    z -0.009140 -0.046600 2.039090 
# 
# From -- ./inp_files/471507.got.cif
#   From: 2010.05.17/outbox.cif.g08.bks.cpg/sg2_236_cif.got.tgz:471507.got - 2010.06.03 11:33:40.
