data_PCOD9045646
_publ_section_title
;
Structure prediction by ZEFSAII (Michael W. Deem and Ramdas Pophale) SiO2 
 PCOD9045646
Probable space group: P -1
;
_chemical_formula_sum "Si O2"
_cell_formula_units_Z 16
_cell_length_a 14.914638
_cell_length_b 13.450527
_cell_length_c 13.625076
_cell_angle_alpha 21.351970
_cell_angle_beta 138.010823
_cell_angle_gamma 132.310179
_cell_volume 663.721772
_symmetry_space_group_name_H-M "P -1"
_symmetry_group_IT_number 2
_symmetry_cell_setting 'triclinic'
loop_
_space_group_symop_operation_xyz
x,y,z
-x,-y,-z
loop_
_atom_site_type_symbol
_atom_site_label
_atom_site_fract_x
_atom_site_fract_y
_atom_site_fract_z
Si Si1 0.010161 0.291496 0.995985
Si Si2 0.828101 0.120317 0.845107
Si Si3 0.299737 0.296740 0.167133
Si Si4 0.616392 0.763307 0.327113
Si Si5 0.085307 0.112136 0.554105
Si Si6 0.540498 0.189262 0.178653
Si Si7 0.554493 0.296674 0.577958
Si Si8 0.756777 0.574814 0.217529
O O1 0.170608 0.246741 0.172519
O O2 0.953300 0.243932 0.885273
O O3 0.968758 0.586514 0.734796
O O4 0.936978 0.078809 0.196854
O O5 0.698752 0.164686 0.771050
O O6 0.847425 0.800789 0.129098
O O7 0.791262 0.287264 0.562231
O O8 0.387014 0.545983 0.044927
O O9 0.384280 0.001274 0.500786
O O10 0.243332 0.411829 0.911674
O O11 0.622692 0.581359 0.400992
O O12 0.566645 0.621709 0.514888
O O13 0.758691 0.882374 0.348685
O O14 0.500000 0.000000 0.000000
O O15 0.000000 0.000000 0.500000
O O16 0.525639 0.950620 0.307360
O O17 0.397464 0.322467 0.975425
#
# Coordination Sequence:
#
# PCOD9045646 Si02
#       8
#     2   2   2   2   2   2   2   2
#     4  12  27  48  71 101 143 190 237 285 352 429
#     4  11  23  44  71 101 141 182 236 291 353 417
#     4  12  26  44  70 104 145 187 234 287 354 438
#     4  11  25  42  74 100 142 179 244 297 348 420
#     4  12  28  49  72 104 149 191 234 296 361 427
#     4  11  24  43  71 102 146 181 234 287 361 417
#     4  10  24  41  65 104 129 180 229 291 343 413
#     4  11  24  43  72 104 139 183 231 299 358 409
#
# _framework density 24.106487999999999
#
# number of rings (size 3 to 8) (size 9 to 14) (size 15 to 20)
#    0.000    0.750    1.250    5.625   10.500    1.000 
#    0.000    0.000    0.000    0.000    0.000    0.000 
#    0.000    0.000    0.000    0.000    0.000    0.000 
#
# Total GULP energy -89169.234384 kJ/mol
# GULP energy per Si atom -5573.077149 kJ/mol
# Density = 2.405162 g / cm^3
# Si number density = 24.106488 Si / 1000 Ang^3
#
#
#
# Elastic Constant Matrix: (Units=GPa)
#
#
# Indices 1 2 3 4 5 6 
#
# 1 51.2823 15.1981 -3.0165 0.8200 -2.0994 18.1781
# 2 15.1981 139.5563 31.0725 -10.1224 6.4990 17.2596
# 3 -3.0165 31.0725 88.3578 -7.4764 -19.7223 10.7071
# 4 0.8200 -10.1224 -7.4764 40.1560 -1.8023 5.1996
# 5 -2.0994 6.4990 -19.7223 -1.8023 27.8785 -2.3646
# 6 18.1781 17.2596 10.7071 5.1996 -2.3646 40.5708
#
#
#
# Elastic Compliance Matrix: (Units=1/GPa)
#
#
# Indices 1 2 3 4 5 6 
#
# 1 0.024476 -0.002331 0.004081 0.001290 0.004427 -0.010959
# 2 -0.002331 0.008933 -0.003964 0.001617 -0.005146 -0.002217
# 3 0.004081 -0.003964 0.016453 0.003087 0.012719 -0.004138
# 4 0.001290 0.001617 0.003087 0.026690 0.003179 -0.005316
# 5 0.004427 -0.005146 0.012719 0.003179 0.046535 -0.000847
# 6 -0.010959 -0.002217 -0.004138 -0.005316 -0.000847 0.032226
#
#
# Mechanical properties :
#
#
# Convention : Reuss Voigt Hill
#
# Bulk Modulus (GPa) = 22.01045 40.63385 31.32215
# Shear Modulus (GPa) = 28.58990 37.45056 33.02023
#
# Velocity S-wave (km/s) = 3.44755 3.94578 3.70505
# Velocity P-wave (km/s) = 4.99978 6.13608 5.59684
#
# Compressibility (1/GPa) = 0.04543297
#
# Stress axis : x y z
#
# Youngs Moduli (GPa) = 40.85592 111.94154 60.77962
#
# Poissons Ratio (x) = 0.26098 -0.24804
# Poissons Ratio (y) = 0.09525 0.24095
# Poissons Ratio (z) = -0.16673 0.44377
#
# Static dielectric constant tensor:
#      x y z
#    x 1.915340 -0.050490 -0.140450 
#    y -0.050490 2.023390 0.137990 
#    z -0.140450 0.137990 2.101390 
# 
# From -- ./inp_files/534028.got.cif
#   From: 2010.05.17/outbox.cif.g08.bks.cpg/sg2_268_cif.got.tgz:534028.got - 2010.06.03 11:33:40.
