data_PCOD9045617
_publ_section_title
;
Structure prediction by ZEFSAII (Michael W. Deem and Ramdas Pophale) SiO2 
 PCOD9045617
Probable space group: P -1
;
_chemical_formula_sum "Si O2"
_cell_formula_units_Z 16
_cell_length_a 18.059979
_cell_length_b 10.199488
_cell_length_c 8.683647
_cell_angle_alpha 57.097978
_cell_angle_beta 91.606558
_cell_angle_gamma 44.396659
_cell_volume 663.091486
_symmetry_space_group_name_H-M "P -1"
_symmetry_group_IT_number 2
_symmetry_cell_setting 'triclinic'
loop_
_space_group_symop_operation_xyz
x,y,z
-x,-y,-z
loop_
_atom_site_type_symbol
_atom_site_label
_atom_site_fract_x
_atom_site_fract_y
_atom_site_fract_z
Si Si1 0.057398 0.965799 0.863216
Si Si2 0.050331 0.245176 0.458233
Si Si3 0.467253 0.522175 0.226272
Si Si4 0.328117 0.267589 0.340374
Si Si5 0.696679 0.972574 0.339808
Si Si6 0.415407 0.456581 0.555979
Si Si7 0.174642 0.749876 0.559369
Si Si8 0.255281 0.273145 0.013221
O O1 0.035680 0.183507 0.662854
O O2 0.229813 0.601116 0.104567
O O3 0.974225 0.020885 0.688776
O O4 0.000000 0.000000 0.000000
O O5 0.886530 0.561207 0.168808
O O6 0.149844 0.218158 0.490940
O O7 0.141480 0.954534 0.540730
O O8 0.561710 0.264354 0.264458
O O9 0.380012 0.571481 0.307275
O O10 0.583214 0.395154 0.428212
O O11 0.361665 0.844785 0.937508
O O12 0.500000 0.000000 0.500000
O O13 0.296928 0.226112 0.520384
O O14 0.269726 0.258518 0.207752
O O15 0.296996 0.561694 0.557855
O O16 0.582828 0.081602 0.805580
O O17 0.230036 0.495982 0.813065
#
# Coordination Sequence:
#
# PCOD9045617 Si02
#       8
#     2   2   2   2   2   2   2   2
#     4  11  26  45  69 103 137 178 230 279 343 401
#     4  11  23  47  71  95 139 185 226 276 339 416
#     4  10  24  41  64 100 134 174 231 273 344 396
#     4  12  27  44  71 102 138 175 228 283 342 404
#     4  11  25  44  70  98 135 185 225 281 344 396
#     4  11  23  42  67 102 134 178 228 283 328 402
#     4  11  22  43  72  96 137 186 223 278 335 408
#     4  11  23  43  67 103 135 177 230 278 335 403
#
# _framework density 24.129398999999999
#
# number of rings (size 3 to 8) (size 9 to 14) (size 15 to 20)
#    0.000    1.000    5.000    1.125    8.750    2.500 
#    4.500    1.250    0.000    0.000    0.000    0.000 
#    0.000    0.000    0.000    0.000    0.000    0.000 
#
# Total GULP energy -89538.398510 kJ/mol
# GULP energy per Si atom -5596.149907 kJ/mol
# Density = 2.407448 g / cm^3
# Si number density = 24.129399 Si / 1000 Ang^3
#
#
#
# Elastic Constant Matrix: (Units=GPa)
#
#
# Indices 1 2 3 4 5 6 
#
# 1 98.2846 9.5509 40.1444 8.0720 6.9402 -25.4225
# 2 9.5509 78.8361 29.4986 13.0377 -3.7209 -19.3128
# 3 40.1444 29.4986 147.8323 7.4428 -8.6730 -23.0415
# 4 8.0720 13.0377 7.4428 36.5267 -7.3404 -1.9064
# 5 6.9402 -3.7209 -8.6730 -7.3404 19.5590 0.5904
# 6 -25.4225 -19.3128 -23.0415 -1.9064 0.5904 45.6304
#
#
#
# Elastic Compliance Matrix: (Units=1/GPa)
#
#
# Indices 1 2 3 4 5 6 
#
# 1 0.014023 0.001505 -0.003318 -0.004206 -0.007942 0.006701
# 2 0.001505 0.015721 -0.002376 -0.005297 -0.000768 0.006081
# 3 -0.003318 -0.002376 0.008607 0.000874 0.004826 0.001466
# 4 -0.004206 -0.005297 0.000874 0.032510 0.013163 -0.002956
# 5 -0.007942 -0.000768 0.004826 0.013163 0.060956 -0.002552
# 6 0.006701 0.006081 0.001466 -0.002956 -0.002552 0.028872
#
#
# Mechanical properties :
#
#
# Convention : Reuss Voigt Hill
#
# Bulk Modulus (GPa) = 33.36358 53.70454 43.53406
# Shear Modulus (GPa) = 27.92375 36.72715 32.32545
#
# Velocity S-wave (km/s) = 3.40553 3.90563 3.66412
# Velocity P-wave (km/s) = 5.41484 6.53022 5.99851
#
# Compressibility (1/GPa) = 0.02997280
#
# Stress axis : x y z
#
# Youngs Moduli (GPa) = 71.31035 63.61024 116.18148
#
# Poissons Ratio (x) = -0.09574 0.38549
# Poissons Ratio (y) = -0.10733 0.27608
# Poissons Ratio (z) = 0.23661 0.15115
#
# Static dielectric constant tensor:
#      x y z
#    x 1.933800 0.024540 -0.022540 
#    y 0.024540 1.950600 0.023460 
#    z -0.022540 0.023460 1.935190 
# 
# From -- ./inp_files/209542.got.cif
#   From: 2010.05.17/outbox.cif.g08.bks.cpg/sg2_105_cif.got.tgz:209542.got - 2010.06.03 11:33:40.
