data_PCOD9045880
_publ_section_title
;
Structure prediction by ZEFSAII (Michael W. Deem and Ramdas Pophale) SiO2 
 PCOD9045880
Probable space group: P -1
;
_chemical_formula_sum "Si O2"
_cell_formula_units_Z 12
_cell_length_a 5.499962
_cell_length_b 6.585704
_cell_length_c 17.374044
_cell_angle_alpha 53.855788
_cell_angle_beta 66.984731
_cell_angle_gamma 72.055557
_cell_volume 465.187382
_symmetry_space_group_name_H-M "P -1"
_symmetry_group_IT_number 2
_symmetry_cell_setting 'triclinic'
loop_
_space_group_symop_operation_xyz
x,y,z
-x,-y,-z
loop_
_atom_site_type_symbol
_atom_site_label
_atom_site_fract_x
_atom_site_fract_y
_atom_site_fract_z
Si Si1 0.352756 0.064707 0.308643
Si Si2 0.392954 0.495950 0.771266
Si Si3 0.113416 0.479787 0.076490
Si Si4 0.117039 0.209567 0.633979
Si Si5 0.429076 0.930207 0.938312
Si Si6 0.238434 0.279994 0.427856
O O1 0.410250 0.361362 0.228135
O O2 0.230290 0.069751 0.409785
O O3 0.646561 0.912222 0.313603
O O4 0.143776 0.940339 0.310019
O O5 0.484979 0.604751 0.655237
O O6 0.104561 0.578715 0.821863
O O7 0.410365 0.195846 0.838100
O O8 0.355557 0.263554 0.088028
O O9 0.189612 0.761217 0.016463
O O10 0.000000 0.500000 0.000000
O O11 0.235736 0.212716 0.532192
O O12 0.995785 0.492574 0.607040
O O13 0.500000 0.000000 0.000000
#
# Coordination Sequence:
#
# PCOD9045880 Si02
#       6
#     2   2   2   2   2   2
#     4  10  25  41  69  97 139 172 227 276 330 397
#     4  10  24  42  62 105 121 176 218 281 321 403
#     4  11  24  44  68  90 131 177 216 273 348 398
#     4  11  22  47  66  97 137 186 215 275 339 397
#     4  11  24  44  67  95 131 172 221 279 338 405
#     4   9  24  41  67  97 133 177 228 271 333 397
#
# _framework density 25.796054999999999
#
# number of rings (size 3 to 8) (size 9 to 14) (size 15 to 20)
#    1.000    0.667    1.667    1.500    2.333    6.667 
#    0.000    0.000    0.000    0.000    0.000    0.000 
#    0.000    0.000    0.000    0.000    0.000    0.000 
#
# Total GULP energy -67104.117766 kJ/mol
# GULP energy per Si atom -5592.009814 kJ/mol
# Density = 2.573734 g / cm^3
# Si number density = 25.796055 Si / 1000 Ang^3
#
#
#
# Elastic Constant Matrix: (Units=GPa)
#
#
# Indices 1 2 3 4 5 6 
#
# 1 114.6185 46.3784 39.8589 -8.5267 -12.3919 11.4340
# 2 46.3784 112.1892 11.7662 -8.9699 8.8996 -0.1065
# 3 39.8589 11.7662 109.1288 0.6906 -27.6594 -3.6930
# 4 -8.5267 -8.9699 0.6906 49.6160 -11.9952 -5.0244
# 5 -12.3919 8.8996 -27.6594 -11.9952 38.0906 -3.4500
# 6 11.4340 -0.1065 -3.6930 -5.0244 -3.4500 54.8628
#
#
#
# Elastic Compliance Matrix: (Units=1/GPa)
#
#
# Indices 1 2 3 4 5 6 
#
# 1 0.012642 -0.004981 -0.003371 0.001834 0.003180 -0.002503
# 2 -0.004981 0.011406 -0.000539 0.000190 -0.004548 0.000755
# 3 -0.003371 -0.000539 0.012808 0.001557 0.009026 0.002274
# 4 0.001834 0.000190 0.001557 0.022931 0.009121 0.002397
# 5 0.003180 -0.004548 0.009026 0.009121 0.038063 0.003165
# 6 -0.002503 0.000755 0.002274 0.002397 0.003165 0.019322
#
#
# Mechanical properties :
#
#
# Convention : Reuss Voigt Hill
#
# Bulk Modulus (GPa) = 52.42647 59.10483 55.76565
# Shear Modulus (GPa) = 35.38302 44.37608 39.87955
#
# Velocity S-wave (km/s) = 3.70759 4.15211 3.93613
# Velocity P-wave (km/s) = 6.22060 6.77855 6.50556
#
# Compressibility (1/GPa) = 0.01907433
#
# Stress axis : x y z
#
# Youngs Moduli (GPa) = 79.10081 87.67524 78.07883
#
# Poissons Ratio (x) = 0.43667 0.26320
# Poissons Ratio (y) = 0.39397 0.04209
# Poissons Ratio (z) = 0.26664 0.04726
#
# Static dielectric constant tensor:
#      x y z
#    x 2.091510 -0.020810 -0.074400 
#    y -0.020810 2.014980 0.015240 
#    z -0.074400 0.015240 2.280460 
# 
# From -- ./inp_files/545364.got.cif
#   From: 2010.05.17/outbox.cif.g08.bks.cpg/sg2_273_cif.got.tgz:545364.got - 2010.06.03 11:33:40.
