data_PCOD9045568
_publ_section_title
;
Structure prediction by ZEFSAII (Michael W. Deem and Ramdas Pophale) SiO2 
 PCOD9045568
Probable space group: P -1
;
_chemical_formula_sum "Si O2"
_cell_formula_units_Z 15
_cell_length_a 11.963674
_cell_length_b 8.995503
_cell_length_c 9.529328
_cell_angle_alpha 80.823811
_cell_angle_beta 36.628173
_cell_angle_gamma 94.615425
_cell_volume 564.934065
_symmetry_space_group_name_H-M "P -1"
_symmetry_group_IT_number 2
_symmetry_cell_setting 'triclinic'
loop_
_space_group_symop_operation_xyz
x,y,z
-x,-y,-z
loop_
_atom_site_type_symbol
_atom_site_label
_atom_site_fract_x
_atom_site_fract_y
_atom_site_fract_z
Si Si1 0.045877 0.394619 0.348317
Si Si2 0.918457 0.810956 0.111568
Si Si3 0.518707 0.186322 0.417674
Si Si4 0.537700 0.857468 0.063181
Si Si5 0.000000 0.000000 0.500000
Si Si6 0.546478 0.353170 0.085783
Si Si7 0.795437 0.286391 0.356739
Si Si8 0.897205 0.781907 0.441015
O O1 0.999965 0.223628 0.506186
O O2 0.000000 0.500000 0.500000
O O3 0.915479 0.395243 0.346450
O O4 0.280514 0.481516 0.072070
O O5 0.681168 0.772668 0.356069
O O6 0.986726 0.770714 0.203580
O O7 0.024545 0.758184 0.886510
O O8 0.000000 0.000000 0.000000
O O9 0.559207 0.223312 0.206630
O O10 0.693080 0.315366 0.313213
O O11 0.500000 0.000000 0.500000
O O12 0.406723 0.822477 0.341542
O O13 0.776494 0.910203 0.826956
O O14 0.445343 0.708636 0.070030
O O15 0.500000 0.000000 0.000000
O O16 0.878151 0.951128 0.473558
O O17 0.321365 0.351622 0.322511
#
# Coordination Sequence:
#
# PCOD9045568 Si02
#       8
#     2   2   2   2   1   2   2   2
#     4  12  26  47  71 103 146 195 256 300 363 436
#     4  11  26  45  72 107 149 190 236 301 385 438
#     4  11  24  45  75 107 150 189 243 308 375 448
#     4  11  23  40  68 104 141 179 243 300 366 424
#     4  10  24  40  74 106 134 188 238 300 370 424
#     4  10  24  48  69 100 141 197 244 305 362 435
#     4  12  27  43  71 109 146 194 241 305 371 437
#     4  10  25  46  73 102 144 190 245 310 365 441
#
# _framework density 26.551772
#
# number of rings (size 3 to 8) (size 9 to 14) (size 15 to 20)
#    0.000    1.067    2.667    2.000    9.333    1.600 
#    2.400    1.333    0.000    0.000    0.000    0.000 
#    0.000    0.000    0.000    0.000    0.000    0.000 
#
# Total GULP energy -83582.044859 kJ/mol
# GULP energy per Si atom -5572.136324 kJ/mol
# Density = 2.649134 g / cm^3
# Si number density = 26.551772 Si / 1000 Ang^3
#
#
#
# Elastic Constant Matrix: (Units=GPa)
#
#
# Indices 1 2 3 4 5 6 
#
# 1 137.1402 51.8313 41.2165 -7.6500 -7.1243 25.2028
# 2 51.8313 83.5309 55.4543 4.1564 7.0194 22.4613
# 3 41.2165 55.4543 156.3379 15.3966 -6.9732 13.4325
# 4 -7.6500 4.1564 15.3966 56.6282 11.7057 -4.5896
# 5 -7.1243 7.0194 -6.9732 11.7057 58.1708 -7.5609
# 6 25.2028 22.4613 13.4325 -4.5896 -7.5609 48.3533
#
#
#
# Elastic Compliance Matrix: (Units=1/GPa)
#
#
# Indices 1 2 3 4 5 6 
#
# 1 0.010087 -0.005409 -0.000642 0.001501 0.001219 -0.002233
# 2 -0.005409 0.021215 -0.005749 -0.000263 -0.004664 -0.006193
# 3 -0.000642 -0.005749 0.008896 -0.002500 0.002269 0.000651
# 4 0.001501 -0.000263 -0.002500 0.019457 -0.003833 0.001281
# 5 0.001219 -0.004664 0.002269 -0.003833 0.019410 0.003572
# 6 -0.002233 -0.006193 0.000651 0.001281 0.003572 0.025221
#
#
# Mechanical properties :
#
#
# Convention : Reuss Voigt Hill
#
# Bulk Modulus (GPa) = 60.25151 74.89037 67.57094
# Shear Modulus (GPa) = 37.47584 47.86425 42.67004
#
# Velocity S-wave (km/s) = 3.76097 4.25040 4.01315
# Velocity P-wave (km/s) = 6.44990 7.23564 6.85404
#
# Compressibility (1/GPa) = 0.01659710
#
# Stress axis : x y z
#
# Youngs Moduli (GPa) = 99.14145 47.13686 112.40476
#
# Poissons Ratio (x) = 0.25497 0.07219
# Poissons Ratio (y) = 0.53626 0.64623
# Poissons Ratio (z) = 0.06367 0.27100
#
# Static dielectric constant tensor:
#      x y z
#    x 1.791190 0.874940 -0.033170 
#    y 0.874940 -0.128100 0.102580 
#    z -0.033170 0.102580 2.026970 
# 
# From -- ./inp_files/258448.got.cif
#   From: 2010.05.17/outbox.cif.g08.bks.cpg/sg2_130_cif.got.tgz:258448.got - 2010.06.03 11:33:40.
