data_PCOD9045223
_publ_section_title
;
Structure prediction by ZEFSAII (Michael W. Deem and Ramdas Pophale) SiO2 
 PCOD9045223
Probable space group: P -1
;
_chemical_formula_sum "Si O2"
_cell_formula_units_Z 12
_cell_length_a 12.010513
_cell_length_b 4.918234
_cell_length_c 14.481671
_cell_angle_alpha 85.743785
_cell_angle_beta 138.119261
_cell_angle_gamma 115.774730
_cell_volume 467.865838
_symmetry_space_group_name_H-M "P -1"
_symmetry_group_IT_number 2
_symmetry_cell_setting 'triclinic'
loop_
_space_group_symop_operation_xyz
x,y,z
-x,-y,-z
loop_
_atom_site_type_symbol
_atom_site_label
_atom_site_fract_x
_atom_site_fract_y
_atom_site_fract_z
Si Si1 0.693806 0.771495 0.518212
Si Si2 0.854982 0.800886 0.281307
Si Si3 0.651612 0.079994 0.243798
Si Si4 0.581314 0.852354 0.751407
Si Si5 0.761920 0.083287 0.045608
Si Si6 0.782688 0.328194 0.693266
O O1 0.516287 0.496694 0.350202
O O2 0.715770 0.569244 0.619381
O O3 0.691703 0.053963 0.563401
O O4 0.905360 0.952631 0.589000
O O5 0.791222 0.433599 0.270630
O O6 0.757853 0.892454 0.300192
O O7 0.765139 0.858921 0.132324
O O8 0.599788 0.138523 0.313011
O O9 0.429955 0.894531 0.064597
O O10 0.709630 0.145122 0.750182
O O11 0.721530 0.911746 0.924469
O O12 0.973495 0.439733 0.167833
#
# Coordination Sequence:
#
# PCOD9045223 Si02
#       6
#     2   2   2   2   2   2
#     4  11  25  42  68  90 128 170 207 257 315 372
#     4  11  21  43  61  95 125 169 205 252 316 373
#     4  10  24  37  69  90 130 159 213 255 309 371
#     4  10  24  43  64 100 123 166 209 265 310 367
#     4   9  22  42  67  95 122 168 208 264 305 371
#     4  11  23  46  65  92 127 167 210 257 315 376
#
# _framework density 25.648378000000001
#
# number of rings (size 3 to 8) (size 9 to 14) (size 15 to 20)
#    1.000    0.667    0.000    4.500    0.000    6.667 
#    0.000    4.167    0.000    0.000    0.000    0.000 
#    0.000    0.000    0.000    0.000    0.000    0.000 
#
# Total GULP energy -67308.159120 kJ/mol
# GULP energy per Si atom -5609.013260 kJ/mol
# Density = 2.559000 g / cm^3
# Si number density = 25.648378 Si / 1000 Ang^3
#
#
#
# Elastic Constant Matrix: (Units=GPa)
#
#
# Indices 1 2 3 4 5 6 
#
# 1 98.8306 21.7167 51.7352 0.6797 -13.1641 14.5443
# 2 21.7167 99.6653 39.1589 9.2194 1.8251 20.3183
# 3 51.7352 39.1589 79.3173 7.4748 -17.9266 18.5628
# 4 0.6797 9.2194 7.4748 42.4406 14.4164 0.1607
# 5 -13.1641 1.8251 -17.9266 14.4164 41.9385 -8.4161
# 6 14.5443 20.3183 18.5628 0.1607 -8.4161 55.6386
#
#
#
# Elastic Compliance Matrix: (Units=1/GPa)
#
#
# Indices 1 2 3 4 5 6 
#
# 1 0.015538 0.000808 -0.010561 0.001572 -0.000393 -0.000897
# 2 0.000808 0.013501 -0.007300 -0.000281 -0.004022 -0.003314
# 3 -0.010561 -0.007300 0.026406 -0.006317 0.010093 -0.001839
# 4 0.001572 -0.000281 -0.006317 0.028831 -0.012129 -0.000119
# 5 -0.000393 -0.004022 0.010093 -0.012129 0.033029 0.003235
# 6 -0.000897 -0.003314 -0.001839 -0.000119 0.003235 0.020521
#
#
# Mechanical properties :
#
#
# Convention : Reuss Voigt Hill
#
# Bulk Modulus (GPa) = 46.85771 55.89274 51.37522
# Shear Modulus (GPa) = 27.92604 39.01704 33.47154
#
# Velocity S-wave (km/s) = 3.30328 3.90452 3.61642
# Velocity P-wave (km/s) = 5.73217 6.49356 6.12471
#
# Compressibility (1/GPa) = 0.02134121
#
# Stress axis : x y z
#
# Youngs Moduli (GPa) = 64.35881 74.07001 37.86952
#
# Poissons Ratio (x) = -0.05988 0.39993
# Poissons Ratio (y) = -0.05203 0.27643
# Poissons Ratio (z) = 0.67967 0.54069
#
# Static dielectric constant tensor:
#      x y z
#    x 2.031580 0.016150 -0.011710 
#    y 0.016150 1.967810 -0.037950 
#    z -0.011710 -0.037950 2.003190 
# 
# From -- ./inp_files/310219.got.cif
#   From: 2010.05.17/outbox.cif.g08.bks.cpg/sg2_156_cif.got.tgz:310219.got - 2010.06.03 11:33:40.
