data_PCOD9045864
_publ_section_title
;
Structure prediction by ZEFSAII (Michael W. Deem and Ramdas Pophale) SiO2 
 PCOD9045864
Probable space group: P -1
;
_chemical_formula_sum "Si O2"
_cell_formula_units_Z 16
_cell_length_a 15.637641
_cell_length_b 9.832208
_cell_length_c 15.666883
_cell_angle_alpha 134.811763
_cell_angle_beta 27.031693
_cell_angle_gamma 116.639667
_cell_volume 645.316327
_symmetry_space_group_name_H-M "P -1"
_symmetry_group_IT_number 2
_symmetry_cell_setting 'triclinic'
loop_
_space_group_symop_operation_xyz
x,y,z
-x,-y,-z
loop_
_atom_site_type_symbol
_atom_site_label
_atom_site_fract_x
_atom_site_fract_y
_atom_site_fract_z
Si Si1 0.515403 0.586576 0.909010
Si Si2 0.971623 0.231972 0.597961
Si Si3 0.023566 0.786080 0.996335
Si Si4 0.287903 0.680396 0.543561
Si Si5 0.405142 0.081548 0.217237
Si Si6 0.974975 0.289048 0.432021
Si Si7 0.355447 0.862972 0.816668
Si Si8 0.601776 0.793761 0.389473
O O1 0.645373 0.516124 0.671131
O O2 0.711417 0.384721 0.703026
O O3 0.295372 0.580731 0.087265
O O4 0.452521 0.837826 0.103906
O O5 0.061095 0.180304 0.399290
O O6 0.135342 0.260251 0.524274
O O7 0.000000 0.000000 0.500000
O O8 0.864719 0.698636 0.122774
O O9 0.849152 0.065915 0.266929
O O10 0.234843 0.726259 0.842910
O O11 0.129888 0.706447 0.772887
O O12 0.520043 0.636532 0.355826
O O13 0.500000 0.000000 0.000000
O O14 0.502086 0.179353 0.242252
O O15 0.000000 0.500000 0.500000
O O16 0.135048 0.117894 0.141861
O O17 0.484133 0.864456 0.618651
O O18 0.500000 0.000000 0.500000
#
# Coordination Sequence:
#
# PCOD9045864 Si02
#       8
#     2   2   2   2   2   2   2   2
#     4  11  22  38  65  96 132 164 219 283 326 388
#     4  10  24  42  60  87 135 184 220 259 325 415
#     4   9  18  35  58  87 131 165 205 267 338 388
#     4   9  18  35  57  90 127 160 209 268 338 384
#     4  11  22  44  60  91 132 179 217 252 337 414
#     4  12  22  38  61 100 136 165 218 281 337 386
#     4  11  21  36  65  92 130 171 215 266 330 400
#     4   9  20  36  57  91 126 168 212 265 333 396
#
# _framework density 24.794041
#
# number of rings (size 3 to 8) (size 9 to 14) (size 15 to 20)
#    0.000    1.750    3.750    1.125    0.000    4.000 
#    2.250    0.000    0.000    6.000    0.000    0.000 
#    0.000    0.000    0.000    0.000    0.000    0.000 
#
# Total GULP energy -89375.085326 kJ/mol
# GULP energy per Si atom -5585.942833 kJ/mol
# Density = 2.473761 g / cm^3
# Si number density = 24.794041 Si / 1000 Ang^3
#
#
#
# Elastic Constant Matrix: (Units=GPa)
#
#
# Indices 1 2 3 4 5 6 
#
# 1 177.3118 28.8161 54.6745 -20.0978 -31.4031 8.4527
# 2 28.8161 70.2362 14.3999 -16.5185 -1.1831 0.7077
# 3 54.6745 14.3999 92.7910 -27.9777 -25.6008 11.5408
# 4 -20.0978 -16.5185 -27.9777 37.7291 9.3348 -0.2289
# 5 -31.4031 -1.1831 -25.6008 9.3348 58.7831 -11.9130
# 6 8.4527 0.7077 11.5408 -0.2289 -11.9130 29.5712
#
#
#
# Elastic Compliance Matrix: (Units=1/GPa)
#
#
# Indices 1 2 3 4 5 6 
#
# 1 0.007504 -0.002387 -0.003455 -0.000239 0.002552 0.000287
# 2 -0.002387 0.016713 0.000405 0.006830 -0.001972 -0.000617
# 3 -0.003455 0.000405 0.017291 0.010352 0.003153 -0.004420
# 4 -0.000239 0.006830 0.010352 0.037617 -0.002433 -0.004824
# 5 0.002552 -0.001972 0.003153 -0.002433 0.021455 0.006712
# 6 0.000287 -0.000617 -0.004420 -0.004824 0.006712 0.038141
#
#
# Mechanical properties :
#
#
# Convention : Reuss Voigt Hill
#
# Bulk Modulus (GPa) = 32.64304 59.56891 46.10597
# Shear Modulus (GPa) = 31.28793 41.37991 36.33392
#
# Velocity S-wave (km/s) = 3.55620 4.08971 3.83225
# Velocity P-wave (km/s) = 5.48236 6.81018 6.18202
#
# Compressibility (1/GPa) = 0.03063440
#
# Stress axis : x y z
#
# Youngs Moduli (GPa) = 133.25840 59.83274 57.83496
#
# Poissons Ratio (x) = 0.14280 0.19981
# Poissons Ratio (y) = 0.31804 -0.02340
# Poissons Ratio (z) = 0.46039 -0.02421
#
# Static dielectric constant tensor:
#      x y z
#    x 2.046080 -0.025150 -0.071730 
#    y -0.025150 1.990450 -0.035030 
#    z -0.071730 -0.035030 2.005230 
# 
# From -- ./inp_files/532652.got.cif
#   From: 2010.05.17/outbox.cif.g08.bks.cpg/sg2_267_cif.got.tgz:532652.got - 2010.06.03 11:33:40.
