data_PCOD9045778
_publ_section_title
;
Structure prediction by ZEFSAII (Michael W. Deem and Ramdas Pophale) SiO2 
 PCOD9045778
Probable space group: P -1
;
_chemical_formula_sum "Si O2"
_cell_formula_units_Z 12
_cell_length_a 16.060562
_cell_length_b 9.852829
_cell_length_c 12.303862
_cell_angle_alpha 38.504790
_cell_angle_beta 26.628463
_cell_angle_gamma 34.316063
_cell_volume 484.367987
_symmetry_space_group_name_H-M "P -1"
_symmetry_group_IT_number 2
_symmetry_cell_setting 'triclinic'
loop_
_space_group_symop_operation_xyz
x,y,z
-x,-y,-z
loop_
_atom_site_type_symbol
_atom_site_label
_atom_site_fract_x
_atom_site_fract_y
_atom_site_fract_z
Si Si1 0.298826 0.249025 0.102958
Si Si2 0.998014 0.086983 0.633998
Si Si3 0.436458 0.841746 0.592630
Si Si4 0.650561 0.471580 0.941898
Si Si5 0.827833 0.762707 0.072777
Si Si6 0.153866 0.755307 0.835836
O O1 0.316614 0.321672 0.162160
O O2 0.092977 0.206439 0.365614
O O3 0.267957 0.475636 0.918629
O O4 0.500000 0.000000 0.000000
O O5 0.873131 0.278891 0.754585
O O6 0.184995 0.847697 0.622522
O O7 0.841729 0.974658 0.851207
O O8 0.605517 0.775692 0.340730
O O9 0.216079 0.914150 0.746063
O O10 0.500000 0.000000 0.500000
O O11 0.452200 0.622450 0.786408
O O12 0.500000 0.500000 0.000000
O O13 0.000000 0.500000 0.000000
O O14 0.915857 0.804856 0.060672
#
# Coordination Sequence:
#
# PCOD9045778 Si02
#       6
#     2   2   2   2   2   2
#     4  11  26  45  69 104 136 187 233 285 360 410
#     4  10  24  45  69  99 138 186 230 285 358 403
#     4  11  22  42  68 100 131 181 235 275 350 411
#     4  11  26  42  68 102 139 182 236 291 342 422
#     4  10  24  41  69 103 132 180 229 281 352 410
#     4   9  25  44  72  96 141 178 230 288 341 414
#
# _framework density 24.774550000000001
#
# number of rings (size 3 to 8) (size 9 to 14) (size 15 to 20)
#    1.000    0.667    1.667    0.500    9.333   10.000 
#    0.000    1.667    0.000    0.000    0.000    0.000 
#    0.000    0.000    0.000    0.000    0.000    0.000 
#
# Total GULP energy -66826.377443 kJ/mol
# GULP energy per Si atom -5568.864787 kJ/mol
# Density = 2.471816 g / cm^3
# Si number density = 24.774550 Si / 1000 Ang^3
#
#
#
# Elastic Constant Matrix: (Units=GPa)
#
#
# Indices 1 2 3 4 5 6 
#
# 1 100.3592 6.4977 18.8883 4.2821 -11.7465 -8.4862
# 2 6.4977 96.8197 40.7184 8.2831 -0.6552 20.3104
# 3 18.8883 40.7184 143.5889 5.3319 -18.8525 14.6990
# 4 4.2821 8.2831 5.3319 31.2194 -7.8490 2.6947
# 5 -11.7465 -0.6552 -18.8525 -7.8490 29.4077 0.2759
# 6 -8.4862 20.3104 14.6990 2.6947 0.2759 36.7261
#
#
#
# Elastic Compliance Matrix: (Units=1/GPa)
#
#
# Indices 1 2 3 4 5 6 
#
# 1 0.010951 -0.000962 -0.001045 -0.000484 0.003521 0.003490
# 2 -0.000962 0.013281 -0.003301 -0.003055 -0.002964 -0.006000
# 3 -0.001045 -0.003301 0.008943 0.001069 0.005548 -0.002115
# 4 -0.000484 -0.003055 0.001069 0.035338 0.009870 -0.001517
# 5 0.003521 -0.002964 0.005548 0.009870 0.041543 -0.000804
# 6 0.003490 -0.006000 -0.002115 -0.001517 -0.000804 0.032317
#
#
# Mechanical properties :
#
#
# Convention : Reuss Voigt Hill
#
# Bulk Modulus (GPa) = 44.32835 52.55296 48.44065
# Shear Modulus (GPa) = 31.15074 37.78153 34.46614
#
# Velocity S-wave (km/s) = 3.54979 3.90938 3.73391
# Velocity P-wave (km/s) = 5.89346 6.45261 6.17936
#
# Compressibility (1/GPa) = 0.02255893
#
# Stress axis : x y z
#
# Youngs Moduli (GPa) = 91.31583 75.29380 111.81848
#
# Poissons Ratio (x) = 0.07247 0.11680
# Poissons Ratio (y) = 0.08789 0.36913
# Poissons Ratio (z) = 0.09539 0.24856
#
# Static dielectric constant tensor:
#      x y z
#    x 2.172150 0.033740 -0.125710 
#    y 0.033740 2.034020 -0.023780 
#    z -0.125710 -0.023780 2.075700 
# 
# From -- ./inp_files/541040.got.cif
#   From: 2010.05.17/outbox.cif.g08.bks.cpg/sg2_271_cif.got.tgz:541040.got - 2010.06.03 11:33:40.
