data_PCOD9045173
_publ_section_title
;
Structure prediction by ZEFSAII (Michael W. Deem and Ramdas Pophale) SiO2 
 PCOD9045173
Probable space group: P -1
;
_chemical_formula_sum "Si O2"
_cell_formula_units_Z 12
_cell_length_a 9.114189
_cell_length_b 7.846589
_cell_length_c 10.627687
_cell_angle_alpha 133.075680
_cell_angle_beta 103.997609
_cell_angle_gamma 102.202904
_cell_volume 456.366090
_symmetry_space_group_name_H-M "P -1"
_symmetry_group_IT_number 2
_symmetry_cell_setting 'triclinic'
loop_
_space_group_symop_operation_xyz
x,y,z
-x,-y,-z
loop_
_atom_site_type_symbol
_atom_site_label
_atom_site_fract_x
_atom_site_fract_y
_atom_site_fract_z
Si Si1 0.061713 0.918058 0.322711
Si Si2 0.318420 0.736234 0.376928
Si Si3 0.860225 0.065686 0.945720
Si Si4 0.663218 0.470422 0.981686
Si Si5 0.482885 0.848538 0.730029
Si Si6 0.137097 0.529458 0.651079
O O1 0.176434 0.831087 0.385460
O O2 0.103663 0.880607 0.168241
O O3 0.115607 0.232567 0.507093
O O4 0.850433 0.717134 0.196758
O O5 0.293617 0.525850 0.156018
O O6 0.360985 0.690430 0.503309
O O7 0.500000 0.000000 0.500000
O O8 0.650734 0.826406 0.790362
O O9 0.893640 0.326364 0.164617
O O10 0.000000 0.000000 0.000000
O O11 0.590677 0.168822 0.872211
O O12 0.500000 0.500000 0.000000
O O13 0.339671 0.748403 0.759736
O O14 0.000000 0.500000 0.500000
#
# Coordination Sequence:
#
# PCOD9045173 Si02
#       6
#     2   2   2   2   2   2
#     4  12  26  53  80 118 155 207 257 326 386 461
#     4  10  23  50  80 112 155 202 260 319 388 461
#     4  12  27  52  80 114 160 205 257 322 389 464
#     4  11  25  47  79 115 157 200 256 322 390 451
#     4  11  27  54  76 115 155 205 259 320 387 463
#     4  12  28  51  81 116 156 206 263 314 389 466
#
# _framework density 26.294675999999999
#
# number of rings (size 3 to 8) (size 9 to 14) (size 15 to 20)
#    0.000    0.667    5.000    2.000    2.333    3.333 
#    9.000    6.667    0.000    0.000    0.000    0.000 
#    0.000    0.000    0.000    0.000    0.000    0.000 
#
# Total GULP energy -67277.298624 kJ/mol
# GULP energy per Si atom -5606.441552 kJ/mol
# Density = 2.623483 g / cm^3
# Si number density = 26.294676 Si / 1000 Ang^3
#
#
#
# Elastic Constant Matrix: (Units=GPa)
#
#
# Indices 1 2 3 4 5 6 
#
# 1 228.6703 75.0486 91.1604 15.6984 14.6311 -20.0237
# 2 75.0486 113.1224 85.0567 8.1397 -10.6160 -16.7616
# 3 91.1604 85.0567 166.3885 -13.0432 -18.3497 -10.6648
# 4 15.6984 8.1397 -13.0432 45.8404 2.5428 15.2747
# 5 14.6311 -10.6160 -18.3497 2.5428 69.7581 -4.2314
# 6 -20.0237 -16.7616 -10.6648 15.2747 -4.2314 51.7598
#
#
#
# Elastic Compliance Matrix: (Units=1/GPa)
#
#
# Indices 1 2 3 4 5 6 
#
# 1 0.006821 -0.001687 -0.003260 -0.003604 -0.002274 0.002298
# 2 -0.001687 0.017370 -0.007968 -0.006660 0.001473 0.005417
# 3 -0.003260 -0.007968 0.012471 0.007001 0.002305 -0.003150
# 4 -0.003604 -0.006660 0.007001 0.029878 -0.000169 -0.010939
# 5 -0.002274 0.001473 0.002305 -0.000169 0.015734 0.001408
# 6 0.002298 0.005417 -0.003150 -0.010939 0.001408 0.024658
#
#
# Mechanical properties :
#
#
# Convention : Reuss Voigt Hill
#
# Bulk Modulus (GPa) = 92.32811 112.30142 102.31476
# Shear Modulus (GPa) = 36.66428 50.59936 43.63182
#
# Velocity S-wave (km/s) = 3.73817 4.39147 4.07792
# Velocity P-wave (km/s) = 7.33627 8.27737 7.82099
#
# Compressibility (1/GPa) = 0.01083094
#
# Stress axis : x y z
#
# Youngs Moduli (GPa) = 146.61137 57.56974 80.18874
#
# Poissons Ratio (x) = 0.09713 0.26145
# Poissons Ratio (y) = 0.24736 0.63892
# Poissons Ratio (z) = 0.47802 0.45870
#
# Static dielectric constant tensor:
#      x y z
#    x 2.076500 -0.037950 -0.021270 
#    y -0.037950 2.109560 -0.041030 
#    z -0.021270 -0.041030 2.143810 
# 
# From -- ./inp_files/377435.got.cif
#   From: 2010.05.17/outbox.cif.g08.bks.cpg/sg2_189_cif.got.tgz:377435.got - 2010.06.03 11:33:40.
