data_PCOD9045767
_publ_section_title
;
Structure prediction by ZEFSAII (Michael W. Deem and Ramdas Pophale) SiO2 
 PCOD9045767
Probable space group: P -1
;
_chemical_formula_sum "Si O2"
_cell_formula_units_Z 16
_cell_length_a 10.974642
_cell_length_b 13.016424
_cell_length_c 10.611340
_cell_angle_alpha 78.375628
_cell_angle_beta 41.869355
_cell_angle_gamma 108.563231
_cell_volume 691.304654
_symmetry_space_group_name_H-M "P -1"
_symmetry_group_IT_number 2
_symmetry_cell_setting 'triclinic'
loop_
_space_group_symop_operation_xyz
x,y,z
-x,-y,-z
loop_
_atom_site_type_symbol
_atom_site_label
_atom_site_fract_x
_atom_site_fract_y
_atom_site_fract_z
Si Si1 0.297366 0.656948 0.260977
Si Si2 0.773429 0.355704 0.294974
Si Si3 0.946866 0.212774 0.090273
Si Si4 0.232835 0.850245 0.301918
Si Si5 0.724831 0.924298 0.674449
Si Si6 0.548642 0.431177 0.638649
Si Si7 0.240738 0.098641 0.629394
Si Si8 0.976036 0.773871 0.246257
O O1 0.257352 0.742999 0.357752
O O2 0.457002 0.628283 0.206825
O O3 0.000000 0.500000 0.500000
O O4 0.478681 0.780147 0.980394
O O5 0.728893 0.421555 0.425817
O O6 0.483538 0.233462 0.491295
O O7 0.852610 0.264526 0.245762
O O8 0.000000 0.500000 0.000000
O O9 0.261388 0.331260 0.830497
O O10 0.876077 0.208752 0.997727
O O11 0.840502 0.053036 0.240528
O O12 0.055420 0.783174 0.328209
O O13 0.212583 0.925784 0.408999
O O14 0.500000 0.000000 0.000000
O O15 0.681676 0.865544 0.584162
O O16 0.000000 0.000000 0.500000
O O17 0.695682 0.602014 0.493929
O O18 0.023307 0.100506 0.806803
#
# Coordination Sequence:
#
# PCOD9045767 Si02
#       8
#     2   2   2   2   2   2   2   2
#     4  11  25  46  71 103 140 192 240 297 356 431
#     4  12  27  46  72 106 144 190 235 293 364 429
#     4  12  27  47  73 108 146 188 241 296 361 428
#     4  10  24  41  68  98 139 191 233 287 361 417
#     4  11  24  46  68 102 142 185 242 293 360 424
#     4  12  26  48  74 105 150 187 239 293 369 432
#     4  12  27  45  72 105 144 187 241 299 353 431
#     4  12  23  47  71 102 148 188 233 295 366 422
#
# _framework density 23.144644
#
# number of rings (size 3 to 8) (size 9 to 14) (size 15 to 20)
#    0.000    0.500    5.000    2.625    8.750    0.000 
#    0.000    1.250    0.000    0.000    0.000    0.000 
#    0.000    0.000    0.000    0.000    0.000    0.000 
#
# Total GULP energy -89225.745989 kJ/mol
# GULP energy per Si atom -5576.609124 kJ/mol
# Density = 2.309197 g / cm^3
# Si number density = 23.144644 Si / 1000 Ang^3
#
#
#
# Elastic Constant Matrix: (Units=GPa)
#
#
# Indices 1 2 3 4 5 6 
#
# 1 50.1078 2.9054 1.8635 -3.9171 2.1205 -8.7034
# 2 2.9054 109.2817 13.3354 -5.8178 4.7102 -16.3346
# 3 1.8635 13.3354 63.9553 -11.3764 -3.6116 9.6428
# 4 -3.9171 -5.8178 -11.3764 48.2108 1.0467 0.8891
# 5 2.1205 4.7102 -3.6116 1.0467 28.4873 -0.1263
# 6 -8.7034 -16.3346 9.6428 0.8891 -0.1263 37.7313
#
#
#
# Elastic Compliance Matrix: (Units=1/GPa)
#
#
# Indices 1 2 3 4 5 6 
#
# 1 0.021109 0.000580 -0.001415 0.001392 -0.001874 0.005443
# 2 0.000580 0.010435 -0.003034 0.000537 -0.002149 0.005407
# 3 -0.001415 -0.003034 0.018106 0.003849 0.002733 -0.006348
# 4 0.001392 0.000537 0.003849 0.021857 -0.000512 -0.000947
# 5 -0.001874 -0.002149 0.002733 -0.000512 0.035955 -0.001928
# 6 0.005443 0.005407 -0.006348 -0.000947 -0.001928 0.031738
#
#
# Mechanical properties :
#
#
# Convention : Reuss Voigt Hill
#
# Bulk Modulus (GPa) = 23.85905 28.83925 26.34915
# Shear Modulus (GPa) = 31.07371 36.56858 33.82114
#
# Velocity S-wave (km/s) = 3.66811 3.97924 3.82684
# Velocity P-wave (km/s) = 5.31706 5.79654 5.56197
#
# Compressibility (1/GPa) = 0.04191282
#
# Stress axis : x y z
#
# Youngs Moduli (GPa) = 47.37217 95.83323 55.23070
#
# Poissons Ratio (x) = -0.05557 0.07814
# Poissons Ratio (y) = -0.02747 0.16755
# Poissons Ratio (z) = 0.06703 0.29072
#
# Static dielectric constant tensor:
#      x y z
#    x 1.907630 -0.148720 -0.051040 
#    y -0.148720 2.361730 0.192170 
#    z -0.051040 0.192170 1.849720 
# 
# From -- ./inp_files/239953.got.cif
#   From: 2010.05.17/outbox.cif.g08.bks.cpg/sg2_120_cif.got.tgz:239953.got - 2010.06.03 11:33:40.
