data_PCOD9045323
_publ_section_title
;
Structure prediction by ZEFSAII (Michael W. Deem and Ramdas Pophale) SiO2 
 PCOD9045323
Probable space group: P -1
;
_chemical_formula_sum "Si O2"
_cell_formula_units_Z 14
_cell_length_a 9.071847
_cell_length_b 11.717893
_cell_length_c 15.005302
_cell_angle_alpha 136.926504
_cell_angle_beta 33.077377
_cell_angle_gamma 125.351153
_cell_volume 592.132035
_symmetry_space_group_name_H-M "P -1"
_symmetry_group_IT_number 2
_symmetry_cell_setting 'triclinic'
loop_
_space_group_symop_operation_xyz
x,y,z
-x,-y,-z
loop_
_atom_site_type_symbol
_atom_site_label
_atom_site_fract_x
_atom_site_fract_y
_atom_site_fract_z
Si Si1 0.187333 0.843874 0.053012
Si Si2 0.680198 0.595527 0.619456
Si Si3 0.460201 0.040057 0.894448
Si Si4 0.630482 0.203584 0.741591
Si Si5 0.784404 0.709698 0.456825
Si Si6 0.236394 0.698549 0.448040
Si Si7 0.349434 0.149959 0.572243
O O1 0.889488 0.811848 0.214442
O O2 0.340799 0.899195 0.096027
O O3 0.380948 0.684481 0.831634
O O4 0.206750 0.980676 0.042860
O O5 0.746857 0.561997 0.462246
O O6 0.723221 0.453503 0.590438
O O7 0.919961 0.717552 0.592593
O O8 0.612292 0.872330 0.679108
O O9 0.420127 0.173090 0.909738
O O10 0.598717 0.328555 0.744555
O O11 0.903461 0.249368 0.678061
O O12 0.682429 0.024751 0.561800
O O13 0.682656 0.706822 0.406191
O O14 0.367092 0.845021 0.518430
#
# Coordination Sequence:
#
# PCOD9045323 Si02
#       7
#     2   2   2   2   2   2   2
#     4  10  18  31  58  82  99 132 180 223 249 301
#     4   9  21  39  54  71 105 151 174 200 264 316
#     4   9  16  29  53  80 105 129 174 210 260 304
#     4  10  17  34  53  80 107 141 163 210 266 327
#     4   9  16  32  58  77 103 135 177 212 252 317
#     4  10  22  36  54  73 111 144 173 205 258 326
#     4  11  19  32  59  86  99 127 182 228 254 288
#
# _framework density 23.643374000000001
#
# number of rings (size 3 to 8) (size 9 to 14) (size 15 to 20)
#    0.000    2.286    2.857    1.286    2.000    1.143 
#    0.000    1.429    6.286    0.000    0.000    0.000 
#    0.000    0.000    0.000    0.000    0.000    0.000 
#
# Total GULP energy -78115.416245 kJ/mol
# GULP energy per Si atom -5579.672589 kJ/mol
# Density = 2.358956 g / cm^3
# Si number density = 23.643374 Si / 1000 Ang^3
#
#
#
# Elastic Constant Matrix: (Units=GPa)
#
#
# Indices 1 2 3 4 5 6 
#
# 1 115.4802 32.2609 24.7835 -26.0936 8.1978 -23.8488
# 2 32.2609 73.5870 29.2642 -31.3667 15.3737 -38.0219
# 3 24.7835 29.2642 80.8627 -28.3889 7.3171 -14.7346
# 4 -26.0936 -31.3667 -28.3889 24.3542 -15.1415 18.2701
# 5 8.1978 15.3737 7.3171 -15.1415 30.1969 -18.8884
# 6 -23.8488 -38.0219 -14.7346 18.2701 -18.8884 50.3109
#
#
#
# Elastic Compliance Matrix: (Units=1/GPa)
#
#
# Indices 1 2 3 4 5 6 
#
# 1 0.012786 0.004408 0.003556 0.025875 0.009209 0.004495
# 2 0.004408 0.044424 0.009342 0.071173 0.022822 0.021121
# 3 0.003556 0.009342 0.026110 0.054785 0.017293 0.002990
# 4 0.025875 0.071173 0.054785 0.264861 0.088169 0.019018
# 5 0.009209 0.022822 0.017293 0.088169 0.072764 0.021977
# 6 0.004495 0.021121 0.002990 0.019018 0.021977 0.040189
#
#
# Mechanical properties :
#
#
# Convention : Reuss Voigt Hill
#
# Bulk Modulus (GPa) = 8.47940 49.17192 28.82566
# Shear Modulus (GPa) = 10.73348 33.21384 21.97366
#
# Velocity S-wave (km/s) = 2.13298 3.75211 3.05188
# Velocity P-wave (km/s) = 3.10810 6.29393 4.96356
#
# Compressibility (1/GPa) = 0.11793286
#
# Stress axis : x y z
#
# Youngs Moduli (GPa) = 78.21027 22.51017 38.29988
#
# Poissons Ratio (x) = -0.09923 -0.13618
# Poissons Ratio (y) = -0.34478 -0.35781
# Poissons Ratio (z) = -0.27809 -0.21030
#
# Static dielectric constant tensor:
#      x y z
#    x 1.887640 -0.040180 0.040860 
#    y -0.040180 2.050580 -0.039580 
#    z 0.040860 -0.039580 1.846140 
# 
# From -- ./inp_files/168580.got.cif
#   From: 2010.05.17/outbox.cif.g08.bks.cpg/sg2_85_cif.got.tgz:168580.got - 2010.06.03 11:33:40.
