data_PCOD9045096
_publ_section_title
;
Structure prediction by ZEFSAII (Michael W. Deem and Ramdas Pophale) SiO2 
 PCOD9045096
Probable space group: P -1
;
_chemical_formula_sum "Si O2"
_cell_formula_units_Z 16
_cell_length_a 6.739522
_cell_length_b 11.314961
_cell_length_c 11.731195
_cell_angle_alpha 88.018306
_cell_angle_beta 123.576885
_cell_angle_gamma 99.481149
_cell_volume 733.401164
_symmetry_space_group_name_H-M "P -1"
_symmetry_group_IT_number 2
_symmetry_cell_setting 'triclinic'
loop_
_space_group_symop_operation_xyz
x,y,z
-x,-y,-z
loop_
_atom_site_type_symbol
_atom_site_label
_atom_site_fract_x
_atom_site_fract_y
_atom_site_fract_z
Si Si1 0.360054 0.471736 0.191740
Si Si2 0.500609 0.137381 0.034535
Si Si3 0.847645 0.392003 0.382438
Si Si4 0.965109 0.139708 0.823844
Si Si5 0.837844 0.310160 0.974365
Si Si6 0.737686 0.676298 0.633005
Si Si7 0.652035 0.195596 0.516606
Si Si8 0.663809 0.889557 0.759615
O O1 0.615328 0.430947 0.244394
O O2 0.336679 0.600761 0.130826
O O3 0.359766 0.449340 0.329569
O O4 0.104127 0.390718 0.074995
O O5 0.715051 0.232817 0.044799
O O6 0.251412 0.169995 0.907477
O O7 0.470325 0.138258 0.162160
O O8 0.500000 0.000000 0.000000
O O9 0.760884 0.290187 0.451350
O O10 0.000000 0.500000 0.500000
O O11 0.024385 0.341136 0.354319
O O12 0.870926 0.216748 0.889783
O O13 0.841780 0.165095 0.666125
O O14 0.877929 0.000845 0.833481
O O15 0.549623 0.734339 0.493630
O O16 0.760022 0.776461 0.738158
O O17 0.520338 0.085876 0.399677
#
# Coordination Sequence:
#
# PCOD9045096 Si02
#       8
#     2   2   2   2   2   2   2   2
#     4  10  25  46  71 107 140 197 235 305 355 431
#     4  12  27  44  74 106 142 193 247 297 357 436
#     4  11  25  43  75 107 142 187 248 290 366 434
#     4  12  25  45  73 107 147 188 246 300 361 432
#     4  11  27  46  72 104 152 188 246 299 364 422
#     4   9  23  43  73  96 148 184 236 290 367 422
#     4   9  25  43  69 107 143 188 235 296 362 432
#     4  10  23  49  70 105 144 196 235 294 372 430
#
# _framework density 21.816164000000001
#
# number of rings (size 3 to 8) (size 9 to 14) (size 15 to 20)
#    0.750    0.750    1.250    1.500    8.750    1.000 
#    0.000    5.625    0.000    0.000    0.000    0.000 
#    0.000    0.000    0.000    0.000    0.000    0.000 
#
# Total GULP energy -89273.893027 kJ/mol
# GULP energy per Si atom -5579.618314 kJ/mol
# Density = 2.176651 g / cm^3
# Si number density = 21.816164 Si / 1000 Ang^3
#
#
#
# Elastic Constant Matrix: (Units=GPa)
#
#
# Indices 1 2 3 4 5 6 
#
# 1 157.3493 41.5129 48.5169 -2.0246 -1.5388 -18.3152
# 2 41.5129 91.0186 19.3274 -1.0570 -18.1090 -0.4540
# 3 48.5169 19.3274 132.2908 -8.1432 9.3149 -13.6641
# 4 -2.0246 -1.0570 -8.1432 35.7594 -6.2205 5.9564
# 5 -1.5388 -18.1090 9.3149 -6.2205 16.0398 2.3641
# 6 -18.3152 -0.4540 -13.6641 5.9564 2.3641 33.7478
#
#
#
# Elastic Compliance Matrix: (Units=1/GPa)
#
#
# Indices 1 2 3 4 5 6 
#
# 1 0.008514 -0.004338 -0.001829 -0.001536 -0.004261 0.004391
# 2 -0.004338 0.018762 -0.003267 0.005018 0.025508 -0.006097
# 3 -0.001829 -0.003267 0.009789 -0.000370 -0.010239 0.003709
# 4 -0.001536 0.005018 -0.000370 0.032694 0.019600 -0.008059
# 5 -0.004261 0.025508 -0.010239 0.019600 0.106796 -0.017056
# 6 0.004391 -0.006097 0.003709 -0.008059 -0.017056 0.036051
#
#
# Mechanical properties :
#
#
# Convention : Reuss Voigt Hill
#
# Bulk Modulus (GPa) = 54.96086 66.59702 60.77894
# Shear Modulus (GPa) = 21.04911 35.19617 28.12264
#
# Velocity S-wave (km/s) = 3.10956 4.02096 3.59426
# Velocity P-wave (km/s) = 6.17575 7.22151 6.71901
#
# Compressibility (1/GPa) = 0.01819477
#
# Stress axis : x y z
#
# Youngs Moduli (GPa) = 117.45936 53.29871 102.15952
#
# Poissons Ratio (x) = 0.23123 0.18689
# Poissons Ratio (y) = 0.50957 0.33376
# Poissons Ratio (z) = 0.21488 0.17413
#
# Static dielectric constant tensor:
#      x y z
#    x 1.811870 0.018690 0.049330 
#    y 0.018690 1.847160 0.037530 
#    z 0.049330 0.037530 1.870750 
# 
# From -- ./inp_files/364398.got.cif
#   From: 2010.05.17/outbox.cif.g08.bks.cpg/sg2_183_cif.got.tgz:364398.got - 2010.06.03 11:33:40.
