data_PCOD9045213
_publ_section_title
;
Structure prediction by ZEFSAII (Michael W. Deem and Ramdas Pophale) SiO2 
 PCOD9045213
Probable space group: P -1
;
_chemical_formula_sum "Si O2"
_cell_formula_units_Z 16
_cell_length_a 27.717595
_cell_length_b 14.419495
_cell_length_c 8.264286
_cell_angle_alpha 125.622819
_cell_angle_beta 138.937837
_cell_angle_gamma 22.284754
_cell_volume 729.428316
_symmetry_space_group_name_H-M "P -1"
_symmetry_group_IT_number 2
_symmetry_cell_setting 'triclinic'
loop_
_space_group_symop_operation_xyz
x,y,z
-x,-y,-z
loop_
_atom_site_type_symbol
_atom_site_label
_atom_site_fract_x
_atom_site_fract_y
_atom_site_fract_z
Si Si1 0.491322 0.951624 0.755254
Si Si2 0.830805 0.471052 0.641475
Si Si3 0.106969 0.620593 0.938718
Si Si4 0.629545 0.347482 0.818813
Si Si5 0.659884 0.468131 0.273818
Si Si6 0.973360 0.850077 0.509152
Si Si7 0.857596 0.158082 0.974934
Si Si8 0.491439 0.707339 0.422237
O O1 0.432370 0.903024 0.566729
O O2 0.352781 0.210540 0.552719
O O3 0.688478 0.671020 0.892656
O O4 0.500000 0.000000 0.000000
O O5 0.776416 0.413904 0.469948
O O6 0.960580 0.300528 0.642068
O O7 0.896958 0.425331 0.936489
O O8 0.994253 0.745701 0.620104
O O9 0.024355 0.863620 0.010500
O O10 0.500000 0.500000 0.500000
O O11 0.807837 0.145251 0.985454
O O12 0.633178 0.225344 0.803206
O O13 0.559615 0.552783 0.955453
O O14 0.527407 0.683967 0.302673
O O15 0.790184 0.178937 0.361320
O O16 0.110262 0.761996 0.795173
O O17 0.685195 0.401259 0.672982
#
# Coordination Sequence:
#
# PCOD9045213 Si02
#       8
#     2   2   2   2   2   2   2   2
#     4  12  24  39  60  90 129 166 202 249 307 368
#     4  12  23  35  60  97 124 160 197 249 314 367
#     4  12  22  37  61  93 127 154 199 262 311 361
#     4  10  24  37  59  91 123 162 200 253 306 365
#     4  12  21  38  65  94 124 153 207 254 315 363
#     4  12  20  37  63  97 125 151 194 269 317 354
#     4  11  18  38  61  90 121 150 203 257 311 356
#     4  11  22  39  60  89 125 164 201 244 305 368
#
# _framework density 21.934987
#
# number of rings (size 3 to 8) (size 9 to 14) (size 15 to 20)
#    0.000    0.500    7.500    2.250    1.750    0.000 
#    0.000    0.000    0.000    3.750    0.000    0.000 
#    0.000    0.000    0.000    0.000    0.000    0.000 
#
# Total GULP energy -89309.782673 kJ/mol
# GULP energy per Si atom -5581.861417 kJ/mol
# Density = 2.188506 g / cm^3
# Si number density = 21.934987 Si / 1000 Ang^3
#
#
#
# Elastic Constant Matrix: (Units=GPa)
#
#
# Indices 1 2 3 4 5 6 
#
# 1 79.1703 25.4268 32.4367 19.1657 -22.2894 -16.1257
# 2 25.4268 100.4105 20.6303 -0.7417 -15.6505 -5.4525
# 3 32.4367 20.6303 77.3706 12.9310 -14.7155 1.0011
# 4 19.1657 -0.7417 12.9310 38.8104 7.4173 -14.9611
# 5 -22.2894 -15.6505 -14.7155 7.4173 44.2698 0.7695
# 6 -16.1257 -5.4525 1.0011 -14.9611 0.7695 30.3598
#
#
#
# Elastic Compliance Matrix: (Units=1/GPa)
#
#
# Indices 1 2 3 4 5 6 
#
# 1 0.021711 -0.002603 -0.005344 -0.008098 0.009469 0.007010
# 2 -0.002603 0.011428 -0.002145 0.002713 0.001526 0.002039
# 3 -0.005344 -0.002145 0.017666 -0.006785 0.003686 -0.007243
# 4 -0.008098 0.002713 -0.006785 0.041001 -0.012537 0.016933
# 5 0.009469 0.001526 0.003686 -0.012537 0.031253 -0.001788
# 6 0.007010 0.002039 -0.007243 0.016933 -0.001788 0.045656
#
#
# Mechanical properties :
#
#
# Convention : Reuss Voigt Hill
#
# Bulk Modulus (GPa) = 32.65887 45.99324 39.32605
# Shear Modulus (GPa) = 25.11225 34.58516 29.84871
#
# Velocity S-wave (km/s) = 3.38723 3.97509 3.69288
# Velocity P-wave (km/s) = 5.49719 6.48706 6.01253
#
# Compressibility (1/GPa) = 0.03061955
#
# Stress axis : x y z
#
# Youngs Moduli (GPa) = 46.06025 87.50672 56.60613
#
# Poissons Ratio (x) = 0.22778 0.30251
# Poissons Ratio (y) = 0.11989 0.12144
# Poissons Ratio (z) = 0.24615 0.18773
#
# Static dielectric constant tensor:
#      x y z
#    x 1.912350 -0.008390 -0.087270 
#    y -0.008390 1.796050 -0.019490 
#    z -0.087270 -0.019490 1.868870 
# 
# From -- ./inp_files/358881.got.cif
#   From: 2010.05.17/outbox.cif.g08.bks.cpg/sg2_180_cif.got.tgz:358881.got - 2010.06.03 11:33:40.
