data_PCOD9045885
_publ_section_title
;
Structure prediction by ZEFSAII (Michael W. Deem and Ramdas Pophale) SiO2 
 PCOD9045885
Probable space group: P -1
;
_chemical_formula_sum "Si O2"
_cell_formula_units_Z 16
_cell_length_a 13.940991
_cell_length_b 9.404635
_cell_length_c 7.805675
_cell_angle_alpha 75.768347
_cell_angle_beta 69.933877
_cell_angle_gamma 120.266950
_cell_volume 711.072854
_symmetry_space_group_name_H-M "P -1"
_symmetry_group_IT_number 2
_symmetry_cell_setting 'triclinic'
loop_
_space_group_symop_operation_xyz
x,y,z
-x,-y,-z
loop_
_atom_site_type_symbol
_atom_site_label
_atom_site_fract_x
_atom_site_fract_y
_atom_site_fract_z
Si Si1 0.979513 0.866066 0.711609
Si Si2 0.544427 0.124162 0.698797
Si Si3 0.322945 0.392553 0.053811
Si Si4 0.752878 0.548868 0.546422
Si Si5 0.971229 0.304360 0.544921
Si Si6 0.464073 0.192600 0.362998
Si Si7 0.692214 0.932649 0.965849
Si Si8 0.232018 0.142366 0.699224
O O1 0.825938 0.734147 0.897097
O O2 0.007443 0.733347 0.650254
O O3 0.082533 0.992796 0.761728
O O4 0.000000 0.000000 0.500000
O O5 0.676490 0.327187 0.625671
O O6 0.514527 0.169859 0.518272
O O7 0.421947 0.057999 0.915526
O O8 0.554650 0.960977 0.708559
O O9 0.299634 0.429439 0.249772
O O10 0.427920 0.592211 0.835305
O O11 0.360932 0.256440 0.053705
O O12 0.910976 0.668031 0.430352
O O13 0.725193 0.647745 0.393635
O O14 0.000000 0.500000 0.500000
O O15 0.822685 0.122811 0.744142
O O16 0.325944 0.144477 0.505693
O O17 0.742324 0.909342 0.121405
#
# Coordination Sequence:
#
# PCOD9045885 Si02
#       8
#     2   2   2   2   2   2   2   2
#     4  11  21  44  62  93 128 160 203 261 307 369
#     4  10  24  43  59  92 131 162 211 252 318 370
#     4  11  22  40  64  94 121 165 207 254 313 359
#     4  11  23  41  64  96 124 165 207 259 310 371
#     4  11  25  42  63  92 131 163 203 259 315 371
#     4  10  24  42  62  90 129 167 203 266 304 371
#     4  11  23  41  67  94 122 169 207 259 309 371
#     4  11  22  41  68  93 124 162 216 253 310 368
#
# _framework density 22.501208999999999
#
# number of rings (size 3 to 8) (size 9 to 14) (size 15 to 20)
#    0.000    1.250    3.750    1.500    5.250    8.500 
#    0.000    0.625    0.000    0.000    0.000    0.000 
#    0.000    0.000    0.000    0.000    0.000    0.000 
#
# Total GULP energy -89623.562712 kJ/mol
# GULP energy per Si atom -5601.472669 kJ/mol
# Density = 2.245000 g / cm^3
# Si number density = 22.501209 Si / 1000 Ang^3
#
#
#
# Elastic Constant Matrix: (Units=GPa)
#
#
# Indices 1 2 3 4 5 6 
#
# 1 67.8331 28.5922 27.2683 -7.3645 -9.7042 -0.4832
# 2 28.5922 163.4897 44.5040 -10.7099 -16.9845 -27.6548
# 3 27.2683 44.5040 97.2731 -6.1158 -23.0548 -6.2807
# 4 -7.3645 -10.7099 -6.1158 37.4135 9.1566 -1.8289
# 5 -9.7042 -16.9845 -23.0548 9.1566 34.6979 1.2559
# 6 -0.4832 -27.6548 -6.2807 -1.8289 1.2559 49.7922
#
#
#
# Elastic Compliance Matrix: (Units=1/GPa)
#
#
# Indices 1 2 3 4 5 6 
#
# 1 0.017427 -0.002053 -0.003687 0.001938 0.000958 -0.001389
# 2 -0.002053 0.008073 -0.002473 0.001410 0.001211 0.004173
# 3 -0.003687 -0.002473 0.014151 -0.000924 0.007399 0.000155
# 4 0.001938 0.001410 -0.000924 0.029210 -0.007160 0.001939
# 5 0.000958 0.001211 0.007399 -0.007160 0.036471 0.000433
# 6 -0.001389 0.004173 0.000155 0.001939 0.000433 0.022468
#
#
# Mechanical properties :
#
#
# Convention : Reuss Voigt Hill
#
# Bulk Modulus (GPa) = 43.05523 58.81386 50.93454
# Shear Modulus (GPa) = 32.90223 39.59616 36.24920
#
# Velocity S-wave (km/s) = 3.82808 4.19947 4.01807
# Velocity P-wave (km/s) = 6.22214 7.05045 6.64921
#
# Compressibility (1/GPa) = 0.02322598
#
# Stress axis : x y z
#
# Youngs Moduli (GPa) = 57.38250 123.87259 70.66736
#
# Poissons Ratio (x) = 0.25426 0.26054
# Poissons Ratio (y) = 0.11778 0.17475
# Poissons Ratio (z) = 0.21156 0.30632
#
# Static dielectric constant tensor:
#      x y z
#    x 1.851030 0.002170 0.021030 
#    y 0.002170 1.820370 0.022280 
#    z 0.021030 0.022280 1.800820 
# 
# From -- ./inp_files/190835.got.cif
#   From: 2010.05.17/outbox.cif.g08.bks.cpg/sg2_96_cif.got.tgz:190835.got - 2010.06.03 11:33:40.
