data_PCOD9045550
_publ_section_title
;
Structure prediction by ZEFSAII (Michael W. Deem and Ramdas Pophale) SiO2 
 PCOD9045550
Probable space group: P -1
;
_chemical_formula_sum "Si O2"
_cell_formula_units_Z 14
_cell_length_a 14.390684
_cell_length_b 15.142362
_cell_length_c 8.831284
_cell_angle_alpha 32.498584
_cell_angle_beta 38.928702
_cell_angle_gamma 39.321331
_cell_volume 609.067494
_symmetry_space_group_name_H-M "P -1"
_symmetry_group_IT_number 2
_symmetry_cell_setting 'triclinic'
loop_
_space_group_symop_operation_xyz
x,y,z
-x,-y,-z
loop_
_atom_site_type_symbol
_atom_site_label
_atom_site_fract_x
_atom_site_fract_y
_atom_site_fract_z
Si Si1 0.563210 0.477901 0.202048
Si Si2 0.692158 0.548688 0.657740
Si Si3 0.576480 0.225895 0.812212
Si Si4 0.109298 0.094524 0.643311
Si Si5 0.470250 0.936912 0.461662
Si Si6 0.072651 0.834677 0.540311
Si Si7 0.980024 0.505052 0.835148
O O1 0.403539 0.520638 0.243542
O O2 0.575129 0.312039 0.527365
O O3 0.537907 0.633202 0.130590
O O4 0.702531 0.445367 0.951258
O O5 0.851448 0.551108 0.379459
O O6 0.580359 0.741364 0.570642
O O7 0.754601 0.175979 0.717895
O O8 0.521444 0.062790 0.104159
O O9 0.287916 0.969821 0.620217
O O10 0.045472 0.128711 0.503975
O O11 0.101502 0.293652 0.409934
O O12 0.000000 0.000000 0.000000
O O13 0.500000 0.000000 0.500000
O O14 0.000000 0.000000 0.500000
O O15 0.091371 0.650278 0.866601
O O16 0.000000 0.500000 0.000000
#
# Coordination Sequence:
#
# PCOD9045550 Si02
#       7
#     2   2   2   2   2   2   2
#     4  10  24  40  72 100 139 185 242 292 353 420
#     4  11  24  44  73 104 141 189 251 288 357 437
#     4  11  24  44  71 101 149 182 239 294 363 427
#     4  11  27  46  72 101 149 189 235 299 368 420
#     4  12  26  45  72 108 145 188 246 301 357 428
#     4  11  25  45  70 104 144 184 237 297 360 429
#     4  10  24  45  73 102 144 191 240 292 366 430
#
# _framework density 22.985958
#
# number of rings (size 3 to 8) (size 9 to 14) (size 15 to 20)
#    0.000    1.143    1.429    3.429   14.000    0.571 
#    0.000    2.143    0.000    0.000    0.000    0.000 
#    0.000    0.000    0.000    0.000    0.000    0.000 
#
# Total GULP energy -78306.970230 kJ/mol
# GULP energy per Si atom -5593.355016 kJ/mol
# Density = 2.293364 g / cm^3
# Si number density = 22.985958 Si / 1000 Ang^3
#
#
#
# Elastic Constant Matrix: (Units=GPa)
#
#
# Indices 1 2 3 4 5 6 
#
# 1 76.3924 19.7821 26.5531 15.0907 11.8283 -2.9917
# 2 19.7821 102.5734 38.3418 7.3643 3.4907 0.1568
# 3 26.5531 38.3418 155.4139 4.3829 0.9360 13.9998
# 4 15.0907 7.3643 4.3829 49.9628 -4.6369 -11.1655
# 5 11.8283 3.4907 0.9360 -4.6369 39.1040 3.8536
# 6 -2.9917 0.1568 13.9998 -11.1655 3.8536 25.2732
#
#
#
# Elastic Compliance Matrix: (Units=1/GPa)
#
#
# Indices 1 2 3 4 5 6 
#
# 1 0.016160 -0.001732 -0.002364 -0.004453 -0.005411 0.002091
# 2 -0.001732 0.011087 -0.002492 -0.000754 -0.000580 0.000862
# 3 -0.002364 -0.002492 0.007926 -0.000649 0.001175 -0.005121
# 4 -0.004453 -0.000754 -0.000649 0.024061 0.003301 0.009964
# 5 -0.005411 -0.000580 0.001175 0.003301 0.028029 -0.004103
# 6 0.002091 0.000862 -0.005121 0.009964 -0.004103 0.047674
#
#
# Mechanical properties :
#
#
# Convention : Reuss Voigt Hill
#
# Bulk Modulus (GPa) = 45.46250 55.97040 50.71645
# Shear Modulus (GPa) = 32.16559 39.51486 35.84023
#
# Velocity S-wave (km/s) = 3.74486 4.15069 3.95298
# Velocity P-wave (km/s) = 6.20644 6.88285 6.55338
#
# Compressibility (1/GPa) = 0.02199615
#
# Stress axis : x y z
#
# Youngs Moduli (GPa) = 61.88166 90.19277 126.17240
#
# Poissons Ratio (x) = 0.15624 0.29824
# Poissons Ratio (y) = 0.10720 0.31446
# Poissons Ratio (z) = 0.14627 0.22479
#
# Static dielectric constant tensor:
#      x y z
#    x 1.887220 -0.020080 0.019100 
#    y -0.020080 1.872350 -0.066360 
#    z 0.019100 -0.066360 1.965410 
# 
# From -- ./inp_files/159117.got.cif
#   From: 2010.05.17/outbox.cif.g08.bks.cpg/sg2_80_cif.got.tgz:159117.got - 2010.06.03 11:33:40.
