data_PCOD9045569
_publ_section_title
;
Structure prediction by ZEFSAII (Michael W. Deem and Ramdas Pophale) SiO2 
 PCOD9045569
Probable space group: P -1
;
_chemical_formula_sum "Si O2"
_cell_formula_units_Z 15
_cell_length_a 11.510785
_cell_length_b 8.201093
_cell_length_c 19.772761
_cell_angle_alpha 40.957726
_cell_angle_beta 30.213611
_cell_angle_gamma 51.784461
_cell_volume 612.439924
_symmetry_space_group_name_H-M "P -1"
_symmetry_group_IT_number 2
_symmetry_cell_setting 'triclinic'
loop_
_space_group_symop_operation_xyz
x,y,z
-x,-y,-z
loop_
_atom_site_type_symbol
_atom_site_label
_atom_site_fract_x
_atom_site_fract_y
_atom_site_fract_z
Si Si1 0.500000 0.000000 0.500000
Si Si2 0.174265 0.210466 0.761520
Si Si3 0.687132 0.108238 0.745816
Si Si4 0.846996 0.057320 0.430320
Si Si5 0.228839 0.666689 0.857382
Si Si6 0.326176 0.491771 0.260681
Si Si7 0.309069 0.673496 0.066610
Si Si8 0.625110 0.382879 0.553006
O O1 0.273929 0.938641 0.582211
O O2 0.610374 0.225237 0.320243
O O3 0.352800 0.314226 0.697025
O O4 0.293234 0.325499 0.594249
O O5 0.922011 0.299999 0.867635
O O6 0.165698 0.914490 0.850714
O O7 0.736552 0.299564 0.721537
O O8 0.695704 0.270266 0.622544
O O9 0.876517 0.911639 0.716615
O O10 0.438193 0.951054 0.923852
O O11 0.785679 0.781557 0.578502
O O12 0.744103 0.243987 0.475820
O O13 0.396628 0.521210 0.866624
O O14 0.000000 0.500000 0.000000
O O15 0.240185 0.563568 0.208669
O O16 0.500000 0.500000 0.000000
#
# Coordination Sequence:
#
# PCOD9045569 Si02
#       8
#     1   2   2   2   2   2   2   2
#     4  10  24  40  74 106 142 194 254 288 378 420
#     4  11  25  46  74 101 145 189 243 302 364 448
#     4  12  26  41  73 104 142 191 238 301 370 438
#     4  11  23  44  71 104 144 188 244 300 360 444
#     4  11  25  46  73 107 153 191 243 315 364 447
#     4  11  25  45  66 105 142 181 246 296 366 436
#     4  12  27  47  69 101 141 190 242 304 376 441
#     4  11  24  46  72 106 143 191 244 296 369 441
#
# _framework density 24.492197999999998
#
# number of rings (size 3 to 8) (size 9 to 14) (size 15 to 20)
#    0.000    0.800    2.667    4.400    7.467    0.533 
#    2.400    0.000    0.000    0.000    0.000    0.000 
#    0.000    0.000    0.000    0.000    0.000    0.000 
#
# Total GULP energy -83858.215380 kJ/mol
# GULP energy per Si atom -5590.547692 kJ/mol
# Density = 2.443645 g / cm^3
# Si number density = 24.492198 Si / 1000 Ang^3
#
#
#
# Elastic Constant Matrix: (Units=GPa)
#
#
# Indices 1 2 3 4 5 6 
#
# 1 116.6933 29.1392 12.1344 23.6534 0.0499 -18.0786
# 2 29.1392 88.1681 7.4779 5.3236 -12.8785 -12.9184
# 3 12.1344 7.4779 65.7419 -4.2883 -25.9973 -3.0701
# 4 23.6534 5.3236 -4.2883 35.4971 -10.2893 -17.8348
# 5 0.0499 -12.8785 -25.9973 -10.2893 53.2307 1.4474
# 6 -18.0786 -12.9184 -3.0701 -17.8348 1.4474 30.9052
#
#
#
# Elastic Compliance Matrix: (Units=1/GPa)
#
#
# Indices 1 2 3 4 5 6 
#
# 1 0.011795 -0.003706 -0.004267 -0.009322 -0.004788 -0.000229
# 2 -0.003706 0.013810 0.001796 0.005454 0.005094 0.006692
# 3 -0.004267 0.001796 0.022378 0.012895 0.013662 0.007279
# 4 -0.009322 0.005454 0.012895 0.054655 0.017407 0.028833
# 5 -0.004788 0.005094 0.013662 0.017407 0.029806 0.009335
# 6 -0.000229 0.006692 0.007279 0.028833 0.009335 0.051945
#
#
# Mechanical properties :
#
#
# Convention : Reuss Voigt Hill
#
# Bulk Modulus (GPa) = 28.06823 40.90068 34.48446
# Shear Modulus (GPa) = 23.96704 38.71672 31.34188
#
# Velocity S-wave (km/s) = 3.13159 3.98021 3.58113
# Velocity P-wave (km/s) = 4.95588 6.15293 5.58656
#
# Compressibility (1/GPa) = 0.03562747
#
# Stress axis : x y z
#
# Youngs Moduli (GPa) = 84.78326 72.41254 44.68649
#
# Poissons Ratio (x) = 0.26837 0.19069
# Poissons Ratio (y) = 0.31422 -0.08025
# Poissons Ratio (z) = 0.36180 -0.13005
#
# Static dielectric constant tensor:
#      x y z
#    x 1.882780 0.010710 0.001520 
#    y 0.010710 2.054430 0.087770 
#    z 0.001520 0.087770 2.008980 
# 
# From -- ./inp_files/203655.got.cif
#   From: 2010.05.17/outbox.cif.g08.bks.cpg/sg2_102_cif.got.tgz:203655.got - 2010.06.03 11:33:40.
