data_PCOD9045762
_publ_section_title
;
Structure prediction by ZEFSAII (Michael W. Deem and Ramdas Pophale) SiO2 
 PCOD9045762
Probable space group: P -1
;
_chemical_formula_sum "Si O2"
_cell_formula_units_Z 16
_cell_length_a 11.901103
_cell_length_b 17.678541
_cell_length_c 5.544994
_cell_angle_alpha 124.550809
_cell_angle_beta 79.432994
_cell_angle_gamma 129.786982
_cell_volume 708.023976
_symmetry_space_group_name_H-M "P -1"
_symmetry_group_IT_number 2
_symmetry_cell_setting 'triclinic'
loop_
_space_group_symop_operation_xyz
x,y,z
-x,-y,-z
loop_
_atom_site_type_symbol
_atom_site_label
_atom_site_fract_x
_atom_site_fract_y
_atom_site_fract_z
Si Si1 0.111868 0.142075 0.650800
Si Si2 0.588466 0.948124 0.862737
Si Si3 0.563811 0.328450 0.539222
Si Si4 0.981420 0.267631 0.894754
Si Si5 0.730482 0.527648 0.178453
Si Si6 0.880201 0.510833 0.488455
Si Si7 0.671204 0.048658 0.512239
Si Si8 0.708920 0.724868 0.686206
O O1 0.197893 0.190098 0.440507
O O2 0.003389 0.172498 0.743058
O O3 0.221081 0.211518 0.967430
O O4 0.000000 0.000000 0.500000
O O5 0.487952 0.802845 0.627782
O O6 0.680690 0.999229 0.670390
O O7 0.500000 0.000000 0.000000
O O8 0.680771 0.997480 0.167252
O O9 0.737079 0.419448 0.551603
O O10 0.454000 0.314115 0.357698
O O11 0.577779 0.410287 0.896581
O O12 0.811333 0.194965 0.733433
O O13 0.122366 0.370195 0.856873
O O14 0.023384 0.343877 0.257880
O O15 0.795372 0.475743 0.207326
O O16 0.698257 0.607779 0.466786
O O17 0.000000 0.500000 0.500000
O O18 0.500000 0.000000 0.500000
#
# Coordination Sequence:
#
# PCOD9045762 Si02
#       8
#     2   2   2   2   2   2   2   2
#     4  11  25  44  71 106 145 189 231 288 360 433
#     4  10  25  42  64 100 139 180 227 286 349 410
#     4  11  27  43  72 107 138 186 243 293 358 425
#     4  10  24  44  68 100 141 187 230 293 360 416
#     4  10  24  48  70 101 141 188 237 302 356 419
#     4  11  26  43  72 101 140 192 238 296 351 427
#     4  10  24  41  68  96 134 184 231 281 346 413
#     4  11  25  46  74 107 141 182 243 298 359 418
#
# _framework density 22.598106000000001
#
# number of rings (size 3 to 8) (size 9 to 14) (size 15 to 20)
#    0.000    1.500    1.250    0.750   12.250    4.500 
#    0.000    0.000    0.000    0.000    0.000    0.000 
#    0.000    0.000    0.000    0.000    0.000    0.000 
#
# Total GULP energy -89183.599475 kJ/mol
# GULP energy per Si atom -5573.974967 kJ/mol
# Density = 2.254667 g / cm^3
# Si number density = 22.598106 Si / 1000 Ang^3
#
#
#
# Elastic Constant Matrix: (Units=GPa)
#
#
# Indices 1 2 3 4 5 6 
#
# 1 -138.3967 2.4824 -142.2733 9.6499 -348.0017 102.9459
# 2 2.4824 86.5143 34.9672 -0.5233 -34.2733 1.5627
# 3 -142.2733 34.9672 33.1526 -1.7210 -199.4043 60.2977
# 4 9.6499 -0.5233 -1.7210 40.9192 0.9748 5.9626
# 5 -348.0017 -34.2733 -199.4043 0.9748 -531.3194 157.7491
# 6 102.9459 1.5627 60.2977 5.9626 157.7491 -5.6562
#
#
#
# Elastic Compliance Matrix: (Units=1/GPa)
#
#
# Indices 1 2 3 4 5 6 
#
# 1 0.013721 -0.006217 0.004192 -0.002764 -0.010421 -0.000867
# 2 -0.006217 0.018095 -0.008714 0.000593 0.007325 0.003870
# 3 0.004192 -0.008714 0.013594 -0.000027 -0.007921 -0.002141
# 4 -0.002764 0.000593 -0.000027 0.025633 0.000704 -0.003792
# 5 -0.010421 0.007325 -0.007921 0.000704 0.010043 0.008751
# 6 -0.000867 0.003870 -0.002141 -0.003792 0.008751 0.025718
#
#
# Mechanical properties :
#
#
# Convention : Reuss Voigt Hill
#
# Bulk Modulus (GPa) = 41.78877 -25.37526 8.20675
# Shear Modulus (GPa) = 36.69479 -93.47166 -28.38844
#
# Velocity S-wave (km/s) = 4.03401 -6.43835 -3.54818
# Velocity P-wave (km/s) = 6.34271 8.15617 3.62583
#
# Compressibility (1/GPa) = 0.02392987
#
# Stress axis : x y z
#
# Youngs Moduli (GPa) = 72.88275 55.26427 73.56268
#
# Poissons Ratio (x) = 0.34360 -0.30835
# Poissons Ratio (y) = 0.45314 0.64103
# Poissons Ratio (z) = -0.30550 0.48157
#
# Static dielectric constant tensor:
#      x y z
#    x 1.802190 0.021760 -0.033840 
#    y 0.021760 1.931250 -0.025690 
#    z -0.033840 -0.025690 1.978320 
# 
# From -- ./inp_files/67250.got.cif
#   From: 2010.05.17/outbox.cif.g08.bks.cpg/sg2_34_cif.got.tgz:67250.got - 2010.06.03 11:33:40.
