data_PCOD9045471
_publ_section_title
;
Structure prediction by ZEFSAII (Michael W. Deem and Ramdas Pophale) SiO2 
 PCOD9045471
Probable space group: P -1
;
_chemical_formula_sum "Si O2"
_cell_formula_units_Z 14
_cell_length_a 9.810310
_cell_length_b 11.628636
_cell_length_c 10.524394
_cell_angle_alpha 46.363821
_cell_angle_beta 137.473038
_cell_angle_gamma 105.372569
_cell_volume 509.443079
_symmetry_space_group_name_H-M "P -1"
_symmetry_group_IT_number 2
_symmetry_cell_setting 'triclinic'
loop_
_space_group_symop_operation_xyz
x,y,z
-x,-y,-z
loop_
_atom_site_type_symbol
_atom_site_label
_atom_site_fract_x
_atom_site_fract_y
_atom_site_fract_z
Si Si1 0.250694 0.450371 0.906585
Si Si2 0.199816 0.594835 0.345560
Si Si3 0.623774 0.215995 0.946154
Si Si4 0.167003 0.584737 0.029035
Si Si5 0.937020 0.191934 0.672790
Si Si6 0.642449 0.050493 0.462017
Si Si7 0.480589 0.967397 0.187901
O O1 0.177168 0.626338 0.632839
O O2 0.031311 0.418438 0.783874
O O3 0.286648 0.485742 0.052076
O O4 0.469931 0.264711 0.147079
O O5 0.412584 0.413062 0.688131
O O6 0.239953 0.590087 0.224987
O O7 0.162506 0.756941 0.291767
O O8 0.848796 0.217261 0.155094
O O9 0.595103 0.055330 0.110637
O O10 0.551624 0.192740 0.770817
O O11 0.000000 0.500000 0.000000
O O12 0.867167 0.049570 0.672285
O O13 0.213091 0.114289 0.923115
O O14 0.500000 0.000000 0.500000
O O15 0.656732 0.914424 0.465521
#
# Coordination Sequence:
#
# PCOD9045471 Si02
#       7
#     2   2   2   2   2   2   2
#     4  11  22  46  71 106 140 183 250 291 342 434
#     4  11  22  41  75 101 137 185 239 293 351 417
#     4  11  23  45  69 101 143 187 236 290 358 426
#     4  10  24  40  68 103 140 182 233 296 350 420
#     4  12  24  47  79 102 138 196 244 293 350 428
#     4  12  28  43  69 108 151 183 233 302 365 420
#     4  11  26  47  71 105 146 189 236 293 359 434
#
# _framework density 27.480989000000001
#
# number of rings (size 3 to 8) (size 9 to 14) (size 15 to 20)
#    0.000    0.857    2.857    3.857    4.000    2.857 
#    2.571    2.143    0.000    0.000    0.000    0.000 
#    0.000    0.000    0.000    0.000    0.000    0.000 
#
# Total GULP energy -78133.628921 kJ/mol
# GULP energy per Si atom -5580.973494 kJ/mol
# Density = 2.741844 g / cm^3
# Si number density = 27.480989 Si / 1000 Ang^3
#
#
#
# Elastic Constant Matrix: (Units=GPa)
#
#
# Indices 1 2 3 4 5 6 
#
# 1 52.8630 46.7842 13.8546 17.1179 2.8974 5.2848
# 2 46.7842 251.9437 35.9199 46.4953 11.7119 7.8422
# 3 13.8546 35.9199 80.5601 5.0649 11.6614 1.2788
# 4 17.1179 46.4953 5.0649 49.4953 5.9653 7.9081
# 5 2.8974 11.7119 11.6614 5.9653 38.2685 11.4957
# 6 5.2848 7.8422 1.2788 7.9081 11.4957 53.6195
#
#
#
# Elastic Compliance Matrix: (Units=1/GPa)
#
#
# Indices 1 2 3 4 5 6 
#
# 1 0.024107 -0.003203 -0.002544 -0.004986 0.001113 -0.001350
# 2 -0.003203 0.005527 -0.001612 -0.003903 -0.000412 0.000210
# 3 -0.002544 -0.001612 0.014060 0.001311 -0.004051 0.000826
# 4 -0.004986 -0.003903 0.001311 0.026100 -0.002191 -0.002349
# 5 0.001113 -0.000412 -0.004051 -0.002191 0.029540 -0.005963
# 6 -0.001350 0.000210 0.000826 -0.002349 -0.005963 0.020357
#
#
# Mechanical properties :
#
#
# Convention : Reuss Voigt Hill
#
# Bulk Modulus (GPa) = 34.51095 64.27604 49.39349
# Shear Modulus (GPa) = 34.70597 47.53053 41.11825
#
# Velocity S-wave (km/s) = 3.55760 4.16333 3.87233
# Velocity P-wave (km/s) = 5.42777 6.82284 6.16490
#
# Compressibility (1/GPa) = 0.02897631
#
# Stress axis : x y z
#
# Youngs Moduli (GPa) = 41.48149 180.94298 71.12371
#
# Poissons Ratio (x) = 0.57963 0.18093
# Poissons Ratio (y) = 0.13288 0.11462
# Poissons Ratio (z) = 0.10552 0.29160
#
# Static dielectric constant tensor:
#      x y z
#    x 2.289790 -0.000730 -0.046980 
#    y -0.000730 2.286390 0.021200 
#    z -0.046980 0.021200 2.315960 
# 
# From -- ./inp_files/423122.got.cif
#   From: 2010.05.17/outbox.cif.g08.bks.cpg/sg2_212_cif.got.tgz:423122.got - 2010.06.03 11:33:40.
