data_PCOD9045115
_publ_section_title
;
Structure prediction by ZEFSAII (Michael W. Deem and Ramdas Pophale) SiO2 
 PCOD9045115
Probable space group: P -1
;
_chemical_formula_sum "Si O2"
_cell_formula_units_Z 12
_cell_length_a 10.931315
_cell_length_b 5.465265
_cell_length_c 10.739945
_cell_angle_alpha 92.347504
_cell_angle_beta 64.055002
_cell_angle_gamma 70.978925
_cell_volume 532.595366
_symmetry_space_group_name_H-M "P -1"
_symmetry_group_IT_number 2
_symmetry_cell_setting 'triclinic'
loop_
_space_group_symop_operation_xyz
x,y,z
-x,-y,-z
loop_
_atom_site_type_symbol
_atom_site_label
_atom_site_fract_x
_atom_site_fract_y
_atom_site_fract_z
Si Si1 0.093834 0.936260 0.740543
Si Si2 0.807632 0.279727 0.746405
Si Si3 0.675260 0.875759 0.908174
Si Si4 0.673985 0.875422 0.415637
Si Si5 0.846396 0.749866 0.089791
Si Si6 0.119539 0.566909 0.525703
O O1 0.055146 0.709253 0.688215
O O2 0.250829 0.908697 0.612657
O O3 0.118105 0.997565 0.872504
O O4 0.960846 0.193410 0.752986
O O5 0.721617 0.591772 0.814113
O O6 0.841279 0.245972 0.584325
O O7 0.726246 0.091151 0.823076
O O8 0.754440 0.816092 0.006345
O O9 0.500000 0.000000 0.000000
O O10 0.744072 0.724429 0.250439
O O11 0.741147 0.684672 0.498124
O O12 0.500000 0.000000 0.500000
O O13 0.000000 0.500000 0.000000
O O14 0.000000 0.500000 0.500000
#
# Coordination Sequence:
#
# PCOD9045115 Si02
#       6
#     2   2   2   2   2   2
#     4  10  24  43  71 111 138 204 250 310 377 456
#     4  12  26  44  79 106 156 198 258 321 386 457
#     4  12  28  48  74 114 149 205 258 321 391 458
#     4  10  25  45  71 110 152 195 249 319 385 440
#     4  10  23  49  73 106 152 199 256 307 377 474
#     4  12  24  45  76 110 149 194 263 317 383 464
#
# _framework density 22.531175999999999
#
# number of rings (size 3 to 8) (size 9 to 14) (size 15 to 20)
#    1.000    0.000    3.333    2.000    7.000    2.667 
#    0.000    0.000    0.000    0.000    0.000    0.000 
#    0.000    0.000    0.000    0.000    0.000    0.000 
#
# Total GULP energy -66965.695942 kJ/mol
# GULP energy per Si atom -5580.474662 kJ/mol
# Density = 2.247989 g / cm^3
# Si number density = 22.531176 Si / 1000 Ang^3
#
#
#
# Elastic Constant Matrix: (Units=GPa)
#
#
# Indices 1 2 3 4 5 6 
#
# 1 165.8189 64.1456 72.5320 3.0338 -21.2591 -17.9808
# 2 64.1456 101.1977 47.3766 2.8663 -4.0099 1.7771
# 3 72.5320 47.3766 113.4986 -4.0785 -2.9690 -3.6562
# 4 3.0338 2.8663 -4.0785 56.3203 7.3911 1.4250
# 5 -21.2591 -4.0099 -2.9690 7.3911 50.4315 3.5480
# 6 -17.9808 1.7771 -3.6562 1.4250 3.5480 42.8782
#
#
#
# Elastic Compliance Matrix: (Units=1/GPa)
#
#
# Indices 1 2 3 4 5 6 
#
# 1 0.010853 -0.004474 -0.004885 -0.001317 0.003840 0.004046
# 2 -0.004474 0.014260 -0.003217 -0.000562 -0.000672 -0.002667
# 3 -0.004885 -0.003217 0.013266 0.001631 -0.001724 -0.000695
# 4 -0.001317 -0.000562 0.001631 0.018405 -0.003149 -0.000741
# 5 0.003840 -0.000672 -0.001724 -0.003149 0.021769 -0.000205
# 6 0.004046 -0.002667 -0.000695 -0.000741 -0.000205 0.025112
#
#
# Mechanical properties :
#
#
# Convention : Reuss Voigt Hill
#
# Bulk Modulus (GPa) = 75.59831 83.18039 79.38935
# Shear Modulus (GPa) = 37.53023 43.02340 40.27682
#
# Velocity S-wave (km/s) = 4.08573 4.37453 4.23259
# Velocity P-wave (km/s) = 7.47550 7.90654 7.69404
#
# Compressibility (1/GPa) = 0.01322781
#
# Stress axis : x y z
#
# Youngs Moduli (GPa) = 92.13672 70.12707 75.37966
#
# Poissons Ratio (x) = 0.31377 0.36822
# Poissons Ratio (y) = 0.41225 0.24247
# Poissons Ratio (z) = 0.45007 0.22558
#
# Static dielectric constant tensor:
#      x y z
#    x 1.817060 0.062680 -0.018530 
#    y 0.062680 1.922600 0.002160 
#    z -0.018530 0.002160 1.870930 
# 
# From -- ./inp_files/371884.got.cif
#   From: 2010.05.17/outbox.cif.g08.bks.cpg/sg2_186_cif.got.tgz:371884.got - 2010.06.03 11:33:40.
