data_PCOD9045444
_publ_section_title
;
Structure prediction by ZEFSAII (Michael W. Deem and Ramdas Pophale) SiO2 
 PCOD9045444
Probable space group: P -1
;
_chemical_formula_sum "Si O2"
_cell_formula_units_Z 14
_cell_length_a 7.248770
_cell_length_b 14.153501
_cell_length_c 23.453221
_cell_angle_alpha 160.538736
_cell_angle_beta 126.300132
_cell_angle_gamma 56.436740
_cell_volume 645.960365
_symmetry_space_group_name_H-M "P -1"
_symmetry_group_IT_number 2
_symmetry_cell_setting 'triclinic'
loop_
_space_group_symop_operation_xyz
x,y,z
-x,-y,-z
loop_
_atom_site_type_symbol
_atom_site_label
_atom_site_fract_x
_atom_site_fract_y
_atom_site_fract_z
Si Si1 0.141054 0.129192 0.154360
Si Si2 0.768344 0.504977 0.040195
Si Si3 0.445972 0.103757 0.612656
Si Si4 0.914561 0.122762 0.761372
Si Si5 0.895514 0.472301 0.401106
Si Si6 0.107862 0.536657 0.838245
Si Si7 0.369288 0.525486 0.336636
O O1 0.285723 0.397839 0.309420
O O2 0.006872 0.252248 0.253438
O O3 0.245965 0.836317 0.029569
O O4 0.000000 0.000000 0.000000
O O5 0.878624 0.585724 0.166088
O O6 0.861184 0.725291 0.135776
O O7 0.500000 0.500000 0.000000
O O8 0.865246 0.206550 0.865422
O O9 0.686108 0.238687 0.754888
O O10 0.234559 0.316108 0.695119
O O11 0.500000 0.000000 0.500000
O O12 0.393697 0.854005 0.507646
O O13 0.925455 0.791297 0.564237
O O14 0.623741 0.409806 0.313239
O O15 0.000000 0.500000 0.500000
O O16 0.840588 0.577273 0.800114
#
# Coordination Sequence:
#
# PCOD9045444 Si02
#       7
#     2   2   2   2   2   2   2
#     4  10  25  44  66 101 137 175 228 276 334 398
#     4  11  22  42  63  99 134 169 217 275 337 391
#     4  11  23  41  68 102 131 174 226 278 336 396
#     4  10  24  40  66  99 131 174 222 277 329 403
#     4  11  25  46  69  98 136 181 229 272 339 402
#     4  11  23  42  67  98 135 175 221 276 337 393
#     4  10  25  43  69  96 136 177 223 277 332 397
#
# _framework density 21.673157
#
# number of rings (size 3 to 8) (size 9 to 14) (size 15 to 20)
#    0.000    1.429    1.429    2.143   10.000    4.000 
#    2.571    0.000    0.000    0.000    0.000    0.000 
#    0.000    0.000    0.000    0.000    0.000    0.000 
#
# Total GULP energy -77980.352616 kJ/mol
# GULP energy per Si atom -5570.025187 kJ/mol
# Density = 2.162383 g / cm^3
# Si number density = 21.673157 Si / 1000 Ang^3
#
#
#
# Elastic Constant Matrix: (Units=GPa)
#
#
# Indices 1 2 3 4 5 6 
#
# 1 155.8566 55.4530 63.6187 0.8763 -3.4184 3.1732
# 2 55.4530 62.1922 24.4627 -3.9368 -0.9398 -0.8508
# 3 63.6187 24.4627 91.5815 4.5042 -19.1986 2.5177
# 4 0.8763 -3.9368 4.5042 35.4698 3.8745 2.3336
# 5 -3.4184 -0.9398 -19.1986 3.8745 46.3660 -7.6441
# 6 3.1732 -0.8508 2.5177 2.3336 -7.6441 18.5331
#
#
#
# Elastic Compliance Matrix: (Units=1/GPa)
#
#
# Indices 1 2 3 4 5 6 
#
# 1 0.012028 -0.008191 -0.006613 0.000069 -0.002444 -0.002554
# 2 -0.008191 0.023985 -0.001008 0.002902 -0.000432 0.002097
# 3 -0.006613 -0.001008 0.017408 -0.003097 0.007310 0.002126
# 4 0.000069 0.002902 -0.003097 0.029737 -0.004540 -0.005075
# 5 -0.002444 -0.000432 0.007310 -0.004540 0.026589 0.010944
# 6 -0.002554 0.002097 0.002126 -0.005075 0.010944 0.059355
#
#
# Mechanical properties :
#
#
# Convention : Reuss Voigt Hill
#
# Bulk Modulus (GPa) = 45.87566 66.29991 56.08779
# Shear Modulus (GPa) = 24.03964 31.14684 27.59324
#
# Velocity S-wave (km/s) = 3.33406 3.79504 3.57200
# Velocity P-wave (km/s) = 6.00286 7.06119 6.55342
#
# Compressibility (1/GPa) = 0.02179805
#
# Stress axis : x y z
#
# Youngs Moduli (GPa) = 83.14127 41.69348 57.44351
#
# Poissons Ratio (x) = 0.34150 0.37987
# Poissons Ratio (y) = 0.68099 0.05788
# Poissons Ratio (z) = 0.54981 0.04201
#
# Static dielectric constant tensor:
#      x y z
#    x 1.148760 -1.242380 0.315950 
#    y -1.242380 -0.581520 0.580810 
#    z 0.315950 0.580810 1.753790 
# 
# From -- ./inp_files/71968.got.cif
#   From: 2010.05.17/outbox.cif.g08.bks.cpg/sg2_36_cif.got.tgz:71968.got - 2010.06.03 11:33:40.
