data_PCOD9045638
_publ_section_title
;
Structure prediction by ZEFSAII (Michael W. Deem and Ramdas Pophale) SiO2 
 PCOD9045638
Probable space group: P -1
;
_chemical_formula_sum "Si O2"
_cell_formula_units_Z 14
_cell_length_a 6.110363
_cell_length_b 20.856770
_cell_length_c 8.414465
_cell_angle_alpha 44.534436
_cell_angle_beta 121.094787
_cell_angle_gamma 122.034868
_cell_volume 620.061966
_symmetry_space_group_name_H-M "P -1"
_symmetry_group_IT_number 2
_symmetry_cell_setting 'triclinic'
loop_
_space_group_symop_operation_xyz
x,y,z
-x,-y,-z
loop_
_atom_site_type_symbol
_atom_site_label
_atom_site_fract_x
_atom_site_fract_y
_atom_site_fract_z
Si Si1 0.514973 0.371096 0.296916
Si Si2 0.783174 0.332871 0.975777
Si Si3 0.898399 0.798897 0.502709
Si Si4 0.802520 0.798390 0.093998
Si Si5 0.981242 0.629645 0.344716
Si Si6 0.445990 0.526268 0.197797
Si Si7 0.179639 0.000043 0.403600
O O1 0.394422 0.258307 0.445746
O O2 0.823589 0.395441 0.410650
O O3 0.389688 0.417893 0.313548
O O4 0.458326 0.416716 0.031909
O O5 0.930934 0.268596 0.243460
O O6 0.495373 0.263791 0.946967
O O7 0.905699 0.371273 0.786233
O O8 0.771107 0.424123 0.911574
O O9 0.875378 0.800828 0.301735
O O10 0.018517 0.903492 0.428657
O O11 0.973352 0.737455 0.178394
O O12 0.836524 0.903612 0.857832
O O13 0.689300 0.558633 0.355202
O O14 0.500000 0.000000 0.500000
O O15 0.000000 0.000000 0.500000
#
# Coordination Sequence:
#
# PCOD9045638 Si02
#       7
#     2   2   2   2   2   2   2
#     4  11  23  42  65 100 135 181 234 284 351 418
#     4  11  22  42  68  95 138 179 228 282 353 410
#     4  12  24  45  71 100 138 182 230 293 353 424
#     4  11  25  45  69 103 134 182 230 287 352 425
#     4  11  22  43  68  96 137 182 229 288 347 420
#     4  10  24  41  64  96 139 181 230 288 344 416
#     4  12  28  49  79 107 144 187 236 295 363 428
#
# _framework density 22.578386999999999
#
# number of rings (size 3 to 8) (size 9 to 14) (size 15 to 20)
#    0.000    0.857    4.286    2.571    2.000    2.286 
#    2.571    2.143    0.000    0.000    0.000    0.000 
#    0.000    0.000    0.000    0.000    0.000    0.000 
#
# Total GULP energy -78239.183520 kJ/mol
# GULP energy per Si atom -5588.513109 kJ/mol
# Density = 2.252700 g / cm^3
# Si number density = 22.578387 Si / 1000 Ang^3
#
#
#
# Elastic Constant Matrix: (Units=GPa)
#
#
# Indices 1 2 3 4 5 6 
#
# 1 75.1258 40.6808 30.8837 -3.3975 2.4205 -1.9207
# 2 40.6808 141.9680 48.5113 -14.8367 6.0837 7.1712
# 3 30.8837 48.5113 109.5605 -6.2312 9.2441 8.4226
# 4 -3.3975 -14.8367 -6.2312 50.6182 7.1707 4.9465
# 5 2.4205 6.0837 9.2441 7.1707 34.0007 -4.9706
# 6 -1.9207 7.1712 8.4226 4.9465 -4.9706 31.5981
#
#
#
# Elastic Compliance Matrix: (Units=1/GPa)
#
#
# Indices 1 2 3 4 5 6 
#
# 1 0.016856 -0.003977 -0.003375 -0.000909 0.001080 0.003139
# 2 -0.003977 0.009553 -0.002637 0.002671 -0.001620 -0.002380
# 3 -0.003375 -0.002637 0.011864 0.001268 -0.003290 -0.003485
# 4 -0.000909 0.002671 0.001268 0.022042 -0.006199 -0.005425
# 5 0.001080 -0.001620 -0.003290 -0.006199 0.032917 0.007459
# 6 0.003139 -0.002380 -0.003485 -0.005425 0.007459 0.035330
#
#
# Mechanical properties :
#
#
# Convention : Reuss Voigt Hill
#
# Bulk Modulus (GPa) = 54.65834 62.97844 58.81839
# Shear Modulus (GPa) = 32.33339 37.01529 34.67434
#
# Velocity S-wave (km/s) = 3.78835 4.05336 3.92309
# Velocity P-wave (km/s) = 6.58758 7.06117 6.82848
#
# Compressibility (1/GPa) = 0.01829547
#
# Stress axis : x y z
#
# Youngs Moduli (GPa) = 59.32552 104.67488 84.28756
#
# Poissons Ratio (x) = 0.41627 0.28446
# Poissons Ratio (y) = 0.23593 0.22231
# Poissons Ratio (z) = 0.20021 0.27608
#
# Static dielectric constant tensor:
#      x y z
#    x 1.931710 0.020370 0.023050 
#    y 0.020370 1.799460 0.020590 
#    z 0.023050 0.020590 1.786560 
# 
# From -- ./inp_files/37099.got.cif
#   From: 2010.05.17/outbox.cif.g08.bks.cpg/sg2_19_cif.got.tgz:37099.got - 2010.06.03 11:33:40.
