data_PCOD9045696
_publ_section_title
;
Structure prediction by ZEFSAII (Michael W. Deem and Ramdas Pophale) SiO2 
 PCOD9045696
Probable space group: P -1
;
_chemical_formula_sum "Si O2"
_cell_formula_units_Z 14
_cell_length_a 15.512432
_cell_length_b 7.784361
_cell_length_c 11.431094
_cell_angle_alpha 138.657320
_cell_angle_beta 37.213195
_cell_angle_gamma 126.442208
_cell_volume 551.419651
_symmetry_space_group_name_H-M "P -1"
_symmetry_group_IT_number 2
_symmetry_cell_setting 'triclinic'
loop_
_space_group_symop_operation_xyz
x,y,z
-x,-y,-z
loop_
_atom_site_type_symbol
_atom_site_label
_atom_site_fract_x
_atom_site_fract_y
_atom_site_fract_z
Si Si1 0.449543 0.363075 0.747260
Si Si2 0.572202 0.078335 0.276904
Si Si3 0.139433 0.973825 0.616958
Si Si4 0.030068 0.452948 0.081496
Si Si5 0.771233 0.473980 0.539376
Si Si6 0.605772 0.101074 0.837475
Si Si7 0.850879 0.037924 0.826151
O O1 0.472890 0.301977 0.554520
O O2 0.610526 0.422291 0.647416
O O3 0.394700 0.114402 0.749495
O O4 0.359369 0.611004 0.009710
O O5 0.485083 0.918510 0.193335
O O6 0.719040 0.161632 0.103760
O O7 0.192917 0.707338 0.480947
O O8 0.248702 0.044496 0.430585
O O9 0.131928 0.200654 0.838961
O O10 0.981715 0.951426 0.723378
O O11 0.887314 0.397647 0.277487
O O12 0.092820 0.728263 0.195945
O O13 0.000000 0.500000 0.000000
O O14 0.792386 0.777408 0.698762
O O15 0.500000 0.000000 0.000000
#
# Coordination Sequence:
#
# PCOD9045696 Si02
#       7
#     2   2   2   2   2   2   2
#     4  11  24  45  75 100 143 189 239 287 361 420
#     4  11  24  47  72 103 137 193 236 287 356 433
#     4  11  25  46  67 107 139 184 245 290 348 425
#     4  10  24  41  66  99 141 180 229 287 358 413
#     4  12  22  44  75 101 141 187 239 292 348 429
#     4  12  27  45  71 103 146 181 235 299 351 420
#     4  11  24  43  73 101 145 182 238 289 362 419
#
# _framework density 25.389011
#
# number of rings (size 3 to 8) (size 9 to 14) (size 15 to 20)
#    0.000    0.857    2.857    4.286    6.000    1.714 
#    2.571    0.000    0.000    0.000    0.000    0.000 
#    0.000    0.000    0.000    0.000    0.000    0.000 
#
# Total GULP energy -78442.043525 kJ/mol
# GULP energy per Si atom -5603.003109 kJ/mol
# Density = 2.533122 g / cm^3
# Si number density = 25.389011 Si / 1000 Ang^3
#
#
#
# Elastic Constant Matrix: (Units=GPa)
#
#
# Indices 1 2 3 4 5 6 
#
# 1 57.8005 10.3211 22.3373 -3.8583 0.8156 -5.3963
# 2 10.3211 82.5762 11.8651 2.9409 0.9841 8.9007
# 3 22.3373 11.8651 141.6961 -4.2954 6.1672 2.2558
# 4 -3.8583 2.9409 -4.2954 56.6779 8.7696 6.6487
# 5 0.8156 0.9841 6.1672 8.7696 37.4893 -6.9200
# 6 -5.3963 8.9007 2.2558 6.6487 -6.9200 24.1773
#
#
#
# Elastic Compliance Matrix: (Units=1/GPa)
#
#
# Indices 1 2 3 4 5 6 
#
# 1 0.019480 -0.002661 -0.002978 0.000382 0.001121 0.005821
# 2 -0.002661 0.013154 -0.000538 -0.000039 -0.001248 -0.005733
# 3 -0.002978 -0.000538 0.007707 0.000909 -0.001760 -0.001939
# 4 0.000382 -0.000039 0.000909 0.019502 -0.006024 -0.007073
# 5 0.001121 -0.001248 -0.001760 -0.006024 0.030458 0.011248
# 6 0.005821 -0.005733 -0.001939 -0.007073 0.011248 0.050116
#
#
# Mechanical properties :
#
#
# Convention : Reuss Voigt Hill
#
# Bulk Modulus (GPa) = 35.73026 41.23552 38.48289
# Shear Modulus (GPa) = 30.84516 39.50553 35.17535
#
# Velocity S-wave (km/s) = 3.48933 3.94891 3.72621
# Velocity P-wave (km/s) = 5.50795 6.08840 5.80543
#
# Compressibility (1/GPa) = 0.02798748
#
# Stress axis : x y z
#
# Youngs Moduli (GPa) = 51.33448 76.02190 129.75510
#
# Poissons Ratio (x) = 0.20232 0.38640
# Poissons Ratio (y) = 0.13662 0.06975
# Poissons Ratio (z) = 0.15287 0.04086
#
# Static dielectric constant tensor:
#      x y z
#    x 1.997530 0.002930 0.012350 
#    y 0.002930 2.016440 0.071470 
#    z 0.012350 0.071470 2.027130 
# 
# From -- ./inp_files/319142.got.cif
#   From: 2010.05.17/outbox.cif.g08.bks.cpg/sg2_160_cif.got.tgz:319142.got - 2010.06.03 11:33:40.
