data_PCOD9045995
_publ_section_title
;
Structure prediction by ZEFSAII (Michael W. Deem and Ramdas Pophale) SiO2 
 PCOD9045995
Probable space group: P -1
;
_chemical_formula_sum "Si O2"
_cell_formula_units_Z 15
_cell_length_a 14.865744
_cell_length_b 9.683796
_cell_length_c 8.942033
_cell_angle_alpha 135.506124
_cell_angle_beta 98.490074
_cell_angle_gamma 54.939309
_cell_volume 656.857002
_symmetry_space_group_name_H-M "P -1"
_symmetry_group_IT_number 2
_symmetry_cell_setting 'triclinic'
loop_
_space_group_symop_operation_xyz
x,y,z
-x,-y,-z
loop_
_atom_site_type_symbol
_atom_site_label
_atom_site_fract_x
_atom_site_fract_y
_atom_site_fract_z
Si Si1 0.367051 0.132042 0.627882
Si Si2 0.164793 0.638923 0.779942
Si Si3 0.573355 0.378898 0.766775
Si Si4 0.986181 0.067016 0.742885
Si Si5 0.500000 0.500000 0.500000
Si Si6 0.864508 0.523505 0.649357
Si Si7 0.794007 0.046459 0.174260
Si Si8 0.265438 0.475018 0.134864
O O1 0.275717 0.407390 0.731622
O O2 0.500000 0.000000 0.500000
O O3 0.346992 0.934618 0.437955
O O4 0.342236 0.201244 0.849857
O O5 0.141894 0.497776 0.545900
O O6 0.199799 0.784473 0.812804
O O7 0.056090 0.836316 0.022462
O O8 0.494778 0.482863 0.673444
O O9 0.659529 0.439685 0.811386
O O10 0.500000 0.500000 0.000000
O O11 0.871959 0.301169 0.794815
O O12 0.018728 0.787491 0.520350
O O13 0.110140 0.018013 0.723025
O O14 0.652123 0.238746 0.339449
O O15 0.750040 0.571910 0.735346
O O16 0.848993 0.763955 0.897668
#
# Coordination Sequence:
#
# PCOD9045995 Si02
#       8
#     2   2   2   2   1   2   2   2
#     4  11  23  43  67 102 142 186 242 293 359 437
#     4  10  24  42  66 100 142 183 239 306 349 437
#     4  12  26  47  74 105 148 195 236 300 368 430
#     4  10  24  45  67 101 145 184 245 307 351 441
#     4  12  28  46  72 110 148 184 244 304 354 446
#     4  11  23  40  69 100 134 191 238 290 374 432
#     4  11  24  44  70 101 145 188 238 305 367 421
#     4  11  25  44  70 104 142 190 245 299 365 440
#
# _framework density 22.836020000000001
#
# number of rings (size 3 to 8) (size 9 to 14) (size 15 to 20)
#    0.000    1.067    1.333    5.200    3.733    4.800 
#    0.000    4.667    0.000    0.000    0.000    0.000 
#    0.000    0.000    0.000    0.000    0.000    0.000 
#
# Total GULP energy -83522.187026 kJ/mol
# GULP energy per Si atom -5568.145802 kJ/mol
# Density = 2.278404 g / cm^3
# Si number density = 22.836020 Si / 1000 Ang^3
#
#
#
# Elastic Constant Matrix: (Units=GPa)
#
#
# Indices 1 2 3 4 5 6 
#
# 1 74.9532 35.3584 33.1728 20.3564 7.4928 -4.9105
# 2 35.3584 67.7854 39.4230 -20.4266 -13.6714 -0.8380
# 3 33.1728 39.4230 155.9096 2.0323 6.0372 -1.4644
# 4 20.3564 -20.4266 2.0323 47.0626 9.2157 -2.9538
# 5 7.4928 -13.6714 6.0372 9.2157 41.8421 12.3147
# 6 -4.9105 -0.8380 -1.4644 -2.9538 12.3147 28.5327
#
#
#
# Elastic Compliance Matrix: (Units=1/GPa)
#
#
# Indices 1 2 3 4 5 6 
#
# 1 0.034878 -0.028375 0.000637 -0.024450 -0.012612 0.008114
# 2 -0.028375 0.045187 -0.006493 0.028320 0.016984 -0.008288
# 3 0.000637 -0.006493 0.008094 -0.002720 -0.003230 0.001447
# 4 -0.024450 0.028320 -0.002720 0.043215 0.004839 -0.001130
# 5 -0.012612 0.016984 -0.003230 0.004839 0.036084 -0.016911
# 6 0.008114 -0.008288 0.001447 -0.001130 -0.016911 0.043456
#
#
# Mechanical properties :
#
#
# Convention : Reuss Voigt Hill
#
# Bulk Modulus (GPa) = 50.76848 57.17298 53.97073
# Shear Modulus (GPa) = 17.48603 36.20043 26.84323
#
# Velocity S-wave (km/s) = 2.77017 3.98582 3.43224
# Velocity P-wave (km/s) = 5.70191 6.80243 6.27634
#
# Compressibility (1/GPa) = 0.01969726
#
# Stress axis : x y z
#
# Youngs Moduli (GPa) = 28.67136 22.13033 123.54210
#
# Poissons Ratio (x) = 0.62795 -0.07871
# Poissons Ratio (y) = 0.81355 0.80219
# Poissons Ratio (z) = -0.01827 0.14370
#
# Static dielectric constant tensor:
#      x y z
#    x 1.886100 0.007200 0.019080 
#    y 0.007200 1.895470 -0.011600 
#    z 0.019080 -0.011600 1.920320 
# 
# From -- ./inp_files/296773.got.cif
#   From: 2010.05.17/outbox.cif.g08.bks.cpg/sg2_149_cif.got.tgz:296773.got - 2010.06.03 11:33:40.
