data_PCOD9045050
_publ_section_title
;
Structure prediction by ZEFSAII (Michael W. Deem and Ramdas Pophale) SiO2 
 PCOD9045050
Probable space group: P -1
;
_chemical_formula_sum "Si O2"
_cell_formula_units_Z 15
_cell_length_a 7.035088
_cell_length_b 10.125208
_cell_length_c 13.134010
_cell_angle_alpha 127.734769
_cell_angle_beta 60.728571
_cell_angle_gamma 98.670461
_cell_volume 630.286578
_symmetry_space_group_name_H-M "P -1"
_symmetry_group_IT_number 2
_symmetry_cell_setting 'triclinic'
loop_
_space_group_symop_operation_xyz
x,y,z
-x,-y,-z
loop_
_atom_site_type_symbol
_atom_site_label
_atom_site_fract_x
_atom_site_fract_y
_atom_site_fract_z
Si Si1 0.042742 0.590336 0.781222
Si Si2 0.885769 0.349832 0.993660
Si Si3 0.662813 0.161794 0.244430
Si Si4 0.403753 0.504870 0.142872
Si Si5 0.500000 0.000000 0.000000
Si Si6 0.968421 0.986058 0.762928
Si Si7 0.323820 0.210318 0.532105
Si Si8 0.739411 0.145423 0.549826
O O1 0.019212 0.693800 0.940938
O O2 0.215284 0.676768 0.716572
O O3 0.153580 0.390931 0.676014
O O4 0.785522 0.597554 0.824282
O O5 0.623098 0.420748 0.107790
O O6 0.932157 0.184812 0.833208
O O7 0.000000 0.500000 0.000000
O O8 0.437946 0.210571 0.392352
O O9 0.617367 0.080158 0.109879
O O10 0.835829 0.039841 0.216614
O O11 0.301485 0.699675 0.288512
O O12 0.500000 0.500000 0.000000
O O13 0.739101 0.965306 0.861923
O O14 0.059040 0.865394 0.587557
O O15 0.517507 0.187980 0.556946
O O16 0.235940 0.037150 0.488966
#
# Coordination Sequence:
#
# PCOD9045050 Si02
#       8
#     2   2   2   2   1   2   2   2
#     4  12  25  46  71 103 155 193 250 311 375 440
#     4  12  25  47  72 107 149 193 247 310 375 435
#     4  11  27  48  73 108 150 200 254 308 375 448
#     4  12  28  44  74 115 150 197 247 310 377 451
#     4  12  26  46  74 110 148 196 252 304 376 444
#     4  11  27  48  77 107 152 195 251 312 372 451
#     4  10  23  48  77 105 150 195 251 314 376 438
#     4  10  24  48  76 109 144 197 254 309 375 449
#
# _framework density 23.7987
#
# number of rings (size 3 to 8) (size 9 to 14) (size 15 to 20)
#    0.000    0.800    4.000    1.600    7.467    1.600 
#    0.000    1.333    0.000    0.000    0.000    0.000 
#    0.000    0.000    0.000    0.000    0.000    0.000 
#
# Total GULP energy -83627.301044 kJ/mol
# GULP energy per Si atom -5575.153403 kJ/mol
# Density = 2.374453 g / cm^3
# Si number density = 23.798700 Si / 1000 Ang^3
#
#
#
# Elastic Constant Matrix: (Units=GPa)
#
#
# Indices 1 2 3 4 5 6 
#
# 1 127.8191 28.8896 44.8355 -7.6404 -11.7594 28.1831
# 2 28.8896 79.3400 56.4912 -4.0176 3.7672 9.8294
# 3 44.8355 56.4912 174.6578 2.9403 11.2319 17.7461
# 4 -7.6404 -4.0176 2.9403 38.6104 -0.7667 -10.4009
# 5 -11.7594 3.7672 11.2319 -0.7667 35.6509 -7.6400
# 6 28.1831 9.8294 17.7461 -10.4009 -7.6400 25.3061
#
#
#
# Elastic Compliance Matrix: (Units=1/GPa)
#
#
# Indices 1 2 3 4 5 6 
#
# 1 0.011171 -0.001993 -0.001285 -0.000665 0.002053 -0.010419
# 2 -0.001993 0.017016 -0.004889 0.001559 -0.001016 -0.000627
# 3 -0.001285 -0.004889 0.008406 -0.002769 -0.003644 -0.004802
# 4 -0.000665 0.001559 -0.002769 0.030546 0.004577 0.016013
# 5 0.002053 -0.001016 -0.003644 0.004577 0.032745 0.012430
# 6 -0.010419 -0.000627 -0.004802 0.016013 0.012430 0.065066
#
#
# Mechanical properties :
#
#
# Convention : Reuss Voigt Hill
#
# Bulk Modulus (GPa) = 49.36337 71.36105 60.36221
# Shear Modulus (GPa) = 26.59060 36.68687 31.63874
#
# Velocity S-wave (km/s) = 3.34625 3.93052 3.65009
# Velocity P-wave (km/s) = 5.97636 7.11681 6.57137
#
# Compressibility (1/GPa) = 0.02025794
#
# Stress axis : x y z
#
# Youngs Moduli (GPa) = 89.51426 58.76938 118.96665
#
# Poissons Ratio (x) = 0.11712 0.15291
# Poissons Ratio (y) = 0.17839 0.58165
# Poissons Ratio (z) = 0.11506 0.28733
#
# Static dielectric constant tensor:
#      x y z
#    x 1.868710 -0.080760 0.054840 
#    y -0.080760 1.960660 0.020050 
#    z 0.054840 0.020050 1.844970 
# 
# From -- ./inp_files/482319.got.cif
#   From: 2010.05.17/outbox.cif.g08.bks.cpg/sg2_242_cif.got.tgz:482319.got - 2010.06.03 11:33:40.
