data_PCOD9045797
_publ_section_title
;
Structure prediction by ZEFSAII (Michael W. Deem and Ramdas Pophale) SiO2 
 PCOD9045797
Probable space group: P -1
;
_chemical_formula_sum "Si O2"
_cell_formula_units_Z 14
_cell_length_a 5.552559
_cell_length_b 11.280878
_cell_length_c 9.283810
_cell_angle_alpha 82.726311
_cell_angle_beta 93.166454
_cell_angle_gamma 85.921478
_cell_volume 574.162353
_symmetry_space_group_name_H-M "P -1"
_symmetry_group_IT_number 2
_symmetry_cell_setting 'triclinic'
loop_
_space_group_symop_operation_xyz
x,y,z
-x,-y,-z
loop_
_atom_site_type_symbol
_atom_site_label
_atom_site_fract_x
_atom_site_fract_y
_atom_site_fract_z
Si Si1 0.000748 0.038112 0.663101
Si Si2 0.613061 0.374046 0.960787
Si Si3 0.998467 0.800815 0.890422
Si Si4 0.229253 0.226438 0.806488
Si Si5 0.324809 0.758688 0.481525
Si Si6 0.839549 0.704950 0.634211
Si Si7 0.864906 0.427978 0.677901
O O1 0.220301 0.113203 0.716506
O O2 0.764713 0.133567 0.645863
O O3 0.000000 0.000000 0.500000
O O4 0.994100 0.926468 0.787515
O O5 0.752633 0.283699 0.090491
O O6 0.500000 0.500000 0.000000
O O7 0.448463 0.288241 0.877683
O O8 0.802294 0.418333 0.844861
O O9 0.822141 0.724402 0.802407
O O10 0.920969 0.813295 0.052054
O O11 0.100877 0.335661 0.692016
O O12 0.586548 0.766037 0.557450
O O13 0.329604 0.634040 0.414788
O O14 0.093198 0.753610 0.581831
O O15 0.874611 0.564985 0.621314
#
# Coordination Sequence:
#
# PCOD9045797 Si02
#       7
#     2   2   2   2   2   2   2
#     4  11  24  48  70 102 144 191 250 302 358 428
#     4  11  24  43  72 105 143 186 241 297 365 436
#     4  11  25  44  68 104 141 191 241 296 362 430
#     4  10  24  44  70 101 144 188 241 301 363 431
#     4  11  27  45  69 107 146 192 242 300 365 428
#     4  12  25  44  73 106 147 187 241 298 365 434
#     4  10  24  41  70 102 144 186 239 300 366 436
#
# _framework density 24.38335
#
# number of rings (size 3 to 8) (size 9 to 14) (size 15 to 20)
#    0.000    1.143    1.429    3.000   10.000    3.429 
#    2.571    0.000    0.000    0.000    0.000    0.000 
#    0.000    0.000    0.000    0.000    0.000    0.000 
#
# Total GULP energy -78176.065528 kJ/mol
# GULP energy per Si atom -5584.004681 kJ/mol
# Density = 2.432785 g / cm^3
# Si number density = 24.383350 Si / 1000 Ang^3
#
#
#
# Elastic Constant Matrix: (Units=GPa)
#
#
# Indices 1 2 3 4 5 6 
#
# 1 102.0431 34.1958 51.6097 -14.3957 17.3850 3.0410
# 2 34.1958 169.5595 62.6286 -15.9711 5.4732 18.3788
# 3 51.6097 62.6286 149.2732 -12.5479 17.0603 9.1977
# 4 -14.3957 -15.9711 -12.5479 51.4943 1.7085 4.8477
# 5 17.3850 5.4732 17.0603 1.7085 47.3842 4.5774
# 6 3.0410 18.3788 9.1977 4.8477 4.5774 13.2897
#
#
#
# Elastic Compliance Matrix: (Units=1/GPa)
#
#
# Indices 1 2 3 4 5 6 
#
# 1 0.012816 -0.001122 -0.003437 0.002388 -0.003552 0.001350
# 2 -0.001122 0.008431 -0.002376 0.002734 0.001276 -0.011196
# 3 -0.003437 -0.002376 0.009266 0.000810 -0.001630 -0.002075
# 4 0.002388 0.002734 0.000810 0.022361 -0.001065 -0.012678
# 5 -0.003552 0.001276 -0.001630 -0.001065 0.023616 -0.007570
# 6 0.001350 -0.011196 -0.002075 -0.012678 -0.007570 0.099089
#
#
# Mechanical properties :
#
#
# Convention : Reuss Voigt Hill
#
# Bulk Modulus (GPa) = 60.07949 79.74931 69.91440
# Shear Modulus (GPa) = 25.64146 40.59642 33.11894
#
# Velocity S-wave (km/s) = 3.24635 4.08477 3.68946
# Velocity P-wave (km/s) = 6.22453 7.41786 6.84724
#
# Compressibility (1/GPa) = 0.01664461
#
# Stress axis : x y z
#
# Youngs Moduli (GPa) = 78.02962 118.60641 107.91850
#
# Poissons Ratio (x) = 0.13307 0.37088
# Poissons Ratio (y) = 0.08754 0.25638
# Poissons Ratio (z) = 0.26816 0.28177
#
# Static dielectric constant tensor:
#      x y z
#    x 2.011740 -0.001370 -0.058120 
#    y -0.001370 1.963640 0.055980 
#    z -0.058120 0.055980 2.019580 
# 
# From -- ./inp_files/131516.got.cif
#   From: 2010.05.17/outbox.cif.g08.bks.cpg/sg2_66_cif.got.tgz:131516.got - 2010.06.03 11:33:40.
