data_PCOD9045561
_publ_section_title
;
Structure prediction by ZEFSAII (Michael W. Deem and Ramdas Pophale) SiO2 
 PCOD9045561
Probable space group: P -1
;
_chemical_formula_sum "Si O2"
_cell_formula_units_Z 14
_cell_length_a 8.755486
_cell_length_b 10.983995
_cell_length_c 9.021652
_cell_angle_alpha 66.983679
_cell_angle_beta 58.026386
_cell_angle_gamma 67.827278
_cell_volume 661.078932
_symmetry_space_group_name_H-M "P -1"
_symmetry_group_IT_number 2
_symmetry_cell_setting 'triclinic'
loop_
_space_group_symop_operation_xyz
x,y,z
-x,-y,-z
loop_
_atom_site_type_symbol
_atom_site_label
_atom_site_fract_x
_atom_site_fract_y
_atom_site_fract_z
Si Si1 0.696130 0.015920 0.711179
Si Si2 0.967630 0.848490 0.436671
Si Si3 0.346204 0.479443 0.703544
Si Si4 0.007420 0.451169 0.348477
Si Si5 0.324678 0.189038 0.918554
Si Si6 0.312479 0.586287 0.983916
Si Si7 0.981082 0.161194 0.920737
O O1 0.489512 0.105202 0.770722
O O2 0.843126 0.098200 0.664153
O O3 0.794851 0.958094 0.536148
O O4 0.680120 0.893504 0.888428
O O5 0.973758 0.709814 0.586009
O O6 0.951434 0.816590 0.288899
O O7 0.500000 0.500000 0.500000
O O8 0.375779 0.334037 0.837692
O O9 0.324617 0.583481 0.800995
O O10 0.171815 0.489816 0.682997
O O11 0.000000 0.500000 0.500000
O O12 0.166762 0.502957 0.158101
O O13 0.123829 0.201410 0.944070
O O14 0.500000 0.500000 0.000000
O O15 0.222424 0.742046 0.002472
O O16 0.000000 0.000000 0.000000
#
# Coordination Sequence:
#
# PCOD9045561 Si02
#       7
#     2   2   2   2   2   2   2
#     4  10  24  40  72  97 136 178 224 283 350 425
#     4  11  23  43  67 100 136 178 225 287 351 414
#     4  12  26  43  72 102 139 183 239 292 344 429
#     4  12  23  43  71  99 138 180 231 291 352 414
#     4  11  23  45  67 101 135 180 229 284 352 413
#     4  12  28  46  71 104 143 192 236 294 360 414
#     4  12  26  44  71  98 142 179 233 289 346 418
#
# _framework density 21.177502
#
# number of rings (size 3 to 8) (size 9 to 14) (size 15 to 20)
#    0.000    0.571    4.286    3.000    4.000    2.857 
#    0.000    0.000    0.000    0.000    0.000    0.000 
#    0.000    0.000    0.000    0.000    0.000    0.000 
#
# Total GULP energy -78232.851967 kJ/mol
# GULP energy per Si atom -5588.060855 kJ/mol
# Density = 2.112930 g / cm^3
# Si number density = 21.177502 Si / 1000 Ang^3
#
#
#
# Elastic Constant Matrix: (Units=GPa)
#
#
# Indices 1 2 3 4 5 6 
#
# 1 78.4428 14.4145 22.9461 21.6934 -7.3840 -23.7212
# 2 14.4145 116.0895 25.0710 -1.0806 -5.6706 -10.4772
# 3 22.9461 25.0710 96.4079 17.0392 -9.4086 0.8698
# 4 21.6934 -1.0806 17.0392 49.7274 9.5230 -6.8395
# 5 -7.3840 -5.6706 -9.4086 9.5230 42.0548 5.8062
# 6 -23.7212 -10.4772 0.8698 -6.8395 5.8062 31.3719
#
#
#
# Elastic Compliance Matrix: (Units=1/GPa)
#
#
# Indices 1 2 3 4 5 6 
#
# 1 0.019661 -0.000478 -0.003390 -0.006047 0.002193 0.013076
# 2 -0.000478 0.009580 -0.002772 0.001891 -0.000308 0.003384
# 3 -0.003390 -0.002772 0.013124 -0.004562 0.003766 -0.005545
# 4 -0.006047 0.001891 -0.004562 0.026418 -0.008290 0.003479
# 5 0.002193 -0.000308 0.003766 -0.008290 0.027596 -0.005464
# 6 0.013076 0.003384 -0.005545 0.003479 -0.005464 0.044817
#
#
# Mechanical properties :
#
#
# Convention : Reuss Voigt Hill
#
# Bulk Modulus (GPa) = 34.38354 46.20039 40.29197
# Shear Modulus (GPa) = 30.45588 39.86473 35.16031
#
# Velocity S-wave (km/s) = 3.79638 4.34338 4.07906
# Velocity P-wave (km/s) = 5.95716 6.85685 6.42278
#
# Compressibility (1/GPa) = 0.02908368
#
# Stress axis : x y z
#
# Youngs Moduli (GPa) = 50.86284 104.38295 76.19447
#
# Poissons Ratio (x) = 0.04990 0.25832
# Poissons Ratio (y) = 0.02432 0.21124
# Poissons Ratio (z) = 0.17244 0.28939
#
# Static dielectric constant tensor:
#      x y z
#    x 1.712550 0.020070 -0.001790 
#    y 0.020070 1.875360 -0.017620 
#    z -0.001790 -0.017620 1.712770 
# 
# From -- ./inp_files/184634.got.cif
#   From: 2010.05.17/outbox.cif.g08.bks.cpg/sg2_93_cif.got.tgz:184634.got - 2010.06.03 11:33:40.
