data_PCOD9045245
_publ_section_title
;
Structure prediction by ZEFSAII (Michael W. Deem and Ramdas Pophale) SiO2 
 PCOD9045245
Probable space group: P -1
;
_chemical_formula_sum "Si O2"
_cell_formula_units_Z 15
_cell_length_a 13.159240
_cell_length_b 13.297916
_cell_length_c 9.607887
_cell_angle_alpha 82.180975
_cell_angle_beta 60.898701
_cell_angle_gamma 31.313675
_cell_volume 601.794072
_symmetry_space_group_name_H-M "P -1"
_symmetry_group_IT_number 2
_symmetry_cell_setting 'triclinic'
loop_
_space_group_symop_operation_xyz
x,y,z
-x,-y,-z
loop_
_atom_site_type_symbol
_atom_site_label
_atom_site_fract_x
_atom_site_fract_y
_atom_site_fract_z
Si Si1 0.500000 0.000000 0.000000
Si Si2 0.430030 0.897244 0.649521
Si Si3 0.272111 0.211511 0.870414
Si Si4 0.890725 0.230854 0.487476
Si Si5 0.162164 0.537358 0.719530
Si Si6 0.202575 0.408461 0.290247
Si Si7 0.109052 0.702941 0.210456
Si Si8 0.468848 0.666692 0.242003
O O1 0.443389 0.987068 0.205081
O O2 0.675148 0.757611 0.879511
O O3 0.674338 0.689939 0.409976
O O4 0.549653 0.755580 0.738296
O O5 0.172426 0.040427 0.730031
O O6 0.334074 0.085634 0.728148
O O7 0.168738 0.221691 0.074033
O O8 0.000000 0.500000 0.000000
O O9 0.823431 0.383238 0.413871
O O10 0.856951 0.274219 0.667302
O O11 0.679394 0.306672 0.579830
O O12 0.211025 0.939897 0.309106
O O13 0.313670 0.448561 0.778711
O O14 0.065325 0.618384 0.285312
O O15 0.000000 0.500000 0.500000
O O16 0.361420 0.509503 0.970180
#
# Coordination Sequence:
#
# PCOD9045245 Si02
#       8
#     1   2   2   2   2   2   2   2
#     4  10  24  38  64  94 130 176 220 272 320 394
#     4  11  24  43  66 101 135 178 222 273 333 393
#     4  11  25  42  65  99 134 177 222 269 330 393
#     4  11  26  46  71 100 133 175 226 282 340 399
#     4  12  24  44  70  99 136 177 220 278 334 400
#     4  11  25  42  65  99 134 177 222 269 330 393
#     4  12  24  44  70  99 136 177 220 278 334 400
#     4  11  26  46  71 100 133 175 226 282 340 399
#
# _framework density 24.925471000000002
#
# number of rings (size 3 to 8) (size 9 to 14) (size 15 to 20)
#    0.000    0.800    4.000    2.400    3.733    3.200 
#    0.000    0.667    0.000    0.000    0.000    0.000 
#    0.000    0.000    0.000    0.000    0.000    0.000 
#
# Total GULP energy -83801.218755 kJ/mol
# GULP energy per Si atom -5586.747917 kJ/mol
# Density = 2.486874 g / cm^3
# Si number density = 24.925471 Si / 1000 Ang^3
#
#
#
# Elastic Constant Matrix: (Units=GPa)
#
#
# Indices 1 2 3 4 5 6 
#
# 1 71.7054 8.2225 15.6500 7.9122 -1.2217 -12.9187
# 2 8.2225 89.9802 6.2153 8.7648 -6.0102 -11.5942
# 3 15.6500 6.2153 113.6938 36.9332 5.7099 -3.0591
# 4 7.9122 8.7648 36.9332 38.3667 8.6087 8.8081
# 5 -1.2217 -6.0102 5.7099 8.6087 44.9966 -4.4585
# 6 -12.9187 -11.5942 -3.0591 8.8081 -4.4585 44.0040
#
#
#
# Elastic Compliance Matrix: (Units=1/GPa)
#
#
# Indices 1 2 3 4 5 6 
#
# 1 0.015605 -0.000137 -0.000733 -0.004160 0.001841 0.005514
# 2 -0.000137 0.012423 0.001173 -0.005725 0.003075 0.004772
# 3 -0.000733 0.001173 0.013563 -0.014470 0.001590 0.004094
# 4 -0.004160 -0.005725 -0.014470 0.047568 -0.009551 -0.014225
# 5 0.001841 0.003075 0.001590 -0.009551 0.024894 0.005895
# 6 0.005514 0.004772 0.004094 -0.014225 0.005895 0.029330
#
#
# Mechanical properties :
#
#
# Convention : Reuss Voigt Hill
#
# Bulk Modulus (GPa) = 23.69795 37.28389 30.49092
# Shear Modulus (GPa) = 31.87887 41.82625 36.85256
#
# Velocity S-wave (km/s) = 3.58015 4.10085 3.84931
# Velocity P-wave (km/s) = 5.15927 6.11664 5.65824
#
# Compressibility (1/GPa) = 0.04219775
#
# Stress axis : x y z
#
# Youngs Moduli (GPa) = 64.08042 80.49643 73.72905
#
# Poissons Ratio (x) = 0.01101 0.05407
# Poissons Ratio (y) = 0.00877 -0.08651
# Poissons Ratio (z) = 0.04700 -0.09445
#
# Static dielectric constant tensor:
#      x y z
#    x 2.120640 -0.152530 0.022740 
#    y -0.152530 2.228410 -0.101800 
#    z 0.022740 -0.101800 2.048960 
# 
# From -- ./inp_files/313097.got.cif
#   From: 2010.05.17/outbox.cif.g08.bks.cpg/sg2_157_cif.got.tgz:313097.got - 2010.06.03 11:33:40.
