data_PCOD9045377
_publ_section_title
;
Structure prediction by ZEFSAII (Michael W. Deem and Ramdas Pophale) SiO2 
 PCOD9045377
Probable space group: P -1
;
_chemical_formula_sum "Si O2"
_cell_formula_units_Z 13
_cell_length_a 15.394104
_cell_length_b 8.542866
_cell_length_c 8.344112
_cell_angle_alpha 35.053436
_cell_angle_beta 70.707283
_cell_angle_gamma 62.841862
_cell_volume 558.744802
_symmetry_space_group_name_H-M "P -1"
_symmetry_group_IT_number 2
_symmetry_cell_setting 'triclinic'
loop_
_space_group_symop_operation_xyz
x,y,z
-x,-y,-z
loop_
_atom_site_type_symbol
_atom_site_label
_atom_site_fract_x
_atom_site_fract_y
_atom_site_fract_z
Si Si1 0.223313 0.943372 0.849004
Si Si2 0.487192 0.745575 0.526693
Si Si3 0.731270 0.042829 0.816028
Si Si4 0.000000 0.000000 0.000000
Si Si5 0.042200 0.165266 0.205388
Si Si6 0.396427 0.353973 0.773074
Si Si7 0.665257 0.700047 0.690429
O O1 0.253974 0.192307 0.536414
O O2 0.261098 0.924598 0.024681
O O3 0.107551 0.013615 0.868748
O O4 0.278317 0.623502 0.008485
O O5 0.452712 0.466842 0.780476
O O6 0.523786 0.794036 0.287949
O O7 0.580385 0.685267 0.633999
O O8 0.397302 0.026364 0.395496
O O9 0.669726 0.346412 0.521977
O O10 0.840302 0.938242 0.768796
O O11 0.676623 0.815876 0.008398
O O12 0.017463 0.100061 0.092836
O O13 0.000000 0.000000 0.500000
O O14 0.000000 0.500000 0.000000
#
# Coordination Sequence:
#
# PCOD9045377 Si02
#       7
#     2   2   2   1   2   2   2
#     4  11  23  44  67  96 132 179 225 283 354 414
#     4  10  24  40  63  96 132 176 223 278 336 413
#     4  11  22  42  66  94 134 179 220 284 350 410
#     4  10  28  48  78 106 144 190 242 302 366 430
#     4  11  26  47  74 107 144 185 241 303 362 429
#     4  11  23  40  63  92 132 175 224 271 341 415
#     4  11  24  41  64  94 134 173 223 281 341 409
#
# _framework density 23.266434
#
# number of rings (size 3 to 8) (size 9 to 14) (size 15 to 20)
#    0.000    1.231    3.077    0.923    0.000   18.462 
#    0.000    0.000    0.000    0.000    0.000    0.000 
#    0.000    0.000    0.000    0.000    0.000    0.000 
#
# Total GULP energy -72562.154419 kJ/mol
# GULP energy per Si atom -5581.704186 kJ/mol
# Density = 2.321348 g / cm^3
# Si number density = 23.266434 Si / 1000 Ang^3
#
#
#
# Elastic Constant Matrix: (Units=GPa)
#
#
# Indices 1 2 3 4 5 6 
#
# 1 168.9543 54.2507 52.8050 8.4628 -54.2885 3.8049
# 2 54.2507 135.5473 37.9044 8.8431 -30.9585 -1.3249
# 3 52.8050 37.9044 127.0811 -6.0961 -38.7671 -0.7828
# 4 8.4628 8.8431 -6.0961 26.0623 -0.0885 -11.4469
# 5 -54.2885 -30.9585 -38.7671 -0.0885 37.3171 5.7730
# 6 3.8049 -1.3249 -0.7828 -11.4469 5.7730 29.9195
#
#
#
# Elastic Compliance Matrix: (Units=1/GPa)
#
#
# Indices 1 2 3 4 5 6 
#
# 1 0.013042 -0.000232 0.000520 -0.007741 0.020632 -0.008598
# 2 -0.000232 0.009610 -0.000807 -0.004531 0.007203 -0.002689
# 3 0.000520 -0.000807 0.011841 0.002333 0.012599 -0.001330
# 4 -0.007741 -0.004531 0.002333 0.053681 -0.016263 0.024520
# 5 0.020632 0.007203 0.012599 -0.016263 0.079479 -0.023533
# 6 -0.008598 -0.002689 -0.001330 0.024520 -0.023533 0.048284
#
#
# Mechanical properties :
#
#
# Convention : Reuss Voigt Hill
#
# Bulk Modulus (GPa) = 29.89081 80.16700 55.02891
# Shear Modulus (GPa) = 21.91771 37.76796 29.84283
#
# Velocity S-wave (km/s) = 3.07258 4.03337 3.58530
# Velocity P-wave (km/s) = 5.04606 7.49811 6.39079
#
# Compressibility (1/GPa) = 0.03345509
#
# Stress axis : x y z
#
# Youngs Moduli (GPa) = 76.67728 104.05549 84.45356
#
# Poissons Ratio (x) = 0.02412 -0.04390
# Poissons Ratio (y) = 0.01777 0.06814
# Poissons Ratio (z) = -0.03986 0.08396
#
# Static dielectric constant tensor:
#      x y z
#    x 1.850770 0.038640 0.052900 
#    y 0.038640 1.926250 0.018680 
#    z 0.052900 0.018680 1.868460 
# 
# From -- ./inp_files/50333.got.cif
#   From: 2010.05.17/outbox.cif.g08.bks.cpg/sg2_26_cif.got.tgz:50333.got - 2010.06.03 11:33:40.
