data_PCOD9045839
_publ_section_title
;
Structure prediction by ZEFSAII (Michael W. Deem and Ramdas Pophale) SiO2 
 PCOD9045839
Probable space group: P -1
;
_chemical_formula_sum "Si O2"
_cell_formula_units_Z 16
_cell_length_a 17.867367
_cell_length_b 24.131792
_cell_length_c 14.664188
_cell_angle_alpha 160.620245
_cell_angle_beta 30.214297
_cell_angle_gamma 159.671938
_cell_volume 717.312993
_symmetry_space_group_name_H-M "P -1"
_symmetry_group_IT_number 2
_symmetry_cell_setting 'triclinic'
loop_
_space_group_symop_operation_xyz
x,y,z
-x,-y,-z
loop_
_atom_site_type_symbol
_atom_site_label
_atom_site_fract_x
_atom_site_fract_y
_atom_site_fract_z
Si Si1 0.473877 0.355396 0.214376
Si Si2 0.754987 0.434173 0.617190
Si Si3 0.185139 0.573325 0.147582
Si Si4 0.646614 0.861814 0.538858
Si Si5 0.964497 0.815271 0.151288
Si Si6 0.144482 0.629015 0.958625
Si Si7 0.527117 0.726575 0.651088
Si Si8 0.220193 0.814849 0.650836
O O1 0.500000 0.500000 0.500000
O O2 0.447644 0.469518 0.338281
O O3 0.673507 0.403424 0.043267
O O4 0.284207 0.061433 0.968285
O O5 0.547759 0.341399 0.641778
O O6 0.698791 0.217106 0.393710
O O7 0.957368 0.570891 0.548432
O O8 0.863485 0.638836 0.897088
O O9 0.304070 0.785623 0.427845
O O10 0.010010 0.541413 0.229012
O O11 0.074675 0.335704 0.955046
O O12 0.531344 0.809589 0.675006
O O13 0.817789 0.859131 0.379969
O O14 0.774014 0.118240 0.756853
O O15 0.221202 0.061525 0.252372
O O16 0.356729 0.688302 0.831320
O O17 0.000000 0.500000 0.000000
#
# Coordination Sequence:
#
# PCOD9045839 Si02
#       8
#     2   2   2   2   2   2   2   2
#     4  12  25  43  73 105 146 188 243 298 361 431
#     4  10  24  41  73 102 144 186 242 299 357 431
#     4  11  23  47  72 103 144 191 243 294 364 438
#     4  12  24  45  71 106 144 187 251 295 357 433
#     4  11  23  46  72 104 140 193 245 291 359 434
#     4  12  28  43  69 110 146 186 242 307 364 423
#     4  12  25  45  73 102 142 191 240 298 363 431
#     4  10  24  45  71 106 141 196 240 293 368 433
#
# _framework density 22.305465999999999
#
# number of rings (size 3 to 8) (size 9 to 14) (size 15 to 20)
#    0.000    0.750    2.500    4.500    8.750    1.000 
#    0.000    2.500    0.000    0.000    0.000    0.000 
#    0.000    0.000    0.000    0.000    0.000    0.000 
#
# Total GULP energy -89456.173619 kJ/mol
# GULP energy per Si atom -5591.010851 kJ/mol
# Density = 2.225470 g / cm^3
# Si number density = 22.305466 Si / 1000 Ang^3
#
#
#
# Elastic Constant Matrix: (Units=GPa)
#
#
# Indices 1 2 3 4 5 6 
#
# 1 112.6588 62.6446 39.9066 12.3259 0.6138 -0.2597
# 2 62.6446 141.2763 47.1164 -5.5268 -0.5900 -12.1821
# 3 39.9066 47.1164 127.3162 6.0929 -4.1178 -11.7444
# 4 12.3259 -5.5268 6.0929 37.1522 -9.3090 -6.3001
# 5 0.6138 -0.5900 -4.1178 -9.3090 36.0363 -0.9160
# 6 -0.2597 -12.1821 -11.7444 -6.3001 -0.9160 41.7098
#
#
#
# Elastic Compliance Matrix: (Units=1/GPa)
#
#
# Indices 1 2 3 4 5 6 
#
# 1 0.013547 -0.005806 -0.002172 -0.006103 -0.002232 -0.003194
# 2 -0.005806 0.010817 -0.002064 0.004772 0.001357 0.003293
# 3 -0.002172 -0.002064 0.009544 -0.000560 0.001000 0.002008
# 4 -0.006103 0.004772 -0.000560 0.033033 0.008813 0.006381
# 5 -0.002232 0.001357 0.001000 0.008813 0.030269 0.002660
# 6 -0.003194 0.003293 0.002008 0.006381 0.002660 0.026505
#
#
# Mechanical properties :
#
#
# Convention : Reuss Voigt Hill
#
# Bulk Modulus (GPa) = 72.34260 75.62072 73.98166
# Shear Modulus (GPa) = 33.69123 38.41857 36.05490
#
# Velocity S-wave (km/s) = 3.89066 4.15466 4.02483
# Velocity P-wave (km/s) = 7.25852 7.54923 7.40530
#
# Compressibility (1/GPa) = 0.01382311
#
# Stress axis : x y z
#
# Youngs Moduli (GPa) = 73.81889 92.44333 104.78147
#
# Poissons Ratio (x) = 0.53671 0.22762
# Poissons Ratio (y) = 0.42858 0.21629
# Poissons Ratio (z) = 0.16036 0.19082
#
# Static dielectric constant tensor:
#      x y z
#    x 1.847560 -0.030450 0.030490 
#    y -0.030450 1.867380 -0.021960 
#    z 0.030490 -0.021960 1.850520 
# 
# From -- ./inp_files/462429.got.cif
#   From: 2010.05.17/outbox.cif.g08.bks.cpg/sg2_232_cif.got.tgz:462429.got - 2010.06.03 11:33:40.
