data_PCOD9045202
_publ_section_title
;
Structure prediction by ZEFSAII (Michael W. Deem and Ramdas Pophale) SiO2 
 PCOD9045202
Probable space group: P -1
;
_chemical_formula_sum "Si O2"
_cell_formula_units_Z 15
_cell_length_a 15.593862
_cell_length_b 11.964276
_cell_length_c 16.112129
_cell_angle_alpha 128.168337
_cell_angle_beta 162.192408
_cell_angle_gamma 54.262467
_cell_volume 722.643305
_symmetry_space_group_name_H-M "P -1"
_symmetry_group_IT_number 2
_symmetry_cell_setting 'triclinic'
loop_
_space_group_symop_operation_xyz
x,y,z
-x,-y,-z
loop_
_atom_site_type_symbol
_atom_site_label
_atom_site_fract_x
_atom_site_fract_y
_atom_site_fract_z
Si Si1 0.260952 0.707485 0.153519
Si Si2 0.125144 0.090248 0.339838
Si Si3 0.914711 0.219409 0.787054
Si Si4 0.516559 0.628453 0.641012
Si Si5 0.408998 0.732240 0.060029
Si Si6 0.725534 0.463436 0.287420
Si Si7 0.783015 0.525043 0.554944
Si Si8 0.000000 0.000000 0.000000
O O1 0.077497 0.578787 0.887219
O O2 0.166423 0.728127 0.171306
O O3 0.582874 0.663169 0.428369
O O4 0.175107 0.849733 0.092544
O O5 0.392160 0.143885 0.663011
O O6 0.159155 0.044729 0.255092
O O7 0.009664 0.945212 0.209838
O O8 0.905145 0.216149 0.195802
O O9 0.649638 0.243424 0.495567
O O10 0.165936 0.318955 0.031672
O O11 0.500000 0.500000 0.500000
O O12 0.371799 0.575918 0.567460
O O13 0.507659 0.591465 0.134091
O O14 0.418766 0.678504 0.949034
O O15 0.805201 0.457199 0.453806
O O16 0.000000 0.500000 0.500000
#
# Coordination Sequence:
#
# PCOD9045202 Si02
#       8
#     2   2   2   2   2   2   2   1
#     4  11  22  38  57  94 126 167 196 247 307 381
#     4  11  23  40  63  90 128 172 198 254 313 383
#     4  11  22  39  62  93 130 167 204 242 314 385
#     4  12  21  40  62  93 127 166 206 261 306 368
#     4  11  23  42  64  90 124 162 209 259 313 368
#     4  11  25  43  66  96 120 164 218 266 315 371
#     4  12  25  37  66  88 127 158 208 263 315 352
#     4  10  24  36  58  90 132 158 210 232 304 396
#
# _framework density 20.757128000000002
#
# number of rings (size 3 to 8) (size 9 to 14) (size 15 to 20)
#    0.000    0.800    4.000    3.600    3.733    4.267 
#    0.000    0.000    0.000    4.800    0.000    0.000 
#    0.000    0.000    0.000    0.000    0.000    0.000 
#
# Total GULP energy -83620.797677 kJ/mol
# GULP energy per Si atom -5574.719845 kJ/mol
# Density = 2.070988 g / cm^3
# Si number density = 20.757128 Si / 1000 Ang^3
#
#
#
# Elastic Constant Matrix: (Units=GPa)
#
#
# Indices 1 2 3 4 5 6 
#
# 1 115.7241 28.9033 19.0899 11.7884 -17.0073 -4.1282
# 2 28.9033 60.9378 12.9052 8.5246 -9.5550 -2.4521
# 3 19.0899 12.9052 82.5537 6.6596 -3.5053 -4.4203
# 4 11.7884 8.5246 6.6596 41.2743 -4.8984 -9.7033
# 5 -17.0073 -9.5550 -3.5053 -4.8984 34.9790 1.6113
# 6 -4.1282 -2.4521 -4.4203 -9.7033 1.6113 21.6640
#
#
#
# Elastic Compliance Matrix: (Units=1/GPa)
#
#
# Indices 1 2 3 4 5 6 
#
# 1 0.010571 -0.003890 -0.001544 -0.001448 0.003704 0.000335
# 2 -0.003890 0.019415 -0.001835 -0.002295 0.002914 -0.000163
# 3 -0.001544 -0.001835 0.012915 -0.000870 -0.000161 0.001755
# 4 -0.001448 -0.002295 -0.000870 0.028267 0.001997 0.011799
# 5 0.003704 0.002914 -0.000161 0.001997 0.031470 -0.000443
# 6 0.000335 -0.000163 0.001755 0.011799 -0.000443 0.051881
#
#
# Mechanical properties :
#
#
# Convention : Reuss Voigt Hill
#
# Bulk Modulus (GPa) = 35.25862 42.33470 38.79666
# Shear Modulus (GPa) = 28.00913 32.80459 30.40686
#
# Velocity S-wave (km/s) = 3.67737 3.97974 3.83154
# Velocity P-wave (km/s) = 5.92063 6.44649 6.18915
#
# Compressibility (1/GPa) = 0.02836186
#
# Stress axis : x y z
#
# Youngs Moduli (GPa) = 94.59396 51.50529 77.43102
#
# Poissons Ratio (x) = 0.20036 0.11958
# Poissons Ratio (y) = 0.36799 0.14211
# Poissons Ratio (z) = 0.14609 0.09453
#
# Static dielectric constant tensor:
#      x y z
#    x 1.756070 0.016370 0.004040 
#    y 0.016370 1.737080 0.010230 
#    z 0.004040 0.010230 1.745360 
# 
# From -- ./inp_files/454664.got.cif
#   From: 2010.05.17/outbox.cif.g08.bks.cpg/sg2_228_cif.got.tgz:454664.got - 2010.06.03 11:33:40.
