data_PCOD9045464
_publ_section_title
;
Structure prediction by ZEFSAII (Michael W. Deem and Ramdas Pophale) SiO2 
 PCOD9045464
Probable space group: P -1
;
_chemical_formula_sum "Si O2"
_cell_formula_units_Z 12
_cell_length_a 11.845951
_cell_length_b 8.346279
_cell_length_c 4.852008
_cell_angle_alpha 93.293334
_cell_angle_beta 100.125212
_cell_angle_gamma 82.878085
_cell_volume 468.289235
_symmetry_space_group_name_H-M "P -1"
_symmetry_group_IT_number 2
_symmetry_cell_setting 'triclinic'
loop_
_space_group_symop_operation_xyz
x,y,z
-x,-y,-z
loop_
_atom_site_type_symbol
_atom_site_label
_atom_site_fract_x
_atom_site_fract_y
_atom_site_fract_z
Si Si1 0.932964 0.148158 0.827717
Si Si2 0.528385 0.297824 0.743729
Si Si3 0.343326 0.165493 0.002371
Si Si4 0.314540 0.501447 0.798940
Si Si5 0.693087 0.039507 0.525774
Si Si6 0.932302 0.353826 0.369897
O O1 0.980938 0.202179 0.563202
O O2 0.807166 0.100151 0.702044
O O3 0.934355 0.300257 0.048821
O O4 0.000000 0.000000 0.000000
O O5 0.621624 0.388098 0.956145
O O6 0.592285 0.186353 0.529548
O O7 0.468425 0.184718 0.924956
O O8 0.417261 0.424770 0.633215
O O9 0.279307 0.344975 0.934704
O O10 0.291442 0.032487 0.778247
O O11 0.339119 0.105546 0.304794
O O12 0.203354 0.594730 0.621599
O O13 0.000000 0.500000 0.500000
#
# Coordination Sequence:
#
# PCOD9045464 Si02
#       6
#     2   2   2   2   2   2
#     4  12  29  47  74 102 139 185 232 291 350 407
#     4   9  20  44  66 102 139 186 223 282 341 408
#     4  10  24  40  68 100 136 183 226 273 342 409
#     4   9  22  44  69 102 139 180 229 286 342 407
#     4  12  23  44  67  99 144 176 231 280 340 413
#     4  12  27  51  74 103 137 182 238 289 346 412
#
# _framework density 25.625188999999999
#
# number of rings (size 3 to 8) (size 9 to 14) (size 15 to 20)
#    1.000    0.333    1.667    3.000    4.667    1.333 
#    0.000    2.500    0.000    0.000    0.000    0.000 
#    0.000    0.000    0.000    0.000    0.000    0.000 
#
# Total GULP energy -67258.499432 kJ/mol
# GULP energy per Si atom -5604.874953 kJ/mol
# Density = 2.556686 g / cm^3
# Si number density = 25.625189 Si / 1000 Ang^3
#
#
#
# Elastic Constant Matrix: (Units=GPa)
#
#
# Indices 1 2 3 4 5 6 
#
# 1 42.5118 4.8251 27.4831 3.7192 21.6585 7.8708
# 2 4.8251 107.6663 36.8686 8.6955 14.0400 1.6393
# 3 27.4831 36.8686 122.9216 9.0176 12.6627 8.6106
# 4 3.7192 8.6955 9.0176 46.0699 8.8317 17.3509
# 5 21.6585 14.0400 12.6627 8.8317 45.1575 -3.0539
# 6 7.8708 1.6393 8.6106 17.3509 -3.0539 28.1764
#
#
#
# Elastic Compliance Matrix: (Units=1/GPa)
#
#
# Indices 1 2 3 4 5 6 
#
# 1 0.041148 0.003063 -0.007341 0.007861 -0.021288 -0.016577
# 2 0.003063 0.010902 -0.003486 -0.000767 -0.003755 -0.000359
# 3 -0.007341 -0.003486 0.010728 -0.001152 0.001814 -0.000119
# 4 0.007861 -0.000767 -0.001152 0.032139 -0.011035 -0.022787
# 5 -0.021288 -0.003755 0.001814 -0.011035 0.036277 0.016338
# 6 -0.016577 -0.000359 -0.000119 -0.022787 0.016338 0.055981
#
#
# Mechanical properties :
#
#
# Convention : Reuss Voigt Hill
#
# Bulk Modulus (GPa) = 21.16428 45.71704 33.44066
# Shear Modulus (GPa) = 22.88807 37.47561 30.18184
#
# Velocity S-wave (km/s) = 2.99186 3.82835 3.43566
# Velocity P-wave (km/s) = 4.49579 6.11728 5.36811
#
# Compressibility (1/GPa) = 0.04724943
#
# Stress axis : x y z
#
# Youngs Moduli (GPa) = 24.30238 91.72890 93.21093
#
# Poissons Ratio (x) = -0.28100 0.68429
# Poissons Ratio (y) = -0.07445 0.32497
# Poissons Ratio (z) = 0.17841 0.31981
#
# Static dielectric constant tensor:
#      x y z
#    x 1.995410 0.006280 -0.012540 
#    y 0.006280 2.083080 -0.069410 
#    z -0.012540 -0.069410 1.996610 
# 
# From -- ./inp_files/87693.got.cif
#   From: 2010.05.17/outbox.cif.g08.bks.cpg/sg2_44_cif.got.tgz:87693.got - 2010.06.03 11:33:40.
