data_PCOD9045419
_publ_section_title
;
Structure prediction by ZEFSAII (Michael W. Deem and Ramdas Pophale) SiO2 
 PCOD9045419
Probable space group: P -1
;
_chemical_formula_sum "Si O2"
_cell_formula_units_Z 10
_cell_length_a 15.087776
_cell_length_b 9.381188
_cell_length_c 12.286933
_cell_angle_alpha 122.281251
_cell_angle_beta 17.697444
_cell_angle_gamma 124.461645
_cell_volume 435.806416
_symmetry_space_group_name_H-M "P -1"
_symmetry_group_IT_number 2
_symmetry_cell_setting 'triclinic'
loop_
_space_group_symop_operation_xyz
x,y,z
-x,-y,-z
loop_
_atom_site_type_symbol
_atom_site_label
_atom_site_fract_x
_atom_site_fract_y
_atom_site_fract_z
Si Si1 0.279553 0.903644 0.381790
Si Si2 0.790403 0.844601 0.613012
Si Si3 0.266308 0.902052 0.647890
Si Si4 0.903574 0.478721 0.347680
Si Si5 0.232047 0.407553 0.132473
O O1 0.374789 0.918524 0.401733
O O2 0.940422 0.791176 0.734524
O O3 0.283124 0.079446 0.385105
O O4 0.488979 0.809437 0.024434
O O5 0.929664 0.677445 0.365326
O O6 0.000000 0.000000 0.500000
O O7 0.158316 0.698065 0.721934
O O8 0.500000 0.000000 0.500000
O O9 0.000000 0.000000 0.000000
O O10 0.186190 0.462229 0.083772
O O11 0.576259 0.444768 0.776540
O O12 0.000000 0.500000 0.500000
#
# Coordination Sequence:
#
# PCOD9045419 Si02
#       5
#     2   2   2   2   2
#     4  10  24  40  65  98 136 169 216 274 338 393
#     4  11  24  40  66 104 140 167 201 277 358 402
#     4  11  25  46  69  92 127 180 237 274 304 377
#     4  11  24  40  67  97 129 172 221 271 329 388
#     4  11  20  36  63  96 130 164 215 267 329 393
#
# _framework density 22.945965999999999
#
# number of rings (size 3 to 8) (size 9 to 14) (size 15 to 20)
#    0.000    1.200    2.000    4.200   14.000    0.000 
#    0.000    2.000    0.000    0.000    0.000    0.000 
#    0.000    0.000    0.000    0.000    0.000    0.000 
#
# Total GULP energy -55803.965658 kJ/mol
# GULP energy per Si atom -5580.396566 kJ/mol
# Density = 2.289374 g / cm^3
# Si number density = 22.945966 Si / 1000 Ang^3
#
#
#
# Elastic Constant Matrix: (Units=GPa)
#
#
# Indices 1 2 3 4 5 6 
#
# 1 111.0664 45.9358 18.5519 1.4821 -6.8186 -4.9765
# 2 45.9358 171.6509 20.7900 36.6285 -0.9416 -8.5582
# 3 18.5519 20.7900 62.4059 17.4752 -23.5845 -13.2519
# 4 1.4821 36.6285 17.4752 43.1538 0.4381 -3.0175
# 5 -6.8186 -0.9416 -23.5845 0.4381 30.1095 -2.7830
# 6 -4.9765 -8.5582 -13.2519 -3.0175 -2.7830 35.3288
#
#
#
# Elastic Compliance Matrix: (Units=1/GPa)
#
#
# Indices 1 2 3 4 5 6 
#
# 1 0.010857 -0.003322 -0.003377 0.003801 -0.000368 -0.000246
# 2 -0.003322 0.008198 0.000467 -0.006957 0.000073 0.001105
# 3 -0.003377 0.000467 0.033574 -0.013225 0.026963 0.013226
# 4 0.003801 -0.006957 -0.013225 0.034129 -0.010585 -0.004029
# 5 -0.000368 0.000073 0.026963 -0.010585 0.055658 0.013560
# 6 -0.000246 0.001105 0.013226 -0.004029 0.013560 0.034223
#
#
# Mechanical properties :
#
#
# Convention : Reuss Voigt Hill
#
# Bulk Modulus (GPa) = 24.89681 57.29761 41.09721
# Shear Modulus (GPa) = 24.69232 39.04145 31.86688
#
# Velocity S-wave (km/s) = 3.28397 4.12934 3.73068
# Velocity P-wave (km/s) = 5.02524 6.91087 6.04207
#
# Compressibility (1/GPa) = 0.04016579
#
# Stress axis : x y z
#
# Youngs Moduli (GPa) = 92.10519 121.97751 29.78483
#
# Poissons Ratio (x) = 0.40519 0.10057
# Poissons Ratio (y) = 0.30596 -0.01390
# Poissons Ratio (z) = 0.31100 -0.05691
#
# Static dielectric constant tensor:
#      x y z
#    x 1.863710 0.013860 0.016750 
#    y 0.013860 1.974230 -0.000660 
#    z 0.016750 -0.000660 1.873910 
# 
# From -- ./inp_files/20424.got.cif
#   From: 2010.05.17/outbox.cif.g08.bks.cpg/sg2_11_cif.got.tgz:20424.got - 2010.06.03 11:33:40.
