data_PCOD9045327
_publ_section_title
;
Structure prediction by ZEFSAII (Michael W. Deem and Ramdas Pophale) SiO2 
 PCOD9045327
Probable space group: P -1
;
_chemical_formula_sum "Si O2"
_cell_formula_units_Z 16
_cell_length_a 8.438399
_cell_length_b 12.401321
_cell_length_c 19.432328
_cell_angle_alpha 28.217499
_cell_angle_beta 131.828685
_cell_angle_gamma 124.343116
_cell_volume 714.857217
_symmetry_space_group_name_H-M "P -1"
_symmetry_group_IT_number 2
_symmetry_cell_setting 'triclinic'
loop_
_space_group_symop_operation_xyz
x,y,z
-x,-y,-z
loop_
_atom_site_type_symbol
_atom_site_label
_atom_site_fract_x
_atom_site_fract_y
_atom_site_fract_z
Si Si1 0.872467 0.982326 0.841389
Si Si2 0.173772 0.576757 0.686267
Si Si3 0.319796 0.187508 0.863227
Si Si4 0.281769 0.609876 0.343789
Si Si5 0.415206 0.487325 0.302589
Si Si6 0.884776 0.624086 0.832943
Si Si7 0.751399 0.464048 0.112783
Si Si8 0.687653 0.076282 0.585176
O O1 0.745830 0.138673 0.773499
O O2 0.811943 0.055462 0.704886
O O3 0.109854 0.055302 0.876674
O O4 0.831896 0.720051 0.988628
O O5 0.313090 0.337587 0.846371
O O6 0.212949 0.633152 0.745256
O O7 0.235977 0.767505 0.543149
O O8 0.931919 0.519483 0.630383
O O9 0.362208 0.390771 0.707077
O O10 0.500000 0.000000 0.000000
O O11 0.500000 0.500000 0.500000
O O12 0.302711 0.586973 0.281137
O O13 0.468633 0.213632 0.469718
O O14 0.264591 0.530288 0.168881
O O15 0.084356 0.680475 0.809566
O O16 0.724929 0.825124 0.704778
O O17 0.000000 0.500000 0.000000
O O18 0.500000 0.500000 0.000000
#
# Coordination Sequence:
#
# PCOD9045327 Si02
#       8
#     2   2   2   2   2   2   2   2
#     4  11  25  45  70 107 140 184 234 290 355 420
#     4  10  26  45  66 103 144 182 238 289 351 425
#     4  10  24  39  70  99 142 182 232 283 354 418
#     4  11  23  42  71 101 145 181 232 295 353 422
#     4  11  24  45  71 107 141 186 239 289 361 421
#     4  12  26  47  74 102 143 188 242 294 348 423
#     4  12  28  47  69 102 144 186 240 293 350 416
#     4  11  25  45  74 100 143 188 234 289 355 423
#
# _framework density 22.382092
#
# number of rings (size 3 to 8) (size 9 to 14) (size 15 to 20)
#    0.000    1.000    3.750    1.125    7.000    5.000 
#    0.000    0.000    0.000    0.000    0.000    0.000 
#    0.000    0.000    0.000    0.000    0.000    0.000 
#
# Total GULP energy -89261.791890 kJ/mol
# GULP energy per Si atom -5578.861993 kJ/mol
# Density = 2.233115 g / cm^3
# Si number density = 22.382092 Si / 1000 Ang^3
#
#
#
# Elastic Constant Matrix: (Units=GPa)
#
#
# Indices 1 2 3 4 5 6 
#
# 1 109.4277 42.4541 20.8722 -4.0455 8.4764 -18.5442
# 2 42.4541 103.7709 40.0980 -2.6770 -3.4186 -25.1128
# 3 20.8722 40.0980 81.8100 -1.7652 -6.3325 -13.9633
# 4 -4.0455 -2.6770 -1.7652 30.3665 -14.0071 -0.2172
# 5 8.4764 -3.4186 -6.3325 -14.0071 42.7527 2.9513
# 6 -18.5442 -25.1128 -13.9633 -0.2172 2.9513 50.4564
#
#
#
# Elastic Compliance Matrix: (Units=1/GPa)
#
#
# Indices 1 2 3 4 5 6 
#
# 1 0.011406 -0.003911 -0.000851 -0.000205 -0.002918 0.002180
# 2 -0.003911 0.014323 -0.005193 0.001022 0.001197 0.004188
# 3 -0.000851 -0.005193 0.015415 0.001454 0.002428 0.001233
# 4 -0.000205 0.001022 0.001454 0.039144 0.013146 0.000235
# 5 -0.002918 0.001197 0.002428 0.013146 0.028830 -0.001434
# 6 0.002180 0.004188 0.001233 0.000235 -0.001434 0.023131
#
#
# Mechanical properties :
#
#
# Convention : Reuss Voigt Hill
#
# Bulk Modulus (GPa) = 47.09453 55.76190 51.42822
# Shear Modulus (GPa) = 31.39961 37.48742 34.44351
#
# Velocity S-wave (km/s) = 3.74958 4.09698 3.92712
# Velocity P-wave (km/s) = 6.31131 6.88099 6.60230
#
# Compressibility (1/GPa) = 0.02123389
#
# Stress axis : x y z
#
# Youngs Moduli (GPa) = 87.67228 69.81927 64.87018
#
# Poissons Ratio (x) = 0.27310 0.05522
# Poissons Ratio (y) = 0.34293 0.33684
# Poissons Ratio (z) = 0.07463 0.36254
#
# Static dielectric constant tensor:
#      x y z
#    x 1.670320 0.007130 0.202730 
#    y 0.007130 1.850860 -0.035200 
#    z 0.202730 -0.035200 1.718710 
# 
# From -- ./inp_files/500724.got.cif
#   From: 2010.05.17/outbox.cif.g08.bks.cpg/sg2_251_cif.got.tgz:500724.got - 2010.06.03 11:33:40.
