data_PCOD9045630
_publ_section_title
;
Structure prediction by ZEFSAII (Michael W. Deem and Ramdas Pophale) SiO2 
 PCOD9045630
Probable space group: P -1
;
_chemical_formula_sum "Si O2"
_cell_formula_units_Z 16
_cell_length_a 11.923973
_cell_length_b 9.173667
_cell_length_c 14.392571
_cell_angle_alpha 49.841269
_cell_angle_beta 40.318382
_cell_angle_gamma 48.377572
_cell_volume 729.617764
_symmetry_space_group_name_H-M "P -1"
_symmetry_group_IT_number 2
_symmetry_cell_setting 'triclinic'
loop_
_space_group_symop_operation_xyz
x,y,z
-x,-y,-z
loop_
_atom_site_type_symbol
_atom_site_label
_atom_site_fract_x
_atom_site_fract_y
_atom_site_fract_z
Si Si1 0.319991 0.872376 0.403791
Si Si2 0.460085 0.109834 0.577222
Si Si3 0.486161 0.555307 0.111109
Si Si4 0.104342 0.220115 0.867090
Si Si5 0.439624 0.513195 0.693635
Si Si6 0.917333 0.333361 0.241677
Si Si7 0.320404 0.131322 0.119709
Si Si8 0.243937 0.796015 0.018422
O O1 0.391253 0.978953 0.398396
O O2 0.494020 0.682403 0.334008
O O3 0.173007 0.779706 0.579312
O O4 0.271348 0.014130 0.285833
O O5 0.258845 0.130787 0.727951
O O6 0.468242 0.332996 0.466942
O O7 0.500000 0.000000 0.500000
O O8 0.488873 0.540781 0.225783
O O9 0.291744 0.683640 0.133523
O O10 0.622359 0.683029 0.953890
O O11 0.570987 0.332578 0.103267
O O12 0.096930 0.441566 0.810065
O O13 0.913752 0.233252 0.934718
O O14 0.180119 0.039216 0.969161
O O15 0.218758 0.627012 0.777652
O O16 0.134085 0.211282 0.143972
O O17 0.500000 0.000000 0.000000
#
# Coordination Sequence:
#
# PCOD9045630 Si02
#       8
#     2   2   2   2   2   2   2   2
#     4  11  22  45  70  99 138 178 222 284 338 411
#     4  11  22  41  69  98 129 175 228 274 338 403
#     4  11  23  43  62  96 139 175 221 275 343 394
#     4  11  20  43  68  94 128 179 227 273 339 400
#     4  11  22  42  70 100 134 174 222 285 336 410
#     4  11  23  44  70  99 133 175 232 281 341 401
#     4  12  25  43  67  98 135 178 225 282 345 401
#     4  10  24  41  64  94 136 179 220 278 331 411
#
# _framework density 21.929289000000001
#
# number of rings (size 3 to 8) (size 9 to 14) (size 15 to 20)
#    0.000    1.000    5.000    2.625    0.000    1.500 
#   11.250    0.625    0.000    0.000    0.000    0.000 
#    0.000    0.000    0.000    0.000    0.000    0.000 
#
# Total GULP energy -89359.716428 kJ/mol
# GULP energy per Si atom -5584.982277 kJ/mol
# Density = 2.187938 g / cm^3
# Si number density = 21.929289 Si / 1000 Ang^3
#
#
#
# Elastic Constant Matrix: (Units=GPa)
#
#
# Indices 1 2 3 4 5 6 
#
# 1 121.5256 42.2778 36.3125 11.6460 27.6740 -21.3792
# 2 42.2778 76.1953 26.0311 3.7121 2.8094 -17.6604
# 3 36.3125 26.0311 56.7965 -8.8178 5.2578 -14.9166
# 4 11.6460 3.7121 -8.8178 36.0422 -2.1173 -2.2130
# 5 27.6740 2.8094 5.2578 -2.1173 34.5479 4.2855
# 6 -21.3792 -17.6604 -14.9166 -2.2130 4.2855 39.8797
#
#
#
# Elastic Compliance Matrix: (Units=1/GPa)
#
#
# Indices 1 2 3 4 5 6 
#
# 1 0.016406 -0.004769 -0.006855 -0.006923 -0.012768 0.005107
# 2 -0.004769 0.018148 -0.004810 -0.001147 0.002592 0.003339
# 3 -0.006855 -0.004810 0.026705 0.009630 0.001847 0.004520
# 4 -0.006923 -0.001147 0.009630 0.032849 0.006119 0.000548
# 5 -0.012768 0.002592 0.001847 0.006119 0.040170 -0.008983
# 6 0.005107 0.003339 0.004520 0.000548 -0.008983 0.031978
#
#
# Mechanical properties :
#
#
# Convention : Reuss Voigt Hill
#
# Bulk Modulus (GPa) = 35.22245 51.52890 43.37568
# Shear Modulus (GPa) = 23.97092 32.08703 28.02897
#
# Velocity S-wave (km/s) = 3.30979 3.82934 3.57900
# Velocity P-wave (km/s) = 5.54103 6.56510 6.07468
#
# Compressibility (1/GPa) = 0.02839098
#
# Stress axis : x y z
#
# Youngs Moduli (GPa) = 60.95500 55.10332 37.44679
#
# Poissons Ratio (x) = 0.26281 0.25668
# Poissons Ratio (y) = 0.29071 0.18010
# Poissons Ratio (z) = 0.41782 0.26502
#
# Static dielectric constant tensor:
#      x y z
#    x 1.837080 -0.018110 0.023630 
#    y -0.018110 1.842720 -0.044900 
#    z 0.023630 -0.044900 1.817610 
# 
# From -- ./inp_files/419470.got.cif
#   From: 2010.05.17/outbox.cif.g08.bks.cpg/sg2_210_cif.got.tgz:419470.got - 2010.06.03 11:33:40.
