data_PCOD9045449
_publ_section_title
;
Structure prediction by ZEFSAII (Michael W. Deem and Ramdas Pophale) SiO2 
 PCOD9045449
Probable space group: P -1
;
_chemical_formula_sum "Si O2"
_cell_formula_units_Z 14
_cell_length_a 5.116336
_cell_length_b 19.596784
_cell_length_c 8.600357
_cell_angle_alpha 39.114887
_cell_angle_beta 96.767014
_cell_angle_gamma 83.645621
_cell_volume 511.336139
_symmetry_space_group_name_H-M "P -1"
_symmetry_group_IT_number 2
_symmetry_cell_setting 'triclinic'
loop_
_space_group_symop_operation_xyz
x,y,z
-x,-y,-z
loop_
_atom_site_type_symbol
_atom_site_label
_atom_site_fract_x
_atom_site_fract_y
_atom_site_fract_z
Si Si1 0.599293 0.573358 0.752380
Si Si2 0.334288 0.943631 0.702868
Si Si3 0.770624 0.927823 0.990634
Si Si4 0.109740 0.696225 0.275420
Si Si5 0.565593 0.685674 0.107599
Si Si6 0.928179 0.645950 0.898219
Si Si7 0.038957 0.876025 0.435154
O O1 0.320291 0.644241 0.521050
O O2 0.757998 0.646855 0.725439
O O3 0.500000 0.500000 0.000000
O O4 0.834883 0.475532 0.851497
O O5 0.487443 0.915195 0.932776
O O6 0.500000 0.000000 0.500000
O O7 0.069889 0.046528 0.556151
O O8 0.400484 0.819906 0.855045
O O9 0.849884 0.896795 0.228288
O O10 0.746029 0.060203 0.722275
O O11 0.993159 0.833320 0.062303
O O12 0.320085 0.646740 0.232650
O O13 0.829405 0.665447 0.279310
O O14 0.710186 0.655311 0.005545
O O15 0.060642 0.748078 0.712879
#
# Coordination Sequence:
#
# PCOD9045449 Si02
#       7
#     2   2   2   2   2   2   2
#     4  11  28  50  73 103 143 195 249 313 360 436
#     4  11  22  40  64 103 149 187 230 290 360 437
#     4  10  24  40  67 106 145 191 236 289 361 439
#     4  11  26  48  77 105 155 189 246 298 372 434
#     4  11  26  47  74 114 145 195 238 306 370 440
#     4  11  27  46  75 105 143 191 253 299 371 430
#     4  11  22  42  69 104 141 192 234 296 352 442
#
# _framework density 27.379246999999999
#
# number of rings (size 3 to 8) (size 9 to 14) (size 15 to 20)
#    0.000    1.143    2.857    1.286   10.000    6.286 
#    0.000    0.000    0.000    0.000    0.000    0.000 
#    0.000    0.000    0.000    0.000    0.000    0.000 
#
# Total GULP energy -78313.094344 kJ/mol
# GULP energy per Si atom -5593.792453 kJ/mol
# Density = 2.731693 g / cm^3
# Si number density = 27.379247 Si / 1000 Ang^3
#
#
#
# Elastic Constant Matrix: (Units=GPa)
#
#
# Indices 1 2 3 4 5 6 
#
# 1 117.0536 35.6855 32.8761 -14.5109 19.8691 -17.2237
# 2 35.6855 157.2660 30.2612 -16.2368 7.0010 -13.3646
# 3 32.8761 30.2612 107.5420 -7.9878 25.8186 8.2500
# 4 -14.5109 -16.2368 -7.9878 29.1245 0.2441 2.7445
# 5 19.8691 7.0010 25.8186 0.2441 50.7979 0.0617
# 6 -17.2237 -13.3646 8.2500 2.7445 0.0617 53.5489
#
#
#
# Elastic Compliance Matrix: (Units=1/GPa)
#
#
# Indices 1 2 3 4 5 6 
#
# 1 0.011058 -0.001246 -0.002277 0.003896 -0.003019 0.003400
# 2 -0.001246 0.007379 -0.001674 0.002886 0.000305 0.001551
# 3 -0.002277 -0.001674 0.012015 0.001560 -0.004990 -0.003075
# 4 0.003896 0.002886 0.001560 0.038359 -0.002898 -0.000230
# 5 -0.003019 0.000305 -0.004990 -0.002898 0.023375 -0.000005
# 6 0.003400 0.001551 -0.003075 -0.000230 -0.000005 0.020641
#
#
# Mechanical properties :
#
#
# Convention : Reuss Voigt Hill
#
# Bulk Modulus (GPa) = 49.84751 64.38970 57.11860
# Shear Modulus (GPa) = 38.48948 45.56351 42.02649
#
# Velocity S-wave (km/s) = 3.75345 4.08384 3.92213
# Velocity P-wave (km/s) = 6.08526 6.76800 6.43569
#
# Compressibility (1/GPa) = 0.02006118
#
# Stress axis : x y z
#
# Youngs Moduli (GPa) = 90.43198 135.51148 83.22765
#
# Poissons Ratio (x) = 0.16879 0.18948
# Poissons Ratio (y) = 0.11264 0.13929
# Poissons Ratio (z) = 0.20588 0.22679
#
# Static dielectric constant tensor:
#      x y z
#    x 2.283210 -0.017040 0.051780 
#    y -0.017040 2.210520 0.082150 
#    z 0.051780 0.082150 2.167640 
# 
# From -- ./inp_files/141036.got.cif
#   From: 2010.05.17/outbox.cif.g08.bks.cpg/sg2_71_cif.got.tgz:141036.got - 2010.06.03 11:33:40.
