data_PCOD9045789
_publ_section_title
;
Structure prediction by ZEFSAII (Michael W. Deem and Ramdas Pophale) SiO2 
 PCOD9045789
Probable space group: P -1
;
_chemical_formula_sum "Si O2"
_cell_formula_units_Z 16
_cell_length_a 6.676426
_cell_length_b 14.905888
_cell_length_c 22.987827
_cell_angle_alpha 160.032241
_cell_angle_beta 104.676213
_cell_angle_gamma 74.833172
_cell_volume 753.826431
_symmetry_space_group_name_H-M "P -1"
_symmetry_group_IT_number 2
_symmetry_cell_setting 'triclinic'
loop_
_space_group_symop_operation_xyz
x,y,z
-x,-y,-z
loop_
_atom_site_type_symbol
_atom_site_label
_atom_site_fract_x
_atom_site_fract_y
_atom_site_fract_z
Si Si1 0.289329 0.654495 0.464707
Si Si2 0.356892 0.991152 0.288409
Si Si3 0.400604 0.273407 0.754970
Si Si4 0.413141 0.857634 0.849774
Si Si5 0.940041 0.492271 0.422358
Si Si6 0.813890 0.186639 0.572265
Si Si7 0.056761 0.579772 0.986777
Si Si8 0.647640 0.643365 0.923783
O O1 0.425393 0.891075 0.641624
O O2 0.446432 0.411622 0.309930
O O3 0.161729 0.746004 0.453176
O O4 0.147657 0.538153 0.431446
O O5 0.210436 0.250753 0.447987
O O6 0.420432 0.796899 0.227903
O O7 0.214132 0.810625 0.131087
O O8 0.468787 0.495011 0.852082
O O9 0.376171 0.000001 0.554169
O O10 0.186760 0.349134 0.820118
O O11 0.179583 0.757924 0.762452
O O12 0.500000 0.000000 0.000000
O O13 0.434500 0.074880 0.934140
O O14 0.000000 0.500000 0.500000
O O15 0.748613 0.452063 0.764005
O O16 0.000000 0.000000 0.500000
O O17 0.000000 0.500000 0.000000
O O18 0.838386 0.667584 0.995905
#
# Coordination Sequence:
#
# PCOD9045789 Si02
#       8
#     2   2   2   2   2   2   2   2
#     4  10  25  47  74  94 139 186 225 289 342 410
#     4  10  24  41  69  99 134 176 223 273 352 406
#     4  11  25  42  67 101 134 182 219 280 347 414
#     4  11  25  48  68 105 139 182 237 281 345 405
#     4  11  26  47  72 101 135 185 238 289 342 414
#     4  11  23  44  69 102 134 177 234 276 350 411
#     4  12  25  42  64 104 144 173 221 282 347 415
#     4  12  25  43  72  98 140 180 227 288 340 422
#
# _framework density 21.225047
#
# number of rings (size 3 to 8) (size 9 to 14) (size 15 to 20)
#    0.000    1.000    3.750    1.500    5.250    6.500 
#    0.000    0.000    0.000    0.000    0.000    0.000 
#    0.000    0.000    0.000    0.000    0.000    0.000 
#
# Total GULP energy -89236.486252 kJ/mol
# GULP energy per Si atom -5577.280391 kJ/mol
# Density = 2.117674 g / cm^3
# Si number density = 21.225047 Si / 1000 Ang^3
#
#
#
# Elastic Constant Matrix: (Units=GPa)
#
#
# Indices 1 2 3 4 5 6 
#
# 1 52.6478 35.6008 8.9617 -19.2102 19.4229 9.5652
# 2 35.6008 111.5702 28.8502 2.1602 15.8156 4.2179
# 3 8.9617 28.8502 93.9262 -0.7109 27.2591 7.8888
# 4 -19.2102 2.1602 -0.7109 37.0590 -8.8682 -0.4831
# 5 19.4229 15.8156 27.2591 -8.8682 41.1026 9.5021
# 6 9.5652 4.2179 7.8888 -0.4831 9.5021 33.4087
#
#
#
# Elastic Compliance Matrix: (Units=1/GPa)
#
#
# Indices 1 2 3 4 5 6 
#
# 1 0.037830 -0.011634 0.003706 0.017779 -0.010398 -0.007023
# 2 -0.011634 0.013528 -0.003464 -0.006703 0.000644 0.002161
# 3 0.003706 -0.003464 0.014234 0.000096 -0.009545 -0.001269
# 4 0.017779 -0.006703 0.000096 0.037307 0.003238 -0.004648
# 5 -0.010398 0.000644 -0.009545 0.003238 0.037273 -0.005405
# 6 -0.007023 0.002161 -0.001269 -0.004648 -0.005405 0.033440
#
#
# Mechanical properties :
#
#
# Convention : Reuss Voigt Hill
#
# Bulk Modulus (GPa) = 23.36037 44.99660 34.17849
# Shear Modulus (GPa) = 23.73428 34.62949 29.18188
#
# Velocity S-wave (km/s) = 3.34761 4.04361 3.71196
# Velocity P-wave (km/s) = 5.09626 6.56101 5.87447
#
# Compressibility (1/GPa) = 0.04280754
#
# Stress axis : x y z
#
# Youngs Moduli (GPa) = 26.43434 73.92132 70.25217
#
# Poissons Ratio (x) = 0.86001 -0.26037
# Poissons Ratio (y) = 0.30754 0.24337
# Poissons Ratio (z) = -0.09797 0.25608
#
# Static dielectric constant tensor:
#      x y z
#    x 1.771990 -0.012480 0.013000 
#    y -0.012480 1.764970 -0.048310 
#    z 0.013000 -0.048310 1.821740 
# 
# From -- ./inp_files/484382.got.cif
#   From: 2010.05.17/outbox.cif.g08.bks.cpg/sg2_243_cif.got.tgz:484382.got - 2010.06.03 11:33:40.
