data_PCOD9045547
_publ_section_title
;
Structure prediction by ZEFSAII (Michael W. Deem and Ramdas Pophale) SiO2 
 PCOD9045547
Probable space group: P -1
;
_chemical_formula_sum "Si O2"
_cell_formula_units_Z 16
_cell_length_a 5.353734
_cell_length_b 9.394726
_cell_length_c 20.024955
_cell_angle_alpha 137.721361
_cell_angle_beta 104.637631
_cell_angle_gamma 77.769274
_cell_volume 655.104558
_symmetry_space_group_name_H-M "P -1"
_symmetry_group_IT_number 2
_symmetry_cell_setting 'triclinic'
loop_
_space_group_symop_operation_xyz
x,y,z
-x,-y,-z
loop_
_atom_site_type_symbol
_atom_site_label
_atom_site_fract_x
_atom_site_fract_y
_atom_site_fract_z
Si Si1 0.048696 0.714046 0.616204
Si Si2 0.497771 0.072762 0.893634
Si Si3 0.517393 0.965194 0.702971
Si Si4 0.992875 0.672668 0.000343
Si Si5 0.910462 0.456236 0.302103
Si Si6 0.780610 0.181195 0.550294
Si Si7 0.497415 0.189469 0.656199
Si Si8 0.861294 0.787225 0.893514
O O1 0.249911 0.847826 0.634334
O O2 0.175924 0.665173 0.680403
O O3 0.000000 0.500000 0.500000
O O4 0.777606 0.837906 0.654655
O O5 0.211620 0.152565 0.922245
O O6 0.719335 0.251157 0.972144
O O7 0.523733 0.009672 0.796738
O O8 0.585174 0.880370 0.881846
O O9 0.508473 0.176648 0.731130
O O10 0.869869 0.632985 0.904626
O O11 0.000000 0.500000 0.000000
O O12 0.705754 0.634561 0.324014
O O13 0.145799 0.594540 0.394873
O O14 0.003207 0.313466 0.197300
O O15 0.745250 0.231928 0.643969
O O16 0.554184 0.055626 0.456093
O O17 0.000000 0.000000 0.500000
O O18 0.000000 0.000000 0.000000
#
# Coordination Sequence:
#
# PCOD9045547 Si02
#       8
#     2   2   2   2   2   2   2   2
#     4  12  28  46  70 103 147 188 239 290 357 423
#     4  11  24  48  70 101 142 184 229 290 360 421
#     4  12  27  45  71 102 145 185 234 295 359 418
#     4  11  25  46  75 103 137 180 237 297 353 418
#     4  11  24  44  70 104 135 188 241 290 348 433
#     4   9  21  42  66  97 140 178 238 287 355 417
#     4  10  24  40  71  98 139 185 231 294 354 417
#     4  10  24  47  70 100 140 188 230 290 356 421
#
# _framework density 24.423582
#
# number of rings (size 3 to 8) (size 9 to 14) (size 15 to 20)
#    0.000    1.250    1.250    2.625   14.000    1.000 
#    4.500    0.000    0.000    0.000    0.000    0.000 
#    0.000    0.000    0.000    0.000    0.000    0.000 
#
# Total GULP energy -89419.751585 kJ/mol
# GULP energy per Si atom -5588.734474 kJ/mol
# Density = 2.436799 g / cm^3
# Si number density = 24.423582 Si / 1000 Ang^3
#
#
#
# Elastic Constant Matrix: (Units=GPa)
#
#
# Indices 1 2 3 4 5 6 
#
# 1 84.2685 21.9474 18.4876 10.4456 -20.3560 -1.2597
# 2 21.9474 152.6586 30.3221 -29.7326 -15.9625 4.0842
# 3 18.4876 30.3221 92.2364 -9.7021 -20.4000 -10.5556
# 4 10.4456 -29.7326 -9.7021 36.7142 0.8405 -1.8924
# 5 -20.3560 -15.9625 -20.4000 0.8405 26.9376 3.9637
# 6 -1.2597 4.0842 -10.5556 -1.8924 3.9637 39.6917
#
#
#
# Elastic Compliance Matrix: (Units=1/GPa)
#
#
# Indices 1 2 3 4 5 6 
#
# 1 0.016057 -0.002380 -0.000995 -0.007040 0.010319 -0.000876
# 2 -0.002380 0.008876 -0.001257 0.007414 0.002457 -0.001215
# 3 -0.000995 -0.001257 0.014013 0.002933 0.008567 0.003109
# 4 -0.007040 0.007414 0.002933 0.036099 -0.000056 0.001520
# 5 0.010319 0.002457 0.008567 -0.000056 0.053304 -0.002973
# 6 -0.000876 -0.001215 0.003109 0.001520 -0.002973 0.026487
#
#
# Mechanical properties :
#
#
# Convention : Reuss Voigt Hill
#
# Bulk Modulus (GPa) = 33.68786 52.29751 42.99268
# Shear Modulus (GPa) = 28.73690 37.89579 33.31634
#
# Velocity S-wave (km/s) = 3.43389 3.94332 3.69739
# Velocity P-wave (km/s) = 5.43555 6.49555 5.98905
#
# Compressibility (1/GPa) = 0.02968429
#
# Stress axis : x y z
#
# Youngs Moduli (GPa) = 62.27812 112.66761 71.36139
#
# Poissons Ratio (x) = 0.26810 0.07098
# Poissons Ratio (y) = 0.14819 0.08967
# Poissons Ratio (z) = 0.06194 0.14158
#
# Static dielectric constant tensor:
#      x y z
#    x 2.003010 -0.000590 0.103260 
#    y -0.000590 1.998310 -0.022280 
#    z 0.103260 -0.022280 1.990520 
# 
# From -- ./inp_files/548435.got.cif
#   From: 2010.05.17/outbox.cif.g08.bks.cpg/sg2_275_cif.got.tgz:548435.got - 2010.06.03 11:33:40.
