data_PCOD9045648
_publ_section_title
;
Structure prediction by ZEFSAII (Michael W. Deem and Ramdas Pophale) SiO2 
 PCOD9045648
Probable space group: P -1
;
_chemical_formula_sum "Si O2"
_cell_formula_units_Z 14
_cell_length_a 11.743849
_cell_length_b 9.147457
_cell_length_c 5.181316
_cell_angle_alpha 79.878578
_cell_angle_beta 88.056923
_cell_angle_gamma 84.425894
_cell_volume 545.276115
_symmetry_space_group_name_H-M "P -1"
_symmetry_group_IT_number 2
_symmetry_cell_setting 'triclinic'
loop_
_space_group_symop_operation_xyz
x,y,z
-x,-y,-z
loop_
_atom_site_type_symbol
_atom_site_label
_atom_site_fract_x
_atom_site_fract_y
_atom_site_fract_z
Si Si1 0.068724 0.539762 0.731210
Si Si2 0.473223 0.866268 0.861150
Si Si3 0.109657 0.783763 0.010739
Si Si4 0.654087 0.395989 0.813947
Si Si5 0.673166 0.582848 0.254717
Si Si6 0.670493 0.876462 0.454066
Si Si7 0.918198 0.918654 0.337826
O O1 0.190399 0.448747 0.738024
O O2 0.000000 0.500000 0.500000
O O3 0.090250 0.708553 0.757057
O O4 0.000000 0.500000 0.000000
O O5 0.586233 0.827846 0.696251
O O6 0.375090 0.951581 0.656908
O O7 0.423906 0.733555 0.061598
O O8 0.500000 0.000000 0.000000
O O9 0.215474 0.683608 0.161190
O O10 0.997408 0.802268 0.194045
O O11 0.133293 0.953506 0.898883
O O12 0.631101 0.477934 0.519104
O O13 0.639440 0.517069 0.005544
O O14 0.651432 0.756705 0.268139
O O15 0.806670 0.863310 0.500901
O O16 0.000000 0.000000 0.500000
#
# Coordination Sequence:
#
# PCOD9045648 Si02
#       7
#     2   2   2   2   2   2   2
#     4  11  23  41  67 101 149 195 242 297 370 447
#     4  11  28  48  79 102 150 200 253 320 370 451
#     4  10  24  41  65 108 143 198 242 302 379 446
#     4  11  26  50  75 111 153 201 245 309 384 449
#     4  11  27  45  77 108 152 195 252 314 373 449
#     4  11  27  49  72 113 142 198 262 310 378 447
#     4  11  25  42  74 104 151 194 249 315 370 455
#
# _framework density 25.675069000000001
#
# number of rings (size 3 to 8) (size 9 to 14) (size 15 to 20)
#    0.000    1.143    1.429    2.571   16.000    1.143 
#    0.000    0.000    0.000    0.000    0.000    0.000 
#    0.000    0.000    0.000    0.000    0.000    0.000 
#
# Total GULP energy -78454.223648 kJ/mol
# GULP energy per Si atom -5603.873118 kJ/mol
# Density = 2.561663 g / cm^3
# Si number density = 25.675069 Si / 1000 Ang^3
#
#
#
# Elastic Constant Matrix: (Units=GPa)
#
#
# Indices 1 2 3 4 5 6 
#
# 1 184.1012 49.5124 54.7219 17.1585 -35.8528 -0.4479
# 2 49.5124 121.4014 16.6138 5.0173 -22.0841 -26.3849
# 3 54.7219 16.6138 106.7487 13.9685 -30.1599 -22.9885
# 4 17.1585 5.0173 13.9685 60.8191 2.1379 -3.5866
# 5 -35.8528 -22.0841 -30.1599 2.1379 41.6540 -2.8354
# 6 -0.4479 -26.3849 -22.9885 -3.5866 -2.8354 34.7281
#
#
#
# Elastic Compliance Matrix: (Units=1/GPa)
#
#
# Indices 1 2 3 4 5 6 
#
# 1 0.008028 -0.003422 -0.003929 -0.001450 0.001979 -0.005085
# 2 -0.003422 0.013877 0.005622 -0.000927 0.009545 0.014904
# 3 -0.003929 0.005622 0.018816 -0.003155 0.014579 0.017541
# 4 -0.001450 -0.000927 -0.003155 0.017747 -0.005029 -0.001389
# 5 0.001979 0.009545 0.014579 -0.005029 0.042941 0.019915
# 6 -0.005085 0.014904 0.017541 -0.001389 0.019915 0.053147
#
#
# Mechanical properties :
#
#
# Convention : Reuss Voigt Hill
#
# Bulk Modulus (GPa) = 26.83550 72.66083 49.74817
# Shear Modulus (GPa) = 29.33668 46.86712 38.10190
#
# Velocity S-wave (km/s) = 3.38392 4.27710 3.85646
# Velocity P-wave (km/s) = 5.07371 7.26313 6.26481
#
# Compressibility (1/GPa) = 0.03726407
#
# Stress axis : x y z
#
# Youngs Moduli (GPa) = 124.56266 72.06085 53.14589
#
# Poissons Ratio (x) = 0.24657 0.20881
# Poissons Ratio (y) = 0.42621 -0.29879
# Poissons Ratio (z) = 0.48941 -0.40513
#
# Static dielectric constant tensor:
#      x y z
#    x 2.048560 -0.009380 0.057190 
#    y -0.009380 2.041410 -0.059500 
#    z 0.057190 -0.059500 2.035720 
# 
# From -- ./inp_files/60638.got.cif
#   From: 2010.05.17/outbox.cif.g08.bks.cpg/sg2_31_cif.got.tgz:60638.got - 2010.06.03 11:33:40.
