data_PCOD9045376
_publ_section_title
;
Structure prediction by ZEFSAII (Michael W. Deem and Ramdas Pophale) SiO2 
 PCOD9045376
Probable space group: P -1
;
_chemical_formula_sum "Si O2"
_cell_formula_units_Z 12
_cell_length_a 5.282114
_cell_length_b 8.866439
_cell_length_c 16.480460
_cell_angle_alpha 121.939421
_cell_angle_beta 85.503880
_cell_angle_gamma 121.290948
_cell_volume 538.801155
_symmetry_space_group_name_H-M "P -1"
_symmetry_group_IT_number 2
_symmetry_cell_setting 'triclinic'
loop_
_space_group_symop_operation_xyz
x,y,z
-x,-y,-z
loop_
_atom_site_type_symbol
_atom_site_label
_atom_site_fract_x
_atom_site_fract_y
_atom_site_fract_z
Si Si1 0.132873 0.861352 0.478484
Si Si2 0.980160 0.764104 0.642209
Si Si3 0.871717 0.573216 0.952137
Si Si4 0.773661 0.863970 0.142099
Si Si5 0.668193 0.160648 0.115480
Si Si6 0.343073 0.595790 0.678336
O O1 0.038908 0.781735 0.550663
O O2 0.945347 0.646300 0.367842
O O3 0.500000 0.000000 0.500000
O O4 0.000000 0.000000 0.500000
O O5 0.622088 0.602545 0.629876
O O6 0.198044 0.698693 0.657493
O O7 0.060868 0.991597 0.741898
O O8 0.526244 0.366913 0.890273
O O9 0.037888 0.639642 0.880634
O O10 0.917645 0.785424 0.051226
O O11 0.000000 0.500000 0.000000
O O12 0.714800 0.018111 0.135888
O O13 0.529438 0.264784 0.202388
O O14 0.500000 0.000000 0.000000
#
# Coordination Sequence:
#
# PCOD9045376 Si02
#       6
#     2   2   2   2   2   2
#     4  12  26  45  71 106 137 171 225 287 344 402
#     4  11  24  46  72  93 139 176 229 275 342 412
#     4  11  22  39  62  94 136 177 229 279 336 400
#     4  10  24  40  63  96 130 185 224 278 343 397
#     4  11  22  41  67  95 138 176 232 273 338 408
#     4  11  25  45  71  99 131 187 226 274 344 404
#
# _framework density 22.271667000000001
#
# number of rings (size 3 to 8) (size 9 to 14) (size 15 to 20)
#    0.000    1.000    1.667    4.500    4.667    2.667 
#    0.000    0.000    0.000    0.000    0.000    0.000 
#    0.000    0.000    0.000    0.000    0.000    0.000 
#
# Total GULP energy -67013.098979 kJ/mol
# GULP energy per Si atom -5584.424915 kJ/mol
# Density = 2.222098 g / cm^3
# Si number density = 22.271667 Si / 1000 Ang^3
#
#
#
# Elastic Constant Matrix: (Units=GPa)
#
#
# Indices 1 2 3 4 5 6 
#
# 1 65.3887 7.1965 0.3432 -5.0801 -1.1658 19.0837
# 2 7.1965 73.1481 23.0167 2.6102 -4.7388 18.1012
# 3 0.3432 23.0167 94.3433 9.9947 -0.5447 7.2989
# 4 -5.0801 2.6102 9.9947 36.4400 12.0420 -5.8389
# 5 -1.1658 -4.7388 -0.5447 12.0420 27.9921 1.5077
# 6 19.0837 18.1012 7.2989 -5.8389 1.5077 47.6109
#
#
#
# Elastic Compliance Matrix: (Units=1/GPa)
#
#
# Indices 1 2 3 4 5 6 
#
# 1 0.017405 -0.000128 0.000397 0.001009 0.000648 -0.006885
# 2 -0.000128 0.016625 -0.003260 -0.002719 0.004251 -0.006238
# 3 0.000397 -0.003260 0.011877 -0.003597 0.001309 -0.001223
# 4 0.001009 -0.002719 -0.003597 0.034958 -0.015849 0.005970
# 5 0.000648 0.004251 0.001309 -0.015849 0.043605 -0.005401
# 6 -0.006885 -0.006238 -0.001223 0.005970 -0.005401 0.027226
#
#
# Mechanical properties :
#
#
# Convention : Reuss Voigt Hill
#
# Bulk Modulus (GPa) = 25.04660 32.66587 28.85623
# Shear Modulus (GPa) = 29.24214 35.89685 32.56950
#
# Velocity S-wave (km/s) = 3.62743 4.01904 3.82825
# Velocity P-wave (km/s) = 5.36793 6.01962 5.70309
#
# Compressibility (1/GPa) = 0.03992558
#
# Stress axis : x y z
#
# Youngs Moduli (GPa) = 57.45617 60.14875 84.19747
#
# Poissons Ratio (x) = 0.00767 -0.03345
# Poissons Ratio (y) = 0.00733 0.27452
# Poissons Ratio (z) = -0.02283 0.19611
#
# Static dielectric constant tensor:
#      x y z
#    x 1.855670 0.057260 -0.003370 
#    y 0.057260 1.714520 0.041100 
#    z -0.003370 0.041100 1.903420 
# 
# From -- ./inp_files/32314.got.cif
#   From: 2010.05.17/outbox.cif.g08.bks.cpg/sg2_17_cif.got.tgz:32314.got - 2010.06.03 11:33:40.
