data_PCOD9045221
_publ_section_title
;
Structure prediction by ZEFSAII (Michael W. Deem and Ramdas Pophale) SiO2 
 PCOD9045221
Probable space group: P -1
;
_chemical_formula_sum "Si O2"
_cell_formula_units_Z 12
_cell_length_a 5.324496
_cell_length_b 12.400084
_cell_length_c 10.526384
_cell_angle_alpha 127.400182
_cell_angle_beta 59.615047
_cell_angle_gamma 87.243181
_cell_volume 407.261090
_symmetry_space_group_name_H-M "P -1"
_symmetry_group_IT_number 2
_symmetry_cell_setting 'triclinic'
loop_
_space_group_symop_operation_xyz
x,y,z
-x,-y,-z
loop_
_atom_site_type_symbol
_atom_site_label
_atom_site_fract_x
_atom_site_fract_y
_atom_site_fract_z
Si Si1 0.441511 0.369131 0.179137
Si Si2 0.753864 0.553802 0.352577
Si Si3 0.528163 0.138246 0.195111
Si Si4 0.648589 0.946196 0.244974
Si Si5 0.641901 0.638242 0.081382
Si Si6 0.938478 0.130869 0.440877
O O1 0.037558 0.456451 0.318921
O O2 0.580111 0.202906 0.096649
O O3 0.546716 0.471838 0.308895
O O4 0.563117 0.347816 0.986755
O O5 0.535924 0.729906 0.587286
O O6 0.004786 0.527547 0.149977
O O7 0.750339 0.972455 0.094890
O O8 0.158992 0.152191 0.291132
O O9 0.779180 0.028158 0.365216
O O10 0.237508 0.043549 0.406021
O O11 0.749318 0.770091 0.127475
O O12 0.367597 0.702908 0.309166
#
# Coordination Sequence:
#
# PCOD9045221 Si02
#       6
#     2   2   2   2   2   2
#     4  10  24  39  66  85 125 156 203 240 303 354
#     4  10  24  37  67  85 125 155 203 240 302 354
#     4  10  24  41  63  91 119 161 198 248 297 355
#     4  10  24  37  67  85 125 155 203 240 302 354
#     4  10  24  41  63  91 119 161 198 248 297 355
#     4  10  24  39  66  85 125 156 203 240 303 354
#
# _framework density 29.465128
#
# number of rings (size 3 to 8) (size 9 to 14) (size 15 to 20)
#    2.000    0.000    0.000    2.000    9.333    1.333 
#    0.000    3.333    0.000    0.000    0.000    0.000 
#    0.000    0.000    0.000    0.000    0.000    0.000 
#
# Total GULP energy -67239.463338 kJ/mol
# GULP energy per Si atom -5603.288611 kJ/mol
# Density = 2.939806 g / cm^3
# Si number density = 29.465128 Si / 1000 Ang^3
#
#
#
# Elastic Constant Matrix: (Units=GPa)
#
#
# Indices 1 2 3 4 5 6 
#
# 1 227.3272 32.4205 40.2881 23.4236 9.1887 42.6081
# 2 32.4205 85.5558 -9.4597 5.9337 1.0224 24.4438
# 3 40.2881 -9.4597 76.0194 11.9132 8.5635 0.0934
# 4 23.4236 5.9337 11.9132 51.7130 -0.7949 11.7070
# 5 9.1887 1.0224 8.5635 -0.7949 58.5634 22.6509
# 6 42.6081 24.4438 0.0934 11.7070 22.6509 53.7224
#
#
#
# Elastic Compliance Matrix: (Units=1/GPa)
#
#
# Indices 1 2 3 4 5 6 
#
# 1 0.006082 -0.001327 -0.003417 -0.000750 0.001344 -0.004617
# 2 -0.001327 0.014213 0.002265 -0.000103 0.002048 -0.006259
# 3 -0.003417 0.002265 0.016148 -0.003346 -0.003382 0.003806
# 4 -0.000750 -0.000103 -0.003346 0.021713 0.002967 -0.005336
# 5 0.001344 0.002048 -0.003382 0.002967 0.021967 -0.011901
# 6 -0.004617 -0.006259 0.003806 -0.005336 -0.011901 0.031298
#
#
# Mechanical properties :
#
#
# Convention : Reuss Voigt Hill
#
# Bulk Modulus (GPa) = 31.76160 57.26670 44.51415
# Shear Modulus (GPa) = 39.40934 54.50998 46.95966
#
# Velocity S-wave (km/s) = 3.66114 4.30581 3.99649
# Velocity P-wave (km/s) = 5.35488 6.64813 6.03624
#
# Compressibility (1/GPa) = 0.03148456
#
# Stress axis : x y z
#
# Youngs Moduli (GPa) = 164.41595 70.35959 61.92741
#
# Poissons Ratio (x) = 0.09340 0.21160
# Poissons Ratio (y) = 0.21825 -0.14028
# Poissons Ratio (z) = 0.56178 -0.15938
#
# Static dielectric constant tensor:
#      x y z
#    x 2.322510 -0.062480 -0.059590 
#    y -0.062480 2.335590 -0.049250 
#    z -0.059590 -0.049250 2.343780 
# 
# From -- ./inp_files/57640.got.cif
#   From: 2010.05.17/outbox.cif.g08.bks.cpg/sg2_29_cif.got.tgz:57640.got - 2010.06.03 11:33:40.
