data_PCOD9045554
_publ_section_title
;
Structure prediction by ZEFSAII (Michael W. Deem and Ramdas Pophale) SiO2 
 PCOD9045554
Probable space group: P -1
;
_chemical_formula_sum "Si O2"
_cell_formula_units_Z 15
_cell_length_a 12.146692
_cell_length_b 13.356508
_cell_length_c 10.494660
_cell_angle_alpha 146.368830
_cell_angle_beta 52.002436
_cell_angle_gamma 134.143252
_cell_volume 673.948056
_symmetry_space_group_name_H-M "P -1"
_symmetry_group_IT_number 2
_symmetry_cell_setting 'triclinic'
loop_
_space_group_symop_operation_xyz
x,y,z
-x,-y,-z
loop_
_atom_site_type_symbol
_atom_site_label
_atom_site_fract_x
_atom_site_fract_y
_atom_site_fract_z
Si Si1 0.400326 0.406808 0.640531
Si Si2 0.345416 0.774767 0.998091
Si Si3 0.096085 0.151395 0.480664
Si Si4 0.000000 0.500000 0.000000
Si Si5 0.392590 0.807694 0.708042
Si Si6 0.676913 0.595352 0.017964
Si Si7 0.157765 0.653998 0.487972
Si Si8 0.922879 0.013145 0.202250
O O1 0.423065 0.618892 0.793393
O O2 0.278804 0.228626 0.453338
O O3 0.550918 0.369814 0.518789
O O4 0.319096 0.388377 0.815621
O O5 0.329411 0.809298 0.895956
O O6 0.176253 0.678596 0.075122
O O7 0.459043 0.985007 0.199172
O O8 0.036757 0.050618 0.280249
O O9 0.000000 0.000000 0.500000
O O10 0.070727 0.352350 0.728397
O O11 0.269358 0.771063 0.647698
O O12 0.771961 0.811845 0.120366
O O13 0.500000 0.500000 0.000000
O O14 0.761118 0.460849 0.769129
O O15 0.121759 0.802573 0.581860
O O16 0.000000 0.500000 0.500000
O O17 0.000000 0.000000 0.000000
#
# Coordination Sequence:
#
# PCOD9045554 Si02
#       8
#     2   2   2   1   2   2   2   2
#     4  11  24  44  73 105 144 190 244 311 378 437
#     4  10  25  42  73 108 142 189 246 313 374 445
#     4  11  24  44  74 107 148 186 246 308 369 443
#     4  10  24  40  72 108 144 186 244 302 380 442
#     4  11  25  48  69 106 146 194 247 308 375 450
#     4  12  27  49  75 110 153 195 254 311 384 460
#     4  12  29  47  76 106 153 199 250 310 380 451
#     4  12  29  49  77 113 151 205 253 313 382 456
#
# _framework density 22.256907000000002
#
# number of rings (size 3 to 8) (size 9 to 14) (size 15 to 20)
#    0.000    0.800    4.000    1.200    9.333    3.733 
#    0.000    0.000    0.000    0.000    0.000    0.000 
#    0.000    0.000    0.000    0.000    0.000    0.000 
#
# Total GULP energy -83775.744260 kJ/mol
# GULP energy per Si atom -5585.049617 kJ/mol
# Density = 2.220625 g / cm^3
# Si number density = 22.256907 Si / 1000 Ang^3
#
#
#
# Elastic Constant Matrix: (Units=GPa)
#
#
# Indices 1 2 3 4 5 6 
#
# 1 102.8675 44.4132 27.0573 -4.6459 22.6774 8.2374
# 2 44.4132 110.6564 35.1960 7.2593 17.0203 1.7261
# 3 27.0573 35.1960 82.7182 -5.2252 6.5867 -1.1684
# 4 -4.6459 7.2593 -5.2252 37.5564 -4.6176 -0.1697
# 5 22.6774 17.0203 6.5867 -4.6176 45.3989 0.4957
# 6 8.2374 1.7261 -1.1684 -0.1697 0.4957 35.6784
#
#
#
# Elastic Compliance Matrix: (Units=1/GPa)
#
#
# Indices 1 2 3 4 5 6 
#
# 1 0.013363 -0.003985 -0.002248 0.001523 -0.004668 -0.002894
# 2 -0.003985 0.012568 -0.004081 -0.003799 -0.002518 0.000195
# 3 -0.002248 -0.004081 0.014684 0.002655 0.000780 0.001199
# 4 0.001523 -0.003799 0.002655 0.028307 0.003157 0.000010
# 5 -0.004668 -0.002518 0.000780 0.003157 0.025501 0.000886
# 6 -0.002894 0.000195 0.001199 0.000010 0.000886 0.028714
#
#
# Mechanical properties :
#
#
# Convention : Reuss Voigt Hill
#
# Bulk Modulus (GPa) = 50.03495 56.61945 53.32720
# Shear Modulus (GPa) = 33.23898 36.36512 34.80205
#
# Velocity S-wave (km/s) = 3.86868 4.04651 3.95859
# Velocity P-wave (km/s) = 6.51805 6.87944 6.70118
#
# Compressibility (1/GPa) = 0.01998603
#
# Stress axis : x y z
#
# Youngs Moduli (GPa) = 74.83465 79.56893 68.10344
#
# Poissons Ratio (x) = 0.31708 0.15312
# Poissons Ratio (y) = 0.29821 0.27791
# Poissons Ratio (z) = 0.16825 0.32470
#
# Static dielectric constant tensor:
#      x y z
#    x 1.813320 -0.014820 -0.006510 
#    y -0.014820 1.801320 -0.002490 
#    z -0.006510 -0.002490 1.820760 
# 
# From -- ./inp_files/263730.got.cif
#   From: 2010.05.17/outbox.cif.g08.bks.cpg/sg2_132_cif.got.tgz:263730.got - 2010.06.03 11:33:40.
