data_PCOD9045708
_publ_section_title
;
Structure prediction by ZEFSAII (Michael W. Deem and Ramdas Pophale) SiO2 
 PCOD9045708
Probable space group: P -1
;
_chemical_formula_sum "Si O2"
_cell_formula_units_Z 10
_cell_length_a 11.404426
_cell_length_b 6.400443
_cell_length_c 7.908565
_cell_angle_alpha 60.883771
_cell_angle_beta 109.686298
_cell_angle_gamma 83.619311
_cell_volume 447.515620
_symmetry_space_group_name_H-M "P -1"
_symmetry_group_IT_number 2
_symmetry_cell_setting 'triclinic'
loop_
_space_group_symop_operation_xyz
x,y,z
-x,-y,-z
loop_
_atom_site_type_symbol
_atom_site_label
_atom_site_fract_x
_atom_site_fract_y
_atom_site_fract_z
Si Si1 0.903835 0.381065 0.903988
Si Si2 0.583329 0.313964 0.469941
Si Si3 0.335550 0.261914 0.198089
Si Si4 0.205632 0.501375 0.691013
Si Si5 0.042360 0.156010 0.706001
O O1 0.760250 0.592702 0.753986
O O2 0.964324 0.287525 0.787491
O O3 0.000000 0.500000 0.000000
O O4 0.901961 0.136418 0.104751
O O5 0.500000 0.500000 0.500000
O O6 0.479432 0.279005 0.295241
O O7 0.687260 0.426561 0.394030
O O8 0.655249 0.030900 0.688056
O O9 0.268428 0.404853 0.940650
O O10 0.156504 0.276784 0.683905
O O11 0.071437 0.746207 0.528594
#
# Coordination Sequence:
#
# PCOD9045708 Si02
#       5
#     2   2   2   2   2
#     4  11  21  43  69  96 138 173 212 269 330 390
#     4  11  26  48  67  92 134 177 222 276 323 383
#     4  11  25  44  69  98 127 179 222 267 328 388
#     4  11  23  45  66 101 132 170 222 269 326 393
#     4  10  24  41  67 103 135 171 212 268 334 391
#
# _framework density 22.345589
#
# number of rings (size 3 to 8) (size 9 to 14) (size 15 to 20)
#    0.000    1.200    2.000    3.000    5.600    1.600 
#   14.400    0.000    0.000    0.000    0.000    0.000 
#    0.000    0.000    0.000    0.000    0.000    0.000 
#
# Total GULP energy -55983.346414 kJ/mol
# GULP energy per Si atom -5598.334641 kJ/mol
# Density = 2.229473 g / cm^3
# Si number density = 22.345589 Si / 1000 Ang^3
#
#
#
# Elastic Constant Matrix: (Units=GPa)
#
#
# Indices 1 2 3 4 5 6 
#
# 1 158.5007 64.9565 44.9552 -16.4228 -10.0823 33.4263
# 2 64.9565 104.8571 58.9560 -38.2592 -13.9159 -2.6957
# 3 44.9552 58.9560 137.7933 -6.7496 -9.6654 6.3394
# 4 -16.4228 -38.2592 -6.7496 46.2547 4.9362 0.1594
# 5 -10.0823 -13.9159 -9.6654 4.9362 29.3907 -6.4886
# 6 33.4263 -2.6957 6.3394 0.1594 -6.4886 39.8227
#
#
#
# Elastic Compliance Matrix: (Units=1/GPa)
#
#
# Indices 1 2 3 4 5 6 
#
# 1 0.011845 -0.009167 0.000264 -0.003078 -0.002087 -0.010933
# 2 -0.009167 0.027138 -0.007839 0.017278 0.006835 0.011824
# 3 0.000264 -0.007839 0.010402 -0.004874 0.000095 -0.002373
# 4 -0.003078 0.017278 -0.004874 0.034005 0.000810 0.004525
# 5 -0.002087 0.006835 0.000095 0.000810 0.038303 0.008437
# 6 -0.010933 0.011824 -0.002373 0.004525 0.008437 0.036823
#
#
# Mechanical properties :
#
#
# Convention : Reuss Voigt Hill
#
# Bulk Modulus (GPa) = 62.88856 82.09851 72.49354
# Shear Modulus (GPa) = 25.34196 38.57919 31.96057
#
# Velocity S-wave (km/s) = 3.37128 4.15960 3.78601
# Velocity P-wave (km/s) = 6.58474 7.73885 7.18500
#
# Compressibility (1/GPa) = 0.01590114
#
# Stress axis : x y z
#
# Youngs Moduli (GPa) = 84.42270 36.84811 96.13337
#
# Poissons Ratio (x) = 0.33779 -0.02533
# Poissons Ratio (y) = 0.77391 0.75357
# Poissons Ratio (z) = -0.02225 0.28885
#
# Static dielectric constant tensor:
#      x y z
#    x 1.808420 -0.009060 0.015330 
#    y -0.009060 1.837090 0.028000 
#    z 0.015330 0.028000 1.846900 
# 
# From -- ./inp_files/19958.got.cif
#   From: 2010.05.17/outbox.cif.g08.bks.cpg/sg2_10_cif.got.tgz:19958.got - 2010.06.03 11:33:40.
