data_PCOD9045525
_publ_section_title
;
Structure prediction by ZEFSAII (Michael W. Deem and Ramdas Pophale) SiO2 
 PCOD9045525
Probable space group: P -1
;
_chemical_formula_sum "Si O2"
_cell_formula_units_Z 16
_cell_length_a 15.326022
_cell_length_b 9.300541
_cell_length_c 11.384155
_cell_angle_alpha 52.209126
_cell_angle_beta 37.543883
_cell_angle_gamma 72.496921
_cell_volume 721.381656
_symmetry_space_group_name_H-M "P -1"
_symmetry_group_IT_number 2
_symmetry_cell_setting 'triclinic'
loop_
_space_group_symop_operation_xyz
x,y,z
-x,-y,-z
loop_
_atom_site_type_symbol
_atom_site_label
_atom_site_fract_x
_atom_site_fract_y
_atom_site_fract_z
Si Si1 0.854723 0.446476 0.013255
Si Si2 0.878311 0.866554 0.789113
Si Si3 0.648312 0.709748 0.742348
Si Si4 0.167435 0.534776 0.253156
Si Si5 0.436287 0.665758 0.453495
Si Si6 0.846530 0.036056 0.180825
Si Si7 0.723064 0.030326 0.056599
Si Si8 0.443619 0.178896 0.973176
O O1 0.713546 0.372755 0.291310
O O2 0.908951 0.262472 0.049184
O O3 0.925537 0.679232 0.855413
O O4 0.822361 0.460269 0.901630
O O5 0.709978 0.817423 0.931454
O O6 0.856581 0.980639 0.870616
O O7 0.000000 0.000000 0.500000
O O8 0.783719 0.636448 0.668620
O O9 0.724569 0.870877 0.478396
O O10 0.597321 0.805679 0.857655
O O11 0.500000 0.500000 0.000000
O O12 0.000000 0.500000 0.500000
O O13 0.270452 0.751537 0.083212
O O14 0.500000 0.500000 0.500000
O O15 0.562092 0.871944 0.262133
O O16 0.422056 0.662042 0.329090
O O17 0.752292 0.022786 0.167132
O O18 0.000000 0.000000 0.000000
O O19 0.500000 0.000000 0.000000
#
# Coordination Sequence:
#
# PCOD9045525 Si02
#       8
#     2   2   2   2   2   2   2   2
#     4  11  22  43  71  92 129 180 220 272 332 396
#     4  11  23  42  73  98 128 177 234 270 325 408
#     4  12  27  42  67 103 137 175 224 279 344 399
#     4  11  23  43  69  95 136 177 225 275 333 407
#     4  11  21  42  69  95 132 169 228 275 326 397
#     4  11  27  45  66  97 143 175 221 281 343 400
#     4  10  24  40  70  96 128 176 224 269 330 400
#     4  11  25  45  65  97 139 170 215 287 336 381
#
# _framework density 22.179659000000001
#
# number of rings (size 3 to 8) (size 9 to 14) (size 15 to 20)
#    0.000    1.000    3.750    3.000   10.500    1.000 
#    0.000    0.625    0.000    0.000    0.000    0.000 
#    0.000    0.000    0.000    0.000    0.000    0.000 
#
# Total GULP energy -89186.359253 kJ/mol
# GULP energy per Si atom -5574.147453 kJ/mol
# Density = 2.212918 g / cm^3
# Si number density = 22.179659 Si / 1000 Ang^3
#
#
#
# Elastic Constant Matrix: (Units=GPa)
#
#
# Indices 1 2 3 4 5 6 
#
# 1 35.1731 13.9312 25.4756 4.7785 20.6883 -4.3618
# 2 13.9312 176.4390 48.3825 14.2370 24.3593 -15.5438
# 3 25.4756 48.3825 155.8357 11.7713 35.2263 1.4234
# 4 4.7785 14.2370 11.7713 46.5625 1.3901 2.7728
# 5 20.6883 24.3593 35.2263 1.3901 36.8527 0.6043
# 6 -4.3618 -15.5438 1.4234 2.7728 0.6043 32.2551
#
#
#
# Elastic Compliance Matrix: (Units=1/GPa)
#
#
# Indices 1 2 3 4 5 6 
#
# 1 0.045192 0.001372 -0.002079 -0.004265 -0.024254 0.007685
# 2 0.001372 0.007002 -0.001354 -0.002048 -0.004090 0.003872
# 3 -0.002079 -0.001354 0.008681 -0.001318 -0.006168 -0.001088
# 4 -0.004265 -0.002048 -0.001318 0.022960 0.004200 -0.003558
# 5 -0.024254 -0.004090 -0.006168 0.004200 0.049294 -0.006263
# 6 0.007685 0.003872 -0.001088 -0.003558 -0.006263 0.034379
#
#
# Mechanical properties :
#
#
# Convention : Reuss Voigt Hill
#
# Bulk Modulus (GPa) = 17.62077 60.33628 38.97853
# Shear Modulus (GPa) = 26.23997 41.77796 34.00896
#
# Velocity S-wave (km/s) = 3.44330 4.34477 3.92004
# Velocity P-wave (km/s) = 4.87547 7.24099 6.17261
#
# Compressibility (1/GPa) = 0.05675120
#
# Stress axis : x y z
#
# Youngs Moduli (GPa) = 22.12791 142.82163 115.19174
#
# Poissons Ratio (x) = -0.19590 0.23950
# Poissons Ratio (y) = -0.03035 0.15600
# Poissons Ratio (z) = 0.04601 0.19342
#
# Static dielectric constant tensor:
#      x y z
#    x 1.989620 0.079710 -0.056840 
#    y 0.079710 1.867660 -0.082980 
#    z -0.056840 -0.082980 1.901090 
# 
# From -- ./inp_files/227507.got.cif
#   From: 2010.05.17/outbox.cif.g08.bks.cpg/sg2_114_cif.got.tgz:227507.got - 2010.06.03 11:33:40.
