data_PCOD9045062
_publ_section_title
;
Structure prediction by ZEFSAII (Michael W. Deem and Ramdas Pophale) SiO2 
 PCOD9045062
Probable space group: P -1
;
_chemical_formula_sum "Si O2"
_cell_formula_units_Z 10
_cell_length_a 7.172929
_cell_length_b 7.937586
_cell_length_c 11.322912
_cell_angle_alpha 92.861126
_cell_angle_beta 40.604266
_cell_angle_gamma 75.973790
_cell_volume 378.101634
_symmetry_space_group_name_H-M "P -1"
_symmetry_group_IT_number 2
_symmetry_cell_setting 'triclinic'
loop_
_space_group_symop_operation_xyz
x,y,z
-x,-y,-z
loop_
_atom_site_type_symbol
_atom_site_label
_atom_site_fract_x
_atom_site_fract_y
_atom_site_fract_z
Si Si1 0.304191 0.219054 0.109650
Si Si2 0.324693 0.122880 0.477252
Si Si3 0.212235 0.676488 0.087746
Si Si4 0.264654 0.510667 0.459001
Si Si5 0.366071 0.258564 0.806705
O O1 0.558101 0.245184 0.077374
O O2 0.057007 0.311229 0.873086
O O3 0.955103 0.338187 0.332995
O O4 0.500000 0.000000 0.000000
O O5 0.420790 0.295482 0.421775
O O6 0.524071 0.395729 0.695996
O O7 0.277479 0.281462 0.987352
O O8 0.405493 0.963611 0.333615
O O9 0.500000 0.500000 0.000000
O O10 0.032591 0.783814 0.297185
O O11 0.000000 0.500000 0.500000
O O12 0.500000 0.000000 0.500000
#
# Coordination Sequence:
#
# PCOD9045062 Si02
#       5
#     2   2   2   2   2
#     4  12  27  51  82 122 162 210 278 341 405 488
#     4  10  23  48  78 117 160 207 271 330 403 484
#     4  11  24  50  77 117 162 207 271 332 398 489
#     4  12  26  50  85 120 161 216 270 333 416 487
#     4  11  28  52  85 114 166 216 268 340 411 479
#
# _framework density 26.447915999999999
#
# number of rings (size 3 to 8) (size 9 to 14) (size 15 to 20)
#    0.000    0.800    2.000    3.600    0.000    7.200 
#    7.200    2.000    0.000    1.200    0.000    0.000 
#    0.000    0.000    0.000    0.000    0.000    0.000 
#
# Total GULP energy -55819.618620 kJ/mol
# GULP energy per Si atom -5581.961862 kJ/mol
# Density = 2.638772 g / cm^3
# Si number density = 26.447916 Si / 1000 Ang^3
#
#
#
# Elastic Constant Matrix: (Units=GPa)
#
#
# Indices 1 2 3 4 5 6 
#
# 1 155.9439 48.7251 38.3864 -3.0393 -10.1562 -1.8016
# 2 48.7251 195.9335 64.8022 19.5648 -10.7899 -3.9122
# 3 38.3864 64.8022 194.2013 15.1418 11.3995 -14.7357
# 4 -3.0393 19.5648 15.1418 59.1873 -6.2188 0.4393
# 5 -10.1562 -10.7899 11.3995 -6.2188 41.9011 -7.9980
# 6 -1.8016 -3.9122 -14.7357 0.4393 -7.9980 37.2167
#
#
#
# Elastic Compliance Matrix: (Units=1/GPa)
#
#
# Indices 1 2 3 4 5 6 
#
# 1 0.007310 -0.001458 -0.001168 0.001359 0.001943 0.000140
# 2 -0.001458 0.006295 -0.001766 -0.001541 0.001567 0.000247
# 3 -0.001168 -0.001766 0.006347 -0.001358 -0.002325 0.001787
# 4 0.001359 -0.001541 -0.001358 0.018134 0.002953 -0.000213
# 5 0.001943 0.001567 -0.002325 0.002953 0.026776 0.005058
# 6 0.000140 0.000247 0.001787 -0.000213 0.005058 0.028700
#
#
# Mechanical properties :
#
#
# Convention : Reuss Voigt Hill
#
# Bulk Modulus (GPa) = 89.52183 94.43400 91.97792
# Shear Modulus (GPa) = 47.13964 53.93871 50.53918
#
# Velocity S-wave (km/s) = 4.22638 4.52091 4.37612
# Velocity P-wave (km/s) = 7.59857 7.93943 7.77087
#
# Compressibility (1/GPa) = 0.01117046
#
# Stress axis : x y z
#
# Youngs Moduli (GPa) = 136.79710 158.84910 157.54815
#
# Poissons Ratio (x) = 0.23153 0.18401
# Poissons Ratio (y) = 0.19939 0.27816
# Poissons Ratio (z) = 0.15978 0.28046
#
# Static dielectric constant tensor:
#      x y z
#    x 2.092250 0.110980 0.124960 
#    y 0.110980 2.439580 0.025060 
#    z 0.124960 0.025060 1.731320 
# 
# From -- ./inp_files/360901.got.cif
#   From: 2010.05.17/outbox.cif.g08.bks.cpg/sg2_181_cif.got.tgz:360901.got - 2010.06.03 11:33:40.
