data_PCOD9045760
_publ_section_title
;
Structure prediction by ZEFSAII (Michael W. Deem and Ramdas Pophale) SiO2 
 PCOD9045760
Probable space group: P -1
;
_chemical_formula_sum "Si O2"
_cell_formula_units_Z 16
_cell_length_a 14.639291
_cell_length_b 6.196288
_cell_length_c 23.679696
_cell_angle_alpha 94.608518
_cell_angle_beta 20.162706
_cell_angle_gamma 92.834640
_cell_volume 735.872230
_symmetry_space_group_name_H-M "P -1"
_symmetry_group_IT_number 2
_symmetry_cell_setting 'triclinic'
loop_
_space_group_symop_operation_xyz
x,y,z
-x,-y,-z
loop_
_atom_site_type_symbol
_atom_site_label
_atom_site_fract_x
_atom_site_fract_y
_atom_site_fract_z
Si Si1 0.319035 0.444195 0.253054
Si Si2 0.638678 0.823802 0.231539
Si Si3 0.130246 0.357832 0.697317
Si Si4 0.414278 0.355358 0.994828
Si Si5 0.545207 0.526867 0.384525
Si Si6 0.150944 0.814030 0.446632
Si Si7 0.738194 0.059099 0.968494
Si Si8 0.996610 0.823278 0.920956
O O1 0.363643 0.600849 0.178987
O O2 0.287620 0.608198 0.327651
O O3 0.067318 0.302223 0.393309
O O4 0.568304 0.266314 0.098071
O O5 0.534966 0.668923 0.336822
O O6 0.374290 0.921117 0.355507
O O7 0.825804 0.989766 0.155144
O O8 0.823264 0.732363 0.070421
O O9 0.287531 0.404978 0.549627
O O10 0.357504 0.348914 0.613893
O O11 0.978013 0.145094 0.794726
O O12 0.886046 0.546427 0.844896
O O13 0.500000 0.500000 0.000000
O O14 0.407863 0.096659 0.992268
O O15 0.794524 0.358691 0.226316
O O16 0.000000 0.000000 0.500000
O O17 0.823652 0.919483 0.971271
#
# Coordination Sequence:
#
# PCOD9045760 Si02
#       8
#     2   2   2   2   2   2   2   2
#     4  10  24  42  70  97 132 182 222 277 346 400
#     4  11  25  39  67 101 134 174 230 276 334 417
#     4  10  24  41  68  95 135 182 224 283 339 399
#     4  11  24  43  69  96 134 179 233 283 336 406
#     4  11  23  43  64 100 137 178 226 276 342 401
#     4  11  24  45  68  99 140 178 220 281 348 403
#     4  11  22  45  70  99 134 180 232 277 347 403
#     4  11  23  41  67 100 135 179 223 282 341 400
#
# _framework density 21.742903999999999
#
# number of rings (size 3 to 8) (size 9 to 14) (size 15 to 20)
#    0.000    1.250    2.500    2.625    3.500    7.500 
#    2.250    0.000    0.000    0.000    0.000    0.000 
#    0.000    0.000    0.000    0.000    0.000    0.000 
#
# Total GULP energy -89214.185408 kJ/mol
# GULP energy per Si atom -5575.886588 kJ/mol
# Density = 2.169342 g / cm^3
# Si number density = 21.742904 Si / 1000 Ang^3
#
#
#
# Elastic Constant Matrix: (Units=GPa)
#
#
# Indices 1 2 3 4 5 6 
#
# 1 122.7588 8.2543 -4.9471 -20.2379 -30.4961 -32.0481
# 2 8.2543 86.8316 56.2128 -3.8585 30.3147 11.6403
# 3 -4.9471 56.2128 186.5866 -21.2910 67.8927 20.5517
# 4 -20.2379 -3.8585 -21.2910 40.9577 -7.8376 8.3267
# 5 -30.4961 30.3147 67.8927 -7.8376 60.4929 11.2654
# 6 -32.0481 11.6403 20.5517 8.3267 11.2654 42.1013
#
#
#
# Elastic Compliance Matrix: (Units=1/GPa)
#
#
# Indices 1 2 3 4 5 6 
#
# 1 0.014843 -0.004754 -0.003035 0.005669 0.012198 0.009710
# 2 -0.004754 0.016530 -0.002002 -0.002400 -0.007883 -0.004628
# 3 -0.003035 -0.002002 0.010892 0.002677 -0.011565 -0.004509
# 4 0.005669 -0.002400 0.002677 0.030250 0.005689 -0.003833
# 5 0.012198 -0.007883 -0.011565 0.005689 0.039331 0.005461
# 6 0.009710 -0.004628 -0.004509 -0.003833 0.005461 0.033921
#
#
# Mechanical properties :
#
#
# Convention : Reuss Voigt Hill
#
# Bulk Modulus (GPa) = 44.08625 57.24633 50.66629
# Shear Modulus (GPa) = 28.91646 51.15418 40.03532
#
# Velocity S-wave (km/s) = 3.65077 4.85571 4.29570
# Velocity P-wave (km/s) = 6.17179 7.60415 6.92510
#
# Compressibility (1/GPa) = 0.02268281
#
# Stress axis : x y z
#
# Youngs Moduli (GPa) = 67.37084 60.49461 91.80674
#
# Poissons Ratio (x) = 0.28762 0.27866
# Poissons Ratio (y) = 0.32031 0.18379
# Poissons Ratio (z) = 0.20449 0.12110
#
# Static dielectric constant tensor:
#      x y z
#    x 1.947400 0.151780 0.039220 
#    y 0.151780 1.987940 0.052940 
#    z 0.039220 0.052940 1.831340 
# 
# From -- ./inp_files/485916.got.cif
#   From: 2010.05.17/outbox.cif.g08.bks.cpg/sg2_243_cif.got.tgz:485916.got - 2010.06.03 11:33:40.
