data_PCOD9045400
_publ_section_title
;
Structure prediction by ZEFSAII (Michael W. Deem and Ramdas Pophale) SiO2 
 PCOD9045400
Probable space group: P -1
;
_chemical_formula_sum "Si O2"
_cell_formula_units_Z 16
_cell_length_a 12.247948
_cell_length_b 20.447179
_cell_length_c 18.130196
_cell_angle_alpha 160.151024
_cell_angle_beta 152.942154
_cell_angle_gamma 37.033525
_cell_volume 678.141779
_symmetry_space_group_name_H-M "P -1"
_symmetry_group_IT_number 2
_symmetry_cell_setting 'triclinic'
loop_
_space_group_symop_operation_xyz
x,y,z
-x,-y,-z
loop_
_atom_site_type_symbol
_atom_site_label
_atom_site_fract_x
_atom_site_fract_y
_atom_site_fract_z
Si Si1 0.875603 0.274065 0.207680
Si Si2 0.915443 0.761498 0.437836
Si Si3 0.387780 0.608513 0.610741
Si Si4 0.293918 0.980467 0.790921
Si Si5 0.361455 0.650442 0.233328
Si Si6 0.955754 0.219787 0.701017
Si Si7 0.785288 0.900646 0.662122
Si Si8 0.501432 0.542448 0.760804
O O1 0.607402 0.280316 0.084712
O O2 0.000000 0.500000 0.500000
O O3 0.026970 0.197941 0.282747
O O4 0.848272 0.128099 0.967060
O O5 0.814112 0.857378 0.548085
O O6 0.138839 0.666946 0.499960
O O7 0.724132 0.572221 0.086650
O O8 0.037193 0.925108 0.623169
O O9 0.500000 0.500000 0.500000
O O10 0.361522 0.484895 0.538720
O O11 0.600633 0.812228 0.967188
O O12 0.248101 0.810103 0.520043
O O13 0.500000 0.000000 0.000000
O O14 0.142233 0.718510 0.215033
O O15 0.511612 0.795784 0.416741
O O16 0.541112 0.632054 0.390150
O O17 0.000000 0.000000 0.500000
O O18 0.204910 0.376110 0.990083
#
# Coordination Sequence:
#
# PCOD9045400 Si02
#       8
#     2   2   2   2   2   2   2   2
#     4  11  24  47  72 104 135 185 240 294 348 423
#     4  11  24  46  65 100 143 185 235 291 355 418
#     4  11  24  41  66 101 140 183 231 289 355 418
#     4  10  24  40  64  96 138 175 231 280 352 410
#     4  12  26  43  72 101 143 187 236 291 358 419
#     4  12  24  43  68 101 139 182 234 291 354 424
#     4  11  25  46  74 100 141 189 237 289 353 421
#     4  12  23  42  71 102 138 180 236 290 350 422
#
# _framework density 23.593883999999999
#
# number of rings (size 3 to 8) (size 9 to 14) (size 15 to 20)
#    0.000    0.750    5.000    2.250    3.500    2.000 
#    0.000    0.625    0.000    0.000    0.000    0.000 
#    0.000    0.000    0.000    0.000    0.000    0.000 
#
# Total GULP energy -89512.228905 kJ/mol
# GULP energy per Si atom -5594.514307 kJ/mol
# Density = 2.354018 g / cm^3
# Si number density = 23.593884 Si / 1000 Ang^3
#
#
#
# Elastic Constant Matrix: (Units=GPa)
#
#
# Indices 1 2 3 4 5 6 
#
# 1 166.4147 12.1423 45.3213 9.4969 -18.4570 -16.5063
# 2 12.1423 52.1755 -5.3109 1.6788 -3.6812 -6.8318
# 3 45.3213 -5.3109 96.6425 5.1713 -2.2323 -4.9671
# 4 9.4969 1.6788 5.1713 30.1685 -0.3234 -2.0013
# 5 -18.4570 -3.6812 -2.2323 -0.3234 44.0458 1.0230
# 6 -16.5063 -6.8318 -4.9671 -2.0013 1.0230 44.8080
#
#
#
# Elastic Compliance Matrix: (Units=1/GPa)
#
#
# Indices 1 2 3 4 5 6 
#
# 1 0.007671 -0.001613 -0.003430 -0.001570 0.002846 0.002065
# 2 -0.001613 0.020199 0.002069 -0.000784 0.001050 0.002656
# 3 -0.003430 0.002069 0.012132 -0.001098 -0.000666 0.000363
# 4 -0.001570 -0.000784 -0.001098 0.033914 -0.000546 0.000708
# 5 0.002846 0.001050 -0.000666 -0.000546 0.023933 0.000564
# 6 0.002065 0.002656 0.000363 0.000708 0.000564 0.023542
#
#
# Mechanical properties :
#
#
# Convention : Reuss Voigt Hill
#
# Bulk Modulus (GPa) = 29.36504 46.61533 37.99019
# Shear Modulus (GPa) = 36.05161 41.34313 38.69737
#
# Velocity S-wave (km/s) = 3.91321 4.19057 4.05426
# Velocity P-wave (km/s) = 5.73504 6.57379 6.16869
#
# Compressibility (1/GPa) = 0.03405410
#
# Stress axis : x y z
#
# Youngs Moduli (GPa) = 130.36186 49.50724 82.42857
#
# Poissons Ratio (x) = 0.07984 0.28274
# Poissons Ratio (y) = 0.21023 -0.17054
# Poissons Ratio (z) = 0.44716 -0.10243
#
# Static dielectric constant tensor:
#      x y z
#    x 1.887940 0.002590 0.010580 
#    y 0.002590 2.013930 -0.023170 
#    z 0.010580 -0.023170 1.874040 
# 
# From -- ./inp_files/570832.got.cif
#   From: 2010.05.17/outbox.cif.g08.bks.cpg/sg2_286_cif.got.tgz:570832.got - 2010.06.03 11:33:40.
