data_PCOD9045884
_publ_section_title
;
Structure prediction by ZEFSAII (Michael W. Deem and Ramdas Pophale) SiO2 
 PCOD9045884
Probable space group: P -1
;
_chemical_formula_sum "Si O2"
_cell_formula_units_Z 12
_cell_length_a 6.783968
_cell_length_b 14.867652
_cell_length_c 18.115663
_cell_angle_alpha 28.089885
_cell_angle_beta 140.795696
_cell_angle_gamma 127.898560
_cell_volume 528.836347
_symmetry_space_group_name_H-M "P -1"
_symmetry_group_IT_number 2
_symmetry_cell_setting 'triclinic'
loop_
_space_group_symop_operation_xyz
x,y,z
-x,-y,-z
loop_
_atom_site_type_symbol
_atom_site_label
_atom_site_fract_x
_atom_site_fract_y
_atom_site_fract_z
Si Si1 0.563761 0.182101 0.625750
Si Si2 0.807759 0.355856 0.286577
Si Si3 0.833658 0.423147 0.409454
Si Si4 0.688699 0.196707 0.979215
Si Si5 0.361560 0.223525 0.142422
Si Si6 0.484134 0.796495 0.239946
O O1 0.762245 0.291059 0.551386
O O2 0.680095 0.179823 0.745509
O O3 0.191408 0.297156 0.432478
O O4 0.575276 0.967570 0.752056
O O5 0.639239 0.223632 0.282028
O O6 0.732873 0.344399 0.359464
O O7 0.679757 0.579428 0.060507
O O8 0.618313 0.639259 0.203491
O O9 0.216480 0.392798 0.537294
O O10 0.361406 0.014449 0.860110
O O11 0.711668 0.206736 0.889125
O O12 0.022462 0.233646 0.077647
#
# Coordination Sequence:
#
# PCOD9045884 Si02
#       6
#     2   2   2   2   2   2
#     4  11  22  42  63  90 121 160 200 246 301 354
#     4  10  24  42  62  88 124 158 200 248 296 356
#     4  11  22  42  63  90 121 160 200 246 301 354
#     4  11  22  42  63  90 121 160 200 246 301 354
#     4  11  22  42  63  90 121 160 200 246 301 354
#     4  10  24  42  62  88 124 158 200 248 296 356
#
# _framework density 22.691330000000001
#
# number of rings (size 3 to 8) (size 9 to 14) (size 15 to 20)
#    0.000    1.333    3.333    2.000    0.000    2.667 
#    6.000    0.000    0.000    0.000    0.000    0.000 
#    0.000    0.000    0.000    0.000    0.000    0.000 
#
# Total GULP energy -67209.175817 kJ/mol
# GULP energy per Si atom -5600.764651 kJ/mol
# Density = 2.263968 g / cm^3
# Si number density = 22.691330 Si / 1000 Ang^3
#
#
#
# Elastic Constant Matrix: (Units=GPa)
#
#
# Indices 1 2 3 4 5 6 
#
# 1 90.4809 33.5928 26.1246 1.5867 4.7129 -24.2642
# 2 33.5928 68.1375 12.8255 -10.1854 -5.2478 -10.0932
# 3 26.1246 12.8255 62.5886 -11.9065 -3.6408 -16.1271
# 4 1.5867 -10.1854 -11.9065 39.7254 -5.0541 5.2186
# 5 4.7129 -5.2478 -3.6408 -5.0541 12.3595 2.4201
# 6 -24.2642 -10.0932 -16.1271 5.2186 2.4201 33.4093
#
#
#
# Elastic Compliance Matrix: (Units=1/GPa)
#
#
# Indices 1 2 3 4 5 6 
#
# 1 0.021503 -0.010628 -0.006764 -0.009907 -0.021149 0.012221
# 2 -0.010628 0.021916 0.002049 0.009375 0.018364 -0.002903
# 3 -0.006764 0.002049 0.021726 0.008374 0.012494 0.003981
# 4 -0.009907 0.009375 0.008374 0.034786 0.025945 -0.007634
# 5 -0.021149 0.018364 0.012494 0.025945 0.114215 -0.016107
# 6 0.012221 -0.002903 0.003981 -0.007634 -0.016107 0.042211
#
#
# Mechanical properties :
#
#
# Convention : Reuss Voigt Hill
#
# Bulk Modulus (GPa) = 29.01903 40.69921 34.85912
# Shear Modulus (GPa) = 16.74876 27.00978 21.87927
#
# Velocity S-wave (km/s) = 2.71977 3.45383 3.10855
# Velocity P-wave (km/s) = 4.76227 5.82067 5.31787
#
# Compressibility (1/GPa) = 0.03446014
#
# Stress axis : x y z
#
# Youngs Moduli (GPa) = 46.50444 45.62883 46.02729
#
# Poissons Ratio (x) = 0.48493 0.31131
# Poissons Ratio (y) = 0.49424 -0.09430
# Poissons Ratio (z) = 0.31454 -0.09348
#
# Static dielectric constant tensor:
#      x y z
#    x 1.819150 -0.015220 0.005540 
#    y -0.015220 1.814700 -0.005760 
#    z 0.005540 -0.005760 1.840000 
# 
# From -- ./inp_files/228376.got.cif
#   From: 2010.05.17/outbox.cif.g08.bks.cpg/sg2_115_cif.got.tgz:228376.got - 2010.06.03 11:33:40.
