data_PCOD9045164
_publ_section_title
;
Structure prediction by ZEFSAII (Michael W. Deem and Ramdas Pophale) SiO2 
 PCOD9045164
Probable space group: P -1
;
_chemical_formula_sum "Si O2"
_cell_formula_units_Z 16
_cell_length_a 11.233686
_cell_length_b 5.614504
_cell_length_c 21.349291
_cell_angle_alpha 64.026946
_cell_angle_beta 37.172790
_cell_angle_gamma 62.974392
_cell_volume 717.521771
_symmetry_space_group_name_H-M "P -1"
_symmetry_group_IT_number 2
_symmetry_cell_setting 'triclinic'
loop_
_space_group_symop_operation_xyz
x,y,z
-x,-y,-z
loop_
_atom_site_type_symbol
_atom_site_label
_atom_site_fract_x
_atom_site_fract_y
_atom_site_fract_z
Si Si1 0.563346 0.973285 0.656042
Si Si2 0.792390 0.236915 0.133146
Si Si3 0.788465 0.775802 0.463923
Si Si4 0.431538 0.535268 0.597057
Si Si5 0.445661 0.199300 0.059080
Si Si6 0.001298 0.793767 0.714764
Si Si7 0.755729 0.884094 0.062740
Si Si8 0.071913 0.224722 0.401461
O O1 0.367792 0.845543 0.742742
O O2 0.717091 0.932735 0.538750
O O3 0.690530 0.828353 0.677594
O O4 0.492487 0.292871 0.648877
O O5 0.747537 0.564856 0.110781
O O6 0.761882 0.064622 0.102418
O O7 0.028052 0.136328 0.060004
O O8 0.574655 0.738169 0.532682
O O9 0.939209 0.502367 0.448716
O O10 0.915327 0.927940 0.347097
O O11 0.500000 0.500000 0.500000
O O12 0.191684 0.592377 0.686319
O O13 0.207368 0.226866 0.164782
O O14 0.571826 0.037329 0.081463
O O15 0.500000 0.500000 0.000000
O O16 0.500000 0.000000 0.000000
O O17 0.968274 0.771596 0.656300
O O18 0.000000 0.000000 0.500000
#
# Coordination Sequence:
#
# PCOD9045164 Si02
#       8
#     2   2   2   2   2   2   2   2
#     4  12  26  39  70 106 138 187 234 299 352 447
#     4  10  24  43  77 102 139 185 235 306 368 424
#     4  12  24  41  70  99 145 182 242 280 366 432
#     4  12  24  46  63 102 147 185 237 283 359 437
#     4  12  30  50  76 108 144 193 253 303 362 439
#     4  12  28  45  75  98 145 197 228 305 363 431
#     4  10  23  50  71 103 141 182 242 306 367 421
#     4  12  23  44  66 105 144 181 235 289 357 436
#
# _framework density 22.298977000000001
#
# number of rings (size 3 to 8) (size 9 to 14) (size 15 to 20)
#    0.000    0.500    5.000    2.250    7.000    1.000 
#    0.000    0.000    0.000    0.000    0.000    0.000 
#    0.000    0.000    0.000    0.000    0.000    0.000 
#
# Total GULP energy -89264.942966 kJ/mol
# GULP energy per Si atom -5579.058935 kJ/mol
# Density = 2.224822 g / cm^3
# Si number density = 22.298977 Si / 1000 Ang^3
#
#
#
# Elastic Constant Matrix: (Units=GPa)
#
#
# Indices 1 2 3 4 5 6 
#
# 1 101.8344 24.8274 26.2476 17.4604 -27.3342 -0.6146
# 2 24.8274 116.2164 50.8915 7.6558 -15.8399 -8.8284
# 3 26.2476 50.8915 176.7338 4.9290 -44.1666 0.4392
# 4 17.4604 7.6558 4.9290 29.4733 -1.4021 -13.5498
# 5 -27.3342 -15.8399 -44.1666 -1.4021 36.2809 8.9126
# 6 -0.6146 -8.8284 0.4392 -13.5498 8.9126 39.3136
#
#
#
# Elastic Compliance Matrix: (Units=1/GPa)
#
#
# Indices 1 2 3 4 5 6 
#
# 1 0.015956 -0.002188 0.002534 -0.012262 0.015653 -0.008045
# 2 -0.002188 0.010398 -0.003062 0.000317 -0.001509 0.002786
# 3 0.002534 -0.003062 0.009649 -0.004074 0.013440 -0.005207
# 4 -0.012262 0.000317 -0.004074 0.050787 -0.017344 0.021361
# 5 0.015653 -0.001509 0.013440 -0.017344 0.059215 -0.019646
# 6 -0.008045 0.002786 -0.005207 0.021361 -0.019646 0.037811
#
#
# Mechanical properties :
#
#
# Convention : Reuss Voigt Hill
#
# Bulk Modulus (GPa) = 32.71122 66.52420 49.61771
# Shear Modulus (GPa) = 25.07048 40.53478 32.80263
#
# Velocity S-wave (km/s) = 3.35668 4.26818 3.83957
# Velocity P-wave (km/s) = 5.45200 7.36121 6.47733
#
# Compressibility (1/GPa) = 0.03057055
#
# Stress axis : x y z
#
# Youngs Moduli (GPa) = 62.67407 96.17099 103.63858
#
# Poissons Ratio (x) = 0.21045 -0.26265
# Poissons Ratio (y) = 0.13715 0.31734
# Poissons Ratio (z) = -0.15883 0.29447
#
# Static dielectric constant tensor:
#      x y z
#    x 1.778040 0.078090 0.023760 
#    y 0.078090 1.883140 0.020070 
#    z 0.023760 0.020070 1.852070 
# 
# From -- ./inp_files/370939.got.cif
#   From: 2010.05.17/outbox.cif.g08.bks.cpg/sg2_186_cif.got.tgz:370939.got - 2010.06.03 11:33:40.
