data_PCOD9045684
_publ_section_title
;
Structure prediction by ZEFSAII (Michael W. Deem and Ramdas Pophale) SiO2 
 PCOD9045684
Probable space group: P -1
;
_chemical_formula_sum "Si O2"
_cell_formula_units_Z 12
_cell_length_a 13.056727
_cell_length_b 13.298969
_cell_length_c 5.559565
_cell_angle_alpha 120.192329
_cell_angle_beta 58.025074
_cell_angle_gamma 144.745099
_cell_volume 467.760538
_symmetry_space_group_name_H-M "P -1"
_symmetry_group_IT_number 2
_symmetry_cell_setting 'triclinic'
loop_
_space_group_symop_operation_xyz
x,y,z
-x,-y,-z
loop_
_atom_site_type_symbol
_atom_site_label
_atom_site_fract_x
_atom_site_fract_y
_atom_site_fract_z
Si Si1 0.393889 0.551150 0.383846
Si Si2 0.745773 0.113843 0.185262
Si Si3 0.021372 0.911180 0.055740
Si Si4 0.290434 0.259937 0.421397
Si Si5 0.926893 0.571380 0.109937
Si Si6 0.625462 0.271445 0.750031
O O1 0.351771 0.382802 0.263259
O O2 0.536911 0.664398 0.560574
O O3 0.454925 0.681126 0.253383
O O4 0.195879 0.460837 0.574267
O O5 0.710008 0.220186 0.444251
O O6 0.892590 0.225841 0.925682
O O7 0.550756 0.915995 0.131800
O O8 0.867279 0.119731 0.219800
O O9 0.828972 0.752886 0.246567
O O10 0.159977 0.064449 0.263142
O O11 0.000000 0.000000 0.000000
O O12 0.785444 0.443649 0.915208
O O13 0.000000 0.500000 0.000000
#
# Coordination Sequence:
#
# PCOD9045684 Si02
#       6
#     2   2   2   2   2   2
#     4  11  23  45  67  96 133 173 221 273 328 392
#     4  11  24  46  66 100 133 173 221 271 332 390
#     4  11  23  42  65  98 131 174 220 268 330 392
#     4  10  24  41  66  96 131 174 220 269 325 393
#     4  12  25  44  70 101 132 174 222 272 336 397
#     4  11  26  45  68 100 135 173 220 278 334 388
#
# _framework density 25.654150999999999
#
# number of rings (size 3 to 8) (size 9 to 14) (size 15 to 20)
#    0.000    1.000    3.333    2.500    2.333    0.667 
#    6.000    4.167    0.000    0.000    0.000    0.000 
#    0.000    0.000    0.000    0.000    0.000    0.000 
#
# Total GULP energy -67060.301515 kJ/mol
# GULP energy per Si atom -5588.358460 kJ/mol
# Density = 2.559576 g / cm^3
# Si number density = 25.654151 Si / 1000 Ang^3
#
#
#
# Elastic Constant Matrix: (Units=GPa)
#
#
# Indices 1 2 3 4 5 6 
#
# 1 166.5066 34.6284 19.5554 9.4094 -23.2628 -22.1598
# 2 34.6284 162.3176 30.7903 -18.0861 5.8781 -2.5033
# 3 19.5554 30.7903 37.0026 -0.2805 -24.6944 4.5607
# 4 9.4094 -18.0861 -0.2805 37.5460 1.1747 -9.0751
# 5 -23.2628 5.8781 -24.6944 1.1747 46.0895 -6.0486
# 6 -22.1598 -2.5033 4.5607 -9.0751 -6.0486 49.8972
#
#
#
# Elastic Compliance Matrix: (Units=1/GPa)
#
#
# Indices 1 2 3 4 5 6 
#
# 1 0.007655 -0.002125 0.000593 -0.002264 0.004960 0.003428
# 2 -0.002125 0.010359 -0.014284 0.005909 -0.010101 0.000732
# 3 0.000593 -0.014284 0.062599 -0.008498 0.035428 -0.003426
# 4 -0.002264 0.005909 -0.008498 0.031394 -0.006596 0.004978
# 5 0.004960 -0.010101 0.035428 -0.006596 0.044995 0.002712
# 6 0.003428 0.000732 -0.003426 0.004978 0.002712 0.023148
#
#
# Mechanical properties :
#
#
# Convention : Reuss Voigt Hill
#
# Bulk Modulus (GPa) = 20.41570 59.53054 39.97312
# Shear Modulus (GPa) = 21.91945 45.43006 33.67475
#
# Velocity S-wave (km/s) = 2.92622 4.21273 3.62697
# Velocity P-wave (km/s) = 4.40367 6.84969 5.75806
#
# Compressibility (1/GPa) = 0.04898191
#
# Stress axis : x y z
#
# Youngs Moduli (GPa) = 130.63034 96.53494 15.97469
#
# Poissons Ratio (x) = 0.20509 -0.00947
# Poissons Ratio (y) = 0.27753 0.22818
# Poissons Ratio (z) = -0.07740 1.37887
#
# Static dielectric constant tensor:
#      x y z
#    x 2.071680 -0.125940 -0.021950 
#    y -0.125940 2.093440 -0.031530 
#    z -0.021950 -0.031530 2.108900 
# 
# From -- ./inp_files/22553.got.cif
#   From: 2010.05.17/outbox.cif.g08.bks.cpg/sg2_12_cif.got.tgz:22553.got - 2010.06.03 11:33:40.
