data_PCOD9045753
_publ_section_title
;
Structure prediction by ZEFSAII (Michael W. Deem and Ramdas Pophale) SiO2 
 PCOD9045753
Probable space group: P -1
;
_chemical_formula_sum "Si O2"
_cell_formula_units_Z 16
_cell_length_a 6.225419
_cell_length_b 18.595509
_cell_length_c 11.251278
_cell_angle_alpha 138.954643
_cell_angle_beta 99.283285
_cell_angle_gamma 104.176233
_cell_volume 696.082807
_symmetry_space_group_name_H-M "P -1"
_symmetry_group_IT_number 2
_symmetry_cell_setting 'triclinic'
loop_
_space_group_symop_operation_xyz
x,y,z
-x,-y,-z
loop_
_atom_site_type_symbol
_atom_site_label
_atom_site_fract_x
_atom_site_fract_y
_atom_site_fract_z
Si Si1 0.718246 0.863017 0.308099
Si Si2 0.756781 0.578396 0.286645
Si Si3 0.301264 0.049592 0.035393
Si Si4 0.198432 0.331473 0.846229
Si Si5 0.170019 0.153134 0.953957
Si Si6 0.587215 0.685813 0.597709
Si Si7 0.798786 0.184028 0.844164
Si Si8 0.012619 0.460321 0.316980
O O1 0.702507 0.765666 0.284375
O O2 0.682536 0.791920 0.088645
O O3 0.494749 0.888136 0.315836
O O4 0.000000 0.000000 0.500000
O O5 0.892434 0.643022 0.253730
O O6 0.762152 0.681236 0.506252
O O7 0.875195 0.508314 0.276985
O O8 0.450230 0.469174 0.089348
O O9 0.469201 0.201428 0.288016
O O10 0.240561 0.057655 0.900752
O O11 0.500000 0.000000 0.000000
O O12 0.000000 0.000000 0.000000
O O13 0.975997 0.255909 0.832246
O O14 0.262791 0.264793 0.201226
O O15 0.873971 0.097595 0.818473
O O16 0.319570 0.543741 0.413257
O O17 0.876746 0.305836 0.090334
O O18 0.000000 0.500000 0.500000
#
# Coordination Sequence:
#
# PCOD9045753 Si02
#       8
#     2   2   2   2   2   2   2   2
#     4  11  24  45  68  95 134 188 252 306 372 441
#     4  11  23  42  66 102 146 186 240 303 367 448
#     4  10  25  45  71 101 153 194 238 302 369 444
#     4  10  24  43  65  98 141 189 243 302 366 441
#     4   9  24  41  69 100 139 179 243 298 365 444
#     4  10  24  41  68 106 138 186 239 286 378 439
#     4  11  22  42  69 100 137 188 237 313 368 436
#     4  12  24  36  70 104 144 185 236 299 373 452
#
# _framework density 22.985772999999998
#
# number of rings (size 3 to 8) (size 9 to 14) (size 15 to 20)
#    0.750    0.750    2.500    1.500    5.250    5.500 
#    0.000    0.000    0.000    0.000    0.000    0.000 
#    0.000    0.000    0.000    0.000    0.000    0.000 
#
# Total GULP energy -89155.181540 kJ/mol
# GULP energy per Si atom -5572.198846 kJ/mol
# Density = 2.293346 g / cm^3
# Si number density = 22.985773 Si / 1000 Ang^3
#
#
#
# Elastic Constant Matrix: (Units=GPa)
#
#
# Indices 1 2 3 4 5 6 
#
# 1 116.3608 40.5372 29.3258 -10.2815 16.7221 -26.9946
# 2 40.5372 101.1809 18.4255 -25.9173 4.0086 -28.4675
# 3 29.3258 18.4255 78.6237 -9.5322 -3.1734 -6.8875
# 4 -10.2815 -25.9173 -9.5322 37.9636 -2.3661 -0.4070
# 5 16.7221 4.0086 -3.1734 -2.3661 42.1162 3.2938
# 6 -26.9946 -28.4675 -6.8875 -0.4070 3.2938 49.1903
#
#
#
# Elastic Compliance Matrix: (Units=1/GPa)
#
#
# Indices 1 2 3 4 5 6 
#
# 1 0.012432 -0.002508 -0.003757 0.000433 -0.005363 0.005207
# 2 -0.002508 0.015807 -0.000910 0.009928 -0.000627 0.007768
# 3 -0.003757 -0.000910 0.014655 0.002212 0.002862 -0.000710
# 4 0.000433 0.009928 0.002212 0.033889 0.000442 0.006544
# 5 -0.005363 -0.000627 0.002862 0.000442 0.026539 -0.004679
# 6 0.005207 0.007768 -0.000710 0.006544 -0.004679 0.027951
#
#
# Mechanical properties :
#
#
# Convention : Reuss Voigt Hill
#
# Bulk Modulus (GPa) = 35.03391 52.52694 43.78042
# Shear Modulus (GPa) = 32.22942 39.71248 35.97095
#
# Velocity S-wave (km/s) = 3.74859 4.16107 3.96020
# Velocity P-wave (km/s) = 5.83185 6.78141 6.32448
#
# Compressibility (1/GPa) = 0.02854378
#
# Stress axis : x y z
#
# Youngs Moduli (GPa) = 80.44032 63.26154 68.23663
#
# Poissons Ratio (x) = 0.15866 0.25636
# Poissons Ratio (y) = 0.20174 0.06211
# Poissons Ratio (z) = 0.30221 0.05758
#
# Static dielectric constant tensor:
#      x y z
#    x 1.971230 -0.005950 -0.040490 
#    y -0.005950 1.897710 0.026700 
#    z -0.040490 0.026700 1.890310 
# 
# From -- ./inp_files/370455.got.cif
#   From: 2010.05.17/outbox.cif.g08.bks.cpg/sg2_186_cif.got.tgz:370455.got - 2010.06.03 11:33:40.
