data_PCOD9045916
_publ_section_title
;
Structure prediction by ZEFSAII (Michael W. Deem and Ramdas Pophale) SiO2 
 PCOD9045916
Probable space group: P -1
;
_chemical_formula_sum "Si O2"
_cell_formula_units_Z 16
_cell_length_a 14.365142
_cell_length_b 9.093157
_cell_length_c 15.382075
_cell_angle_alpha 132.242185
_cell_angle_beta 140.069078
_cell_angle_gamma 78.837235
_cell_volume 702.294165
_symmetry_space_group_name_H-M "P -1"
_symmetry_group_IT_number 2
_symmetry_cell_setting 'triclinic'
loop_
_space_group_symop_operation_xyz
x,y,z
-x,-y,-z
loop_
_atom_site_type_symbol
_atom_site_label
_atom_site_fract_x
_atom_site_fract_y
_atom_site_fract_z
Si Si1 0.162767 0.527110 0.516581
Si Si2 0.309476 0.213044 0.710942
Si Si3 0.444168 0.220041 0.331186
Si Si4 0.816640 0.331516 0.596255
Si Si5 0.226013 0.770908 0.139839
Si Si6 0.561902 0.732909 0.852526
Si Si7 0.966661 0.161873 0.391105
Si Si8 0.592882 0.814756 0.426724
O O1 0.135095 0.479896 0.375188
O O2 0.399133 0.727678 0.775259
O O3 0.068504 0.650467 0.522978
O O4 0.066216 0.281494 0.415024
O O5 0.351008 0.201942 0.635501
O O6 0.117085 0.174009 0.560645
O O7 0.262019 0.950972 0.610520
O O8 0.500000 0.500000 0.000000
O O9 0.500000 0.500000 0.500000
O O10 0.642716 0.272483 0.501981
O O11 0.381040 0.141364 0.153200
O O12 0.290392 0.983753 0.194230
O O13 0.013526 0.485974 0.853261
O O14 0.393537 0.758350 0.257334
O O15 0.242342 0.903603 0.294731
O O16 0.452238 0.421452 0.642844
O O17 0.750030 0.875946 0.105078
#
# Coordination Sequence:
#
# PCOD9045916 Si02
#       8
#     2   2   2   2   2   2   2   2
#     4  10  24  42  64 102 133 176 229 282 335 409
#     4  12  28  46  71 102 141 182 237 286 340 413
#     4  11  23  43  69 106 137 178 221 289 348 402
#     4  11  26  45  71 101 137 183 226 286 345 411
#     4  11  24  46  72  98 140 179 234 279 346 410
#     4  11  22  42  68  98 139 172 226 280 343 410
#     4  11  24  42  70  96 131 188 226 276 347 407
#     4  11  24  45  69  99 137 182 227 291 333 401
#
# _framework density 22.782475000000002
#
# number of rings (size 3 to 8) (size 9 to 14) (size 15 to 20)
#    0.000    1.000    3.750    1.875    3.500    6.500 
#    0.000    0.000    0.000    0.000    0.000    0.000 
#    0.000    0.000    0.000    0.000    0.000    0.000 
#
# Total GULP energy -89495.413218 kJ/mol
# GULP energy per Si atom -5593.463326 kJ/mol
# Density = 2.273062 g / cm^3
# Si number density = 22.782475 Si / 1000 Ang^3
#
#
#
# Elastic Constant Matrix: (Units=GPa)
#
#
# Indices 1 2 3 4 5 6 
#
# 1 74.1924 17.9784 27.5460 -4.5272 13.7565 -1.0919
# 2 17.9784 81.7353 3.2528 -4.4388 14.9097 -14.6393
# 3 27.5460 3.2528 115.0759 -16.6954 21.3947 -21.5854
# 4 -4.5272 -4.4388 -16.6954 23.1957 -8.2742 1.9390
# 5 13.7565 14.9097 21.3947 -8.2742 10.4926 -5.0793
# 6 -1.0919 -14.6393 -21.5854 1.9390 -5.0793 51.3410
#
#
#
# Elastic Compliance Matrix: (Units=1/GPa)
#
#
# Indices 1 2 3 4 5 6 
#
# 1 0.018975 0.001331 0.000309 -0.008059 -0.034835 -0.002229
# 2 0.001331 0.022576 0.009400 -0.009893 -0.058364 0.005017
# 3 0.000309 0.009400 0.018438 -0.003761 -0.051677 0.005468
# 4 -0.008059 -0.009893 -0.003761 0.067598 0.086280 0.001410
# 5 -0.034835 -0.058364 -0.051677 0.086280 0.395764 -0.003214
# 6 -0.002229 0.005017 0.005468 0.001410 -0.003214 0.022789
#
#
# Mechanical properties :
#
#
# Convention : Reuss Voigt Hill
#
# Bulk Modulus (GPa) = 12.18469 40.95088 26.56778
# Shear Modulus (GPa) = 9.06758 31.82096 20.44427
#
# Velocity S-wave (km/s) = 1.99718 3.74134 2.99886
# Velocity P-wave (km/s) = 3.26775 6.05617 4.86597
#
# Compressibility (1/GPa) = 0.08207023
#
# Stress axis : x y z
#
# Youngs Moduli (GPa) = 52.69990 44.29578 54.23616
#
# Poissons Ratio (x) = -0.05898 -0.01678
# Poissons Ratio (y) = -0.07017 -0.50982
# Poissons Ratio (z) = -0.01630 -0.41638
#
# Static dielectric constant tensor:
#      x y z
#    x 1.856860 0.042370 -0.006560 
#    y 0.042370 1.880980 -0.013780 
#    z -0.006560 -0.013780 1.821250 
# 
# From -- ./inp_files/530162.got.cif
#   From: 2010.05.17/outbox.cif.g08.bks.cpg/sg2_266_cif.got.tgz:530162.got - 2010.06.03 11:33:40.
