data_PCOD9045451
_publ_section_title
;
Structure prediction by ZEFSAII (Michael W. Deem and Ramdas Pophale) SiO2 
 PCOD9045451
Probable space group: P -1
;
_chemical_formula_sum "Si O2"
_cell_formula_units_Z 14
_cell_length_a 6.604558
_cell_length_b 19.724985
_cell_length_c 20.791080
_cell_angle_alpha 19.936304
_cell_angle_beta 63.462851
_cell_angle_gamma 51.997294
_cell_volume 633.824830
_symmetry_space_group_name_H-M "P -1"
_symmetry_group_IT_number 2
_symmetry_cell_setting 'triclinic'
loop_
_space_group_symop_operation_xyz
x,y,z
-x,-y,-z
loop_
_atom_site_type_symbol
_atom_site_label
_atom_site_fract_x
_atom_site_fract_y
_atom_site_fract_z
Si Si1 0.910493 0.382462 0.214722
Si Si2 0.751283 0.491163 0.002144
Si Si3 0.711996 0.228937 0.561336
Si Si4 0.601934 0.578195 0.695138
Si Si5 0.288218 0.091577 0.540638
Si Si6 0.744965 0.939118 0.935904
Si Si7 0.664273 0.190707 0.853787
O O1 0.599549 0.494585 0.189493
O O2 0.999685 0.564355 0.031456
O O3 0.159375 0.155752 0.429061
O O4 0.884262 0.323282 0.197584
O O5 0.564776 0.793416 0.776885
O O6 0.500000 0.500000 0.000000
O O7 0.561754 0.244265 0.502649
O O8 0.496355 0.515846 0.366400
O O9 0.020688 0.160649 0.560753
O O10 0.755475 0.032058 0.782007
O O11 0.630810 0.730775 0.609111
O O12 0.930204 0.324183 0.858687
O O13 0.657410 0.146582 0.818199
O O14 0.515885 0.887286 0.017912
O O15 0.000000 0.000000 0.000000
#
# Coordination Sequence:
#
# PCOD9045451 Si02
#       7
#     2   2   2   2   2   2   2
#     4  10  24  40  67  93 128 167 215 268 321 387
#     4  11  24  43  65  97 129 171 219 264 329 388
#     4  11  24  42  66  99 128 178 220 265 332 387
#     4  11  23  43  63  97 131 171 222 271 324 388
#     4  11  24  42  65  93 133 169 217 269 325 388
#     4  11  24  42  68  91 137 172 216 277 324 385
#     4  11  23  44  66  97 131 171 224 270 325 390
#
# _framework density 22.08812
#
# number of rings (size 3 to 8) (size 9 to 14) (size 15 to 20)
#    0.000    1.143    2.857    2.571    0.000    8.571 
#    0.000    0.000    0.000    0.000    0.000    0.000 
#    0.000    0.000    0.000    0.000    0.000    0.000 
#
# Total GULP energy -78303.187702 kJ/mol
# GULP energy per Si atom -5593.084836 kJ/mol
# Density = 2.203785 g / cm^3
# Si number density = 22.088120 Si / 1000 Ang^3
#
#
#
# Elastic Constant Matrix: (Units=GPa)
#
#
# Indices 1 2 3 4 5 6 
#
# 1 143.7065 38.7607 23.8800 12.8184 12.5264 -21.9007
# 2 38.7607 79.1015 29.2281 13.4885 2.8648 -25.5791
# 3 23.8800 29.2281 49.5540 11.4044 14.3326 -0.3125
# 4 12.8184 13.4885 11.4044 51.8509 6.0940 0.0355
# 5 12.5264 2.8648 14.3326 6.0940 23.8337 -3.5965
# 6 -21.9007 -25.5791 -0.3125 0.0355 -3.5965 47.7563
#
#
#
# Elastic Compliance Matrix: (Units=1/GPa)
#
#
# Indices 1 2 3 4 5 6 
#
# 1 0.008594 -0.002634 -0.001621 -0.000770 -0.002679 0.002318
# 2 -0.002634 0.023421 -0.014581 -0.003421 0.010023 0.011998
# 3 -0.001621 -0.014581 0.035559 -0.001278 -0.019934 -0.009821
# 4 -0.000770 -0.003421 -0.001278 0.021143 -0.004203 -0.002526
# 5 -0.002679 0.010023 -0.019934 -0.004203 0.056470 0.008265
# 6 0.002318 0.011998 -0.009821 -0.002526 0.008265 0.028989
#
#
# Mechanical properties :
#
#
# Convention : Reuss Voigt Hill
#
# Bulk Modulus (GPa) = 33.44316 50.67776 42.06046
# Shear Modulus (GPa) = 22.54131 36.72106 29.63118
#
# Velocity S-wave (km/s) = 3.19802 4.08178 3.66662
# Velocity P-wave (km/s) = 5.36750 6.72367 6.08350
#
# Compressibility (1/GPa) = 0.02990148
#
# Stress axis : x y z
#
# Youngs Moduli (GPa) = 116.36054 42.69762 28.12225
#
# Poissons Ratio (x) = 0.11247 0.04560
# Poissons Ratio (y) = 0.30651 0.41004
# Poissons Ratio (z) = 0.18866 0.62256
#
# Static dielectric constant tensor:
#      x y z
#    x 1.817910 0.008180 -0.027810 
#    y 0.008180 1.828490 0.020190 
#    z -0.027810 0.020190 1.772990 
# 
# From -- ./inp_files/10366.got.cif
#   From: 2010.05.17/outbox.cif.g08.bks.cpg/sg2_6_cif.got.tgz:10366.got - 2010.06.03 11:33:40.
