data_PCOD9045517
_publ_section_title
;
Structure prediction by ZEFSAII (Michael W. Deem and Ramdas Pophale) SiO2 
 PCOD9045517
Probable space group: P -1
;
_chemical_formula_sum "Si O2"
_cell_formula_units_Z 15
_cell_length_a 11.411314
_cell_length_b 11.973450
_cell_length_c 5.250044
_cell_angle_alpha 129.653256
_cell_angle_beta 95.502395
_cell_angle_gamma 77.014783
_cell_volume 537.082785
_symmetry_space_group_name_H-M "P -1"
_symmetry_group_IT_number 2
_symmetry_cell_setting 'triclinic'
loop_
_space_group_symop_operation_xyz
x,y,z
-x,-y,-z
loop_
_atom_site_type_symbol
_atom_site_label
_atom_site_fract_x
_atom_site_fract_y
_atom_site_fract_z
Si Si1 0.378855 0.277875 0.555243
Si Si2 0.385417 0.700514 0.641504
Si Si3 0.279671 0.434873 0.275613
Si Si4 0.909689 0.347481 0.212206
Si Si5 0.000000 0.500000 0.000000
Si Si6 0.063798 0.164952 0.366896
Si Si7 0.179545 0.863688 0.482269
Si Si8 0.685158 0.007679 0.679398
O O1 0.506980 0.309117 0.548082
O O2 0.301350 0.314534 0.330660
O O3 0.389157 0.113005 0.428564
O O4 0.320282 0.377787 0.923959
O O5 0.365603 0.548041 0.532540
O O6 0.262615 0.761414 0.551734
O O7 0.392230 0.831160 0.030399
O O8 0.144843 0.540776 0.400092
O O9 0.020712 0.232359 0.182732
O O10 0.829653 0.242313 0.917655
O O11 0.922207 0.465040 0.175360
O O12 0.066618 0.314392 0.741571
O O13 0.189145 0.049659 0.223923
O O14 0.955816 0.099116 0.377954
O O15 0.255525 0.981418 0.569664
#
# Coordination Sequence:
#
# PCOD9045517 Si02
#       8
#     2   2   2   2   1   2   2   2
#     4  12  31  50  82 119 157 205 270 331 396 459
#     4  12  27  50  81 110 156 207 265 329 388 473
#     4  12  26  52  81 115 156 209 265 327 394 468
#     4  11  23  45  75 110 157 200 264 318 394 468
#     4  10  24  40  70 106 158 200 248 316 390 462
#     4  11  24  44  72 113 153 206 259 320 393 474
#     4  11  24  46  75 106 153 206 263 317 390 471
#     4  12  28  48  75 113 160 205 260 321 405 463
#
# _framework density 27.928654999999999
#
# number of rings (size 3 to 8) (size 9 to 14) (size 15 to 20)
#    0.000    0.533    2.667    3.600    7.467    4.800 
#    0.000    0.000    0.000    0.000    0.000    0.000 
#    0.000    0.000    0.000    0.000    0.000    0.000 
#
# Total GULP energy -83913.436281 kJ/mol
# GULP energy per Si atom -5594.229085 kJ/mol
# Density = 2.786509 g / cm^3
# Si number density = 27.928655 Si / 1000 Ang^3
#
#
#
# Elastic Constant Matrix: (Units=GPa)
#
#
# Indices 1 2 3 4 5 6 
#
# 1 42.9495 -8.7447 15.8816 3.5806 -3.4418 14.5806
# 2 -8.7447 173.7347 26.6673 -5.0562 1.6795 40.3940
# 3 15.8816 26.6673 110.2657 -5.1628 -22.1630 11.8934
# 4 3.5806 -5.0562 -5.1628 43.8248 19.8919 12.4227
# 5 -3.4418 1.6795 -22.1630 19.8919 30.3102 -6.3221
# 6 14.5806 40.3940 11.8934 12.4227 -6.3221 48.7799
#
#
#
# Elastic Compliance Matrix: (Units=1/GPa)
#
#
# Indices 1 2 3 4 5 6 
#
# 1 0.030735 0.006186 -0.005551 0.005339 -0.007607 -0.015301
# 2 0.006186 0.010026 -0.003743 0.008958 -0.011174 -0.012968
# 3 -0.005551 -0.003743 0.012768 -0.006330 0.014129 0.005089
# 4 0.005339 0.008958 -0.006330 0.048855 -0.041866 -0.025338
# 5 -0.007607 -0.011174 0.014129 -0.041866 0.076533 0.028663
# 6 -0.015301 -0.012968 0.005089 -0.025338 0.028663 0.044739
#
#
# Mechanical properties :
#
#
# Convention : Reuss Voigt Hill
#
# Bulk Modulus (GPa) = 21.13680 43.83981 32.48831
# Shear Modulus (GPa) = 20.35454 44.12603 32.24029
#
# Velocity S-wave (km/s) = 2.70257 3.97918 3.40130
# Velocity P-wave (km/s) = 4.16210 6.06984 5.20413
#
# Compressibility (1/GPa) = 0.04731086
#
# Stress axis : x y z
#
# Youngs Moduli (GPa) = 32.53614 99.74416 78.31797
#
# Poissons Ratio (x) = -0.61697 0.43477
# Poissons Ratio (y) = -0.20125 0.29317
# Poissons Ratio (z) = 0.18062 0.37338
#
# Static dielectric constant tensor:
#      x y z
#    x 2.126730 0.112970 -0.115930 
#    y 0.112970 2.027130 0.087500 
#    z -0.115930 0.087500 2.135900 
# 
# From -- ./inp_files/72539.got.cif
#   From: 2010.05.17/outbox.cif.g08.bks.cpg/sg2_37_cif.got.tgz:72539.got - 2010.06.03 11:33:40.
