data_PCOD9045897
_publ_section_title
;
Structure prediction by ZEFSAII (Michael W. Deem and Ramdas Pophale) SiO2 
 PCOD9045897
Probable space group: P -1
;
_chemical_formula_sum "Si O2"
_cell_formula_units_Z 14
_cell_length_a 22.079038
_cell_length_b 6.592798
_cell_length_c 14.042496
_cell_angle_alpha 104.672984
_cell_angle_beta 20.325634
_cell_angle_gamma 103.424427
_cell_volume 686.772727
_symmetry_space_group_name_H-M "P -1"
_symmetry_group_IT_number 2
_symmetry_cell_setting 'triclinic'
loop_
_space_group_symop_operation_xyz
x,y,z
-x,-y,-z
loop_
_atom_site_type_symbol
_atom_site_label
_atom_site_fract_x
_atom_site_fract_y
_atom_site_fract_z
Si Si1 0.402146 0.773412 0.371782
Si Si2 0.813343 0.619685 0.320363
Si Si3 0.952977 0.352635 0.642774
Si Si4 0.688391 0.013640 0.671322
Si Si5 0.219781 0.052031 0.138612
Si Si6 0.021482 0.218947 0.264250
Si Si7 0.155706 0.079276 0.847501
O O1 0.333619 0.540883 0.451372
O O2 0.347850 0.863919 0.359529
O O3 0.292631 0.892529 0.628794
O O4 0.597975 0.835638 0.108863
O O5 0.793150 0.800474 0.454782
O O6 0.762025 0.734007 0.311486
O O7 0.000000 0.500000 0.000000
O O8 0.103159 0.174817 0.403979
O O9 0.000000 0.500000 0.500000
O O10 0.955090 0.529797 0.739890
O O11 0.787135 0.199441 0.864971
O O12 0.820975 0.147583 0.555983
O O13 0.500000 0.000000 0.000000
O O14 0.132311 0.112214 0.173153
O O15 0.086752 0.142678 0.057534
O O16 0.000000 0.000000 0.000000
#
# Coordination Sequence:
#
# PCOD9045897 Si02
#       7
#     2   2   2   2   2   2   2
#     4  11  24  42  65  93 133 168 215 269 322 382
#     4  11  21  42  69  90 131 181 211 257 339 387
#     4   9  22  41  65  86 132 172 209 255 329 378
#     4  11  26  39  63 102 136 160 218 279 317 387
#     4  10  24  42  63  94 126 170 218 264 315 392
#     4  11  22  42  66  93 128 170 213 263 327 384
#     4  11  21  43  62  93 132 164 210 273 319 379
#
# _framework density 20.385199
#
# number of rings (size 3 to 8) (size 9 to 14) (size 15 to 20)
#    0.000    1.429    4.286    0.000    8.000    8.000 
#    0.000    1.429    0.000    0.000    0.000    0.000 
#    0.000    0.000    0.000    0.000    0.000    0.000 
#
# Total GULP energy -77964.769304 kJ/mol
# GULP energy per Si atom -5568.912093 kJ/mol
# Density = 2.033880 g / cm^3
# Si number density = 20.385199 Si / 1000 Ang^3
#
#
#
# Elastic Constant Matrix: (Units=GPa)
#
#
# Indices 1 2 3 4 5 6 
#
# 1 81.2527 35.9346 16.9426 -10.6679 -4.0677 5.9437
# 2 35.9346 158.4132 32.7066 -28.5674 0.2983 9.4987
# 3 16.9426 32.7066 65.3708 -20.4073 -1.7976 6.4746
# 4 -10.6679 -28.5674 -20.4073 39.8024 11.4066 4.0119
# 5 -4.0677 0.2983 -1.7976 11.4066 36.7800 -2.4758
# 6 5.9437 9.4987 6.4746 4.0119 -2.4758 16.5706
#
#
#
# Elastic Compliance Matrix: (Units=1/GPa)
#
#
# Indices 1 2 3 4 5 6 
#
# 1 0.014190 -0.002455 -0.001734 0.001208 0.000917 -0.003160
# 2 -0.002455 0.008573 -0.001265 0.006161 -0.002679 -0.005431
# 3 -0.001734 -0.001265 0.020789 0.011247 -0.003326 -0.009996
# 4 0.001208 0.006161 0.011247 0.041612 -0.013650 -0.020474
# 5 0.000917 -0.002679 -0.003326 -0.013650 0.032097 0.010607
# 6 -0.003160 -0.005431 -0.009996 -0.020474 0.010607 0.075042
#
#
# Mechanical properties :
#
#
# Convention : Reuss Voigt Hill
#
# Bulk Modulus (GPa) = 30.63417 52.91158 41.77288
# Shear Modulus (GPa) = 23.35429 33.26078 28.30754
#
# Velocity S-wave (km/s) = 3.38842 4.04371 3.73048
# Velocity P-wave (km/s) = 5.51079 6.91479 6.25232
#
# Compressibility (1/GPa) = 0.03264329
#
# Stress axis : x y z
#
# Youngs Moduli (GPa) = 70.46998 116.65088 48.10150
#
# Poissons Ratio (x) = 0.28643 0.08342
# Poissons Ratio (y) = 0.17303 0.06085
# Poissons Ratio (z) = 0.12221 0.14756
#
# Static dielectric constant tensor:
#      x y z
#    x 1.717510 -0.010430 0.014450 
#    y -0.010430 1.783310 0.006840 
#    z 0.014450 0.006840 1.802900 
# 
# From -- ./inp_files/542056.got.cif
#   From: 2010.05.17/outbox.cif.g08.bks.cpg/sg2_272_cif.got.tgz:542056.got - 2010.06.03 11:33:40.
