data_PCOD9045944
_publ_section_title
;
Structure prediction by ZEFSAII (Michael W. Deem and Ramdas Pophale) SiO2 
 PCOD9045944
Probable space group: P -1
;
_chemical_formula_sum "Si O2"
_cell_formula_units_Z 14
_cell_length_a 4.958279
_cell_length_b 11.307748
_cell_length_c 10.790751
_cell_angle_alpha 108.788704
_cell_angle_beta 89.925157
_cell_angle_gamma 92.798224
_cell_volume 572.016250
_symmetry_space_group_name_H-M "P -1"
_symmetry_group_IT_number 2
_symmetry_cell_setting 'triclinic'
loop_
_space_group_symop_operation_xyz
x,y,z
-x,-y,-z
loop_
_atom_site_type_symbol
_atom_site_label
_atom_site_fract_x
_atom_site_fract_y
_atom_site_fract_z
Si Si1 0.555645 0.421436 0.598166
Si Si2 0.430422 0.362707 0.148834
Si Si3 0.555502 0.803542 0.120412
Si Si4 0.097300 0.966712 0.150953
Si Si5 0.303389 0.917476 0.385483
Si Si6 0.039501 0.265652 0.510465
Si Si7 0.914115 0.231448 0.210134
O O1 0.500000 0.500000 0.500000
O O2 0.496952 0.503327 0.746689
O O3 0.863018 0.382945 0.589057
O O4 0.352354 0.301030 0.542544
O O5 0.612406 0.266539 0.191669
O O6 0.120155 0.325436 0.168586
O O7 0.476364 0.328196 0.993870
O O8 0.857701 0.861055 0.128560
O O9 0.453310 0.816474 0.265308
O O10 0.363324 0.900705 0.083946
O O11 0.181502 0.000871 0.304889
O O12 0.995024 0.090844 0.131764
O O13 0.074805 0.846892 0.442397
O O14 0.500000 0.000000 0.500000
O O15 0.966840 0.249065 0.361327
#
# Coordination Sequence:
#
# PCOD9045944 Si02
#       7
#     2   2   2   2   2   2   2
#     4  12  24  45  64  99 130 172 220 278 323 379
#     4  12  25  42  67  93 138 169 223 270 324 385
#     4  10  24  44  63  94 138 175 209 269 325 382
#     4  10  24  42  64  98 134 168 215 261 330 391
#     4  10  26  45  69  97 136 170 218 267 324 399
#     4  12  25  41  71  99 129 171 223 268 333 379
#     4  12  23  38  69 101 126 179 211 268 334 389
#
# _framework density 24.474829
#
# number of rings (size 3 to 8) (size 9 to 14) (size 15 to 20)
#    0.857    0.000    2.857    3.857    6.000    4.571 
#    0.000    1.429    0.000    0.000    0.000    0.000 
#    0.000    0.000    0.000    0.000    0.000    0.000 
#
# Total GULP energy -78368.148602 kJ/mol
# GULP energy per Si atom -5597.724900 kJ/mol
# Density = 2.441912 g / cm^3
# Si number density = 24.474829 Si / 1000 Ang^3
#
#
#
# Elastic Constant Matrix: (Units=GPa)
#
#
# Indices 1 2 3 4 5 6 
#
# 1 74.5842 -9.3860 5.7846 -1.2140 7.0518 1.4261
# 2 -9.3860 35.3433 3.3842 -2.1137 -0.0540 6.4864
# 3 5.7846 3.3842 176.2561 16.5528 0.7451 8.7884
# 4 -1.2140 -2.1137 16.5528 37.8971 -2.7424 -3.2923
# 5 7.0518 -0.0540 0.7451 -2.7424 34.3721 3.1249
# 6 1.4261 6.4864 8.7884 -3.2923 3.1249 45.7819
#
#
#
# Elastic Compliance Matrix: (Units=1/GPa)
#
#
# Indices 1 2 3 4 5 6 
#
# 1 0.014241 0.003993 -0.000562 0.000665 -0.002790 -0.000663
# 2 0.003993 0.030282 -0.000667 0.001731 -0.000242 -0.004146
# 3 -0.000562 -0.000667 0.006031 -0.002806 -0.000128 -0.001239
# 4 0.000665 0.001731 -0.002806 0.028061 0.001970 0.002156
# 5 -0.002790 -0.000242 -0.000128 0.001970 0.029985 -0.001759
# 6 -0.000663 -0.004146 -0.001239 0.002156 -0.001759 0.022964
#
#
# Mechanical properties :
#
#
# Convention : Reuss Voigt Hill
#
# Bulk Modulus (GPa) = 17.83108 31.74992 24.79050
# Shear Modulus (GPa) = 34.54731 42.70362 38.62546
#
# Velocity S-wave (km/s) = 3.76113 4.18161 3.97693
# Velocity P-wave (km/s) = 5.11495 6.02620 5.58918
#
# Compressibility (1/GPa) = 0.05608186
#
# Stress axis : x y z
#
# Youngs Moduli (GPa) = 70.21985 33.02278 165.81975
#
# Poissons Ratio (x) = -0.13186 0.09313
# Poissons Ratio (y) = -0.28038 0.11065
# Poissons Ratio (z) = 0.03944 0.02204
#
# Static dielectric constant tensor:
#      x y z
#    x 1.881120 -0.055740 -0.009440 
#    y -0.055740 1.949140 0.022290 
#    z -0.009440 0.022290 2.007120 
# 
# From -- ./inp_files/363401.got.cif
#   From: 2010.05.17/outbox.cif.g08.bks.cpg/sg2_182_cif.got.tgz:363401.got - 2010.06.03 11:33:40.
