data_PCOD9045436
_publ_section_title
;
Structure prediction by ZEFSAII (Michael W. Deem and Ramdas Pophale) SiO2 
 PCOD9045436
Probable space group: P -1
;
_chemical_formula_sum "Si O2"
_cell_formula_units_Z 16
_cell_length_a 15.310148
_cell_length_b 9.258698
_cell_length_c 14.142712
_cell_angle_alpha 78.486715
_cell_angle_beta 27.600672
_cell_angle_gamma 96.510196
_cell_volume 699.801600
_symmetry_space_group_name_H-M "P -1"
_symmetry_group_IT_number 2
_symmetry_cell_setting 'triclinic'
loop_
_space_group_symop_operation_xyz
x,y,z
-x,-y,-z
loop_
_atom_site_type_symbol
_atom_site_label
_atom_site_fract_x
_atom_site_fract_y
_atom_site_fract_z
Si Si1 0.065991 0.497603 0.181087
Si Si2 0.724139 0.982186 0.839700
Si Si3 0.682307 0.691020 0.216660
Si Si4 0.529074 0.070027 0.195600
Si Si5 0.810490 0.325778 0.635648
Si Si6 0.138572 0.387464 0.779548
Si Si7 0.639826 0.974741 0.289582
Si Si8 0.968817 0.859750 0.740575
O O1 0.129183 0.357345 0.140510
O O2 0.858690 0.405266 0.473227
O O3 0.966247 0.513244 0.176316
O O4 0.288085 0.709337 0.976517
O O5 0.850135 0.169471 0.629705
O O6 0.881333 0.928137 0.735862
O O7 0.634047 0.033229 0.010478
O O8 0.477325 0.797760 0.051705
O O9 0.415304 0.511173 0.457797
O O10 0.815501 0.624718 0.152339
O O11 0.630510 0.794300 0.330020
O O12 0.853946 0.849434 0.952737
O O13 0.514474 0.953158 0.313678
O O14 0.260370 0.997635 0.445167
O O15 0.000000 0.500000 0.500000
O O16 0.923360 0.166453 0.987916
O O17 0.500000 0.000000 0.500000
#
# Coordination Sequence:
#
# PCOD9045436 Si02
#       8
#     2   2   2   2   2   2   2   2
#     4  11  24  43  65 100 135 178 225 282 339 396
#     4  11  24  45  72 100 133 180 225 274 343 408
#     4  11  23  41  66  99 135 183 224 276 337 391
#     4  11  23  44  68  98 139 181 223 272 340 403
#     4  11  23  45  75  97 136 175 222 286 343 395
#     4  10  24  40  66  95 138 173 231 268 333 402
#     4  11  23  41  65  98 139 181 226 279 328 395
#     4  12  25  43  71 101 138 176 226 277 333 408
#
# _framework density 22.863623
#
# number of rings (size 3 to 8) (size 9 to 14) (size 15 to 20)
#    0.000    1.000    3.750    2.625    0.000    7.500 
#    0.000    1.250    0.000    0.000    0.000    0.000 
#    0.000    0.000    0.000    0.000    0.000    0.000 
#
# Total GULP energy -89419.179459 kJ/mol
# GULP energy per Si atom -5588.698716 kJ/mol
# Density = 2.281158 g / cm^3
# Si number density = 22.863623 Si / 1000 Ang^3
#
#
#
# Elastic Constant Matrix: (Units=GPa)
#
#
# Indices 1 2 3 4 5 6 
#
# 1 141.1912 39.6721 42.8050 0.3468 -20.7088 -36.8884
# 2 39.6721 96.6048 59.0265 -13.2576 -15.9120 -14.7526
# 3 42.8050 59.0265 114.0938 -17.9000 -26.1871 -12.6217
# 4 0.3468 -13.2576 -17.9000 36.4030 2.3738 6.3633
# 5 -20.7088 -15.9120 -26.1871 2.3738 46.2386 4.4546
# 6 -36.8884 -14.7526 -12.6217 6.3633 4.4546 40.3596
#
#
#
# Elastic Compliance Matrix: (Units=1/GPa)
#
#
# Indices 1 2 3 4 5 6 
#
# 1 0.010969 -0.001928 -0.002149 -0.003582 0.002353 0.008954
# 2 -0.001928 0.015982 -0.006939 0.002131 0.000450 0.001524
# 3 -0.002149 -0.006939 0.014913 0.004699 0.004963 -0.001126
# 4 -0.003582 0.002131 0.004699 0.031607 0.000755 -0.006092
# 5 0.002353 0.000450 0.004963 0.000755 0.025518 0.000932
# 6 0.008954 0.001524 -0.001126 -0.006092 0.000932 0.034024
#
#
# Mechanical properties :
#
#
# Convention : Reuss Voigt Hill
#
# Bulk Modulus (GPa) = 50.42323 70.54411 60.48367
# Shear Modulus (GPa) = 30.92995 38.62598 34.77797
#
# Velocity S-wave (km/s) = 3.68204 4.11470 3.90437
# Velocity P-wave (km/s) = 6.33864 7.31407 6.84375
#
# Compressibility (1/GPa) = 0.01983213
#
# Stress axis : x y z
#
# Youngs Moduli (GPa) = 91.16382 62.56922 67.05758
#
# Poissons Ratio (x) = 0.12064 0.14412
# Poissons Ratio (y) = 0.17577 0.46529
# Poissons Ratio (z) = 0.19593 0.43415
#
# Static dielectric constant tensor:
#      x y z
#    x 1.875010 0.017300 0.040830 
#    y 0.017300 1.909230 0.037880 
#    z 0.040830 0.037880 1.858640 
# 
# From -- ./inp_files/529610.got.cif
#   From: 2010.05.17/outbox.cif.g08.bks.cpg/sg2_265_cif.got.tgz:529610.got - 2010.06.03 11:33:40.
