data_PCOD9045084
_publ_section_title
;
Structure prediction by ZEFSAII (Michael W. Deem and Ramdas Pophale) SiO2 
 PCOD9045084
Probable space group: P -1
;
_chemical_formula_sum "Si O2"
_cell_formula_units_Z 12
_cell_length_a 14.757621
_cell_length_b 7.648206
_cell_length_c 8.880898
_cell_angle_alpha 106.495474
_cell_angle_beta 52.005649
_cell_angle_gamma 139.821839
_cell_volume 474.165848
_symmetry_space_group_name_H-M "P -1"
_symmetry_group_IT_number 2
_symmetry_cell_setting 'triclinic'
loop_
_space_group_symop_operation_xyz
x,y,z
-x,-y,-z
loop_
_atom_site_type_symbol
_atom_site_label
_atom_site_fract_x
_atom_site_fract_y
_atom_site_fract_z
Si Si1 0.668609 0.936044 0.940007
Si Si2 0.185845 0.174361 0.755740
Si Si3 0.462743 0.303411 0.302353
Si Si4 0.557676 0.110025 0.639747
Si Si5 0.968759 0.011094 0.705970
Si Si6 0.845396 0.457821 0.682794
O O1 0.729836 0.200882 0.860706
O O2 0.565206 0.713200 0.851201
O O3 0.831922 0.009712 0.844958
O O4 0.550296 0.847909 0.181036
O O5 0.273943 0.125592 0.539977
O O6 0.353253 0.373847 0.749330
O O7 0.149814 0.276331 0.684067
O O8 0.000000 0.000000 0.000000
O O9 0.503173 0.148960 0.275517
O O10 0.751123 0.372564 0.595397
O O11 0.500000 0.000000 0.500000
O O12 0.896758 0.719688 0.762092
O O13 0.000000 0.000000 0.500000
O O14 0.000000 0.500000 0.500000
#
# Coordination Sequence:
#
# PCOD9045084 Si02
#       6
#     2   2   2   2   2   2
#     4  11  25  49  72 101 144 194 236 298 367 429
#     4  11  26  42  73 109 146 190 239 300 365 429
#     4  10  23  49  69 100 153 189 237 302 361 434
#     4  11  27  45  70 102 139 188 247 302 364 427
#     4  12  24  45  73 109 141 186 243 294 361 438
#     4  11  23  45  76 100 143 188 229 292 363 431
#
# _framework density 25.307600000000001
#
# number of rings (size 3 to 8) (size 9 to 14) (size 15 to 20)
#    0.000    1.000    3.333    3.000    9.333    0.667 
#    0.000    1.667    0.000    0.000    0.000    0.000 
#    0.000    0.000    0.000    0.000    0.000    0.000 
#
# Total GULP energy -66826.098196 kJ/mol
# GULP energy per Si atom -5568.841516 kJ/mol
# Density = 2.525000 g / cm^3
# Si number density = 25.307600 Si / 1000 Ang^3
#
#
#
# Elastic Constant Matrix: (Units=GPa)
#
#
# Indices 1 2 3 4 5 6 
#
# 1 171.2438 47.4085 58.3342 12.7527 -27.4158 11.3866
# 2 47.4085 69.4212 44.9317 19.0560 6.1349 18.2896
# 3 58.3342 44.9317 184.2908 33.6638 -33.6359 15.4816
# 4 12.7527 19.0560 33.6638 35.3883 3.8157 4.3888
# 5 -27.4158 6.1349 -33.6359 3.8157 50.1159 -1.3285
# 6 11.3866 18.2896 15.4816 4.3888 -1.3285 39.3389
#
#
#
# Elastic Compliance Matrix: (Units=1/GPa)
#
#
# Indices 1 2 3 4 5 6 
#
# 1 0.008450 -0.006248 -0.000232 -0.000119 0.005261 0.000741
# 2 -0.006248 0.026026 -0.004352 -0.005593 -0.009318 -0.008270
# 3 -0.000232 -0.004352 0.009175 -0.007002 0.007083 -0.000500
# 4 -0.000119 -0.005593 -0.007002 0.038623 -0.006999 0.000845
# 5 0.005261 -0.009318 0.007083 -0.006999 0.029307 0.001792
# 6 0.000741 -0.008270 -0.000500 0.000845 0.001792 0.029213
#
#
# Mechanical properties :
#
#
# Convention : Reuss Voigt Hill
#
# Bulk Modulus (GPa) = 45.48196 80.70052 63.09124
# Shear Modulus (GPa) = 29.44872 43.25405 36.35138
#
# Velocity S-wave (km/s) = 3.41491 4.13865 3.79407
# Velocity P-wave (km/s) = 5.79305 7.40236 6.64659
#
# Compressibility (1/GPa) = 0.02198674
#
# Stress axis : x y z
#
# Youngs Moduli (GPa) = 118.34047 38.42332 108.99766
#
# Poissons Ratio (x) = 0.24008 0.02526
# Poissons Ratio (y) = 0.73941 0.47436
# Poissons Ratio (z) = 0.02742 0.16722
#
# Static dielectric constant tensor:
#      x y z
#    x 2.256090 -0.182880 0.225540 
#    y -0.182880 2.398390 -0.206930 
#    z 0.225540 -0.206930 2.211670 
# 
# From -- ./inp_files/296021.got.cif
#   From: 2010.05.17/outbox.cif.g08.bks.cpg/sg2_149_cif.got.tgz:296021.got - 2010.06.03 11:33:40.
