data_PCOD9045240
_publ_section_title
;
Structure prediction by ZEFSAII (Michael W. Deem and Ramdas Pophale) SiO2 
 PCOD9045240
Probable space group: P -1
;
_chemical_formula_sum "Si O2"
_cell_formula_units_Z 16
_cell_length_a 10.896067
_cell_length_b 13.696442
_cell_length_c 14.945853
_cell_angle_alpha 29.486783
_cell_angle_beta 107.250721
_cell_angle_gamma 125.679922
_cell_volume 757.298212
_symmetry_space_group_name_H-M "P -1"
_symmetry_group_IT_number 2
_symmetry_cell_setting 'triclinic'
loop_
_space_group_symop_operation_xyz
x,y,z
-x,-y,-z
loop_
_atom_site_type_symbol
_atom_site_label
_atom_site_fract_x
_atom_site_fract_y
_atom_site_fract_z
Si Si1 0.575860 0.081820 0.666482
Si Si2 0.005698 0.931488 0.340969
Si Si3 0.042997 0.522680 0.661935
Si Si4 0.904779 0.859392 0.996618
Si Si5 0.367168 0.432014 0.450045
Si Si6 0.647085 0.156510 0.827023
Si Si7 0.493651 0.549274 0.713285
Si Si8 0.631318 0.530912 0.935282
O O1 0.784998 0.282527 0.522892
O O2 0.565993 0.048488 0.797880
O O3 0.511452 0.230004 0.500652
O O4 0.449738 0.775985 0.844661
O O5 0.172301 0.233619 0.172021
O O6 0.031393 0.728414 0.540872
O O7 0.018112 0.938020 0.230552
O O8 0.825579 0.861192 0.381730
O O9 0.085536 0.363627 0.849426
O O10 0.840112 0.259625 0.794502
O O11 0.701106 0.698933 0.092834
O O12 0.000000 0.000000 0.000000
O O13 0.500000 0.500000 0.500000
O O14 0.297253 0.556916 0.378773
O O15 0.472827 0.551974 0.284889
O O16 0.500000 0.000000 0.000000
O O17 0.622098 0.629315 0.758100
O O18 0.500000 0.500000 0.000000
#
# Coordination Sequence:
#
# PCOD9045240 Si02
#       8
#     2   2   2   2   2   2   2   2
#     4  11  23  42  67  96 129 174 222 268 329 380
#     4  11  25  44  64  97 130 178 214 270 327 382
#     4  10  24  38  62  95 131 166 219 268 326 389
#     4  11  24  36  66  98 129 167 219 273 333 382
#     4  11  23  44  68  93 136 167 211 270 338 391
#     4  11  24  38  65  96 134 172 210 272 336 393
#     4  11  24  42  66  97 129 179 215 270 327 388
#     4  12  24  44  68  93 136 173 228 271 313 394
#
# _framework density 21.127742000000001
#
# number of rings (size 3 to 8) (size 9 to 14) (size 15 to 20)
#    0.000    1.000    3.750    1.875   12.250    2.000 
#    0.000    0.625    0.000    0.000    0.000    0.000 
#    0.000    0.000    0.000    0.000    0.000    0.000 
#
# Total GULP energy -89164.224481 kJ/mol
# GULP energy per Si atom -5572.764030 kJ/mol
# Density = 2.107965 g / cm^3
# Si number density = 21.127742 Si / 1000 Ang^3
#
#
#
# Elastic Constant Matrix: (Units=GPa)
#
#
# Indices 1 2 3 4 5 6 
#
# 1 87.0989 14.9766 25.1416 -1.3850 -1.2324 11.2773
# 2 14.9766 72.0939 27.0547 4.9979 -8.2624 5.5633
# 3 25.1416 27.0547 93.2852 -7.5764 -7.2618 7.4327
# 4 -1.3850 4.9979 -7.5764 33.6732 1.1256 -0.2166
# 5 -1.2324 -8.2624 -7.2618 1.1256 28.5328 -14.2183
# 6 11.2773 5.5633 7.4327 -0.2166 -14.2183 34.3500
#
#
#
# Elastic Compliance Matrix: (Units=1/GPa)
#
#
# Indices 1 2 3 4 5 6 
#
# 1 0.013169 -0.001635 -0.002920 0.000197 -0.002977 -0.004658
# 2 -0.001635 0.016524 -0.004372 -0.003633 0.003954 0.000421
# 3 -0.002920 -0.004372 0.013219 0.003447 0.001577 -0.000519
# 4 0.000197 -0.003633 0.003447 0.031074 -0.001770 -0.000759
# 5 -0.002977 0.003954 0.001577 -0.001770 0.046020 0.019033
# 6 -0.004658 0.000421 -0.000519 -0.000759 0.019033 0.038559
#
#
# Mechanical properties :
#
#
# Convention : Reuss Voigt Hill
#
# Bulk Modulus (GPa) = 39.90836 42.98040 41.44438
# Shear Modulus (GPa) = 27.06041 31.66489 29.36265
#
# Velocity S-wave (km/s) = 3.58271 3.87555 3.73200
# Velocity P-wave (km/s) = 6.00371 6.35718 6.18297
#
# Compressibility (1/GPa) = 0.02505741
#
# Stress axis : x y z
#
# Youngs Moduli (GPa) = 75.93435 60.51827 75.64967
#
# Poissons Ratio (x) = 0.09898 0.22086
# Poissons Ratio (y) = 0.12419 0.33076
# Poissons Ratio (z) = 0.22170 0.26460
#
# Static dielectric constant tensor:
#      x y z
#    x 1.695770 -0.009020 0.268610 
#    y -0.009020 1.897150 0.186190 
#    z 0.268610 0.186190 1.392630 
# 
# From -- ./inp_files/522156.got.cif
#   From: 2010.05.17/outbox.cif.g08.bks.cpg/sg2_262_cif.got.tgz:522156.got - 2010.06.03 11:33:40.
