data_PCOD9045128
_publ_section_title
;
Structure prediction by ZEFSAII (Michael W. Deem and Ramdas Pophale) SiO2 
 PCOD9045128
Probable space group: P -1
;
_chemical_formula_sum "Si O2"
_cell_formula_units_Z 16
_cell_length_a 15.061686
_cell_length_b 24.941746
_cell_length_c 5.029458
_cell_angle_alpha 102.166979
_cell_angle_beta 74.864296
_cell_angle_gamma 160.855540
_cell_volume 594.273370
_symmetry_space_group_name_H-M "P -1"
_symmetry_group_IT_number 2
_symmetry_cell_setting 'triclinic'
loop_
_space_group_symop_operation_xyz
x,y,z
-x,-y,-z
loop_
_atom_site_type_symbol
_atom_site_label
_atom_site_fract_x
_atom_site_fract_y
_atom_site_fract_z
Si Si1 0.760815 0.996478 0.827549
Si Si2 0.267513 0.135101 0.106019
Si Si3 0.356676 0.567155 0.559560
Si Si4 0.331575 0.364762 0.807911
Si Si5 0.273534 0.868265 0.780420
Si Si6 0.086535 0.823637 0.416176
Si Si7 0.171323 0.710497 0.025164
Si Si8 0.797372 0.426094 0.727957
O O1 0.474378 0.860607 0.029267
O O2 0.041301 0.173806 0.939129
O O3 0.783501 0.042081 0.576111
O O4 0.782774 0.943091 0.730680
O O5 0.503851 0.239297 0.851006
O O6 0.427776 0.277588 0.257143
O O7 0.000000 0.000000 0.000000
O O8 0.500999 0.594079 0.373143
O O9 0.285078 0.568551 0.381307
O O10 0.500000 0.500000 0.000000
O O11 0.213403 0.335721 0.633508
O O12 0.059217 0.781706 0.680697
O O13 0.212693 0.771322 0.795533
O O14 0.500000 0.000000 0.500000
O O15 0.258995 0.888041 0.109494
O O16 0.944715 0.616403 0.273302
O O17 0.987220 0.553886 0.952539
O O18 0.000000 0.500000 0.500000
#
# Coordination Sequence:
#
# PCOD9045128 Si02
#       8
#     2   2   2   2   2   2   2   2
#     4  10  23  49  74 116 158 213 274 347 409 501
#     4  11  25  47  78 119 159 210 281 332 415 504
#     4  11  26  50  78 114 165 215 266 347 418 491
#     4  10  25  52  77 114 165 225 276 336 412 501
#     4  12  24  48  75 116 157 211 273 343 409 494
#     4  10  27  46  76 114 156 212 275 341 406 489
#     4  11  26  45  79 114 157 212 278 340 424 493
#     4  11  25  44  75 116 158 204 266 346 416 492
#
# _framework density 26.923634
#
# number of rings (size 3 to 8) (size 9 to 14) (size 15 to 20)
#    0.750    0.500    1.250    2.625    3.500    7.000 
#    4.500    2.500    0.000    0.000    0.000    0.000 
#    0.000    0.000    0.000    0.000    0.000    0.000 
#
# Total GULP energy -89352.816071 kJ/mol
# GULP energy per Si atom -5584.551004 kJ/mol
# Density = 2.686235 g / cm^3
# Si number density = 26.923634 Si / 1000 Ang^3
#
#
#
# Elastic Constant Matrix: (Units=GPa)
#
#
# Indices 1 2 3 4 5 6 
#
# 1 152.1807 54.4445 52.6346 -14.2764 -10.7960 2.5822
# 2 54.4445 197.3455 54.6936 -15.0292 -21.9400 14.5539
# 3 52.6346 54.6936 111.7088 -4.0071 1.5158 1.7883
# 4 -14.2764 -15.0292 -4.0071 37.3040 -2.2238 -16.1813
# 5 -10.7960 -21.9400 1.5158 -2.2238 56.6261 -19.0117
# 6 2.5822 14.5539 1.7883 -16.1813 -19.0117 44.3803
#
#
#
# Elastic Compliance Matrix: (Units=1/GPa)
#
#
# Indices 1 2 3 4 5 6 
#
# 1 0.008609 -0.001056 -0.003476 0.003605 0.002223 0.002252
# 2 -0.001056 0.006530 -0.002657 0.001991 0.002405 -0.000217
# 3 -0.003476 -0.002657 0.011879 -0.001742 -0.002444 -0.001087
# 4 0.003605 0.001991 -0.001742 0.036220 0.008287 0.015964
# 5 0.002223 0.002405 -0.002444 0.008287 0.023530 0.012282
# 6 0.002252 -0.000217 -0.001087 0.015964 0.012282 0.033598
#
#
# Mechanical properties :
#
#
# Convention : Reuss Voigt Hill
#
# Bulk Modulus (GPa) = 79.12188 87.19781 83.15984
# Shear Modulus (GPa) = 35.98206 47.62624 41.80415
#
# Velocity S-wave (km/s) = 3.65971 4.21044 3.94470
# Velocity P-wave (km/s) = 6.87818 7.48962 7.19040
#
# Compressibility (1/GPa) = 0.01263873
#
# Stress axis : x y z
#
# Youngs Moduli (GPa) = 116.15796 153.13765 84.18305
#
# Poissons Ratio (x) = 0.16172 0.29264
# Poissons Ratio (y) = 0.12267 0.22370
# Poissons Ratio (z) = 0.40379 0.40694
#
# Static dielectric constant tensor:
#      x y z
#    x 2.314920 0.131910 -0.063890 
#    y 0.131910 2.278210 -0.021970 
#    z -0.063890 -0.021970 2.310420 
# 
# From -- ./inp_files/101531.got.cif
#   From: 2010.05.17/outbox.cif.g08.bks.cpg/sg2_51_cif.got.tgz:101531.got - 2010.06.03 11:33:40.
