data_PCOD9045577
_publ_section_title
;
Structure prediction by ZEFSAII (Michael W. Deem and Ramdas Pophale) SiO2 
 PCOD9045577
Probable space group: P -1
;
_chemical_formula_sum "Si O2"
_cell_formula_units_Z 12
_cell_length_a 10.110903
_cell_length_b 11.121506
_cell_length_c 7.034291
_cell_angle_alpha 128.387713
_cell_angle_beta 70.259963
_cell_angle_gamma 131.605763
_cell_volume 459.827231
_symmetry_space_group_name_H-M "P -1"
_symmetry_group_IT_number 2
_symmetry_cell_setting 'triclinic'
loop_
_space_group_symop_operation_xyz
x,y,z
-x,-y,-z
loop_
_atom_site_type_symbol
_atom_site_label
_atom_site_fract_x
_atom_site_fract_y
_atom_site_fract_z
Si Si1 0.256136 0.146449 0.508422
Si Si2 0.472414 0.845603 0.206876
Si Si3 0.209535 0.156094 0.089679
Si Si4 0.197338 0.656204 0.827999
Si Si5 0.032935 0.280643 0.793080
Si Si6 0.329239 0.577570 0.332980
O O1 0.345134 0.123402 0.897312
O O2 0.235403 0.153393 0.299941
O O3 0.461076 0.274829 0.577787
O O4 0.137810 0.923835 0.411609
O O5 0.331635 0.636115 0.173081
O O6 0.500000 0.000000 0.500000
O O7 0.371709 0.816544 0.028466
O O8 0.268659 0.366880 0.208459
O O9 0.169398 0.238250 0.731765
O O10 0.000000 0.000000 0.000000
O O11 0.240324 0.641198 0.578607
O O12 0.109745 0.448889 0.767102
O O13 0.052168 0.691076 0.957671
#
# Coordination Sequence:
#
# PCOD9045577 Si02
#       6
#     2   2   2   2   2   2
#     4  11  23  45  74 101 141 190 233 290 354 419
#     4  12  29  46  72 107 148 184 239 295 356 421
#     4  12  28  46  71 109 145 185 243 293 351 424
#     4  11  24  49  70 106 143 189 233 294 356 421
#     4  10  24  40  75 101 138 185 238 287 350 419
#     4  12  26  49  76 102 144 193 236 288 361 421
#
# _framework density 26.09676
#
# number of rings (size 3 to 8) (size 9 to 14) (size 15 to 20)
#    0.000    0.667    3.333    3.000   11.667    1.333 
#    0.000    4.167    0.000    0.000    0.000    0.000 
#    0.000    0.000    0.000    0.000    0.000    0.000 
#
# Total GULP energy -67370.262695 kJ/mol
# GULP energy per Si atom -5614.188558 kJ/mol
# Density = 2.603736 g / cm^3
# Si number density = 26.096760 Si / 1000 Ang^3
#
#
#
# Elastic Constant Matrix: (Units=GPa)
#
#
# Indices 1 2 3 4 5 6 
#
# 1 151.1496 29.2622 43.0565 -12.2497 -46.6900 39.7211
# 2 29.2622 124.2845 48.5094 4.3823 -3.1550 14.8476
# 3 43.0565 48.5094 116.7356 -11.9756 -17.9335 10.9877
# 4 -12.2497 4.3823 -11.9756 58.8914 -2.9070 -7.1093
# 5 -46.6900 -3.1550 -17.9335 -2.9070 56.1542 -10.9055
# 6 39.7211 14.8476 10.9877 -7.1093 -10.9055 43.0990
#
#
#
# Elastic Compliance Matrix: (Units=1/GPa)
#
#
# Indices 1 2 3 4 5 6 
#
# 1 0.012000 -0.000991 -0.001892 0.001609 0.007851 -0.007984
# 2 -0.000991 0.010246 -0.004226 -0.002233 -0.002192 -0.002462
# 3 -0.001892 -0.004226 0.011505 0.002522 0.002237 0.001248
# 4 0.001609 -0.002233 0.002522 0.018476 0.003473 0.002570
# 5 0.007851 -0.002192 0.002237 0.003473 0.025081 -0.000131
# 6 -0.007984 -0.002462 0.001248 0.002570 -0.000131 0.031482
#
#
# Mechanical properties :
#
#
# Convention : Reuss Voigt Hill
#
# Bulk Modulus (GPa) = 51.19304 70.42508 60.80906
# Shear Modulus (GPa) = 38.60418 49.71836 44.16127
#
# Velocity S-wave (km/s) = 3.85030 4.36954 4.11811
# Velocity P-wave (km/s) = 6.27898 7.24582 6.77966
#
# Compressibility (1/GPa) = 0.01953391
#
# Stress axis : x y z
#
# Youngs Moduli (GPa) = 83.33092 97.59730 86.91642
#
# Poissons Ratio (x) = 0.09668 0.16444
# Poissons Ratio (y) = 0.08255 0.36735
# Poissons Ratio (z) = 0.15766 0.41249
#
# Static dielectric constant tensor:
#      x y z
#    x 2.001500 -0.028450 0.021660 
#    y -0.028450 2.034340 0.004350 
#    z 0.021660 0.004350 2.117490 
# 
# From -- ./inp_files/153558.got.cif
#   From: 2010.05.17/outbox.cif.g08.bks.cpg/sg2_77_cif.got.tgz:153558.got - 2010.06.03 11:33:40.
