data_PCOD9045591
_publ_section_title
;
Structure prediction by ZEFSAII (Michael W. Deem and Ramdas Pophale) SiO2 
 PCOD9045591
Probable space group: P -1
;
_chemical_formula_sum "Si O2"
_cell_formula_units_Z 16
_cell_length_a 24.582266
_cell_length_b 20.331330
_cell_length_c 10.123586
_cell_angle_alpha 136.281863
_cell_angle_beta 30.654368
_cell_angle_gamma 159.822386
_cell_volume 779.786074
_symmetry_space_group_name_H-M "P -1"
_symmetry_group_IT_number 2
_symmetry_cell_setting 'triclinic'
loop_
_space_group_symop_operation_xyz
x,y,z
-x,-y,-z
loop_
_atom_site_type_symbol
_atom_site_label
_atom_site_fract_x
_atom_site_fract_y
_atom_site_fract_z
Si Si1 0.252093 0.104556 0.932668
Si Si2 0.688155 0.694002 0.493913
Si Si3 0.808729 0.990706 0.770038
Si Si4 0.974510 0.444594 0.823675
Si Si5 0.566400 0.983500 0.958187
Si Si6 0.650155 0.545945 0.615865
Si Si7 0.401622 0.703187 0.711382
Si Si8 0.455572 0.877744 0.316261
O O1 0.397629 0.140297 0.598644
O O2 0.417693 0.330058 0.877227
O O3 0.247557 0.080268 0.062100
O O4 0.970911 0.889202 0.163897
O O5 0.500000 0.500000 0.500000
O O6 0.613997 0.595612 0.651327
O O7 0.704311 0.821236 0.654081
O O8 0.101312 0.234113 0.505863
O O9 0.683091 0.989362 0.998625
O O10 0.833308 0.232240 0.802270
O O11 0.228938 0.639843 0.503273
O O12 0.815849 0.400205 0.021240
O O13 0.000000 0.500000 0.000000
O O14 0.528244 0.847360 0.785708
O O15 0.500000 0.000000 0.000000
O O16 0.407579 0.872949 0.260329
O O17 0.691626 0.479442 0.351839
O O18 0.500000 0.000000 0.500000
#
# Coordination Sequence:
#
# PCOD9045591 Si02
#       8
#     2   2   2   2   2   2   2   2
#     4   9  21  42  67  91 124 173 213 263 333 383
#     4  11  25  42  63  97 133 161 216 274 324 399
#     4  11  24  40  66  96 128 171 221 268 322 393
#     4  11  21  40  63  93 133 170 222 271 318 393
#     4  10  24  41  60  92 136 169 223 273 325 389
#     4   9  21  42  67  88 125 168 214 263 318 394
#     4   9  21  41  63  94 126 172 211 267 324 386
#     4  12  25  39  69  99 131 177 221 270 330 382
#
# _framework density 20.518449
#
# number of rings (size 3 to 8) (size 9 to 14) (size 15 to 20)
#    0.750    1.000    1.250    3.000    3.500    5.500 
#    2.250    0.000    0.000    0.000    0.000    0.000 
#    0.000    0.000    0.000    0.000    0.000    0.000 
#
# Total GULP energy -89265.293647 kJ/mol
# GULP energy per Si atom -5579.080853 kJ/mol
# Density = 2.047175 g / cm^3
# Si number density = 20.518449 Si / 1000 Ang^3
#
#
#
# Elastic Constant Matrix: (Units=GPa)
#
#
# Indices 1 2 3 4 5 6 
#
# 1 75.7635 35.4371 23.4150 -6.5573 4.3488 1.7205
# 2 35.4371 149.6553 28.2797 12.1719 8.4974 7.4775
# 3 23.4150 28.2797 68.4337 1.5372 2.1836 9.6236
# 4 -6.5573 12.1719 1.5372 49.6568 -9.0308 5.2370
# 5 4.3488 8.4974 2.1836 -9.0308 37.1430 1.7871
# 6 1.7205 7.4775 9.6236 5.2370 1.7871 31.0990
#
#
#
# Elastic Compliance Matrix: (Units=1/GPa)
#
#
# Indices 1 2 3 4 5 6 
#
# 1 0.016361 -0.003313 -0.004396 0.002990 -0.000209 0.000760
# 2 -0.003313 0.008216 -0.002055 -0.002689 -0.001996 -0.000589
# 3 -0.004396 -0.002055 0.017626 -0.000098 0.000151 -0.004709
# 4 0.002990 -0.002689 -0.000098 0.022663 0.005956 -0.003647
# 5 -0.000209 -0.001996 0.000151 0.005956 0.028950 -0.002222
# 6 0.000760 -0.000589 -0.004709 -0.003647 -0.002222 0.034454
#
#
# Mechanical properties :
#
#
# Convention : Reuss Voigt Hill
#
# Bulk Modulus (GPa) = 44.10215 52.01291 48.05753
# Shear Modulus (GPa) = 32.18408 37.36114 34.77261
#
# Velocity S-wave (km/s) = 3.96478 4.27178 4.12114
# Velocity P-wave (km/s) = 6.51919 7.05232 6.79099
#
# Compressibility (1/GPa) = 0.02267463
#
# Stress axis : x y z
#
# Youngs Moduli (GPa) = 61.12223 121.71072 56.73524
#
# Poissons Ratio (x) = 0.40319 0.24943
# Poissons Ratio (y) = 0.20248 0.11659
# Poissons Ratio (z) = 0.26872 0.25011
#
# Static dielectric constant tensor:
#      x y z
#    x 1.790320 -0.030950 0.025080 
#    y -0.030950 1.769280 0.009310 
#    z 0.025080 0.009310 1.747940 
# 
# From -- ./inp_files/355287.got.cif
#   From: 2010.05.17/outbox.cif.g08.bks.cpg/sg2_178_cif.got.tgz:355287.got - 2010.06.03 11:33:40.
