data_PCOD9045744
_publ_section_title
;
Structure prediction by ZEFSAII (Michael W. Deem and Ramdas Pophale) SiO2 
 PCOD9045744
Probable space group: P -1
;
_chemical_formula_sum "Si O2"
_cell_formula_units_Z 16
_cell_length_a 18.975763
_cell_length_b 17.027613
_cell_length_c 5.219349
_cell_angle_alpha 82.408477
_cell_angle_beta 87.454231
_cell_angle_gamma 156.462200
_cell_volume 606.409041
_symmetry_space_group_name_H-M "P -1"
_symmetry_group_IT_number 2
_symmetry_cell_setting 'triclinic'
loop_
_space_group_symop_operation_xyz
x,y,z
-x,-y,-z
loop_
_atom_site_type_symbol
_atom_site_label
_atom_site_fract_x
_atom_site_fract_y
_atom_site_fract_z
Si Si1 0.730275 0.163461 0.225817
Si Si2 0.103607 0.379892 0.793129
Si Si3 0.490221 0.770604 0.259784
Si Si4 0.043563 0.642378 0.399834
Si Si5 0.118817 0.237126 0.102525
Si Si6 0.505012 0.611335 0.177202
Si Si7 0.693880 0.292313 0.993721
Si Si8 0.802362 0.811101 0.268524
O O1 0.831505 0.268378 0.438646
O O2 0.610833 0.956700 0.336100
O O3 0.882309 0.315820 0.899245
O O4 0.623866 0.134620 0.182661
O O5 0.277721 0.532937 0.518651
O O6 0.933150 0.238786 0.710447
O O7 0.064041 0.269391 0.044424
O O8 0.179769 0.533623 0.881817
O O9 0.566367 0.762534 0.202032
O O10 0.457704 0.797604 0.016870
O O11 0.828673 0.419356 0.665061
O O12 0.344580 0.465710 0.046463
O O13 0.099079 0.163362 0.883205
O O14 0.933282 0.000360 0.363352
O O15 0.696224 0.756301 0.095562
O O16 0.363944 0.408592 0.454211
#
# Coordination Sequence:
#
# PCOD9045744 Si02
#       8
#     2   2   2   2   2   2   2   2
#     4  12  27  44  71 106 140 186 243 296 352 425
#     4  11  24  44  69  99 143 189 233 293 362 428
#     4  11  26  43  66 102 142 186 234 294 357 430
#     4  11  26  45  69 104 139 185 240 301 351 420
#     4  11  22  44  69 100 136 184 234 291 362 429
#     4  11  22  44  67  99 143 180 232 298 356 424
#     4  11  24  46  72  97 143 191 234 291 360 423
#     4  10  24  41  68 102 134 183 236 288 361 437
#
# _framework density 26.384829
#
# number of rings (size 3 to 8) (size 9 to 14) (size 15 to 20)
#    0.000    1.000    3.750    1.875    7.000    0.500 
#    0.000    1.250    0.000    0.000    0.000    0.000 
#    0.000    0.000    0.000    0.000    0.000    0.000 
#
# Total GULP energy -89196.356354 kJ/mol
# GULP energy per Si atom -5574.772272 kJ/mol
# Density = 2.632478 g / cm^3
# Si number density = 26.384829 Si / 1000 Ang^3
#
#
#
# Elastic Constant Matrix: (Units=GPa)
#
#
# Indices 1 2 3 4 5 6 
#
# 1 163.9046 38.9567 33.1192 -6.6892 32.2703 -8.4860
# 2 38.9567 64.8099 2.8861 -14.9551 10.1642 -9.5507
# 3 33.1192 2.8861 99.2248 10.8630 8.2136 1.3213
# 4 -6.6892 -14.9551 10.8630 31.7825 -0.7028 9.2338
# 5 32.2703 10.1642 8.2136 -0.7028 26.1569 1.0721
# 6 -8.4860 -9.5507 1.3213 9.2338 1.0721 54.6805
#
#
#
# Elastic Compliance Matrix: (Units=1/GPa)
#
#
# Indices 1 2 3 4 5 6 
#
# 1 0.009398 -0.003817 -0.002313 0.000488 -0.009410 0.000950
# 2 -0.003817 0.020339 0.000013 0.008221 -0.003044 0.001631
# 3 -0.002313 0.000013 0.011405 -0.004437 -0.000857 0.000134
# 4 0.000488 0.008221 -0.004437 0.038329 -0.001176 -0.004831
# 5 -0.009410 -0.003044 -0.000857 -0.001176 0.051374 -0.002780
# 6 0.000950 0.001631 0.000134 -0.004831 -0.002780 0.019587
#
#
# Mechanical properties :
#
#
# Convention : Reuss Voigt Hill
#
# Bulk Modulus (GPa) = 34.59514 53.09592 43.84553
# Shear Modulus (GPa) = 29.01889 39.38915 34.20402
#
# Velocity S-wave (km/s) = 3.31997 3.86796 3.60439
# Velocity P-wave (km/s) = 5.27603 6.33368 5.82889
#
# Compressibility (1/GPa) = 0.02890580
#
# Stress axis : x y z
#
# Youngs Moduli (GPa) = 106.41065 49.16777 87.68364
#
# Poissons Ratio (x) = 0.18769 0.20280
# Poissons Ratio (y) = 0.40621 -0.00112
# Poissons Ratio (z) = 0.24611 -0.00063
#
# Static dielectric constant tensor:
#      x y z
#    x 2.156540 0.393530 -0.189520 
#    y 0.393530 3.232740 -0.649030 
#    z -0.189520 -0.649030 2.614540 
# 
# From -- ./inp_files/110801.got.cif
#   From: 2010.05.17/outbox.cif.g08.bks.cpg/sg2_56_cif.got.tgz:110801.got - 2010.06.03 11:33:40.
