data_PCOD9045766
_publ_section_title
;
Structure prediction by ZEFSAII (Michael W. Deem and Ramdas Pophale) SiO2 
 PCOD9045766
Probable space group: P -1
;
_chemical_formula_sum "Si O2"
_cell_formula_units_Z 14
_cell_length_a 12.459705
_cell_length_b 20.777047
_cell_length_c 19.828920
_cell_angle_alpha 21.341519
_cell_angle_beta 33.412266
_cell_angle_gamma 20.697021
_cell_volume 632.968421
_symmetry_space_group_name_H-M "P -1"
_symmetry_group_IT_number 2
_symmetry_cell_setting 'triclinic'
loop_
_space_group_symop_operation_xyz
x,y,z
-x,-y,-z
loop_
_atom_site_type_symbol
_atom_site_label
_atom_site_fract_x
_atom_site_fract_y
_atom_site_fract_z
Si Si1 0.304230 0.314978 0.475750
Si Si2 0.641281 0.327332 0.861386
Si Si3 0.830784 0.478487 0.308680
Si Si4 0.187887 0.351864 0.116232
Si Si5 0.951450 0.418079 0.792412
Si Si6 0.316159 0.942473 0.655324
Si Si7 0.232014 0.836663 0.194295
O O1 0.403341 0.445248 0.309516
O O2 0.173086 0.392469 0.393311
O O3 0.000000 0.500000 0.500000
O O4 0.578086 0.983344 0.675188
O O5 0.599827 0.347918 0.782083
O O6 0.411460 0.362540 0.987937
O O7 0.000000 0.000000 0.000000
O O8 0.488738 0.651132 0.300295
O O9 0.960483 0.494740 0.160401
O O10 0.848854 0.597076 0.248094
O O11 0.074482 0.143991 0.523220
O O12 0.000000 0.500000 0.000000
O O13 0.622156 0.599515 0.824541
O O14 0.131649 0.113999 0.971212
O O15 0.500000 0.000000 0.500000
O O16 0.080786 0.052408 0.731137
#
# Coordination Sequence:
#
# PCOD9045766 Si02
#       7
#     2   2   2   2   2   2   2
#     4  12  26  45  76 106 142 190 244 292 353 427
#     4  12  26  43  76 105 139 193 242 291 348 428
#     4  11  25  45  71 102 144 185 226 297 361 417
#     4  12  26  51  71 108 149 185 238 299 362 420
#     4  11  24  43  71 106 135 185 238 290 352 419
#     4  10  24  41  68  97 138 182 230 290 341 415
#     4  12  24  46  67 106 143 183 237 287 358 423
#
# _framework density 22.118006999999999
#
# number of rings (size 3 to 8) (size 9 to 14) (size 15 to 20)
#    0.000    0.571    5.714    1.286    8.000    1.714 
#    0.000    0.000    0.000    0.000    0.000    0.000 
#    0.000    0.000    0.000    0.000    0.000    0.000 
#
# Total GULP energy -78232.308062 kJ/mol
# GULP energy per Si atom -5588.022004 kJ/mol
# Density = 2.206767 g / cm^3
# Si number density = 22.118007 Si / 1000 Ang^3
#
#
#
# Elastic Constant Matrix: (Units=GPa)
#
#
# Indices 1 2 3 4 5 6 
#
# 1 140.6536 21.3292 41.9610 -4.5122 4.9250 -0.0120
# 2 21.3292 81.5332 0.8285 12.9079 -4.9117 -6.6869
# 3 41.9610 0.8285 82.0070 -6.7640 -6.5429 -12.5614
# 4 -4.5122 12.9079 -6.7640 35.7018 -7.6549 7.1274
# 5 4.9250 -4.9117 -6.5429 -7.6549 39.3998 -2.9969
# 6 -0.0120 -6.6869 -12.5614 7.1274 -2.9969 39.5104
#
#
#
# Elastic Compliance Matrix: (Units=1/GPa)
#
#
# Indices 1 2 3 4 5 6 
#
# 1 0.009207 -0.002900 -0.005151 0.001243 -0.002318 -0.002526
# 2 -0.002900 0.014346 0.001624 -0.005716 0.001622 0.004098
# 3 -0.005151 0.001624 0.016119 0.001645 0.004255 0.005424
# 4 0.001243 -0.005716 0.001645 0.032882 0.005340 -0.005971
# 5 -0.002318 0.001622 0.004255 0.005340 0.027828 0.002774
# 6 -0.002526 0.004098 0.005424 -0.005971 0.002774 0.029015
#
#
# Mechanical properties :
#
#
# Convention : Reuss Voigt Hill
#
# Bulk Modulus (GPa) = 37.28664 48.04791 42.66728
# Shear Modulus (GPa) = 33.07120 38.92740 35.99930
#
# Velocity S-wave (km/s) = 3.87100 4.19977 4.03873
# Velocity P-wave (km/s) = 6.07241 6.72964 6.40945
#
# Compressibility (1/GPa) = 0.02681926
#
# Stress axis : x y z
#
# Youngs Moduli (GPa) = 108.61366 69.70740 62.03717
#
# Poissons Ratio (x) = 0.20214 0.31955
# Poissons Ratio (y) = 0.31496 -0.10078
# Poissons Ratio (z) = 0.55947 -0.11324
#
# Static dielectric constant tensor:
#      x y z
#    x 1.885280 0.038980 0.000150 
#    y 0.038980 1.848890 -0.037620 
#    z 0.000150 -0.037620 1.840410 
# 
# From -- ./inp_files/596207.got.cif
#   From: 2010.05.17/outbox.cif.g08.bks.cpg/sg2_299_cif.got.tgz:596207.got - 2010.06.03 11:33:40.
