data_PCOD9045061
_publ_section_title
;
Structure prediction by ZEFSAII (Michael W. Deem and Ramdas Pophale) SiO2 
 PCOD9045061
Probable space group: P -1
;
_chemical_formula_sum "Si O2"
_cell_formula_units_Z 16
_cell_length_a 11.822443
_cell_length_b 10.893245
_cell_length_c 5.949466
_cell_angle_alpha 96.543781
_cell_angle_beta 60.307459
_cell_angle_gamma 88.725847
_cell_volume 658.504889
_symmetry_space_group_name_H-M "P -1"
_symmetry_group_IT_number 2
_symmetry_cell_setting 'triclinic'
loop_
_space_group_symop_operation_xyz
x,y,z
-x,-y,-z
loop_
_atom_site_type_symbol
_atom_site_label
_atom_site_fract_x
_atom_site_fract_y
_atom_site_fract_z
Si Si1 0.612165 0.346313 0.579886
Si Si2 0.713205 0.790174 0.456814
Si Si3 0.146396 0.735661 0.421577
Si Si4 0.056754 0.530858 0.203006
Si Si5 0.947493 0.873231 0.928208
Si Si6 0.675185 0.555491 0.231906
Si Si7 0.432079 0.889012 0.651115
Si Si8 0.778270 0.002787 0.764073
O O1 0.720456 0.351275 0.668374
O O2 0.650895 0.425921 0.344215
O O3 0.456671 0.390710 0.761027
O O4 0.631215 0.199817 0.477768
O O5 0.725711 0.641426 0.403797
O O6 0.555673 0.802447 0.593555
O O7 0.724527 0.896739 0.647423
O O8 0.821216 0.830055 0.176705
O O9 0.077142 0.676650 0.262481
O O10 0.179568 0.874211 0.364225
O O11 0.053096 0.758017 0.738793
O O12 0.000000 0.500000 0.500000
O O13 0.199789 0.457691 0.049296
O O14 0.000000 0.500000 0.000000
O O15 0.896157 0.924648 0.751892
O O16 0.000000 0.000000 0.000000
O O17 0.500000 0.000000 0.500000
O O18 0.330225 0.944969 0.941278
#
# Coordination Sequence:
#
# PCOD9045061 Si02
#       8
#     2   2   2   2   2   2   2   2
#     4  10  23  48  78 109 150 200 256 318 386 462
#     4  11  24  43  70 107 143 191 243 314 369 461
#     4  12  26  46  76 110 150 201 252 323 384 465
#     4  12  28  50  77 114 154 205 263 325 386 469
#     4  12  25  45  70 108 152 193 250 311 383 462
#     4  10  24  48  78 107 153 202 255 314 385 464
#     4  11  21  43  71 104 147 186 242 308 381 453
#     4  12  25  43  73 106 143 193 245 310 393 450
#
# _framework density 24.297466
#
# number of rings (size 3 to 8) (size 9 to 14) (size 15 to 20)
#    0.000    0.750    2.500    4.500    1.750    1.500 
#    2.250    1.250    0.000    0.000    0.000    0.000 
#    0.000    0.000    0.000    0.000    0.000    0.000 
#
# Total GULP energy -89144.469922 kJ/mol
# GULP energy per Si atom -5571.529370 kJ/mol
# Density = 2.424216 g / cm^3
# Si number density = 24.297466 Si / 1000 Ang^3
#
#
#
# Elastic Constant Matrix: (Units=GPa)
#
#
# Indices 1 2 3 4 5 6 
#
# 1 118.9515 18.3141 49.3334 6.3918 -2.4580 12.4448
# 2 18.3141 59.3053 -10.7639 8.5255 -0.7347 15.7033
# 3 49.3334 -10.7639 83.1870 10.6674 -35.8034 -3.7771
# 4 6.3918 8.5255 10.6674 34.2354 6.2150 8.5934
# 5 -2.4580 -0.7347 -35.8034 6.2150 45.6867 16.7857
# 6 12.4448 15.7033 -3.7771 8.5934 16.7857 35.1490
#
#
#
# Elastic Compliance Matrix: (Units=1/GPa)
#
#
# Indices 1 2 3 4 5 6 
#
# 1 0.017287 -0.011074 -0.019909 0.008110 -0.016988 0.002818
# 2 -0.011074 0.030822 0.022304 -0.013037 0.025128 -0.016266
# 3 -0.019909 0.022304 0.048321 -0.021580 0.045257 -0.014060
# 4 0.008110 -0.013037 -0.021580 0.041460 -0.022842 0.001406
# 5 -0.016988 0.025128 0.045257 -0.022842 0.070376 -0.028373
# 6 0.002818 -0.016266 -0.014060 0.001406 -0.028373 0.046415
#
#
# Mechanical properties :
#
#
# Convention : Reuss Voigt Hill
#
# Bulk Modulus (GPa) = 12.64661 41.69012 27.16837
# Shear Modulus (GPa) = 16.75624 36.65157 26.70390
#
# Velocity S-wave (km/s) = 2.62893 3.88809 3.31877
# Velocity P-wave (km/s) = 3.79885 6.11161 5.08837
#
# Compressibility (1/GPa) = 0.07907255
#
# Stress axis : x y z
#
# Youngs Moduli (GPa) = 57.84687 32.44411 20.69489
#
# Poissons Ratio (x) = 0.35930 0.41201
# Poissons Ratio (y) = 0.64061 -0.46158
# Poissons Ratio (z) = 1.15166 -0.72364
#
# Static dielectric constant tensor:
#      x y z
#    x 2.357330 0.322650 -0.636690 
#    y 0.322650 2.274450 -0.600260 
#    z -0.636690 -0.600260 2.373040 
# 
# From -- ./inp_files/70994.got.cif
#   From: 2010.05.17/outbox.cif.g08.bks.cpg/sg2_36_cif.got.tgz:70994.got - 2010.06.03 11:33:40.
