data_PCOD9045501
_publ_section_title
;
Structure prediction by ZEFSAII (Michael W. Deem and Ramdas Pophale) SiO2 
 PCOD9045501
Probable space group: P -1
;
_chemical_formula_sum "Si O2"
_cell_formula_units_Z 16
_cell_length_a 9.058490
_cell_length_b 17.975432
_cell_length_c 20.946979
_cell_angle_alpha 26.288734
_cell_angle_beta 26.927631
_cell_angle_gamma 29.714976
_cell_volume 642.184266
_symmetry_space_group_name_H-M "P -1"
_symmetry_group_IT_number 2
_symmetry_cell_setting 'triclinic'
loop_
_space_group_symop_operation_xyz
x,y,z
-x,-y,-z
loop_
_atom_site_type_symbol
_atom_site_label
_atom_site_fract_x
_atom_site_fract_y
_atom_site_fract_z
Si Si1 0.286064 0.937884 0.537513
Si Si2 0.101116 0.750122 0.647928
Si Si3 0.356890 0.814691 0.739949
Si Si4 0.350220 0.347620 0.002122
Si Si5 0.948020 0.477074 0.729943
Si Si6 0.840549 0.860079 0.008514
Si Si7 0.747327 0.575442 0.480114
Si Si8 0.059647 0.875196 0.133318
O O1 0.357857 0.783433 0.576913
O O2 0.179921 0.866099 0.699317
O O3 0.587284 0.007983 0.390377
O O4 0.020173 0.099598 0.475540
O O5 0.362372 0.580016 0.641965
O O6 0.775277 0.752137 0.814990
O O7 0.737077 0.662076 0.704615
O O8 0.116739 0.763299 0.921938
O O9 0.627907 0.421902 0.869549
O O10 0.545624 0.253171 0.935103
O O11 0.000000 0.500000 0.000000
O O12 0.137662 0.510094 0.567775
O O13 0.182092 0.301988 0.813556
O O14 0.977860 0.994870 0.892980
O O15 0.500000 0.000000 0.000000
O O16 0.000000 0.500000 0.500000
O O17 0.791170 0.770412 0.309528
O O18 0.000000 0.000000 0.000000
#
# Coordination Sequence:
#
# PCOD9045501 Si02
#       8
#     2   2   2   2   2   2   2   2
#     4  10  24  40  69  97 134 184 223 286 351 418
#     4  11  23  39  73 101 133 172 244 282 340 416
#     4  11  24  47  67  96 143 184 227 278 361 419
#     4  11  23  41  74 106 134 176 234 295 352 404
#     4  11  25  47  69 101 147 183 230 295 352 418
#     4  12  27  42  71 101 135 188 234 282 347 416
#     4  11  23  43  71 103 136 181 231 293 355 401
#     4  11  24  46  73  98 141 180 236 293 347 409
#
# _framework density 24.914967999999998
#
# number of rings (size 3 to 8) (size 9 to 14) (size 15 to 20)
#    0.000    1.000    2.500    4.875    8.750    1.000 
#    2.250    0.625    0.000    0.000    0.000    0.000 
#    0.000    0.000    0.000    0.000    0.000    0.000 
#
# Total GULP energy -89381.429178 kJ/mol
# GULP energy per Si atom -5586.339324 kJ/mol
# Density = 2.485826 g / cm^3
# Si number density = 24.914968 Si / 1000 Ang^3
#
#
#
# Elastic Constant Matrix: (Units=GPa)
#
#
# Indices 1 2 3 4 5 6 
#
# 1 112.2135 34.2025 19.9027 2.7675 26.1811 -3.0912
# 2 34.2025 89.1041 19.9789 24.5423 20.7103 8.5029
# 3 19.9027 19.9789 70.1547 10.2485 21.3312 12.9585
# 4 2.7675 24.5423 10.2485 41.6626 6.4639 12.7816
# 5 26.1811 20.7103 21.3312 6.4639 42.5405 -4.6315
# 6 -3.0912 8.5029 12.9585 12.7816 -4.6315 41.2141
#
#
#
# Elastic Compliance Matrix: (Units=1/GPa)
#
#
# Indices 1 2 3 4 5 6 
#
# 1 0.011327 -0.003632 -0.001152 0.002204 -0.004881 0.000729
# 2 -0.003632 0.016089 -0.000911 -0.007987 -0.004067 -0.001286
# 3 -0.001152 -0.000911 0.018877 -0.000602 -0.008946 -0.006653
# 4 0.002204 -0.007987 -0.000602 0.031648 -0.002861 -0.008134
# 5 -0.004881 -0.004067 -0.008946 -0.002861 0.034286 0.008026
# 6 0.000729 -0.001286 -0.006653 -0.008134 0.008026 0.030100
#
#
# Mechanical properties :
#
#
# Convention : Reuss Voigt Hill
#
# Bulk Modulus (GPa) = 28.64890 46.62671 37.63781
# Shear Modulus (GPa) = 30.23878 38.24268 34.24073
#
# Velocity S-wave (km/s) = 3.48757 3.92207 3.71118
# Velocity P-wave (km/s) = 5.26699 6.26619 5.78819
#
# Compressibility (1/GPa) = 0.03490535
#
# Stress axis : x y z
#
# Youngs Moduli (GPa) = 88.28127 62.15428 52.97390
#
# Poissons Ratio (x) = 0.22574 0.06101
# Poissons Ratio (y) = 0.32062 0.04824
# Poissons Ratio (z) = 0.10167 0.05660
#
# Static dielectric constant tensor:
#      x y z
#    x 1.948170 -0.026390 0.063330 
#    y -0.026390 1.764570 0.009960 
#    z 0.063330 0.009960 1.960970 
# 
# From -- ./inp_files/591210.got.cif
#   From: 2010.05.17/outbox.cif.g08.bks.cpg/sg2_296_cif.got.tgz:591210.got - 2010.06.03 11:33:40.
