data_PCOD9045945
_publ_section_title
;
Structure prediction by ZEFSAII (Michael W. Deem and Ramdas Pophale) SiO2 
 PCOD9045945
Probable space group: P -1
;
_chemical_formula_sum "Si O2"
_cell_formula_units_Z 13
_cell_length_a 14.446703
_cell_length_b 16.942140
_cell_length_c 8.892815
_cell_angle_alpha 125.579542
_cell_angle_beta 115.135677
_cell_angle_gamma 20.959437
_cell_volume 578.246724
_symmetry_space_group_name_H-M "P -1"
_symmetry_group_IT_number 2
_symmetry_cell_setting 'triclinic'
loop_
_space_group_symop_operation_xyz
x,y,z
-x,-y,-z
loop_
_atom_site_type_symbol
_atom_site_label
_atom_site_fract_x
_atom_site_fract_y
_atom_site_fract_z
Si Si1 0.324618 0.243518 0.723232
Si Si2 0.651862 0.491403 0.460267
Si Si3 0.000000 0.500000 0.500000
Si Si4 0.838838 0.923560 0.170114
Si Si5 0.394253 0.050948 0.827678
Si Si6 0.764532 0.010752 0.868472
Si Si7 0.389571 0.525145 0.239929
O O1 0.278482 0.238785 0.850161
O O2 0.523878 0.159671 0.787957
O O3 0.068707 0.481343 0.696461
O O4 0.500000 0.000000 0.500000
O O5 0.437095 0.771015 0.632813
O O6 0.497646 0.539179 0.321268
O O7 0.696359 0.418236 0.582633
O O8 0.947409 0.251340 0.317257
O O9 0.674680 0.759565 0.617303
O O10 0.833030 0.831727 0.164053
O O11 0.813374 0.927596 0.978768
O O12 0.118829 0.738351 0.189611
O O13 0.500000 0.000000 0.000000
O O14 0.643585 0.226438 0.042817
#
# Coordination Sequence:
#
# PCOD9045945 Si02
#       7
#     2   2   1   2   2   2   2
#     4  10  24  42  64  98 134 174 225 275 330 404
#     4  10  24  45  68  96 138 176 226 282 339 402
#     4  10  26  42  66  90 134 176 226 272 338 384
#     4  11  25  41  69 102 133 180 225 274 341 404
#     4  11  24  42  64  97 136 175 223 277 331 406
#     4  11  24  43  69 101 133 179 227 275 343 404
#     4  10  24  44  68 100 133 175 229 285 336 399
#
# _framework density 22.481753000000001
#
# number of rings (size 3 to 8) (size 9 to 14) (size 15 to 20)
#    0.000    1.538    1.538    0.923   10.769    3.692 
#    0.000    0.000    0.000    0.000    0.000    0.000 
#    0.000    0.000    0.000    0.000    0.000    0.000 
#
# Total GULP energy -72437.857245 kJ/mol
# GULP energy per Si atom -5572.142865 kJ/mol
# Density = 2.243058 g / cm^3
# Si number density = 22.481753 Si / 1000 Ang^3
#
#
#
# Elastic Constant Matrix: (Units=GPa)
#
#
# Indices 1 2 3 4 5 6 
#
# 1 85.4903 32.7676 18.2836 -5.3297 -3.5707 -5.4141
# 2 32.7676 118.1799 33.9703 -23.4937 -17.3504 -24.0412
# 3 18.2836 33.9703 91.6780 14.2641 -12.3956 10.8707
# 4 -5.3297 -23.4937 14.2641 52.6685 -11.7479 1.1778
# 5 -3.5707 -17.3504 -12.3956 -11.7479 23.9671 -2.6897
# 6 -5.4141 -24.0412 10.8707 1.1778 -2.6897 22.5127
#
#
#
# Elastic Compliance Matrix: (Units=1/GPa)
#
#
# Indices 1 2 3 4 5 6 
#
# 1 0.013291 -0.003372 -0.001596 -0.000015 -0.001269 0.000215
# 2 -0.003372 0.032789 -0.016306 0.024837 0.031981 0.044600
# 3 -0.001596 -0.016306 0.021472 -0.015198 -0.011614 -0.028758
# 4 -0.000015 0.024837 -0.015198 0.041017 0.034241 0.035804
# 5 -0.001269 0.031981 -0.011614 0.034241 0.080774 0.047314
# 6 0.000215 0.044600 -0.028758 0.035804 0.047314 0.109765
#
#
# Mechanical properties :
#
#
# Convention : Reuss Voigt Hill
#
# Bulk Modulus (GPa) = 39.99272 51.71014 45.85143
# Shear Modulus (GPa) = 14.28607 33.85144 24.06876
#
# Velocity S-wave (km/s) = 2.52355 3.88458 3.27554
# Velocity P-wave (km/s) = 5.13017 6.57045 5.89447
#
# Compressibility (1/GPa) = 0.02500455
#
# Stress axis : x y z
#
# Youngs Moduli (GPa) = 75.24086 30.49774 46.57148
#
# Poissons Ratio (x) = 0.10283 0.07433
# Poissons Ratio (y) = 0.25370 0.75940
# Poissons Ratio (z) = 0.12009 0.49730
#
# Static dielectric constant tensor:
#      x y z
#    x 1.834570 0.059880 0.002760 
#    y 0.059880 1.825820 0.022000 
#    z 0.002760 0.022000 1.864150 
# 
# From -- ./inp_files/317316.got.cif
#   From: 2010.05.17/outbox.cif.g08.bks.cpg/sg2_159_cif.got.tgz:317316.got - 2010.06.03 11:33:40.
