data_PCOD9045073
_publ_section_title
;
Structure prediction by ZEFSAII (Michael W. Deem and Ramdas Pophale) SiO2 
 PCOD9045073
Probable space group: P -1
;
_chemical_formula_sum "Si O2"
_cell_formula_units_Z 10
_cell_length_a 9.622827
_cell_length_b 5.109731
_cell_length_c 13.829676
_cell_angle_alpha 65.969320
_cell_angle_beta 141.705337
_cell_angle_gamma 112.483418
_cell_volume 382.502291
_symmetry_space_group_name_H-M "P -1"
_symmetry_group_IT_number 2
_symmetry_cell_setting 'triclinic'
loop_
_space_group_symop_operation_xyz
x,y,z
-x,-y,-z
loop_
_atom_site_type_symbol
_atom_site_label
_atom_site_fract_x
_atom_site_fract_y
_atom_site_fract_z
Si Si1 0.777634 0.809968 0.539602
Si Si2 0.596931 0.525911 0.942099
Si Si3 0.139875 0.847206 0.991446
Si Si4 0.742079 0.216587 0.721748
Si Si5 0.842504 0.745683 0.362556
O O1 0.794219 0.487253 0.636686
O O2 0.526637 0.879198 0.421431
O O3 0.777217 0.845798 0.417752
O O4 0.008555 0.015448 0.656000
O O5 0.380392 0.413870 0.779512
O O6 0.500000 0.500000 0.000000
O O7 0.773826 0.324857 0.025227
O O8 0.703656 0.853477 0.947553
O O9 0.184200 0.688206 0.141678
O O10 0.894897 0.957739 0.826131
O O11 0.000000 0.500000 0.500000
#
# Coordination Sequence:
#
# PCOD9045073 Si02
#       5
#     2   2   2   2   2
#     4  10  23  50  79 118 158 210 269 328 401 468
#     4  12  28  51  82 116 160 214 268 329 397 473
#     4  11  26  51  79 117 164 208 267 325 401 480
#     4  10  23  48  82 118 159 214 256 333 402 481
#     4  11  25  47  81 114 160 206 277 329 391 473
#
# _framework density 26.143636999999998
#
# number of rings (size 3 to 8) (size 9 to 14) (size 15 to 20)
#    0.000    1.200    2.000    1.800    5.600    4.800 
#    7.200    3.000    0.000    1.200    0.000    0.000 
#    0.000    0.000    0.000    0.000    0.000    0.000 
#
# Total GULP energy -56015.925459 kJ/mol
# GULP energy per Si atom -5601.592546 kJ/mol
# Density = 2.608413 g / cm^3
# Si number density = 26.143637 Si / 1000 Ang^3
#
#
#
# Elastic Constant Matrix: (Units=GPa)
#
#
# Indices 1 2 3 4 5 6 
#
# 1 176.7603 82.8268 60.4624 -17.2689 18.9789 5.0516
# 2 82.8268 171.5774 55.7611 -10.9894 22.5996 32.0331
# 3 60.4624 55.7611 128.7406 -8.5865 22.2211 17.6216
# 4 -17.2689 -10.9894 -8.5865 32.7038 6.6984 2.7624
# 5 18.9789 22.5996 22.2211 6.6984 47.2993 5.8282
# 6 5.0516 32.0331 17.6216 2.7624 5.8282 63.6440
#
#
#
# Elastic Compliance Matrix: (Units=1/GPa)
#
#
# Indices 1 2 3 4 5 6 
#
# 1 0.008329 -0.003207 -0.002323 0.002845 -0.001317 0.001594
# 2 -0.003207 0.008901 -0.001363 0.001686 -0.002105 -0.003728
# 3 -0.002323 -0.001363 0.010396 0.001881 -0.003347 -0.001783
# 4 0.002845 0.001686 0.001881 0.034875 -0.007471 -0.002425
# 5 -0.001317 -0.002105 -0.003347 -0.007471 0.025295 0.000099
# 6 0.001594 -0.003728 -0.001783 -0.002425 0.000099 0.018052
#
#
# Mechanical properties :
#
#
# Convention : Reuss Voigt Hill
#
# Bulk Modulus (GPa) = 72.26026 97.24210 84.75118
# Shear Modulus (GPa) = 40.24193 47.26462 43.75327
#
# Velocity S-wave (km/s) = 3.92760 4.25653 4.09537
# Velocity P-wave (km/s) = 6.94750 7.83795 7.40612
#
# Compressibility (1/GPa) = 0.01383887
#
# Stress axis : x y z
#
# Youngs Moduli (GPa) = 120.06348 112.34979 96.18790
#
# Poissons Ratio (x) = 0.36035 0.22349
# Poissons Ratio (y) = 0.38509 0.13108
# Poissons Ratio (z) = 0.27896 0.15311
#
# Static dielectric constant tensor:
#      x y z
#    x 2.123740 0.092990 0.014220 
#    y 0.092990 -9.375190 -1.460660 
#    z 0.014220 -1.460660 1.842820 
# 
# From -- ./inp_files/487533.got.cif
#   From: 2010.05.17/outbox.cif.g08.bks.cpg/sg2_244_cif.got.tgz:487533.got - 2010.06.03 11:33:40.
