data_PCOD9045003
_publ_section_title
;
Structure prediction by ZEFSAII (Michael W. Deem and Ramdas Pophale) SiO2 
 PCOD9045003
Probable space group: P -1
;
_chemical_formula_sum "Si O2"
_cell_formula_units_Z 16
_cell_length_a 5.223439
_cell_length_b 14.421318
_cell_length_c 14.158197
_cell_angle_alpha 40.960321
_cell_angle_beta 99.000467
_cell_angle_gamma 108.579575
_cell_volume 656.597292
_symmetry_space_group_name_H-M "P -1"
_symmetry_group_IT_number 2
_symmetry_cell_setting 'triclinic'
loop_
_space_group_symop_operation_xyz
x,y,z
-x,-y,-z
loop_
_atom_site_type_symbol
_atom_site_label
_atom_site_fract_x
_atom_site_fract_y
_atom_site_fract_z
Si Si1 0.748509 0.688067 0.106887
Si Si2 0.015425 0.357154 0.367256
Si Si3 0.748188 0.863572 0.563609
Si Si4 0.920374 0.018780 0.179144
Si Si5 0.585879 0.435853 0.150864
Si Si6 0.598189 0.857988 0.126935
Si Si7 0.389805 0.905686 0.364864
Si Si8 0.871770 0.419946 0.649118
O O1 0.557412 0.555889 0.135113
O O2 0.612685 0.792978 0.074539
O O3 0.898536 0.626555 0.244580
O O4 0.984390 0.804837 0.969383
O O5 0.875533 0.418506 0.223296
O O6 0.774271 0.268673 0.494157
O O7 0.153195 0.238290 0.428500
O O8 0.210003 0.476971 0.356314
O O9 0.603306 0.735133 0.727356
O O10 0.536204 0.936869 0.449963
O O11 0.000000 0.000000 0.500000
O O12 0.873455 0.921801 0.154141
O O13 0.634490 0.957951 0.264092
O O14 0.167426 0.986536 0.271764
O O15 0.500000 0.500000 0.000000
O O16 0.382724 0.724891 0.272217
O O17 0.500000 0.000000 0.000000
O O18 0.000000 0.500000 0.500000
#
# Coordination Sequence:
#
# PCOD9045003 Si02
#       8
#     2   2   2   2   2   2   2   2
#     4  11  26  44  69 105 152 195 250 311 367 452
#     4  10  23  48  72 108 152 194 251 307 373 455
#     4  11  25  47  77 110 149 193 254 317 376 449
#     4  12  25  43  76 110 152 199 248 306 379 442
#     4  10  25  46  74 107 150 197 249 312 386 442
#     4  12  25  45  71 108 151 197 251 308 368 445
#     4  11  25  45  74 112 150 193 250 307 376 449
#     4  11  25  44  72 103 150 199 246 300 375 443
#
# _framework density 24.368054999999998
#
# number of rings (size 3 to 8) (size 9 to 14) (size 15 to 20)
#    0.000    1.000    2.500    2.625    5.250    4.000 
#    0.000    0.000    0.000    0.000    0.000    0.000 
#    0.000    0.000    0.000    0.000    0.000    0.000 
#
# Total GULP energy -89414.646922 kJ/mol
# GULP energy per Si atom -5588.415433 kJ/mol
# Density = 2.431259 g / cm^3
# Si number density = 24.368055 Si / 1000 Ang^3
#
#
#
# Elastic Constant Matrix: (Units=GPa)
#
#
# Indices 1 2 3 4 5 6 
#
# 1 75.7084 9.4975 36.2663 2.5169 7.6470 5.5871
# 2 9.4975 118.8952 53.7593 -18.7243 11.9059 14.7072
# 3 36.2663 53.7593 163.5237 15.5445 4.3330 26.7004
# 4 2.5169 -18.7243 15.5445 40.8378 6.1015 -3.3419
# 5 7.6470 11.9059 4.3330 6.1015 36.8341 -5.3560
# 6 5.5871 14.7072 26.7004 -3.3419 -5.3560 42.1895
#
#
#
# Elastic Compliance Matrix: (Units=1/GPa)
#
#
# Indices 1 2 3 4 5 6 
#
# 1 0.015166 0.001069 -0.003706 0.001438 -0.003346 -0.000346
# 2 0.001069 0.012444 -0.004709 0.008092 -0.005252 -0.001525
# 3 -0.003706 -0.004709 0.009743 -0.006225 0.001547 -0.004331
# 4 0.001438 0.008092 -0.006225 0.031743 -0.007070 0.002545
# 5 -0.003346 -0.005252 0.001547 -0.007070 0.031213 0.004698
# 6 -0.000346 -0.001525 -0.004331 0.002545 0.004698 0.027819
#
#
# Mechanical properties :
#
#
# Convention : Reuss Voigt Hill
#
# Bulk Modulus (GPa) = 44.13165 61.90819 53.01992
# Shear Modulus (GPa) = 33.25063 41.21256 37.23160
#
# Velocity S-wave (km/s) = 3.69794 4.11695 3.91306
# Velocity P-wave (km/s) = 6.03182 6.93251 6.49779
#
# Compressibility (1/GPa) = 0.02265947
#
# Stress axis : x y z
#
# Youngs Moduli (GPa) = 65.93846 80.36323 102.63555
#
# Poissons Ratio (x) = -0.08588 0.38039
# Poissons Ratio (y) = -0.07047 0.48330
# Poissons Ratio (z) = 0.24438 0.37842
#
# Static dielectric constant tensor:
#      x y z
#    x 2.056440 -0.026910 -0.033770 
#    y -0.026910 1.929160 0.112620 
#    z -0.033770 0.112620 1.856020 
# 
# From -- ./inp_files/484284.got.cif
#   From: 2010.05.17/outbox.cif.g08.bks.cpg/sg2_243_cif.got.tgz:484284.got - 2010.06.03 11:33:40.
