data_PCOD9045330
_publ_section_title
;
Structure prediction by ZEFSAII (Michael W. Deem and Ramdas Pophale) SiO2 
 PCOD9045330
Probable space group: P -1
;
_chemical_formula_sum "Si O2"
_cell_formula_units_Z 12
_cell_length_a 8.587665
_cell_length_b 8.741071
_cell_length_c 12.538255
_cell_angle_alpha 144.726025
_cell_angle_beta 103.735505
_cell_angle_gamma 82.567948
_cell_volume 524.479508
_symmetry_space_group_name_H-M "P -1"
_symmetry_group_IT_number 2
_symmetry_cell_setting 'triclinic'
loop_
_space_group_symop_operation_xyz
x,y,z
-x,-y,-z
loop_
_atom_site_type_symbol
_atom_site_label
_atom_site_fract_x
_atom_site_fract_y
_atom_site_fract_z
Si Si1 0.729154 0.500142 0.037457
Si Si2 0.472911 0.685848 0.704318
Si Si3 0.966543 0.304792 0.685632
Si Si4 0.676157 0.047542 0.609903
Si Si5 0.131000 0.464172 0.591960
Si Si6 0.515849 0.708681 0.960075
O O1 0.666689 0.705423 0.061400
O O2 0.914872 0.567598 0.131078
O O3 0.673851 0.217952 0.814139
O O4 0.627570 0.494321 0.127215
O O5 0.500000 0.500000 0.500000
O O6 0.283786 0.669096 0.697209
O O7 0.534380 0.994979 0.873579
O O8 0.547811 0.625095 0.796964
O O9 0.785233 0.247914 0.662904
O O10 0.024251 0.475207 0.688221
O O11 0.000000 0.000000 0.500000
O O12 0.500000 0.000000 0.500000
O O13 0.774709 0.800272 0.520808
O O14 0.000000 0.500000 0.500000
#
# Coordination Sequence:
#
# PCOD9045330 Si02
#       6
#     2   2   2   2   2   2
#     4  11  22  44  70 103 143 178 243 299 349 417
#     4  11  23  45  67 102 145 188 237 286 358 428
#     4  10  24  44  67 100 144 184 232 295 358 420
#     4  11  25  44  75 107 134 187 243 292 358 430
#     4  11  25  44  67 100 142 184 233 291 362 425
#     4  10  24  39  72 105 139 186 236 300 353 422
#
# _framework density 22.879825
#
# number of rings (size 3 to 8) (size 9 to 14) (size 15 to 20)
#    0.000    1.333    1.667    2.500   11.667    2.667 
#    0.000    1.667    0.000    0.000    0.000    0.000 
#    0.000    0.000    0.000    0.000    0.000    0.000 
#
# Total GULP energy -66889.981256 kJ/mol
# GULP energy per Si atom -5574.165105 kJ/mol
# Density = 2.282775 g / cm^3
# Si number density = 22.879825 Si / 1000 Ang^3
#
#
#
# Elastic Constant Matrix: (Units=GPa)
#
#
# Indices 1 2 3 4 5 6 
#
# 1 138.5847 69.4465 46.7141 -23.7266 31.3891 8.6063
# 2 69.4465 128.2992 60.1921 -35.3241 0.3852 -3.4410
# 3 46.7141 60.1921 126.2493 -29.4229 3.2689 -6.5926
# 4 -23.7266 -35.3241 -29.4229 36.4822 -1.4277 -7.4272
# 5 31.3891 0.3852 3.2689 -1.4277 51.0212 -8.3344
# 6 8.6063 -3.4410 -6.5926 -7.4272 -8.3344 49.3330
#
#
#
# Elastic Compliance Matrix: (Units=1/GPa)
#
#
# Indices 1 2 3 4 5 6 
#
# 1 0.013347 -0.006550 -0.001949 -0.000517 -0.008805 -0.004611
# 2 -0.006550 0.015241 -0.002547 0.009483 0.005019 0.004141
# 3 -0.001949 -0.002547 0.011385 0.006059 0.001113 0.002784
# 4 -0.000517 0.009483 0.006059 0.042957 0.002439 0.008441
# 5 -0.008805 0.005019 0.001113 0.002439 0.026088 0.006809
# 6 -0.004611 0.004141 0.002784 0.008441 0.006809 0.024157
#
#
# Mechanical properties :
#
#
# Convention : Reuss Voigt Hill
#
# Bulk Modulus (GPa) = 55.92133 82.87095 69.39614
# Shear Modulus (GPa) = 31.01221 41.81930 36.41576
#
# Velocity S-wave (km/s) = 3.68562 4.27989 3.99383
# Velocity P-wave (km/s) = 6.52734 7.79244 7.18777
#
# Compressibility (1/GPa) = 0.01788227
#
# Stress axis : x y z
#
# Youngs Moduli (GPa) = 74.92293 65.61107 87.83630
#
# Poissons Ratio (x) = 0.42972 0.17121
# Poissons Ratio (y) = 0.49071 0.22370
# Poissons Ratio (z) = 0.14604 0.16710
#
# Static dielectric constant tensor:
#      x y z
#    x 1.937730 0.036620 -0.012250 
#    y 0.036620 1.923960 -0.010060 
#    z -0.012250 -0.010060 1.877040 
# 
# From -- ./inp_files/216165.got.cif
#   From: 2010.05.17/outbox.cif.g08.bks.cpg/sg2_109_cif.got.tgz:216165.got - 2010.06.03 11:33:40.
