data_PCOD9045280
_publ_section_title
;
Structure prediction by ZEFSAII (Michael W. Deem and Ramdas Pophale) SiO2 
 PCOD9045280
Probable space group: P -1
;
_chemical_formula_sum "Si O2"
_cell_formula_units_Z 12
_cell_length_a 5.094992
_cell_length_b 5.237887
_cell_length_c 23.972465
_cell_angle_alpha 71.100265
_cell_angle_beta 90.869874
_cell_angle_gamma 60.171368
_cell_volume 512.818424
_symmetry_space_group_name_H-M "P -1"
_symmetry_group_IT_number 2
_symmetry_cell_setting 'triclinic'
loop_
_space_group_symop_operation_xyz
x,y,z
-x,-y,-z
loop_
_atom_site_type_symbol
_atom_site_label
_atom_site_fract_x
_atom_site_fract_y
_atom_site_fract_z
Si Si1 0.135749 0.681624 0.377189
Si Si2 0.626016 0.346738 0.326229
Si Si3 0.190234 0.620473 0.024966
Si Si4 0.862654 0.551211 0.208488
Si Si5 0.520030 0.693512 0.835094
Si Si6 0.931515 0.867690 0.563651
O O1 0.268191 0.585675 0.321361
O O2 0.200748 0.357486 0.428991
O O3 0.235917 0.857825 0.409507
O O4 0.774417 0.969400 0.347063
O O5 0.780669 0.444219 0.273175
O O6 0.751098 0.362772 0.386288
O O7 0.281670 0.474746 0.097257
O O8 0.500000 0.500000 0.000000
O O9 0.000000 0.500000 0.000000
O O10 0.000000 0.000000 0.000000
O O11 0.689034 0.451084 0.170555
O O12 0.225744 0.381592 0.206972
O O13 0.701041 0.930649 0.182184
O O14 0.000000 0.000000 0.500000
#
# Coordination Sequence:
#
# PCOD9045280 Si02
#       6
#     2   2   2   2   2   2
#     4  10  24  39  64  88 124 157 218 254 344 384
#     4  10  26  40  66  90 126 171 212 272 334 387
#     4  12  24  44  72 101 143 181 227 279 335 397
#     4  12  26  43  70  96 143 175 234 279 335 406
#     4  12  26  45  69 106 135 185 227 279 335 397
#     4  10  24  42  64  92 124 162 214 267 330 397
#
# _framework density 23.400095
#
# number of rings (size 3 to 8) (size 9 to 14) (size 15 to 20)
#    1.000    0.000    0.000    6.000    7.000    1.333 
#    0.000    0.000    0.000    0.000    0.000    0.000 
#    0.000    0.000    0.000    0.000    0.000    0.000 
#
# Total GULP energy -67043.417477 kJ/mol
# GULP energy per Si atom -5586.951456 kJ/mol
# Density = 2.334684 g / cm^3
# Si number density = 23.400095 Si / 1000 Ang^3
#
#
#
# Elastic Constant Matrix: (Units=GPa)
#
#
# Indices 1 2 3 4 5 6 
#
# 1 84.5132 54.0558 -19.9058 2.7720 -13.9864 0.8325
# 2 54.0558 206.2463 9.1064 -6.6067 -26.3152 15.5616
# 3 -19.9058 9.1064 96.6797 5.5914 -8.2727 12.1506
# 4 2.7720 -6.6067 5.5914 39.6617 -2.1522 -11.8148
# 5 -13.9864 -26.3152 -8.2727 -2.1522 38.3495 8.4137
# 6 0.8325 15.5616 12.1506 -11.8148 8.4137 27.8339
#
#
#
# Elastic Compliance Matrix: (Units=1/GPa)
#
#
# Indices 1 2 3 4 5 6 
#
# 1 0.016259 -0.003686 0.004719 -0.003134 0.004971 -0.003319
# 2 -0.003686 0.006725 -0.000476 0.000309 0.004190 -0.004577
# 3 0.004719 -0.000476 0.013370 -0.004824 0.006115 -0.009607
# 4 -0.003134 0.000309 -0.004824 0.030798 -0.003809 0.016251
# 5 0.004971 0.004190 0.006115 -0.003809 0.035725 -0.017576
# 6 -0.003319 -0.004577 -0.009607 0.016251 -0.017576 0.054991
#
#
# Mechanical properties :
#
#
# Convention : Reuss Voigt Hill
#
# Bulk Modulus (GPa) = 26.68977 52.66132 39.67554
# Shear Modulus (GPa) = 29.54301 44.11455 36.82878
#
# Velocity S-wave (km/s) = 3.55705 4.34663 3.97151
# Velocity P-wave (km/s) = 5.31984 6.90974 6.16625
#
# Compressibility (1/GPa) = 0.03746755
#
# Stress axis : x y z
#
# Youngs Moduli (GPa) = 61.50294 148.69093 74.79688
#
# Poissons Ratio (x) = 0.54801 -0.35294
# Poissons Ratio (y) = 0.22667 0.03564
# Poissons Ratio (z) = -0.29021 0.07084
#
# Static dielectric constant tensor:
#      x y z
#    x 0.000000 0.000000 0.000000 
#    y 0.000000 0.000000 0.000000 
#    z 0.000000 0.000000 0.000000 
# 
# From -- ./inp_files/9580.got.cif
#   From: 2010.05.17/outbox.cif.g08.bks.cpg/sg2_5_cif.got.tgz:9580.got - 2010.06.03 11:33:40.
