data_PCOD9045917
_publ_section_title
;
Structure prediction by ZEFSAII (Michael W. Deem and Ramdas Pophale) SiO2 
 PCOD9045917
Probable space group: P -1
;
_chemical_formula_sum "Si O2"
_cell_formula_units_Z 16
_cell_length_a 5.015693
_cell_length_b 12.167854
_cell_length_c 13.812486
_cell_angle_alpha 75.679097
_cell_angle_beta 47.074058
_cell_angle_gamma 79.573353
_cell_volume 597.984404
_symmetry_space_group_name_H-M "P -1"
_symmetry_group_IT_number 2
_symmetry_cell_setting 'triclinic'
loop_
_space_group_symop_operation_xyz
x,y,z
-x,-y,-z
loop_
_atom_site_type_symbol
_atom_site_label
_atom_site_fract_x
_atom_site_fract_y
_atom_site_fract_z
Si Si1 0.872616 0.303948 0.676805
Si Si2 0.177884 0.594769 0.539865
Si Si3 0.316493 0.189977 0.965206
Si Si4 0.878273 0.463248 0.794084
Si Si5 0.107152 0.398712 0.065688
Si Si6 0.345953 0.956326 0.696858
Si Si7 0.515065 0.041985 0.113940
Si Si8 0.538656 0.171335 0.495185
O O1 0.865314 0.383666 0.567915
O O2 0.489046 0.267576 0.822062
O O3 0.051252 0.354981 0.719758
O O4 0.111811 0.199330 0.605868
O O5 0.500000 0.500000 0.500000
O O6 0.265782 0.716622 0.539435
O O7 0.828348 0.543686 0.693945
O O8 0.027054 0.274714 0.070867
O O9 0.263043 0.071543 0.948457
O O10 0.567649 0.146195 0.003320
O O11 0.548895 0.407817 0.947020
O O12 0.038314 0.555741 0.806480
O O13 0.000000 0.500000 0.000000
O O14 0.453732 0.932084 0.786022
O O15 0.388237 0.858393 0.627466
O O16 0.913201 0.983894 0.795096
O O17 0.586024 0.060085 0.574219
#
# Coordination Sequence:
#
# PCOD9045917 Si02
#       8
#     2   2   2   2   2   2   2   2
#     4  11  23  46  66 102 146 189 234 298 365 442
#     4  12  26  42  70 106 142 192 244 293 365 445
#     4  10  24  45  73 101 142 190 247 305 370 434
#     4  10  24  42  64 102 138 182 242 284 358 436
#     4  10  24  46  70 101 142 189 234 307 361 436
#     4  11  27  48  76 108 148 187 251 301 375 432
#     4  11  25  51  73 112 140 194 250 308 362 445
#     4  11  26  43  73 104 144 194 227 312 361 443
#
# _framework density 26.756553
#
# number of rings (size 3 to 8) (size 9 to 14) (size 15 to 20)
#    0.000    1.250    2.500    1.125    7.000    4.000 
#   11.250    0.000    0.000    0.000    0.000    0.000 
#    0.000    0.000    0.000    0.000    0.000    0.000 
#
# Total GULP energy -89297.642043 kJ/mol
# GULP energy per Si atom -5581.102628 kJ/mol
# Density = 2.669565 g / cm^3
# Si number density = 26.756553 Si / 1000 Ang^3
#
#
#
# Elastic Constant Matrix: (Units=GPa)
#
#
# Indices 1 2 3 4 5 6 
#
# 1 70.4866 25.7318 32.8633 4.5793 31.3757 5.8601
# 2 25.7318 169.1843 60.2009 32.1456 30.8084 16.2971
# 3 32.8633 60.2009 176.3434 11.2747 55.6795 15.0752
# 4 4.5793 32.1456 11.2747 57.4465 10.4688 3.4159
# 5 31.3757 30.8084 55.6795 10.4688 51.5096 -1.2776
# 6 5.8601 16.2971 15.0752 3.4159 -1.2776 37.9919
#
#
#
# Elastic Compliance Matrix: (Units=1/GPa)
#
#
# Indices 1 2 3 4 5 6 
#
# 1 0.020122 -0.000907 0.000907 0.001320 -0.013053 -0.003632
# 2 -0.000907 0.007814 -0.001483 -0.003529 -0.001859 -0.002368
# 3 0.000907 -0.001483 0.009485 0.000976 -0.010209 -0.003698
# 4 0.001320 -0.003529 0.000976 0.019838 -0.003805 -0.000989
# 5 -0.013053 -0.001859 -0.010209 -0.003805 0.040498 0.008566
# 6 -0.003632 -0.002368 -0.003698 -0.000989 0.008566 0.029742
#
#
# Mechanical properties :
#
#
# Convention : Reuss Voigt Hill
#
# Bulk Modulus (GPa) = 29.02385 72.62295 50.82340
# Shear Modulus (GPa) = 35.22375 49.20414 42.21395
#
# Velocity S-wave (km/s) = 3.63223 4.29296 3.97634
# Velocity P-wave (km/s) = 5.33496 7.19539 6.33385
#
# Compressibility (1/GPa) = 0.03445442
#
# Stress axis : x y z
#
# Youngs Moduli (GPa) = 49.69712 127.97937 105.42810
#
# Poissons Ratio (x) = 0.11611 -0.09567
# Poissons Ratio (y) = 0.04509 0.15639
# Poissons Ratio (z) = -0.04510 0.18984
#
# Static dielectric constant tensor:
#      x y z
#    x 2.291940 0.034310 -0.154260 
#    y 0.034310 2.156290 -0.032480 
#    z -0.154260 -0.032480 2.147800 
# 
# From -- ./inp_files/364220.got.cif
#   From: 2010.05.17/outbox.cif.g08.bks.cpg/sg2_183_cif.got.tgz:364220.got - 2010.06.03 11:33:40.
