data_PCOD9045598
_publ_section_title
;
Structure prediction by ZEFSAII (Michael W. Deem and Ramdas Pophale) SiO2 
 PCOD9045598
Probable space group: P -1
;
_chemical_formula_sum "Si O2"
_cell_formula_units_Z 16
_cell_length_a 14.899662
_cell_length_b 9.535456
_cell_length_c 13.301413
_cell_angle_alpha 30.451690
_cell_angle_beta 130.235947
_cell_angle_gamma 130.716646
_cell_volume 708.538114
_symmetry_space_group_name_H-M "P -1"
_symmetry_group_IT_number 2
_symmetry_cell_setting 'triclinic'
loop_
_space_group_symop_operation_xyz
x,y,z
-x,-y,-z
loop_
_atom_site_type_symbol
_atom_site_label
_atom_site_fract_x
_atom_site_fract_y
_atom_site_fract_z
Si Si1 0.731816 0.933862 0.432514
Si Si2 0.749747 0.042139 0.787102
Si Si3 0.866803 0.996196 0.690983
Si Si4 0.499505 0.027013 0.284652
Si Si5 0.865852 0.849169 0.273311
Si Si6 0.352431 0.413744 0.861880
Si Si7 0.881396 0.550259 0.682638
Si Si8 0.854006 0.335770 0.099446
O O1 0.809338 0.078114 0.496231
O O2 0.783214 0.665826 0.603244
O O3 0.591709 0.863200 0.406402
O O4 0.760673 0.151456 0.225590
O O5 0.839289 0.220990 0.824393
O O6 0.807028 0.077311 0.698091
O O7 0.623681 0.138945 0.647500
O O8 0.713431 0.714000 0.001540
O O9 0.010896 0.120747 0.717717
O O10 0.839644 0.652576 0.881139
O O11 0.575952 0.262536 0.271431
O O12 0.449272 0.216750 0.047707
O O13 0.847775 0.158586 0.101434
O O14 0.748253 0.665284 0.246612
O O15 0.887154 0.709418 0.481240
O O16 0.011027 0.636796 0.775641
#
# Coordination Sequence:
#
# PCOD9045598 Si02
#       8
#     2   2   2   2   2   2   2   2
#     4  11  23  43  69  93 134 174 214 260 332 377
#     4  10  24  41  61  99 126 167 224 258 320 382
#     4  12  24  38  72 100 123 180 211 263 336 382
#     4   9  22  45  65  87 137 172 213 275 308 379
#     4  11  22  41  66  99 128 168 217 265 332 383
#     4   9  21  43  68  87 132 171 212 272 322 367
#     4  11  23  43  63  98 138 166 209 277 322 387
#     4  11  23  43  66  98 135 165 214 273 321 395
#
# _framework density 22.581706000000001
#
# number of rings (size 3 to 8) (size 9 to 14) (size 15 to 20)
#    0.750    0.750    2.500    2.625    3.500    4.500 
#    0.000    2.500    0.000    0.000    0.000    0.000 
#    0.000    0.000    0.000    0.000    0.000    0.000 
#
# Total GULP energy -89459.137904 kJ/mol
# GULP energy per Si atom -5591.196119 kJ/mol
# Density = 2.253031 g / cm^3
# Si number density = 22.581706 Si / 1000 Ang^3
#
#
#
# Elastic Constant Matrix: (Units=GPa)
#
#
# Indices 1 2 3 4 5 6 
#
# 1 164.5771 37.9176 24.9725 19.1147 6.7063 -9.0206
# 2 37.9176 79.2712 5.7677 17.4965 -10.7550 8.4152
# 3 24.9725 5.7677 47.4779 6.1808 2.9142 -0.2865
# 4 19.1147 17.4965 6.1808 25.8188 -6.0577 2.0916
# 5 6.7063 -10.7550 2.9142 -6.0577 23.0630 4.6453
# 6 -9.0206 8.4152 -0.2865 2.0916 4.6453 21.8616
#
#
#
# Elastic Compliance Matrix: (Units=1/GPa)
#
#
# Indices 1 2 3 4 5 6 
#
# 1 0.008892 -0.004708 -0.002969 -0.004978 -0.007215 0.007452
# 2 -0.004708 0.018759 0.000239 -0.005885 0.010732 -0.010878
# 3 -0.002969 0.000239 0.023345 -0.004288 -0.003113 0.000060
# 4 -0.004978 -0.005885 -0.004288 0.051425 0.014325 -0.007809
# 5 -0.007215 0.010732 -0.003113 0.014325 0.058853 -0.021025
# 6 0.007452 -0.010878 0.000060 -0.007809 -0.021025 0.058220
#
#
# Mechanical properties :
#
#
# Convention : Reuss Voigt Hill
#
# Bulk Modulus (GPa) = 27.68583 47.62689 37.65636
# Shear Modulus (GPa) = 20.29129 28.99324 24.64226
#
# Velocity S-wave (km/s) = 3.00087 3.58708 3.30699
# Velocity P-wave (km/s) = 4.92888 6.18812 5.59405
#
# Compressibility (1/GPa) = 0.03611956
#
# Stress axis : x y z
#
# Youngs Moduli (GPa) = 112.45887 53.30642 42.83614
#
# Poissons Ratio (x) = 0.25099 0.12719
# Poissons Ratio (y) = 0.52951 -0.01025
# Poissons Ratio (z) = 0.33392 -0.01276
#
# Static dielectric constant tensor:
#      x y z
#    x 1.824360 -0.004220 -0.002540 
#    y -0.004220 1.819580 -0.036250 
#    z -0.002540 -0.036250 1.907840 
# 
# From -- ./inp_files/402317.got.cif
#   From: 2010.05.17/outbox.cif.g08.bks.cpg/sg2_202_cif.got.tgz:402317.got - 2010.06.03 11:33:40.
