data_PCOD9045233
_publ_section_title
;
Structure prediction by ZEFSAII (Michael W. Deem and Ramdas Pophale) SiO2 
 PCOD9045233
Probable space group: P -1
;
_chemical_formula_sum "Si O2"
_cell_formula_units_Z 10
_cell_length_a 13.141946
_cell_length_b 9.295315
_cell_length_c 9.882708
_cell_angle_alpha 108.355804
_cell_angle_beta 31.319623
_cell_angle_gamma 91.514666
_cell_volume 518.636181
_symmetry_space_group_name_H-M "P -1"
_symmetry_group_IT_number 2
_symmetry_cell_setting 'triclinic'
loop_
_space_group_symop_operation_xyz
x,y,z
-x,-y,-z
loop_
_atom_site_type_symbol
_atom_site_label
_atom_site_fract_x
_atom_site_fract_y
_atom_site_fract_z
Si Si1 0.276500 0.481341 0.733577
Si Si2 0.505570 0.787780 0.806822
Si Si3 0.115585 0.851062 0.064490
Si Si4 0.397055 0.893545 0.257810
Si Si5 0.490041 0.825128 0.432725
O O1 0.500000 0.500000 0.500000
O O2 0.305500 0.389635 0.529442
O O3 0.310541 0.339227 0.765164
O O4 0.089208 0.679276 0.025269
O O5 0.545163 0.949085 0.773620
O O6 0.272805 0.828334 0.008683
O O7 0.488202 0.781583 0.985352
O O8 0.258908 0.856470 0.775176
O O9 0.872587 0.015788 0.403395
O O10 0.491750 0.796978 0.262923
O O11 0.500000 0.000000 0.500000
#
# Coordination Sequence:
#
# PCOD9045233 Si02
#       5
#     2   2   2   2   2
#     4   8  17  35  53  71 106 136 161 209 259 292
#     4   9  19  34  50  78 107 131 165 211 257 297
#     4  10  20  35  54  78 101 134 172 209 249 303
#     4  11  19  31  58  78  98 135 175 207 250 299
#     4  10  17  34  53  76 104 133 168 213 247 298
#
# _framework density 19.281338999999999
#
# number of rings (size 3 to 8) (size 9 to 14) (size 15 to 20)
#    0.000    2.800    4.000    1.200    0.000    0.800 
#    0.000    9.000    0.000    4.800    0.000    0.000 
#    0.000    0.000    0.000    0.000    0.000    0.000 
#
# Total GULP energy -55733.063600 kJ/mol
# GULP energy per Si atom -5573.306360 kJ/mol
# Density = 1.923745 g / cm^3
# Si number density = 19.281339 Si / 1000 Ang^3
#
#
#
# Elastic Constant Matrix: (Units=GPa)
#
#
# Indices 1 2 3 4 5 6 
#
# 1 108.4419 32.4586 52.8533 -8.9948 46.0285 -6.1522
# 2 32.4586 88.0318 16.4304 -8.8683 12.5972 -1.3805
# 3 52.8533 16.4304 -3.4610 -31.9983 3.0323 10.9051
# 4 -8.9948 -8.8683 -31.9983 10.1702 -9.5278 12.0149
# 5 46.0285 12.5972 3.0323 -9.5278 36.2400 -5.0128
# 6 -6.1522 -1.3805 10.9051 12.0149 -5.0128 28.0672
#
#
#
# Elastic Compliance Matrix: (Units=1/GPa)
#
#
# Indices 1 2 3 4 5 6 
#
# 1 0.015979 -0.002455 0.003706 0.020015 -0.015796 -0.009447
# 2 -0.002455 0.012988 -0.002025 0.002658 -0.000577 -0.000353
# 3 0.003706 -0.002025 -0.001656 -0.023456 -0.008669 0.009849
# 4 0.020015 0.002658 -0.023456 0.034146 -0.015935 -0.003832
# 5 -0.015796 -0.000577 -0.008669 -0.015935 0.046468 0.014998
# 6 -0.009447 -0.000353 0.009849 -0.003832 0.014998 0.034033
#
#
# Mechanical properties :
#
#
# Convention : Reuss Voigt Hill
#
# Bulk Modulus (GPa) = 38.81634 44.05524 41.43579
# Shear Modulus (GPa) = 32.87492 20.98017 26.92754
#
# Velocity S-wave (km/s) = 4.13366 3.30223 3.74111
# Velocity P-wave (km/s) = 6.55424 6.11865 6.34019
#
# Compressibility (1/GPa) = 0.02576235
#
# Stress axis : x y z
#
# Youngs Moduli (GPa) = 62.58297 76.99711 -603.80878
#
# Poissons Ratio (x) = 0.18901 2.23789
# Poissons Ratio (y) = 0.15363 -1.22295
# Poissons Ratio (z) = -0.23195 0.15595
#
# Static dielectric constant tensor:
#      x y z
#    x 1.699950 0.011300 -0.023910 
#    y 0.011300 1.697760 0.013140 
#    z -0.023910 0.013140 1.706010 
# 
# From -- ./inp_files/144338.got.cif
#   From: 2010.05.17/outbox.cif.g08.bks.cpg/sg2_73_cif.got.tgz:144338.got - 2010.06.03 11:33:40.
