data_PCOD9045788
_publ_section_title
;
Structure prediction by ZEFSAII (Michael W. Deem and Ramdas Pophale) SiO2 
 PCOD9045788
Probable space group: P -1
;
_chemical_formula_sum "Si O2"
_cell_formula_units_Z 16
_cell_length_a 14.091723
_cell_length_b 9.864078
_cell_length_c 9.071404
_cell_angle_alpha 86.296967
_cell_angle_beta 105.787437
_cell_angle_gamma 147.024565
_cell_volume 627.347439
_symmetry_space_group_name_H-M "P -1"
_symmetry_group_IT_number 2
_symmetry_cell_setting 'triclinic'
loop_
_space_group_symop_operation_xyz
x,y,z
-x,-y,-z
loop_
_atom_site_type_symbol
_atom_site_label
_atom_site_fract_x
_atom_site_fract_y
_atom_site_fract_z
Si Si1 0.653063 0.347192 0.646686
Si Si2 0.941663 0.580576 0.514289
Si Si3 0.474966 0.583820 0.608290
Si Si4 0.658796 0.171571 0.930355
Si Si5 0.906191 0.884120 0.808705
Si Si6 0.207412 0.106537 0.706390
Si Si7 0.433456 0.238678 0.053953
Si Si8 0.847297 0.594194 0.175169
O O1 0.813005 0.454995 0.612814
O O2 0.518840 0.261344 0.474594
O O3 0.587311 0.162061 0.753163
O O4 0.726823 0.571161 0.748505
O O5 0.829807 0.505867 0.332484
O O6 0.000000 0.500000 0.500000
O O7 0.133568 0.892063 0.599160
O O8 0.500000 0.500000 0.500000
O O9 0.269341 0.298731 0.608110
O O10 0.588297 0.710692 0.801358
O O11 0.682166 0.037645 0.947450
O O12 0.832192 0.465729 0.047419
O O13 0.500000 0.000000 0.000000
O O14 0.038501 0.961580 0.744084
O O15 0.949736 0.089858 0.763141
O O16 0.000000 0.000000 0.000000
O O17 0.357902 0.230097 0.881771
O O18 0.656083 0.463393 0.098356
#
# Coordination Sequence:
#
# PCOD9045788 Si02
#       8
#     2   2   2   2   2   2   2   2
#     4  11  24  46  66 107 136 178 239 280 343 414
#     4  11  24  46  71  99 139 186 228 284 342 409
#     4  12  27  41  71 103 139 178 228 289 347 403
#     4  10  24  41  69  98 139 185 224 278 346 411
#     4  11  22  39  73  95 131 181 225 285 337 405
#     4  11  25  45  67 104 141 177 232 287 345 409
#     4  11  24  45  67  99 143 184 223 285 342 409
#     4  11  21  44  71 100 135 182 228 279 354 400
#
# _framework density 25.50421
#
# number of rings (size 3 to 8) (size 9 to 14) (size 15 to 20)
#    0.000    1.000    3.750    1.875    5.250    3.500 
#    2.250    1.875    0.000    0.000    0.000    0.000 
#    0.000    0.000    0.000    0.000    0.000    0.000 
#
# Total GULP energy -89415.198804 kJ/mol
# GULP energy per Si atom -5588.449925 kJ/mol
# Density = 2.544616 g / cm^3
# Si number density = 25.504210 Si / 1000 Ang^3
#
#
#
# Elastic Constant Matrix: (Units=GPa)
#
#
# Indices 1 2 3 4 5 6 
#
# 1 70.3943 22.7577 33.4983 -7.3200 -11.7298 -18.0601
# 2 22.7577 86.2248 30.8828 -16.8232 -1.2114 -29.3562
# 3 33.4983 30.8828 153.1734 -23.2993 3.9384 -9.2208
# 4 -7.3200 -16.8232 -23.2993 60.8280 -7.3529 -10.8268
# 5 -11.7298 -1.2114 3.9384 -7.3529 43.1593 6.6361
# 6 -18.0601 -29.3562 -9.2208 -10.8268 6.6361 40.2836
#
#
#
# Elastic Compliance Matrix: (Units=1/GPa)
#
#
# Indices 1 2 3 4 5 6 
#
# 1 0.018905 -0.000851 -0.003265 0.002617 0.004778 0.007024
# 2 -0.000851 0.018898 -0.001622 0.007100 -0.000655 0.015035
# 3 -0.003265 -0.001622 0.007905 0.002015 -0.001298 -0.000081
# 4 0.002617 0.007100 0.002015 0.021990 0.002583 0.012293
# 5 0.004778 -0.000655 -0.001298 0.002583 0.025333 -0.002112
# 6 0.007024 0.015035 -0.000081 0.012293 -0.002112 0.042563
#
#
# Mechanical properties :
#
#
# Convention : Reuss Voigt Hill
#
# Bulk Modulus (GPa) = 29.21317 53.78558 41.49937
# Shear Modulus (GPa) = 31.54967 43.69776 37.62372
#
# Velocity S-wave (km/s) = 3.52097 4.14376 3.84500
# Velocity P-wave (km/s) = 5.29233 6.63544 6.00157
#
# Compressibility (1/GPa) = 0.03423114
#
# Stress axis : x y z
#
# Youngs Moduli (GPa) = 52.89673 52.91550 126.50897
#
# Poissons Ratio (x) = 0.04504 0.41302
# Poissons Ratio (y) = 0.04502 0.20523
# Poissons Ratio (z) = 0.17269 0.08584
#
# Static dielectric constant tensor:
#      x y z
#    x 2.022440 -0.029080 0.013690 
#    y -0.029080 2.047640 0.036510 
#    z 0.013690 0.036510 1.999140 
# 
# From -- ./inp_files/298325.got.cif
#   From: 2010.05.17/outbox.cif.g08.bks.cpg/sg2_150_cif.got.tgz:298325.got - 2010.06.03 11:33:40.
