data_PCOD9045992
_publ_section_title
;
Structure prediction by ZEFSAII (Michael W. Deem and Ramdas Pophale) SiO2 
 PCOD9045992
Probable space group: P -1
;
_chemical_formula_sum "Si O2"
_cell_formula_units_Z 11
_cell_length_a 16.195399
_cell_length_b 5.528985
_cell_length_c 16.227161
_cell_angle_alpha 79.576317
_cell_angle_beta 17.829169
_cell_angle_gamma 81.880801
_cell_volume 435.226384
_symmetry_space_group_name_H-M "P -1"
_symmetry_group_IT_number 2
_symmetry_cell_setting 'triclinic'
loop_
_space_group_symop_operation_xyz
x,y,z
-x,-y,-z
loop_
_atom_site_type_symbol
_atom_site_label
_atom_site_fract_x
_atom_site_fract_y
_atom_site_fract_z
Si Si1 0.500000 0.500000 0.500000
Si Si2 0.353264 0.485034 0.944628
Si Si3 0.774040 0.949146 0.786731
Si Si4 0.579156 0.190824 0.597049
Si Si5 0.915765 0.800480 0.372858
Si Si6 0.744707 0.124307 0.202490
O O1 0.651511 0.385569 0.442860
O O2 0.724721 0.405586 0.226108
O O3 0.451342 0.313119 0.789288
O O4 0.626462 0.670002 0.687175
O O5 0.082258 0.615321 0.173755
O O6 0.273482 0.321409 0.110939
O O7 0.881073 0.120530 0.750829
O O8 0.000000 0.000000 0.500000
O O9 0.500000 0.000000 0.000000
O O10 0.829197 0.041133 0.393973
O O11 0.356513 0.983006 0.781931
O O12 0.500000 0.000000 0.500000
O O13 0.000000 0.000000 0.000000
#
# Coordination Sequence:
#
# PCOD9045992 Si02
#       6
#     1   2   2   2   2   2
#     4  10  24  44  72 104 144 198 252 314 372 426
#     4  12  27  48  78 112 155 203 247 315 387 447
#     4  12  27  49  78 116 153 192 252 311 374 465
#     4  11  25  47  73 108 151 199 261 314 373 450
#     4  12  27  48  77 113 154 204 254 309 382 458
#     4  10  24  42  65  99 138 185 245 307 367 433
#
# _framework density 25.274201000000001
#
# number of rings (size 3 to 8) (size 9 to 14) (size 15 to 20)
#    0.000    0.727    0.000    6.545    0.000   20.364 
#    0.000    1.818    0.000    0.000    0.000    0.000 
#    0.000    0.000    0.000    0.000    0.000    0.000 
#
# Total GULP energy -61338.600244 kJ/mol
# GULP energy per Si atom -5576.236386 kJ/mol
# Density = 2.521668 g / cm^3
# Si number density = 25.274201 Si / 1000 Ang^3
#
#
#
# Elastic Constant Matrix: (Units=GPa)
#
#
# Indices 1 2 3 4 5 6 
#
# 1 162.6245 63.4736 58.9668 22.9471 -23.0038 -20.9389
# 2 63.4736 101.6003 64.9695 32.9669 -5.9059 -22.8540
# 3 58.9668 64.9695 192.8713 22.8087 -21.6052 -21.3491
# 4 22.9471 32.9669 22.8087 70.4142 -15.0999 4.0092
# 5 -23.0038 -5.9059 -21.6052 -15.0999 40.2604 -17.4912
# 6 -20.9389 -22.8540 -21.3491 4.0092 -17.4912 46.3727
#
#
#
# Elastic Compliance Matrix: (Units=1/GPa)
#
#
# Indices 1 2 3 4 5 6 
#
# 1 0.009446 -0.004482 -0.000161 0.000253 0.006697 0.004487
# 2 -0.004482 0.018098 -0.003641 -0.006581 -0.002168 0.004971
# 3 -0.000161 -0.003641 0.007344 0.000228 0.004843 0.003321
# 4 0.000253 -0.006581 0.000228 0.018355 0.005001 -0.002725
# 5 0.006697 -0.002168 0.004843 0.005001 0.041204 0.019294
# 6 0.004487 0.004971 0.003321 -0.002725 0.019294 0.035082
#
#
# Mechanical properties :
#
#
# Convention : Reuss Voigt Hill
#
# Bulk Modulus (GPa) = 54.58385 92.43510 73.50948
# Shear Modulus (GPa) = 32.85100 49.38852 41.11976
#
# Velocity S-wave (km/s) = 3.60916 4.42533 4.03792
# Velocity P-wave (km/s) = 6.24593 7.92235 7.13356
#
# Compressibility (1/GPa) = 0.01832044
#
# Stress axis : x y z
#
# Youngs Moduli (GPa) = 105.86166 55.25460 136.17321
#
# Poissons Ratio (x) = 0.24764 0.02197
# Poissons Ratio (y) = 0.47445 0.49575
# Poissons Ratio (z) = 0.01708 0.20116
#
# Static dielectric constant tensor:
#      x y z
#    x 2.012850 0.114810 0.025660 
#    y 0.114810 2.264530 -0.053790 
#    z 0.025660 -0.053790 1.957740 
# 
# From -- ./inp_files/525278.got.cif
#   From: 2010.05.17/outbox.cif.g08.bks.cpg/sg2_263_cif.got.tgz:525278.got - 2010.06.03 11:33:40.
