data_PCOD9045921
_publ_section_title
;
Structure prediction by ZEFSAII (Michael W. Deem and Ramdas Pophale) SiO2 
 PCOD9045921
Probable space group: P -1
;
_chemical_formula_sum "Si O2"
_cell_formula_units_Z 16
_cell_length_a 9.135818
_cell_length_b 11.394190
_cell_length_c 14.651508
_cell_angle_alpha 30.158574
_cell_angle_beta 61.541139
_cell_angle_gamma 70.813302
_cell_volume 661.526296
_symmetry_space_group_name_H-M "P -1"
_symmetry_group_IT_number 2
_symmetry_cell_setting 'triclinic'
loop_
_space_group_symop_operation_xyz
x,y,z
-x,-y,-z
loop_
_atom_site_type_symbol
_atom_site_label
_atom_site_fract_x
_atom_site_fract_y
_atom_site_fract_z
Si Si1 0.612825 0.405304 0.910723
Si Si2 0.627506 0.864050 0.697549
Si Si3 0.925568 0.856806 0.709619
Si Si4 0.045779 0.019206 0.870344
Si Si5 0.313117 0.844869 0.133514
Si Si6 0.007812 0.654863 0.992234
Si Si7 0.371281 0.627155 0.705207
Si Si8 0.618838 0.579634 0.498228
O O1 0.701754 0.661229 0.755371
O O2 0.677601 0.265154 0.899243
O O3 0.456025 0.509730 0.841246
O O4 0.547616 0.246089 0.126041
O O5 0.744294 0.931345 0.708169
O O6 0.634509 0.092916 0.477926
O O7 0.906083 0.568528 0.905232
O O8 0.022274 0.870969 0.768376
O O9 0.000000 0.000000 0.500000
O O10 0.222514 0.204106 0.691694
O O11 0.859170 0.054069 0.866070
O O12 0.000000 0.000000 0.000000
O O13 0.078484 0.775790 0.982280
O O14 0.295539 0.635481 0.351810
O O15 0.500000 0.000000 0.000000
O O16 0.813799 0.526986 0.150598
O O17 0.488555 0.614531 0.592179
O O18 0.500000 0.500000 0.500000
#
# Coordination Sequence:
#
# PCOD9045921 Si02
#       8
#     2   2   2   2   2   2   2   2
#     4  10  24  42  64 104 136 183 239 294 350 440
#     4  11  23  39  71  96 142 185 239 285 366 430
#     4  11  24  44  70 104 141 191 234 298 369 440
#     4  12  27  47  73 108 147 195 246 309 369 443
#     4  11  25  47  75 103 149 191 245 304 373 440
#     4  11  25  46  70 104 150 182 244 304 368 438
#     4  11  22  43  69 101 138 188 233 299 363 433
#     4  11  26  47  72 106 143 193 247 302 372 438
#
# _framework density 24.186494
#
# number of rings (size 3 to 8) (size 9 to 14) (size 15 to 20)
#    0.000    1.000    2.500    3.750    5.250    3.000 
#    2.250    0.000    0.000    0.000    0.000    0.000 
#    0.000    0.000    0.000    0.000    0.000    0.000 
#
# Total GULP energy -89136.356294 kJ/mol
# GULP energy per Si atom -5571.022268 kJ/mol
# Density = 2.413144 g / cm^3
# Si number density = 24.186494 Si / 1000 Ang^3
#
#
#
# Elastic Constant Matrix: (Units=GPa)
#
#
# Indices 1 2 3 4 5 6 
#
# 1 90.8157 13.6698 16.2623 5.7322 -21.2589 -3.4158
# 2 13.6698 90.5656 14.7832 8.0419 -6.2694 5.6302
# 3 16.2623 14.7832 127.1098 9.6177 -13.7525 2.3765
# 4 5.7322 8.0419 9.6177 34.2332 -3.5400 -0.8672
# 5 -21.2589 -6.2694 -13.7525 -3.5400 37.8599 -0.0075
# 6 -3.4158 5.6302 2.3765 -0.8672 -0.0075 41.6038
#
#
#
# Elastic Compliance Matrix: (Units=1/GPa)
#
#
# Indices 1 2 3 4 5 6 
#
# 1 0.013034 -0.001379 -0.000732 -0.000924 0.006738 0.001280
# 2 -0.001379 0.011749 -0.000920 -0.002249 0.000626 -0.001697
# 3 -0.000732 -0.000920 0.008467 -0.001809 0.002343 -0.000456
# 4 -0.000924 -0.002249 -0.001809 0.030563 0.001310 0.000969
# 5 0.006738 0.000626 0.002343 0.001310 0.031274 0.000368
# 6 0.001280 -0.001697 -0.000456 0.000969 0.000368 0.024417
#
#
# Mechanical properties :
#
#
# Convention : Reuss Voigt Hill
#
# Bulk Modulus (GPa) = 36.78313 44.21353 40.49833
# Shear Modulus (GPa) = 37.13930 40.32444 38.73187
#
# Velocity S-wave (km/s) = 3.92285 4.08760 4.00607
# Velocity P-wave (km/s) = 5.97992 6.37165 6.17889
#
# Compressibility (1/GPa) = 0.02718638
#
# Stress axis : x y z
#
# Youngs Moduli (GPa) = 76.72374 85.11626 118.10799
#
# Poissons Ratio (x) = 0.11737 0.08648
# Poissons Ratio (y) = 0.10580 0.10870
# Poissons Ratio (z) = 0.05618 0.07834
#
# Static dielectric constant tensor:
#      x y z
#    x 2.436950 0.145090 -0.176340 
#    y 0.145090 2.054820 -0.106920 
#    z -0.176340 -0.106920 2.059870 
# 
# From -- ./inp_files/499670.got.cif
#   From: 2010.05.17/outbox.cif.g08.bks.cpg/sg2_250_cif.got.tgz:499670.got - 2010.06.03 11:33:40.
