data_PCOD9045491
_publ_section_title
;
Structure prediction by ZEFSAII (Michael W. Deem and Ramdas Pophale) SiO2 
 PCOD9045491
Probable space group: P -1
;
_chemical_formula_sum "Si O2"
_cell_formula_units_Z 12
_cell_length_a 9.354061
_cell_length_b 8.261927
_cell_length_c 10.904816
_cell_angle_alpha 137.143898
_cell_angle_beta 79.348307
_cell_angle_gamma 83.235611
_cell_volume 521.321220
_symmetry_space_group_name_H-M "P -1"
_symmetry_group_IT_number 2
_symmetry_cell_setting 'triclinic'
loop_
_space_group_symop_operation_xyz
x,y,z
-x,-y,-z
loop_
_atom_site_type_symbol
_atom_site_label
_atom_site_fract_x
_atom_site_fract_y
_atom_site_fract_z
Si Si1 0.584116 0.716943 0.187468
Si Si2 0.121682 0.774509 0.223710
Si Si3 0.802048 0.972474 0.254952
Si Si4 0.764976 0.847737 0.909673
Si Si5 0.473725 0.702239 0.932280
Si Si6 0.936289 0.315657 0.534502
O O1 0.654830 0.931268 0.317651
O O2 0.505272 0.594884 0.231293
O O3 0.736160 0.460541 0.985094
O O4 0.481030 0.786314 0.119198
O O5 0.118262 0.721113 0.338739
O O6 0.959154 0.787505 0.195981
O O7 0.102930 0.071405 0.368061
O O8 0.821904 0.242345 0.420007
O O9 0.801216 0.897576 0.071394
O O10 0.621041 0.746425 0.873437
O O11 0.911611 0.613838 0.698328
O O12 0.688335 0.120070 0.006362
#
# Coordination Sequence:
#
# PCOD9045491 Si02
#       6
#     2   2   2   2   2   2
#     4  10  17  34  54  77 101 133 171 208 245 303
#     4   9  17  30  56  80  98 129 168 215 247 296
#     4   9  18  30  58  79  95 131 170 209 256 288
#     4  10  18  37  53  73 103 137 167 205 251 307
#     4   9  20  32  55  72 103 142 165 201 255 293
#     4   9  18  30  55  80  97 132 170 208 248 301
#
# _framework density 23.018439000000001
#
# number of rings (size 3 to 8) (size 9 to 14) (size 15 to 20)
#    1.000    1.667    3.333    0.500    0.000    0.000 
#    0.000   10.000    3.667    0.000    0.000    0.000 
#    0.000    0.000    0.000    0.000    0.000    0.000 
#
# Total GULP energy -66835.722543 kJ/mol
# GULP energy per Si atom -5569.643545 kJ/mol
# Density = 2.296605 g / cm^3
# Si number density = 23.018439 Si / 1000 Ang^3
#
#
#
# Elastic Constant Matrix: (Units=GPa)
#
#
# Indices 1 2 3 4 5 6 
#
# 1 64.1061 11.3302 20.3584 -11.4566 14.8478 -12.5745
# 2 11.3302 69.9574 21.9784 12.3841 4.4680 -16.6850
# 3 20.3584 21.9784 114.5546 3.9421 3.5494 -14.5406
# 4 -11.4566 12.3841 3.9421 14.8730 -5.1556 -1.3187
# 5 14.8478 4.4680 3.5494 -5.1556 24.1229 -1.5246
# 6 -12.5745 -16.6850 -14.5406 -1.3187 -1.5246 35.2892
#
#
#
# Elastic Compliance Matrix: (Units=1/GPa)
#
#
# Indices 1 2 3 4 5 6 
#
# 1 0.024313 -0.004791 -0.003154 0.020998 -0.008778 0.005504
# 2 -0.004791 0.021426 -0.001474 -0.022325 -0.005147 0.006760
# 3 -0.003154 -0.001474 0.009967 -0.003614 0.000111 0.002156
# 4 0.020998 -0.022325 -0.003614 0.108118 0.014857 0.000120
# 5 -0.008778 -0.005147 0.000111 0.014857 0.050795 -0.002766
# 6 0.005504 0.006760 0.002156 0.000120 -0.002766 0.034268
#
#
# Mechanical properties :
#
#
# Convention : Reuss Voigt Hill
#
# Bulk Modulus (GPa) = 27.12210 39.55022 33.33616
# Shear Modulus (GPa) = 17.85630 27.85376 22.85503
#
# Velocity S-wave (km/s) = 2.78823 3.48237 3.15445
# Velocity P-wave (km/s) = 4.70893 5.77828 5.27079
#
# Compressibility (1/GPa) = 0.03687031
#
# Stress axis : x y z
#
# Youngs Moduli (GPa) = 41.13087 46.67164 100.32842
#
# Poissons Ratio (x) = 0.22359 0.31640
# Poissons Ratio (y) = 0.19704 0.14785
# Poissons Ratio (z) = 0.12971 0.06878
#
# Static dielectric constant tensor:
#      x y z
#    x 1.925500 0.083050 -0.034890 
#    y 0.083050 1.918400 0.047570 
#    z -0.034890 0.047570 1.897240 
# 
# From -- ./inp_files/163107.got.cif
#   From: 2010.05.17/outbox.cif.g08.bks.cpg/sg2_82_cif.got.tgz:163107.got - 2010.06.03 11:33:40.
