data_PCOD9045718
_publ_section_title
;
Structure prediction by ZEFSAII (Michael W. Deem and Ramdas Pophale) SiO2 
 PCOD9045718
Probable space group: P -1
;
_chemical_formula_sum "Si O2"
_cell_formula_units_Z 14
_cell_length_a 23.282415
_cell_length_b 5.438535
_cell_length_c 17.844739
_cell_angle_alpha 60.028894
_cell_angle_beta 155.340140
_cell_angle_gamma 130.034995
_cell_volume 695.779502
_symmetry_space_group_name_H-M "P -1"
_symmetry_group_IT_number 2
_symmetry_cell_setting 'triclinic'
loop_
_space_group_symop_operation_xyz
x,y,z
-x,-y,-z
loop_
_atom_site_type_symbol
_atom_site_label
_atom_site_fract_x
_atom_site_fract_y
_atom_site_fract_z
Si Si1 0.396129 0.774557 0.840872
Si Si2 0.575326 0.275491 0.610200
Si Si3 0.731203 0.132210 0.942166
Si Si4 0.308904 0.087389 0.914940
Si Si5 0.077122 0.271954 0.115417
Si Si6 0.067401 0.134071 0.852669
Si Si7 0.026747 0.563206 0.432670
O O1 0.343020 0.401010 0.858839
O O2 0.218905 0.715547 0.624281
O O3 0.534731 0.937240 0.916765
O O4 0.500000 0.000000 0.000000
O O5 0.500000 0.500000 0.500000
O O6 0.589778 0.122365 0.728609
O O7 0.748578 0.507458 0.744888
O O8 0.500000 0.000000 0.500000
O O9 0.829273 0.500933 0.040660
O O10 0.681844 0.873791 0.991010
O O11 0.831930 0.041101 0.019464
O O12 0.124760 0.791967 0.723124
O O13 0.063532 0.096223 0.205509
O O14 0.000000 0.500000 0.000000
O O15 0.000000 0.000000 0.000000
O O16 0.005716 0.184715 0.691611
O O17 0.000000 0.500000 0.500000
#
# Coordination Sequence:
#
# PCOD9045718 Si02
#       7
#     2   2   2   2   2   2   2
#     4  11  22  42  63  97 135 174 223 281 342 397
#     4  12  25  42  66 102 138 174 221 279 351 404
#     4  11  23  44  68  95 135 177 223 272 344 408
#     4  10  24  41  67  93 132 184 220 280 343 401
#     4  12  22  44  70  94 133 179 228 278 331 411
#     4  11  23  42  70  99 126 182 231 276 333 405
#     4  11  22  41  68  98 134 176 233 274 338 414
#
# _framework density 20.121316
#
# number of rings (size 3 to 8) (size 9 to 14) (size 15 to 20)
#    0.000    0.857    4.286    3.000    2.000    2.286 
#    2.571    0.000    0.000    0.000    0.000    0.000 
#    0.000    0.000    0.000    0.000    0.000    0.000 
#
# Total GULP energy -77952.629346 kJ/mol
# GULP energy per Si atom -5568.044953 kJ/mol
# Density = 2.007552 g / cm^3
# Si number density = 20.121316 Si / 1000 Ang^3
#
#
#
# Elastic Constant Matrix: (Units=GPa)
#
#
# Indices 1 2 3 4 5 6 
#
# 1 81.4687 15.9731 23.0119 -0.5292 1.1766 -7.5125
# 2 15.9731 65.2247 44.5929 -2.6964 -3.6314 -18.4077
# 3 23.0119 44.5929 130.1402 2.9013 7.9573 -15.7906
# 4 -0.5292 -2.6964 2.9013 47.6830 8.1228 -0.6841
# 5 1.1766 -3.6314 7.9573 8.1228 45.7495 -10.4140
# 6 -7.5125 -18.4077 -15.7906 -0.6841 -10.4140 40.0449
#
#
#
# Elastic Compliance Matrix: (Units=1/GPa)
#
#
# Indices 1 2 3 4 5 6 
#
# 1 0.013178 -0.001866 -0.001573 0.000153 -0.000015 0.000993
# 2 -0.001866 0.023366 -0.006914 0.001003 0.004970 0.008974
# 3 -0.001573 -0.006914 0.010490 -0.000672 -0.002195 0.000081
# 4 0.000153 0.001003 -0.000672 0.021704 -0.003747 -0.000379
# 5 -0.000015 0.004970 -0.002195 -0.003747 0.025093 0.007878
# 6 0.000993 0.008974 0.000081 -0.000379 0.007878 0.031358
#
#
# Mechanical properties :
#
#
# Convention : Reuss Voigt Hill
#
# Bulk Modulus (GPa) = 37.98149 49.33217 43.65683
# Shear Modulus (GPa) = 32.32664 39.57920 35.95292
#
# Velocity S-wave (km/s) = 4.01257 4.43993 4.23165
# Velocity P-wave (km/s) = 6.35491 7.13124 6.75424
#
# Compressibility (1/GPa) = 0.02632862
#
# Stress axis : x y z
#
# Youngs Moduli (GPa) = 75.88679 42.79635 95.32683
#
# Poissons Ratio (x) = 0.07986 0.14992
# Poissons Ratio (y) = 0.14161 0.65909
# Poissons Ratio (z) = 0.11935 0.29589
#
# Static dielectric constant tensor:
#      x y z
#    x 1.749720 -0.011250 0.027390 
#    y -0.011250 1.781160 -0.029810 
#    z 0.027390 -0.029810 1.716070 
# 
# From -- ./inp_files/55732.got.cif
#   From: 2010.05.17/outbox.cif.g08.bks.cpg/sg2_28_cif.got.tgz:55732.got - 2010.06.03 11:33:40.
