data_PCOD9045029
_publ_section_title
;
Structure prediction by ZEFSAII (Michael W. Deem and Ramdas Pophale) SiO2 
 PCOD9045029
Probable space group: P -1
;
_chemical_formula_sum "Si O2"
_cell_formula_units_Z 14
_cell_length_a 7.767105
_cell_length_b 5.923994
_cell_length_c 22.883080
_cell_angle_alpha 108.404214
_cell_angle_beta 137.154493
_cell_angle_gamma 91.623222
_cell_volume 621.870244
_symmetry_space_group_name_H-M "P -1"
_symmetry_group_IT_number 2
_symmetry_cell_setting 'triclinic'
loop_
_space_group_symop_operation_xyz
x,y,z
-x,-y,-z
loop_
_atom_site_type_symbol
_atom_site_label
_atom_site_fract_x
_atom_site_fract_y
_atom_site_fract_z
Si Si1 0.696939 0.255153 0.285266
Si Si2 0.457984 0.920914 0.398446
Si Si3 0.727471 0.382279 0.050343
Si Si4 0.014671 0.293465 0.535301
Si Si5 0.730120 0.123881 0.147962
Si Si6 0.185162 0.891406 0.205648
Si Si7 0.718976 0.748428 0.542470
O O1 0.721584 0.223370 0.219340
O O2 0.755809 0.543317 0.347184
O O3 0.966001 0.216536 0.373538
O O4 0.413772 0.064306 0.230207
O O5 0.332493 0.856174 0.298280
O O6 0.578062 0.728847 0.442098
O O7 0.711784 0.197994 0.479540
O O8 0.264681 0.983676 0.401444
O O9 0.775709 0.335304 0.126190
O O10 0.003451 0.604512 0.112075
O O11 0.500000 0.500000 0.000000
O O12 0.574307 0.104121 0.958895
O O13 0.000000 0.500000 0.500000
O O14 0.000000 0.000000 0.500000
O O15 0.971116 0.018104 0.185390
O O16 0.500000 0.500000 0.500000
#
# Coordination Sequence:
#
# PCOD9045029 Si02
#       7
#     2   2   2   2   2   2   2
#     4  12  25  45  74 109 144 204 257 305 377 460
#     4  11  24  40  66  97 149 200 249 305 365 441
#     4   9  22  48  75 103 145 186 236 324 386 457
#     4  12  26  46  67 103 157 198 250 313 368 437
#     4  10  23  48  74 104 148 187 247 312 390 458
#     4  11  24  42  72 110 145 196 250 311 381 446
#     4  11  24  42  64 100 150 199 255 305 362 439
#
# _framework density 22.512733000000001
#
# number of rings (size 3 to 8) (size 9 to 14) (size 15 to 20)
#    0.000    1.143    4.286    0.857    2.000    1.714 
#    5.143    6.429    0.000    0.000    0.000    0.000 
#    0.000    0.000    0.000    0.000    0.000    0.000 
#
# Total GULP energy -78027.359644 kJ/mol
# GULP energy per Si atom -5573.382832 kJ/mol
# Density = 2.246149 g / cm^3
# Si number density = 22.512733 Si / 1000 Ang^3
#
#
#
# Elastic Constant Matrix: (Units=GPa)
#
#
# Indices 1 2 3 4 5 6 
#
# 1 116.9764 63.2916 62.7664 6.5125 -4.7385 1.7517
# 2 63.2916 134.6973 54.0093 -3.4999 0.4943 12.5238
# 3 62.7664 54.0093 107.8519 8.0233 2.0400 17.7349
# 4 6.5125 -3.4999 8.0233 52.0636 13.1798 2.2469
# 5 -4.7385 0.4943 2.0400 13.1798 40.3103 9.6913
# 6 1.7517 12.5238 17.7349 2.2469 9.6913 31.0516
#
#
#
# Elastic Compliance Matrix: (Units=1/GPa)
#
#
# Indices 1 2 3 4 5 6 
#
# 1 0.014945 -0.004693 -0.007020 -0.001711 0.001603 0.004683
# 2 -0.004693 0.010904 -0.002416 0.001948 -0.000545 -0.002724
# 3 -0.007020 -0.002416 0.015969 -0.001612 0.000820 -0.007890
# 4 -0.001711 0.001948 -0.001612 0.021646 -0.007460 0.000994
# 5 0.001603 -0.000545 0.000820 -0.007460 0.029571 -0.009028
# 6 0.004683 -0.002724 -0.007890 0.000994 -0.009028 0.040291
#
#
# Mechanical properties :
#
#
# Convention : Reuss Voigt Hill
#
# Bulk Modulus (GPa) = 73.74951 79.96224 76.85587
# Shear Modulus (GPa) = 30.10155 36.64899 33.37527
#
# Velocity S-wave (km/s) = 3.66059 4.03913 3.85451
# Velocity P-wave (km/s) = 7.12016 7.57288 7.35001
#
# Compressibility (1/GPa) = 0.01355941
#
# Stress axis : x y z
#
# Youngs Moduli (GPa) = 66.91163 91.71122 62.62080
#
# Poissons Ratio (x) = 0.43042 0.43963
# Poissons Ratio (y) = 0.31403 0.15127
# Poissons Ratio (z) = 0.46975 0.22155
#
# Static dielectric constant tensor:
#      x y z
#    x -1.655430 0.092540 -0.013080 
#    y 0.092540 1.912860 0.026560 
#    z -0.013080 0.026560 1.883440 
# 
# From -- ./inp_files/605688.got.cif
#   From: 2010.05.17/outbox.cif.g08.bks.cpg/sg2_303_cif.got.tgz:605688.got - 2010.06.03 11:33:40.
