data_PCOD9045872
_publ_section_title
;
Structure prediction by ZEFSAII (Michael W. Deem and Ramdas Pophale) SiO2 
 PCOD9045872
Probable space group: P -1
;
_chemical_formula_sum "Si O2"
_cell_formula_units_Z 16
_cell_length_a 17.641694
_cell_length_b 20.042981
_cell_length_c 12.497890
_cell_angle_alpha 150.656580
_cell_angle_beta 159.289654
_cell_angle_gamma 29.974081
_cell_volume 732.089205
_symmetry_space_group_name_H-M "P -1"
_symmetry_group_IT_number 2
_symmetry_cell_setting 'triclinic'
loop_
_space_group_symop_operation_xyz
x,y,z
-x,-y,-z
loop_
_atom_site_type_symbol
_atom_site_label
_atom_site_fract_x
_atom_site_fract_y
_atom_site_fract_z
Si Si1 0.033055 0.170674 0.614549
Si Si2 0.574990 0.146994 0.087442
Si Si3 0.886969 0.423856 0.611769
Si Si4 0.736389 0.530829 0.345973
Si Si5 0.759700 0.828212 0.883717
Si Si6 0.353953 0.556444 0.113006
Si Si7 0.292060 0.453903 0.115717
Si Si8 0.784799 0.144696 0.586607
O O1 0.797821 0.165343 0.349266
O O2 0.975702 0.282900 0.600864
O O3 0.185043 0.192236 0.945301
O O4 0.159758 0.013789 0.518035
O O5 0.374120 0.282227 0.975827
O O6 0.611913 0.163089 0.285549
O O7 0.580052 0.983570 0.846995
O O8 0.886606 0.420561 0.476038
O O9 0.083404 0.501097 0.988228
O O10 0.716666 0.689281 0.582074
O O11 0.624874 0.493840 0.389699
O O12 0.500000 0.500000 0.000000
O O13 0.763877 0.510131 0.227008
O O14 0.985497 0.844196 0.148841
O O15 0.252601 0.528276 0.052738
O O16 0.298735 0.725567 0.261673
O O17 0.500000 0.500000 0.500000
#
# Coordination Sequence:
#
# PCOD9045872 Si02
#       8
#     2   2   2   2   2   2   2   2
#     4   9  19  39  68  95 130 160 202 270 329 367
#     4   9  18  39  62  98 130 161 205 264 320 382
#     4  11  25  41  63  95 128 167 212 261 316 372
#     4  10  24  42  61  90 127 173 219 255 307 376
#     4   9  19  38  67  91 128 171 212 256 319 380
#     4  11  23  43  67  88 132 168 214 259 310 370
#     4  12  24  39  66 100 129 160 212 264 319 381
#     4   9  18  37  66  99 124 164 209 258 322 389
#
# _framework density 21.855260999999999
#
# number of rings (size 3 to 8) (size 9 to 14) (size 15 to 20)
#    0.000    2.000    2.500    2.250    1.750    5.000 
#    4.500    2.500    2.750    0.000    0.000    0.000 
#    0.000    0.000    0.000    0.000    0.000    0.000 
#
# Total GULP energy -89341.972965 kJ/mol
# GULP energy per Si atom -5583.873310 kJ/mol
# Density = 2.180552 g / cm^3
# Si number density = 21.855261 Si / 1000 Ang^3
#
#
#
# Elastic Constant Matrix: (Units=GPa)
#
#
# Indices 1 2 3 4 5 6 
#
# 1 88.0808 37.4410 38.3853 10.5070 11.0624 6.9349
# 2 37.4410 167.2649 58.2471 34.7281 -12.3633 4.8124
# 3 38.3853 58.2471 116.4767 26.2693 -9.0249 1.7890
# 4 10.5070 34.7281 26.2693 29.9056 -14.3822 1.3033
# 5 11.0624 -12.3633 -9.0249 -14.3822 37.9558 -5.2981
# 6 6.9349 4.8124 1.7890 1.3033 -5.2981 31.8110
#
#
#
# Elastic Compliance Matrix: (Units=1/GPa)
#
#
# Indices 1 2 3 4 5 6 
#
# 1 0.015626 -0.001855 -0.003989 -0.003503 -0.008005 -0.004091
# 2 -0.001855 0.008700 -0.001998 -0.007720 -0.000096 -0.000499
# 3 -0.003989 -0.001998 0.012499 -0.006800 0.001036 0.000920
# 4 -0.003503 -0.007720 -0.006800 0.058924 0.019660 0.003174
# 5 -0.008005 -0.000096 0.001036 0.019660 0.037338 0.007115
# 6 -0.004091 -0.000499 0.000920 0.003174 0.007115 0.033406
#
#
# Mechanical properties :
#
#
# Convention : Reuss Voigt Hill
#
# Bulk Modulus (GPa) = 47.30375 71.10768 59.20572
# Shear Modulus (GPa) = 26.42394 35.78439 31.10417
#
# Velocity S-wave (km/s) = 3.48090 4.05079 3.77661
# Velocity P-wave (km/s) = 6.15196 7.38139 6.79454
#
# Compressibility (1/GPa) = 0.02113997
#
# Stress axis : x y z
#
# Youngs Moduli (GPa) = 63.99718 114.94699 80.00843
#
# Poissons Ratio (x) = 0.21325 0.31916
# Poissons Ratio (y) = 0.11873 0.15983
# Poissons Ratio (z) = 0.25529 0.22963
#
# Static dielectric constant tensor:
#      x y z
#    x 1.963990 -0.040750 0.003200 
#    y -0.040750 1.822100 -0.019340 
#    z 0.003200 -0.019340 1.893280 
# 
# From -- ./inp_files/466677.got.cif
#   From: 2010.05.17/outbox.cif.g08.bks.cpg/sg2_234_cif.got.tgz:466677.got - 2010.06.03 11:33:40.
