data_PCOD9045454
_publ_section_title
;
Structure prediction by ZEFSAII (Michael W. Deem and Ramdas Pophale) SiO2 
 PCOD9045454
Probable space group: P -1
;
_chemical_formula_sum "Si O2"
_cell_formula_units_Z 12
_cell_length_a 5.274700
_cell_length_b 26.888154
_cell_length_c 5.343756
_cell_angle_alpha 92.121021
_cell_angle_beta 57.527331
_cell_angle_gamma 62.299113
_cell_volume 522.782001
_symmetry_space_group_name_H-M "P -1"
_symmetry_group_IT_number 2
_symmetry_cell_setting 'triclinic'
loop_
_space_group_symop_operation_xyz
x,y,z
-x,-y,-z
loop_
_atom_site_type_symbol
_atom_site_label
_atom_site_fract_x
_atom_site_fract_y
_atom_site_fract_z
Si Si1 0.677212 0.676163 0.044833
Si Si2 0.755538 0.523491 0.383012
Si Si3 0.670463 0.885934 0.855483
Si Si4 0.667063 0.641896 0.542555
Si Si5 0.993873 0.746022 0.728492
Si Si6 0.843466 0.930350 0.277267
O O1 0.823297 0.629253 0.732549
O O2 0.720131 0.729209 0.954119
O O3 0.880856 0.643949 0.192671
O O4 0.250814 0.706434 0.349040
O O5 0.500000 0.500000 0.500000
O O6 0.566516 0.595936 0.508650
O O7 0.000000 0.500000 0.500000
O O8 0.000000 0.500000 0.000000
O O9 0.819000 0.815791 0.796219
O O10 0.824727 0.895738 0.521476
O O11 0.228556 0.923279 0.077334
O O12 0.793716 0.905670 0.037230
O O13 0.316556 0.712261 0.757452
O O14 0.500000 0.000000 0.500000
#
# Coordination Sequence:
#
# PCOD9045454 Si02
#       6
#     2   2   2   2   2   2
#     4  10  24  40  67  94 136 171 224 266 360 396
#     4  12  28  47  72 102 137 182 237 283 341 414
#     4  12  26  43  74 102 140 180 237 283 340 413
#     4  10  26  42  70  93 139 172 225 280 349 397
#     4  10  26  40  68  98 136 172 226 279 349 397
#     4  12  26  48  71 103 142 187 230 283 340 403
#
# _framework density 22.954121000000001
#
# number of rings (size 3 to 8) (size 9 to 14) (size 15 to 20)
#    1.000    0.000    0.000    5.000   11.667    0.000 
#    0.000    0.000    0.000    0.000    0.000    0.000 
#    0.000    0.000    0.000    0.000    0.000    0.000 
#
# Total GULP energy -67023.834402 kJ/mol
# GULP energy per Si atom -5585.319534 kJ/mol
# Density = 2.290188 g / cm^3
# Si number density = 22.954121 Si / 1000 Ang^3
#
#
#
# Elastic Constant Matrix: (Units=GPa)
#
#
# Indices 1 2 3 4 5 6 
#
# 1 103.6945 6.2150 51.7732 -12.1348 35.3660 5.3668
# 2 6.2150 90.1835 9.7102 -9.2172 14.6461 1.2031
# 3 51.7732 9.7102 126.3371 -29.7486 30.8975 2.9696
# 4 -12.1348 -9.2172 -29.7486 36.3464 1.3125 -9.7433
# 5 35.3660 14.6461 30.8975 1.3125 47.0110 3.0155
# 6 5.3668 1.2031 2.9696 -9.7433 3.0155 32.1751
#
#
#
# Elastic Compliance Matrix: (Units=1/GPa)
#
#
# Indices 1 2 3 4 5 6 
#
# 1 0.014707 0.001151 -0.003129 0.002858 -0.009416 -0.000459
# 2 0.001151 0.012295 0.001096 0.004944 -0.005636 0.001272
# 3 -0.003129 0.001096 0.013567 0.011522 -0.007445 0.003416
# 4 0.002858 0.004944 0.011522 0.042991 -0.013268 0.012537
# 5 -0.009416 -0.005636 -0.007445 -0.013268 0.035689 -0.004894
# 6 -0.000459 0.001272 0.003416 0.012537 -0.004894 0.035049
#
#
# Mechanical properties :
#
#
# Convention : Reuss Voigt Hill
#
# Bulk Modulus (GPa) = 25.77000 50.62354 38.19677
# Shear Modulus (GPa) = 29.58654 39.94095 34.76375
#
# Velocity S-wave (km/s) = 3.59408 4.17590 3.89586
# Velocity P-wave (km/s) = 5.33613 6.73446 6.07566
#
# Compressibility (1/GPa) = 0.03880481
#
# Stress axis : x y z
#
# Youngs Moduli (GPa) = 67.99700 81.33502 73.70921
#
# Poissons Ratio (x) = -0.09360 0.23060
# Poissons Ratio (y) = -0.07825 -0.08079
# Poissons Ratio (z) = 0.21273 -0.08914
#
# Static dielectric constant tensor:
#      x y z
#    x 1.889090 -0.052940 0.023490 
#    y -0.052940 1.859420 -0.009180 
#    z 0.023490 -0.009180 1.884170 
# 
# From -- ./inp_files/12380.got.cif
#   From: 2010.05.17/outbox.cif.g08.bks.cpg/sg2_7_cif.got.tgz:12380.got - 2010.06.03 11:33:40.
