data_PCOD9045261
_publ_section_title
;
Structure prediction by ZEFSAII (Michael W. Deem and Ramdas Pophale) SiO2 
 PCOD9045261
Probable space group: P -1
;
_chemical_formula_sum "Si O2"
_cell_formula_units_Z 15
_cell_length_a 11.323808
_cell_length_b 5.890017
_cell_length_c 16.637314
_cell_angle_alpha 88.949192
_cell_angle_beta 33.539135
_cell_angle_gamma 86.367934
_cell_volume 610.669854
_symmetry_space_group_name_H-M "P -1"
_symmetry_group_IT_number 2
_symmetry_cell_setting 'triclinic'
loop_
_space_group_symop_operation_xyz
x,y,z
-x,-y,-z
loop_
_atom_site_type_symbol
_atom_site_label
_atom_site_fract_x
_atom_site_fract_y
_atom_site_fract_z
Si Si1 0.500000 0.000000 0.500000
Si Si2 0.312439 0.485341 0.256971
Si Si3 0.986415 0.491918 0.807306
Si Si4 0.062217 0.794786 0.526092
Si Si5 0.261490 0.829026 0.952001
Si Si6 0.278192 0.749953 0.760270
Si Si7 0.653368 0.391569 0.507889
Si Si8 0.568934 0.818577 0.030537
O O1 0.365253 0.957935 0.660502
O O2 0.455900 0.742013 0.499053
O O3 0.196361 0.603980 0.398480
O O4 0.540932 0.363084 0.149874
O O5 0.363123 0.681252 0.165443
O O6 0.156393 0.299549 0.319960
O O7 0.093359 0.636968 0.815802
O O8 0.159427 0.466906 0.637343
O O9 0.919508 0.258203 0.885814
O O10 0.772505 0.640451 0.897966
O O11 0.218390 0.813780 0.512517
O O12 0.000000 0.000000 0.500000
O O13 0.205562 0.828843 0.890054
O O14 0.356440 0.051962 0.932950
O O15 0.478994 0.555004 0.652462
O O16 0.500000 0.000000 0.000000
#
# Coordination Sequence:
#
# PCOD9045261 Si02
#       8
#     1   2   2   2   2   2   2   2
#     4  10  24  38  70 100 142 176 228 282 356 408
#     4  10  24  43  66 106 133 182 231 291 349 415
#     4  10  25  43  68 105 134 188 232 288 355 417
#     4  11  24  41  72 104 138 179 235 290 358 416
#     4  11  24  45  75  95 142 187 234 291 351 420
#     4  11  24  48  71 103 138 183 242 297 348 416
#     4  11  25  45  72 101 144 181 231 299 354 418
#     4  11  27  44  68 104 146 186 233 285 355 426
#
# _framework density 24.563192999999998
#
# number of rings (size 3 to 8) (size 9 to 14) (size 15 to 20)
#    0.000    1.333    1.333    2.800    9.333    5.867 
#    0.000    0.000    0.000    0.000    0.000    0.000 
#    0.000    0.000    0.000    0.000    0.000    0.000 
#
# Total GULP energy -83720.391455 kJ/mol
# GULP energy per Si atom -5581.359430 kJ/mol
# Density = 2.450729 g / cm^3
# Si number density = 24.563193 Si / 1000 Ang^3
#
#
#
# Elastic Constant Matrix: (Units=GPa)
#
#
# Indices 1 2 3 4 5 6 
#
# 1 80.7707 24.0261 29.2507 -1.4113 0.3807 -15.2441
# 2 24.0261 79.1407 47.1475 -24.3621 -4.4299 -3.1917
# 3 29.2507 47.1475 103.6938 -15.9928 -7.8236 -12.4741
# 4 -1.4113 -24.3621 -15.9928 47.7456 3.7098 -1.2738
# 5 0.3807 -4.4299 -7.8236 3.7098 35.2127 4.2203
# 6 -15.2441 -3.1917 -12.4741 -1.2738 4.2203 41.8274
#
#
#
# Elastic Compliance Matrix: (Units=1/GPa)
#
#
# Indices 1 2 3 4 5 6 
#
# 1 0.015214 -0.003644 -0.002504 -0.002007 -0.001521 0.004612
# 2 -0.003644 0.020399 -0.007222 0.007806 0.000386 -0.001726
# 3 -0.002504 -0.007222 0.014234 0.000934 0.001869 0.002621
# 4 -0.002007 0.007806 0.000934 0.025333 -0.001586 0.001074
# 5 -0.001521 0.000386 0.001869 -0.001586 0.029404 -0.002983
# 6 0.004612 -0.001726 0.002621 0.001074 -0.002983 0.026572
#
#
# Mechanical properties :
#
#
# Convention : Reuss Voigt Hill
#
# Bulk Modulus (GPa) = 43.27645 51.60597 47.44121
# Shear Modulus (GPa) = 30.19343 35.83585 33.01464
#
# Velocity S-wave (km/s) = 3.50982 3.82373 3.67013
# Velocity P-wave (km/s) = 5.83796 6.36786 6.10866
#
# Compressibility (1/GPa) = 0.02310725
#
# Stress axis : x y z
#
# Youngs Moduli (GPa) = 65.72828 49.02138 70.25331
#
# Poissons Ratio (x) = 0.17863 0.17594
# Poissons Ratio (y) = 0.23950 0.50736
# Poissons Ratio (z) = 0.16461 0.35403
#
# Static dielectric constant tensor:
#      x y z
#    x 2.068800 -0.248650 0.018480 
#    y -0.248650 2.812710 -0.034290 
#    z 0.018480 -0.034290 1.957450 
# 
# From -- ./inp_files/440965.got.cif
#   From: 2010.05.17/outbox.cif.g08.bks.cpg/sg2_221_cif.got.tgz:440965.got - 2010.06.03 11:33:40.
