data_PCOD9045342
_publ_section_title
;
Structure prediction by ZEFSAII (Michael W. Deem and Ramdas Pophale) SiO2 
 PCOD9045342
Probable space group: P -1
;
_chemical_formula_sum "Si O2"
_cell_formula_units_Z 16
_cell_length_a 5.346361
_cell_length_b 23.332932
_cell_length_c 18.741931
_cell_angle_alpha 18.592041
_cell_angle_beta 82.513904
_cell_angle_gamma 74.607166
_cell_volume 660.356051
_symmetry_space_group_name_H-M "P -1"
_symmetry_group_IT_number 2
_symmetry_cell_setting 'triclinic'
loop_
_space_group_symop_operation_xyz
x,y,z
-x,-y,-z
loop_
_atom_site_type_symbol
_atom_site_label
_atom_site_fract_x
_atom_site_fract_y
_atom_site_fract_z
Si Si1 0.110622 0.916789 0.516477
Si Si2 0.237382 0.307600 0.257862
Si Si3 0.532551 0.554370 0.232260
Si Si4 0.822877 0.425120 0.522422
Si Si5 0.856783 0.816268 0.091748
Si Si6 0.008599 0.072818 0.193503
Si Si7 0.652046 0.774219 0.365810
Si Si8 0.037527 0.290935 0.434778
O O1 0.439470 0.751884 0.704035
O O2 0.872654 0.854932 0.568873
O O3 0.000000 0.000000 0.500000
O O4 0.117272 0.065430 0.278261
O O5 0.200114 0.333763 0.313859
O O6 0.000000 0.500000 0.000000
O O7 0.616386 0.480010 0.398192
O O8 0.382968 0.416513 0.378301
O O9 0.801827 0.484830 0.253551
O O10 0.326909 0.787347 0.958999
O O11 0.768144 0.636323 0.310541
O O12 0.860852 0.271031 0.767010
O O13 0.125369 0.308569 0.608325
O O14 0.895630 0.832857 0.986210
O O15 0.637287 0.035329 0.868080
O O16 0.094893 0.845650 0.433946
O O17 0.773942 0.840168 0.351948
#
# Coordination Sequence:
#
# PCOD9045342 Si02
#       8
#     2   2   2   2   2   2   2   2
#     4  11  26  47  72 108 143 180 233 287 352 418
#     4  11  25  46  74 105 142 184 230 283 356 418
#     4  11  23  40  64  96 127 175 227 278 339 408
#     4  10  24  40  58  94 126 173 226 275 344 403
#     4  11  21  41  63  86 133 171 218 286 337 407
#     4  11  23  43  68  94 133 177 224 277 349 408
#     4  11  21  41  62  91 125 171 223 277 339 401
#     4  10  24  42  66  93 134 171 228 276 339 415
#
# _framework density 24.229354000000001
#
# number of rings (size 3 to 8) (size 9 to 14) (size 15 to 20)
#    0.000    1.250    2.500    2.625    3.500    3.000 
#    2.250    0.000    0.000    0.000    0.000    0.000 
#    0.000    0.000    0.000    0.000    0.000    0.000 
#
# Total GULP energy -89367.431761 kJ/mol
# GULP energy per Si atom -5585.464485 kJ/mol
# Density = 2.417421 g / cm^3
# Si number density = 24.229354 Si / 1000 Ang^3
#
#
#
# Elastic Constant Matrix: (Units=GPa)
#
#
# Indices 1 2 3 4 5 6 
#
# 1 63.9044 35.8423 10.4616 -3.4525 21.7136 -12.6013
# 2 35.8423 160.1833 44.6888 16.0766 22.5051 -12.3819
# 3 10.4616 44.6888 100.8465 7.2606 28.1095 -11.1225
# 4 -3.4525 16.0766 7.2606 37.0476 -1.1825 9.3143
# 5 21.7136 22.5051 28.1095 -1.1825 30.8019 -4.2334
# 6 -12.6013 -12.3819 -11.1225 9.3143 -4.2334 38.4220
#
#
#
# Elastic Compliance Matrix: (Units=1/GPa)
#
#
# Indices 1 2 3 4 5 6 
#
# 1 0.024317 -0.003912 0.004741 0.000987 -0.017762 0.005891
# 2 -0.003912 0.008510 -0.002631 -0.003963 -0.000999 0.001549
# 3 0.004741 -0.002631 0.015477 -0.003000 -0.015074 0.004254
# 4 0.000987 -0.003963 -0.003000 0.031810 0.004924 -0.008991
# 5 -0.017762 -0.000999 -0.015074 0.004924 0.058946 -0.005210
# 6 0.005891 0.001549 0.004254 -0.008991 -0.005210 0.031295
#
#
# Mechanical properties :
#
#
# Convention : Reuss Voigt Hill
#
# Bulk Modulus (GPa) = 22.37161 56.32439 39.34800
# Shear Modulus (GPa) = 26.47496 36.85039 31.66268
#
# Velocity S-wave (km/s) = 3.30916 3.90410 3.61888
# Velocity P-wave (km/s) = 4.88406 6.60450 5.80833
#
# Compressibility (1/GPa) = 0.04469952
#
# Stress axis : x y z
#
# Youngs Moduli (GPa) = 41.12433 117.51159 64.61186
#
# Poissons Ratio (x) = 0.45967 -0.30630
# Poissons Ratio (y) = 0.16087 0.16998
# Poissons Ratio (z) = -0.19495 0.30915
#
# Static dielectric constant tensor:
#      x y z
#    x 2.040310 0.007020 -0.013750 
#    y 0.007020 1.942040 0.047000 
#    z -0.013750 0.047000 1.935050 
# 
# From -- ./inp_files/49184.got.cif
#   From: 2010.05.17/outbox.cif.g08.bks.cpg/sg2_25_cif.got.tgz:49184.got - 2010.06.03 11:33:40.
