data_PCOD9045953
_publ_section_title
;
Structure prediction by ZEFSAII (Michael W. Deem and Ramdas Pophale) SiO2 
 PCOD9045953
Probable space group: P -1
;
_chemical_formula_sum "Si O2"
_cell_formula_units_Z 14
_cell_length_a 12.186310
_cell_length_b 9.499106
_cell_length_c 8.128779
_cell_angle_alpha 107.882557
_cell_angle_beta 113.739010
_cell_angle_gamma 49.499653
_cell_volume 653.573590
_symmetry_space_group_name_H-M "P -1"
_symmetry_group_IT_number 2
_symmetry_cell_setting 'triclinic'
loop_
_space_group_symop_operation_xyz
x,y,z
-x,-y,-z
loop_
_atom_site_type_symbol
_atom_site_label
_atom_site_fract_x
_atom_site_fract_y
_atom_site_fract_z
Si Si1 0.707449 0.899426 0.639344
Si Si2 0.412428 0.861310 0.663842
Si Si3 0.682779 0.024915 0.018102
Si Si4 0.710852 0.557540 0.583441
Si Si5 0.018752 0.836644 0.847229
Si Si6 0.268783 0.725088 0.713608
Si Si7 0.974258 0.343734 0.910502
O O1 0.736485 0.703357 0.583142
O O2 0.862049 0.876324 0.723546
O O3 0.615391 0.026805 0.476373
O O4 0.635028 0.992350 0.805772
O O5 0.393755 0.968652 0.857150
O O6 0.575750 0.667864 0.672750
O O7 0.288778 0.823212 0.606929
O O8 0.660427 0.220110 0.083678
O O9 0.861266 0.853552 0.081361
O O10 0.665981 0.476589 0.385096
O O11 0.862099 0.396624 0.711694
O O12 0.110135 0.802080 0.725450
O O13 0.093185 0.668727 0.963768
O O14 0.000000 0.000000 0.000000
O O15 0.000000 0.500000 0.000000
#
# Coordination Sequence:
#
# PCOD9045953 Si02
#       7
#     2   2   2   2   2   2   2
#     4  11  23  44  70  95 136 175 225 273 331 394
#     4  10  25  46  68  94 141 179 218 270 338 400
#     4   9  22  44  66  95 128 177 224 254 340 391
#     4  12  25  43  66 102 136 170 224 284 327 392
#     4  11  21  42  67  98 125 175 225 270 325 398
#     4  10  24  42  65 100 132 175 228 263 341 395
#     4  11  22  43  67  99 133 165 227 284 322 387
#
# _framework density 21.420694000000001
#
# number of rings (size 3 to 8) (size 9 to 14) (size 15 to 20)
#    0.857    0.571    5.714    0.857    4.000    3.429 
#    2.571    1.429    0.000    0.000    0.000    0.000 
#    0.000    0.000    0.000    0.000    0.000    0.000 
#
# Total GULP energy -78017.836383 kJ/mol
# GULP energy per Si atom -5572.702599 kJ/mol
# Density = 2.137194 g / cm^3
# Si number density = 21.420694 Si / 1000 Ang^3
#
#
#
# Elastic Constant Matrix: (Units=GPa)
#
#
# Indices 1 2 3 4 5 6 
#
# 1 97.5549 47.6536 47.1127 -8.5038 -17.7579 6.2839
# 2 47.6536 59.6611 58.5175 13.8782 0.9474 15.7221
# 3 47.1127 58.5175 107.3724 11.1285 -9.8643 8.8869
# 4 -8.5038 13.8782 11.1285 17.5274 -0.6457 -0.8380
# 5 -17.7579 0.9474 -9.8643 -0.6457 36.3525 14.8195
# 6 6.2839 15.7221 8.8869 -0.8380 14.8195 35.2054
#
#
#
# Elastic Compliance Matrix: (Units=1/GPa)
#
#
# Indices 1 2 3 4 5 6 
#
# 1 0.052462 -0.074494 0.010930 0.079054 0.027223 0.011567
# 2 -0.074494 0.155743 -0.038866 -0.137829 -0.040043 -0.032869
# 3 0.010930 -0.038866 0.024078 0.021446 0.011173 0.005135
# 4 0.079054 -0.137829 0.021446 0.193810 0.039181 0.030149
# 5 0.027223 -0.040043 0.011173 0.039181 0.049540 -0.009718
# 6 0.011567 -0.032869 0.005135 0.030149 -0.009718 0.044531
#
#
# Mechanical properties :
#
#
# Convention : Reuss Voigt Hill
#
# Bulk Modulus (GPa) = 36.46551 63.46180 49.96366
# Shear Modulus (GPa) = 6.81045 25.23736 16.02390
#
# Velocity S-wave (km/s) = 1.78502 3.43618 2.73803
# Velocity P-wave (km/s) = 4.61615 6.74046 5.77679
#
# Compressibility (1/GPa) = 0.02742317
#
# Stress axis : x y z
#
# Youngs Moduli (GPa) = 19.06124 6.42083 41.53119
#
# Poissons Ratio (x) = 0.47831 -0.45392
# Poissons Ratio (y) = 1.41994 1.61416
# Poissons Ratio (z) = -0.20833 0.24955
#
# Static dielectric constant tensor:
#      x y z
#    x 1.820470 0.013320 0.007970 
#    y 0.013320 1.795740 0.009730 
#    z 0.007970 0.009730 1.788160 
# 
# From -- ./inp_files/244617.got.cif
#   From: 2010.05.17/outbox.cif.g08.bks.cpg/sg2_123_cif.got.tgz:244617.got - 2010.06.03 11:33:40.
