data_PCOD9045631
_publ_section_title
;
Structure prediction by ZEFSAII (Michael W. Deem and Ramdas Pophale) SiO2 
 PCOD9045631
Probable space group: P -1
;
_chemical_formula_sum "Si O2"
_cell_formula_units_Z 16
_cell_length_a 28.791063
_cell_length_b 6.295770
_cell_length_c 12.489624
_cell_angle_alpha 55.872108
_cell_angle_beta 26.090433
_cell_angle_gamma 47.918893
_cell_volume 733.148288
_symmetry_space_group_name_H-M "P -1"
_symmetry_group_IT_number 2
_symmetry_cell_setting 'triclinic'
loop_
_space_group_symop_operation_xyz
x,y,z
-x,-y,-z
loop_
_atom_site_type_symbol
_atom_site_label
_atom_site_fract_x
_atom_site_fract_y
_atom_site_fract_z
Si Si1 0.445602 0.187649 0.842842
Si Si2 0.329852 0.850882 0.682997
Si Si3 0.832518 0.573022 0.035961
Si Si4 0.227656 0.892928 0.647859
Si Si5 0.612140 0.546653 0.729912
Si Si6 0.755266 0.597087 0.944613
Si Si7 0.050661 0.699037 0.541192
Si Si8 0.754883 0.556006 0.630802
O O1 0.529462 0.318532 0.585358
O O2 0.550250 0.889170 0.750787
O O3 0.366080 0.149348 0.923669
O O4 0.353730 0.335605 0.088505
O O5 0.265170 0.907218 0.686930
O O6 0.282348 0.161973 0.748988
O O7 0.280685 0.665377 0.905753
O O8 0.858808 0.258195 0.116078
O O9 0.800988 0.604524 0.966093
O O10 0.944110 0.630224 0.810598
O O11 0.332033 0.643131 0.435823
O O12 0.209131 0.188584 0.545549
O O13 0.709911 0.463379 0.644093
O O14 0.500000 0.500000 0.000000
O O15 0.858588 0.534998 0.663477
O O16 0.130293 0.689471 0.480324
O O17 0.000000 0.000000 0.500000
#
# Coordination Sequence:
#
# PCOD9045631 Si02
#       8
#     2   2   2   2   2   2   2   2
#     4  11  21  39  63  96 133 167 204 264 319 381
#     4  11  21  41  64  94 134 168 209 264 321 379
#     4  11  23  42  68  91 126 175 217 264 315 376
#     4  11  22  41  64  95 131 167 214 259 315 382
#     4  12  22  39  65  98 132 167 209 257 320 387
#     4  10  24  41  64  95 126 168 218 260 322 381
#     4  11  24  47  69  90 128 169 215 276 316 368
#     4  11  24  43  65  97 130 170 214 258 323 379
#
# _framework density 21.823688000000001
#
# number of rings (size 3 to 8) (size 9 to 14) (size 15 to 20)
#    0.000    1.000    5.000    1.875    0.000    2.000 
#    4.500    2.500    0.000    0.000    0.000    0.000 
#    0.000    0.000    0.000    0.000    0.000    0.000 
#
# Total GULP energy -89258.492861 kJ/mol
# GULP energy per Si atom -5578.655804 kJ/mol
# Density = 2.177402 g / cm^3
# Si number density = 21.823688 Si / 1000 Ang^3
#
#
#
# Elastic Constant Matrix: (Units=GPa)
#
#
# Indices 1 2 3 4 5 6 
#
# 1 56.7346 11.8475 1.1213 6.6161 -4.3020 -11.5140
# 2 11.8475 36.4159 -3.0329 -18.9026 -10.9938 -8.5929
# 3 1.1213 -3.0329 85.0183 -17.2951 -9.0906 -6.7330
# 4 6.6161 -18.9026 -17.2951 31.2267 -0.2359 1.3938
# 5 -4.3020 -10.9938 -9.0906 -0.2359 33.0576 4.4109
# 6 -11.5140 -8.5929 -6.7330 1.3938 4.4109 29.9769
#
#
#
# Elastic Compliance Matrix: (Units=1/GPa)
#
#
# Indices 1 2 3 4 5 6 
#
# 1 0.024708 -0.019755 -0.005439 -0.020443 -0.005580 0.004377
# 2 -0.019755 0.079977 0.020031 0.063338 0.028288 0.012730
# 3 -0.005439 0.020031 0.018898 0.023591 0.010620 0.005238
# 4 -0.020443 0.063338 0.023591 0.087593 0.024458 0.007931
# 5 -0.005580 0.028288 0.010620 0.024458 0.041887 0.001050
# 6 0.004377 0.012730 0.005238 0.007931 0.001050 0.039342
#
#
# Mechanical properties :
#
#
# Convention : Reuss Voigt Hill
#
# Bulk Modulus (GPa) = 8.82948 22.00452 15.41700
# Shear Modulus (GPa) = 14.68505 30.06777 22.37641
#
# Velocity S-wave (km/s) = 2.59684 3.71584 3.20555
# Velocity P-wave (km/s) = 3.61193 5.33992 4.55855
#
# Compressibility (1/GPa) = 0.11325698
#
# Stress axis : x y z
#
# Youngs Moduli (GPa) = 40.47284 12.50363 52.91581
#
# Poissons Ratio (x) = 0.24701 0.28783
# Poissons Ratio (y) = 0.79953 -1.05997
# Poissons Ratio (z) = 0.22014 -0.25046
#
# Static dielectric constant tensor:
#      x y z
#    x 1.789970 -0.007030 -0.034850 
#    y -0.007030 2.123420 -0.284660 
#    z -0.034850 -0.284660 2.030520 
# 
# From -- ./inp_files/68510.got.cif
#   From: 2010.05.17/outbox.cif.g08.bks.cpg/sg2_35_cif.got.tgz:68510.got - 2010.06.03 11:33:40.
