data_PCOD9045442
_publ_section_title
;
Structure prediction by ZEFSAII (Michael W. Deem and Ramdas Pophale) SiO2 
 PCOD9045442
Probable space group: P -1
;
_chemical_formula_sum "Si O2"
_cell_formula_units_Z 14
_cell_length_a 13.835970
_cell_length_b 14.477042
_cell_length_c 9.106733
_cell_angle_alpha 150.665650
_cell_angle_beta 126.697625
_cell_angle_gamma 43.070130
_cell_volume 606.046830
_symmetry_space_group_name_H-M "P -1"
_symmetry_group_IT_number 2
_symmetry_cell_setting 'triclinic'
loop_
_space_group_symop_operation_xyz
x,y,z
-x,-y,-z
loop_
_atom_site_type_symbol
_atom_site_label
_atom_site_fract_x
_atom_site_fract_y
_atom_site_fract_z
Si Si1 0.536784 0.887208 0.217713
Si Si2 0.038990 0.243601 0.278054
Si Si3 0.635628 0.303254 0.265949
Si Si4 0.969802 0.678402 0.956464
Si Si5 0.757046 0.359574 0.714213
Si Si6 0.784173 0.202836 0.997583
Si Si7 0.715047 0.032730 0.407755
O O1 0.592257 0.995444 0.302310
O O2 0.500000 0.000000 0.500000
O O3 0.399389 0.889200 0.036206
O O4 0.659858 0.627461 0.997854
O O5 0.040855 0.415018 0.630828
O O6 0.083102 0.241654 0.147457
O O7 0.130167 0.003509 0.099667
O O8 0.875765 0.311724 0.207549
O O9 0.500000 0.500000 0.500000
O O10 0.766137 0.284638 0.449667
O O11 0.643880 0.359911 0.182498
O O12 0.093074 0.716262 0.178590
O O13 0.839783 0.807097 0.130081
O O14 0.688776 0.231910 0.552190
O O15 0.764590 0.100084 0.692298
#
# Coordination Sequence:
#
# PCOD9045442 Si02
#       7
#     2   2   2   2   2   2   2
#     4  11  25  47  67  99 132 175 233 275 324 394
#     4  10  24  40  66  98 140 171 216 277 336 405
#     4  10  24  44  66  92 136 177 222 278 324 392
#     4  11  24  43  64 105 135 171 221 276 337 402
#     4  11  25  45  69  97 138 177 217 283 334 393
#     4  11  22  41  67  99 131 181 218 270 343 392
#     4  12  25  43  72 102 134 177 221 274 339 399
#
# _framework density 23.100527
#
# number of rings (size 3 to 8) (size 9 to 14) (size 15 to 20)
#    0.000    1.143    2.857    2.143    8.000    2.286 
#    0.000    0.000    0.000    0.000    0.000    0.000 
#    0.000    0.000    0.000    0.000    0.000    0.000 
#
# Total GULP energy -78180.157174 kJ/mol
# GULP energy per Si atom -5584.296941 kJ/mol
# Density = 2.304795 g / cm^3
# Si number density = 23.100527 Si / 1000 Ang^3
#
#
#
# Elastic Constant Matrix: (Units=GPa)
#
#
# Indices 1 2 3 4 5 6 
#
# 1 109.3425 -1.8866 41.7058 -16.2664 -12.5437 -5.2524
# 2 -1.8866 41.3558 25.5531 -9.0267 -5.3011 -0.8718
# 3 41.7058 25.5531 166.0745 -29.1501 -20.4271 -1.5515
# 4 -16.2664 -9.0267 -29.1501 39.7573 0.7554 5.3139
# 5 -12.5437 -5.3011 -20.4271 0.7554 48.8555 -10.1541
# 6 -5.2524 -0.8718 -1.5515 5.3139 -10.1541 30.3350
#
#
#
# Elastic Compliance Matrix: (Units=1/GPa)
#
#
# Indices 1 2 3 4 5 6 
#
# 1 0.010947 0.002991 -0.002327 0.003112 0.002566 0.002176
# 2 0.002991 0.028080 -0.003991 0.004481 0.002307 0.001108
# 3 -0.002327 -0.003991 0.008234 0.004140 0.002340 -0.000038
# 4 0.003112 0.004481 0.004140 0.030977 0.001711 -0.003974
# 5 0.002566 0.002307 0.002340 0.001711 0.024073 0.008389
# 6 0.002176 0.001108 -0.000038 -0.003974 0.008389 0.036876
#
#
# Mechanical properties :
#
#
# Convention : Reuss Voigt Hill
#
# Bulk Modulus (GPa) = 24.62619 49.72415 37.17517
# Shear Modulus (GPa) = 31.37226 40.54961 35.96094
#
# Velocity S-wave (km/s) = 3.68921 4.19424 3.94980
# Velocity P-wave (km/s) = 5.36941 6.71024 6.07692
#
# Compressibility (1/GPa) = 0.04060718
#
# Stress axis : x y z
#
# Youngs Moduli (GPa) = 91.35176 35.61247 121.44855
#
# Poissons Ratio (x) = -0.10653 0.28261
# Poissons Ratio (y) = -0.27326 0.48471
# Poissons Ratio (z) = 0.21258 0.14213
#
# Static dielectric constant tensor:
#      x y z
#    x 1.967370 -0.039590 -0.031350 
#    y -0.039590 1.926030 0.025860 
#    z -0.031350 0.025860 1.872010 
# 
# From -- ./inp_files/204496.got.cif
#   From: 2010.05.17/outbox.cif.g08.bks.cpg/sg2_103_cif.got.tgz:204496.got - 2010.06.03 11:33:40.
