data_PCOD9045937
_publ_section_title
;
Structure prediction by ZEFSAII (Michael W. Deem and Ramdas Pophale) SiO2 
 PCOD9045937
Probable space group: P -1
;
_chemical_formula_sum "Si O2"
_cell_formula_units_Z 14
_cell_length_a 11.712102
_cell_length_b 16.483146
_cell_length_c 7.203999
_cell_angle_alpha 52.427702
_cell_angle_beta 94.890443
_cell_angle_gamma 136.951952
_cell_volume 561.243921
_symmetry_space_group_name_H-M "P -1"
_symmetry_group_IT_number 2
_symmetry_cell_setting 'triclinic'
loop_
_space_group_symop_operation_xyz
x,y,z
-x,-y,-z
loop_
_atom_site_type_symbol
_atom_site_label
_atom_site_fract_x
_atom_site_fract_y
_atom_site_fract_z
Si Si1 0.984578 0.641108 0.407616
Si Si2 0.657863 0.143728 0.583439
Si Si3 0.825716 0.296906 0.998535
Si Si4 0.208842 0.374048 0.294231
Si Si5 0.498837 0.748294 0.554920
Si Si6 0.457709 0.526749 0.645738
Si Si7 0.026402 0.899036 0.671749
O O1 0.231766 0.831608 0.267028
O O2 0.016941 0.654567 0.173718
O O3 0.885757 0.458197 0.725341
O O4 0.852628 0.629379 0.507448
O O5 0.609656 0.224062 0.518921
O O6 0.826946 0.276683 0.245296
O O7 0.429127 0.918133 0.798378
O O8 0.365591 0.394942 0.304273
O O9 0.990876 0.172169 0.429097
O O10 0.349697 0.567779 0.931842
O O11 0.504956 0.683609 0.460270
O O12 0.746821 0.949369 0.396675
O O13 0.500000 0.500000 0.500000
O O14 0.202892 0.310047 0.969148
O O15 0.000000 0.000000 0.500000
#
# Coordination Sequence:
#
# PCOD9045937 Si02
#       7
#     2   2   2   2   2   2   2
#     4  11  24  43  67  97 138 174 216 276 331 387
#     4  11  24  43  67  98 134 174 227 264 328 398
#     4  10  24  42  64  95 134 176 223 267 325 391
#     4  11  23  41  68  97 130 173 220 267 334 390
#     4  11  23  43  68  97 128 177 218 269 327 397
#     4  11  25  44  65 101 134 163 217 279 331 390
#     4  11  21  43  69  86 128 176 218 260 324 391
#
# _framework density 24.944590999999999
#
# number of rings (size 3 to 8) (size 9 to 14) (size 15 to 20)
#    0.000    1.143    4.286    1.714    4.000    5.143 
#    2.571    0.000    0.000    0.000    0.000    0.000 
#    0.000    0.000    0.000    0.000    0.000    0.000 
#
# Total GULP energy -78495.169559 kJ/mol
# GULP energy per Si atom -5606.797826 kJ/mol
# Density = 2.488782 g / cm^3
# Si number density = 24.944591 Si / 1000 Ang^3
#
#
#
# Elastic Constant Matrix: (Units=GPa)
#
#
# Indices 1 2 3 4 5 6 
#
# 1 138.9940 38.3942 14.8370 2.3482 -20.7572 -16.9430
# 2 38.3942 150.8826 48.4878 2.0144 -19.4037 -31.0548
# 3 14.8370 48.4878 75.4085 -5.2325 -11.0353 -14.1310
# 4 2.3482 2.0144 -5.2325 56.4438 -6.8644 -11.6728
# 5 -20.7572 -19.4037 -11.0353 -6.8644 29.8130 3.2984
# 6 -16.9430 -31.0548 -14.1310 -11.6728 3.2984 44.7962
#
#
#
# Elastic Compliance Matrix: (Units=1/GPa)
#
#
# Indices 1 2 3 4 5 6 
#
# 1 0.008531 -0.001116 0.000315 0.000847 0.005261 0.002386
# 2 -0.001116 0.009848 -0.004634 0.000702 0.003541 0.004866
# 3 0.000315 -0.004634 0.017505 0.002859 0.004023 0.002877
# 4 0.000847 0.000702 0.002859 0.019990 0.005991 0.006477
# 5 0.005261 0.003541 0.004023 0.005991 0.041915 0.004189
# 6 0.002386 0.004866 0.002877 0.006477 0.004189 0.028886
#
#
# Mechanical properties :
#
#
# Convention : Reuss Voigt Hill
#
# Bulk Modulus (GPa) = 39.97686 63.19147 51.58416
# Shear Modulus (GPa) = 34.27371 43.78167 39.02769
#
# Velocity S-wave (km/s) = 3.71076 4.19400 3.95976
# Velocity P-wave (km/s) = 5.86692 6.98861 6.45218
#
# Compressibility (1/GPa) = 0.02501447
#
# Stress axis : x y z
#
# Youngs Moduli (GPa) = 117.21389 101.54050 57.12563
#
# Poissons Ratio (x) = 0.11328 -0.01797
# Poissons Ratio (y) = 0.13077 0.26473
# Poissons Ratio (z) = -0.03688 0.47056
#
# Static dielectric constant tensor:
#      x y z
#    x 1.948290 0.021870 -0.014680 
#    y 0.021870 2.041830 0.027310 
#    z -0.014680 0.027310 1.953760 
# 
# From -- ./inp_files/88746.got.cif
#   From: 2010.05.17/outbox.cif.g08.bks.cpg/sg2_45_cif.got.tgz:88746.got - 2010.06.03 11:33:40.
