data_PCOD9045492
_publ_section_title
;
Structure prediction by ZEFSAII (Michael W. Deem and Ramdas Pophale) SiO2 
 PCOD9045492
Probable space group: P -1
;
_chemical_formula_sum "Si O2"
_cell_formula_units_Z 14
_cell_length_a 12.867503
_cell_length_b 17.882640
_cell_length_c 7.436863
_cell_angle_alpha 35.924272
_cell_angle_beta 131.715963
_cell_angle_gamma 141.884462
_cell_volume 617.834132
_symmetry_space_group_name_H-M "P -1"
_symmetry_group_IT_number 2
_symmetry_cell_setting 'triclinic'
loop_
_space_group_symop_operation_xyz
x,y,z
-x,-y,-z
loop_
_atom_site_type_symbol
_atom_site_label
_atom_site_fract_x
_atom_site_fract_y
_atom_site_fract_z
Si Si1 0.363336 0.881514 0.716536
Si Si2 0.315887 0.011340 0.930789
Si Si3 0.933189 0.325645 0.826319
Si Si4 0.168596 0.578340 0.152680
Si Si5 0.810905 0.959019 0.894923
Si Si6 0.267220 0.454204 0.827433
Si Si7 0.599192 0.748200 0.744401
O O1 0.215816 0.910023 0.465099
O O2 0.500000 0.000000 0.500000
O O3 0.491967 0.935972 0.925007
O O4 0.315228 0.710626 0.941733
O O5 0.322767 0.102353 0.584452
O O6 0.192522 0.825527 0.138142
O O7 0.245790 0.058580 0.927231
O O8 0.842687 0.309524 0.938510
O O9 0.000000 0.500000 0.500000
O O10 0.112433 0.349301 0.988380
O O11 0.203494 0.476535 0.516502
O O12 0.000000 0.500000 0.000000
O O13 0.676596 0.810262 0.909440
O O14 0.000000 0.000000 0.000000
O O15 0.396788 0.625825 0.724403
O O16 0.342673 0.357259 0.060004
#
# Coordination Sequence:
#
# PCOD9045492 Si02
#       7
#     2   2   2   2   2   2   2
#     4  10  24  41  70 100 135 176 232 289 336 417
#     4  11  24  47  71 102 137 187 237 285 354 414
#     4  10  24  40  68  97 139 175 224 291 350 408
#     4  11  24  41  70 101 136 180 228 286 353 415
#     4  11  26  41  71 103 138 178 233 287 345 416
#     4  10  24  46  65 102 141 180 230 286 352 411
#     4  11  24  46  72  96 143 186 231 289 343 421
#
# _framework density 22.659803
#
# number of rings (size 3 to 8) (size 9 to 14) (size 15 to 20)
#    0.000    1.429    1.429    1.714   14.000    5.714 
#    0.000    1.429    0.000    0.000    0.000    0.000 
#    0.000    0.000    0.000    0.000    0.000    0.000 
#
# Total GULP energy -78000.976398 kJ/mol
# GULP energy per Si atom -5571.498314 kJ/mol
# Density = 2.260823 g / cm^3
# Si number density = 22.659803 Si / 1000 Ang^3
#
#
#
# Elastic Constant Matrix: (Units=GPa)
#
#
# Indices 1 2 3 4 5 6 
#
# 1 72.6652 34.6335 6.9676 11.5108 14.3002 -0.1764
# 2 34.6335 169.8701 20.3304 -0.1160 -0.4412 1.1952
# 3 6.9676 20.3304 76.5940 0.9250 13.1642 11.0985
# 4 11.5108 -0.1160 0.9250 35.7543 4.8624 3.5354
# 5 14.3002 -0.4412 13.1642 4.8624 22.6592 4.7527
# 6 -0.1764 1.1952 11.0985 3.5354 4.7527 40.8632
#
#
#
# Elastic Compliance Matrix: (Units=1/GPa)
#
#
# Indices 1 2 3 4 5 6 
#
# 1 0.018617 -0.003988 0.001228 -0.004582 -0.011902 0.001644
# 2 -0.003988 0.006964 -0.002114 0.000870 0.003727 -0.000155
# 3 0.001228 -0.002114 0.015560 0.000779 -0.009365 -0.003137
# 4 -0.004582 0.000870 0.000779 0.030145 -0.003497 -0.002458
# 5 -0.011902 0.003727 -0.009365 -0.003497 0.058778 -0.004151
# 6 0.001644 -0.000155 -0.003137 -0.002458 -0.004151 0.026031
#
#
# Mechanical properties :
#
#
# Convention : Reuss Voigt Hill
#
# Bulk Modulus (GPa) = 31.85550 49.22138 40.53844
# Shear Modulus (GPa) = 28.35933 37.00185 32.68059
#
# Velocity S-wave (km/s) = 3.54153 4.04534 3.80179
# Velocity P-wave (km/s) = 5.55085 6.60217 6.09921
#
# Compressibility (1/GPa) = 0.03139175
#
# Stress axis : x y z
#
# Youngs Moduli (GPa) = 53.71449 143.58776 64.26699
#
# Poissons Ratio (x) = 0.57266 -0.07890
# Poissons Ratio (y) = 0.21422 0.13588
# Poissons Ratio (z) = -0.06594 0.30358
#
# Static dielectric constant tensor:
#      x y z
#    x 2.096460 0.042520 -0.202090 
#    y 0.042520 1.891170 -0.017620 
#    z -0.202090 -0.017620 2.097800 
# 
# From -- ./inp_files/318832.got.cif
#   From: 2010.05.17/outbox.cif.g08.bks.cpg/sg2_160_cif.got.tgz:318832.got - 2010.06.03 11:33:40.
