data_PCOD9045578
_publ_section_title
;
Structure prediction by ZEFSAII (Michael W. Deem and Ramdas Pophale) SiO2 
 PCOD9045578
Probable space group: P -1
;
_chemical_formula_sum "Si O2"
_cell_formula_units_Z 12
_cell_length_a 7.970589
_cell_length_b 7.996505
_cell_length_c 13.334289
_cell_angle_alpha 76.575640
_cell_angle_beta 102.474047
_cell_angle_gamma 145.169846
_cell_volume 471.650957
_symmetry_space_group_name_H-M "P -1"
_symmetry_group_IT_number 2
_symmetry_cell_setting 'triclinic'
loop_
_space_group_symop_operation_xyz
x,y,z
-x,-y,-z
loop_
_atom_site_type_symbol
_atom_site_label
_atom_site_fract_x
_atom_site_fract_y
_atom_site_fract_z
Si Si1 0.477622 0.363042 0.113807
Si Si2 0.533532 0.181931 0.758627
Si Si3 0.867816 0.358704 0.110758
Si Si4 0.183880 0.817293 0.458361
Si Si5 0.003138 0.791260 0.636435
Si Si6 0.962139 0.867001 0.252191
O O1 0.628329 0.306386 0.113951
O O2 0.645691 0.568531 0.206463
O O3 0.150170 0.070233 0.151117
O O4 0.500000 0.500000 0.000000
O O5 0.845046 0.381687 0.818513
O O6 0.684410 0.455543 0.670765
O O7 0.309515 0.967292 0.855801
O O8 0.289807 0.906346 0.689090
O O9 0.000000 0.500000 0.000000
O O10 0.059332 0.854042 0.517525
O O11 0.121366 0.841630 0.336622
O O12 0.000000 0.500000 0.500000
O O13 0.500000 0.000000 0.500000
O O14 0.049398 0.989913 0.688114
#
# Coordination Sequence:
#
# PCOD9045578 Si02
#       6
#     2   2   2   2   2   2
#     4  12  29  47  74 108 150 196 251 299 369 438
#     4  10  24  40  75 103 140 189 243 296 363 429
#     4  11  25  44  73 101 148 187 259 302 365 419
#     4  12  28  46  79 113 146 189 250 307 369 438
#     4  11  25  47  76 105 153 189 244 289 384 442
#     4  12  28  50  75 107 155 196 241 306 372 442
#
# _framework density 25.442543000000001
#
# number of rings (size 3 to 8) (size 9 to 14) (size 15 to 20)
#    0.000    0.667    0.000    5.500   21.000    0.000 
#    0.000    5.000    0.000    0.000    0.000    0.000 
#    0.000    0.000    0.000    0.000    0.000    0.000 
#
# Total GULP energy -66902.973056 kJ/mol
# GULP energy per Si atom -5575.247755 kJ/mol
# Density = 2.538463 g / cm^3
# Si number density = 25.442543 Si / 1000 Ang^3
#
#
#
# Elastic Constant Matrix: (Units=GPa)
#
#
# Indices 1 2 3 4 5 6 
#
# 1 82.4086 23.2098 33.0002 -12.9468 -6.5909 6.9925
# 2 23.2098 160.0135 14.8865 -1.9794 3.2717 29.5953
# 3 33.0002 14.8865 132.6885 -11.1480 3.7515 0.7079
# 4 -12.9468 -1.9794 -11.1480 21.8550 1.5094 -3.7482
# 5 -6.5909 3.2717 3.7515 1.5094 55.8855 3.0808
# 6 6.9925 29.5953 0.7079 -3.7482 3.0808 36.5708
#
#
#
# Elastic Compliance Matrix: (Units=1/GPa)
#
#
# Indices 1 2 3 4 5 6 
#
# 1 0.015164 -0.001701 -0.003044 0.006985 0.001954 -0.000913
# 2 -0.001701 0.007638 -0.000529 -0.001597 -0.000239 -0.005989
# 3 -0.003044 -0.000529 0.008613 0.002824 -0.001050 0.001222
# 4 0.006985 -0.001597 0.002824 0.052172 -0.000975 0.005331
# 5 0.001954 -0.000239 -0.001050 -0.000975 0.018334 -0.001804
# 6 -0.000913 -0.005989 0.001222 0.005331 -0.001804 0.033041
#
#
# Mechanical properties :
#
#
# Convention : Reuss Voigt Hill
#
# Bulk Modulus (GPa) = 47.92326 57.47819 52.70073
# Shear Modulus (GPa) = 32.79411 43.12985 37.96198
#
# Velocity S-wave (km/s) = 3.59409 4.12173 3.86692
# Velocity P-wave (km/s) = 6.00833 6.72993 6.37934
#
# Compressibility (1/GPa) = 0.02086669
#
# Stress axis : x y z
#
# Youngs Moduli (GPa) = 65.94687 130.91805 116.09885
#
# Poissons Ratio (x) = 0.22270 0.35340
# Poissons Ratio (y) = 0.11218 0.06145
# Poissons Ratio (z) = 0.20074 0.06930
#
# Static dielectric constant tensor:
#      x y z
#    x 2.181390 0.023480 0.012030 
#    y 0.023480 1.802340 0.004030 
#    z 0.012030 0.004030 2.117950 
# 
# From -- ./inp_files/492789.got.cif
#   From: 2010.05.17/outbox.cif.g08.bks.cpg/sg2_247_cif.got.tgz:492789.got - 2010.06.03 11:33:40.
