data_PCOD9045156
_publ_section_title
;
Structure prediction by ZEFSAII (Michael W. Deem and Ramdas Pophale) SiO2 
 PCOD9045156
Probable space group: P -1
;
_chemical_formula_sum "Si O2"
_cell_formula_units_Z 11
_cell_length_a 9.166668
_cell_length_b 8.706177
_cell_length_c 10.005283
_cell_angle_alpha 72.318009
_cell_angle_beta 69.873172
_cell_angle_gamma 31.527809
_cell_volume 391.953004
_symmetry_space_group_name_H-M "P -1"
_symmetry_group_IT_number 2
_symmetry_cell_setting 'triclinic'
loop_
_space_group_symop_operation_xyz
x,y,z
-x,-y,-z
loop_
_atom_site_type_symbol
_atom_site_label
_atom_site_fract_x
_atom_site_fract_y
_atom_site_fract_z
Si Si1 0.675516 0.669298 0.672559
Si Si2 0.687418 0.852378 0.113711
Si Si3 0.705537 0.270175 0.764045
Si Si4 0.117440 0.748555 0.938710
Si Si5 0.815741 0.525358 0.386379
Si Si6 0.000000 0.000000 0.500000
O O1 0.746188 0.422321 0.743280
O O2 0.594994 0.742832 0.521271
O O3 0.944280 0.547487 0.644663
O O4 0.451869 0.918961 0.786018
O O5 0.030015 0.292972 0.972340
O O6 0.720815 0.653944 0.232791
O O7 0.500000 0.000000 0.000000
O O8 0.450819 0.440285 0.895332
O O9 0.690123 0.260899 0.613498
O O10 0.997367 0.923257 0.791171
O O11 0.000000 0.000000 0.000000
O O12 0.961907 0.228383 0.443604
#
# Coordination Sequence:
#
# PCOD9045156 Si02
#       6
#     2   2   2   2   2   1
#     4  10  23  49  83 115 156 224 285 341 410 500
#     4  12  28  46  81 126 171 213 269 356 429 497
#     4  11  26  50  82 120 157 219 280 341 415 497
#     4  12  26  49  82 116 168 220 276 332 421 519
#     4  10  24  51  81 114 162 220 286 342 414 508
#     4  10  26  54  80 114 160 214 282 346 410 480
#
# _framework density 28.064589999999999
#
# number of rings (size 3 to 8) (size 9 to 14) (size 15 to 20)
#    0.000    1.091    1.818    2.182    5.091    2.909 
#    9.818    0.909    0.000    0.000    0.000    0.000 
#    0.000    0.000    0.000    0.000    0.000    0.000 
#
# Total GULP energy -61404.400043 kJ/mol
# GULP energy per Si atom -5582.218186 kJ/mol
# Density = 2.800071 g / cm^3
# Si number density = 28.064590 Si / 1000 Ang^3
#
#
#
# Elastic Constant Matrix: (Units=GPa)
#
#
# Indices 1 2 3 4 5 6 
#
# 1 126.6989 53.2456 87.5091 -6.0007 -27.8209 22.7108
# 2 53.2456 162.4683 54.1360 9.3855 -16.8027 38.6383
# 3 87.5091 54.1360 131.1687 18.4079 -9.6607 20.3089
# 4 -6.0007 9.3855 18.4079 75.4296 5.6701 -11.9605
# 5 -27.8209 -16.8027 -9.6607 5.6701 68.2195 -10.9674
# 6 22.7108 38.6383 20.3089 -11.9605 -10.9674 44.8191
#
#
#
# Elastic Compliance Matrix: (Units=1/GPa)
#
#
# Indices 1 2 3 4 5 6 
#
# 1 0.017669 -0.001747 -0.011256 0.003991 0.004834 -0.000099
# 2 -0.001747 0.008856 -0.001137 -0.002054 0.000404 -0.006684
# 3 -0.011256 -0.001137 0.016554 -0.005044 -0.002555 -0.002789
# 4 0.003991 -0.002054 -0.005044 0.016060 0.000092 0.006342
# 5 0.004834 0.000404 -0.002555 0.000092 0.016760 0.002486
# 6 -0.000099 -0.006684 -0.002789 0.006342 0.002486 0.031689
#
#
# Mechanical properties :
#
#
# Convention : Reuss Voigt Hill
#
# Bulk Modulus (GPa) = 67.56768 90.01305 78.79037
# Shear Modulus (GPa) = 35.51132 52.72333 44.11732
#
# Velocity S-wave (km/s) = 3.56102 4.33903 3.96914
# Velocity P-wave (km/s) = 6.40593 7.56612 7.01006
#
# Compressibility (1/GPa) = 0.01479997
#
# Stress axis : x y z
#
# Youngs Moduli (GPa) = 56.59508 112.91236 60.41004
#
# Poissons Ratio (x) = 0.19730 0.67996
# Poissons Ratio (y) = 0.09889 0.06866
# Poissons Ratio (z) = 0.63702 0.12834
#
# Static dielectric constant tensor:
#      x y z
#    x 2.187710 -0.045060 0.183960 
#    y -0.045060 2.179670 -0.072090 
#    z 0.183960 -0.072090 2.510390 
# 
# From -- ./inp_files/412079.got.cif
#   From: 2010.05.17/outbox.cif.g08.bks.cpg/sg2_207_cif.got.tgz:412079.got - 2010.06.03 11:33:40.
