data_PCOD9045851
_publ_section_title
;
Structure prediction by ZEFSAII (Michael W. Deem and Ramdas Pophale) SiO2 
 PCOD9045851
Probable space group: P -1
;
_chemical_formula_sum "Si O2"
_cell_formula_units_Z 16
_cell_length_a 9.583645
_cell_length_b 20.821044
_cell_length_c 14.890387
_cell_angle_alpha 19.295857
_cell_angle_beta 87.791413
_cell_angle_gamma 75.833108
_cell_volume 761.084289
_symmetry_space_group_name_H-M "P -1"
_symmetry_group_IT_number 2
_symmetry_cell_setting 'triclinic'
loop_
_space_group_symop_operation_xyz
x,y,z
-x,-y,-z
loop_
_atom_site_type_symbol
_atom_site_label
_atom_site_fract_x
_atom_site_fract_y
_atom_site_fract_z
Si Si1 0.725771 0.108063 0.176922
Si Si2 0.563706 0.665196 0.448880
Si Si3 0.419980 0.269224 0.846662
Si Si4 0.903571 0.066127 0.609923
Si Si5 0.255506 0.013806 0.136817
Si Si6 0.939243 0.474099 0.760006
Si Si7 0.068582 0.733635 0.312852
Si Si8 0.006145 0.667509 0.850555
O O1 0.910584 0.011309 0.250136
O O2 0.805426 0.935055 0.491633
O O3 0.623627 0.393774 0.826126
O O4 0.596609 0.102519 0.123058
O O5 0.536946 0.712862 0.280415
O O6 0.735514 0.643357 0.503788
O O7 0.390103 0.864175 0.248832
O O8 0.276385 0.546763 0.525260
O O9 0.319034 0.152659 0.000272
O O10 0.754574 0.154627 0.570692
O O11 0.867468 0.264296 0.275449
O O12 0.959827 0.808380 0.906981
O O13 0.054507 0.210542 0.843721
O O14 0.031464 0.591738 0.570738
O O15 0.942491 0.450875 0.897452
O O16 0.000000 0.000000 0.000000
O O17 0.000000 0.500000 0.000000
#
# Coordination Sequence:
#
# PCOD9045851 Si02
#       8
#     2   2   2   2   2   2   2   2
#     4   9  23  43  67  92 134 179 218 280 328 396
#     4  11  24  39  69  98 137 178 222 273 339 401
#     4  12  23  44  65 102 142 174 221 275 345 395
#     4   9  22  44  69  93 130 180 223 272 326 394
#     4  12  24  41  66 103 134 173 225 273 343 394
#     4  11  22  45  67  96 133 182 223 273 334 404
#     4  12  26  40  70 102 138 177 222 283 337 401
#     4  10  24  41  74  96 127 179 232 269 331 398
#
# _framework density 21.022637
#
# number of rings (size 3 to 8) (size 9 to 14) (size 15 to 20)
#    0.750    0.500    2.500    3.750    3.500    1.000 
#    0.000    1.250    0.000    0.000    0.000    0.000 
#    0.000    0.000    0.000    0.000    0.000    0.000 
#
# Total GULP energy -89377.794986 kJ/mol
# GULP energy per Si atom -5586.112187 kJ/mol
# Density = 2.097479 g / cm^3
# Si number density = 21.022637 Si / 1000 Ang^3
#
#
#
# Elastic Constant Matrix: (Units=GPa)
#
#
# Indices 1 2 3 4 5 6 
#
# 1 83.3785 43.1677 18.5933 -1.8663 -14.0122 2.3917
# 2 43.1677 85.3199 19.1514 16.2202 -11.5849 -17.3952
# 3 18.5933 19.1514 53.4028 11.7710 -27.6842 -5.2694
# 4 -1.8663 16.2202 11.7710 30.6812 -1.1020 -0.1210
# 5 -14.0122 -11.5849 -27.6842 -1.1020 36.5289 2.4997
# 6 2.3917 -17.3952 -5.2694 -0.1210 2.4997 36.4293
#
#
#
# Elastic Compliance Matrix: (Units=1/GPa)
#
#
# Indices 1 2 3 4 5 6 
#
# 1 0.020143 -0.012431 -0.005100 0.009750 0.000761 -0.008016
# 2 -0.012431 0.022941 0.001430 -0.013301 0.002384 0.011770
# 3 -0.005100 0.001430 0.036935 -0.014294 0.025747 0.004546
# 4 0.009750 -0.013301 -0.014294 0.045333 -0.009378 -0.008265
# 5 0.000761 0.002384 0.025747 -0.009378 0.047550 0.001519
# 6 -0.008016 0.011770 0.004546 -0.008265 0.001519 0.034123
#
#
# Mechanical properties :
#
#
# Convention : Reuss Voigt Hill
#
# Bulk Modulus (GPa) = 20.91317 42.65845 31.78581
# Shear Modulus (GPa) = 19.59518 30.14047 24.86782
#
# Velocity S-wave (km/s) = 3.05634 3.79055 3.44307
# Velocity P-wave (km/s) = 4.73545 6.28438 5.56408
#
# Compressibility (1/GPa) = 0.04781676
#
# Stress axis : x y z
#
# Youngs Moduli (GPa) = 49.64545 43.59015 27.07457
#
# Poissons Ratio (x) = 0.54186 0.13809
# Poissons Ratio (y) = 0.61713 -0.03872
# Poissons Ratio (z) = 0.25321 -0.06234
#
# Static dielectric constant tensor:
#      x y z
#    x 1.767390 0.004270 -0.026150 
#    y 0.004270 1.764260 -0.014220 
#    z -0.026150 -0.014220 1.787560 
# 
# From -- ./inp_files/507813.got.cif
#   From: 2010.05.17/outbox.cif.g08.bks.cpg/sg2_254_cif.got.tgz:507813.got - 2010.06.03 11:33:40.
