data_PCOD9045455
_publ_section_title
;
Structure prediction by ZEFSAII (Michael W. Deem and Ramdas Pophale) SiO2 
 PCOD9045455
Probable space group: P -1
;
_chemical_formula_sum "Si O2"
_cell_formula_units_Z 16
_cell_length_a 26.301407
_cell_length_b 11.402278
_cell_length_c 8.336200
_cell_angle_alpha 145.304183
_cell_angle_beta 134.180345
_cell_angle_gamma 32.963334
_cell_volume 774.078814
_symmetry_space_group_name_H-M "P -1"
_symmetry_group_IT_number 2
_symmetry_cell_setting 'triclinic'
loop_
_space_group_symop_operation_xyz
x,y,z
-x,-y,-z
loop_
_atom_site_type_symbol
_atom_site_label
_atom_site_fract_x
_atom_site_fract_y
_atom_site_fract_z
Si Si1 0.290568 0.836607 0.143346
Si Si2 0.543492 0.625571 0.811979
Si Si3 0.825267 0.623672 0.684495
Si Si4 0.114987 0.173301 0.711338
Si Si5 0.950595 0.291942 0.297000
Si Si6 0.233709 0.627512 0.515743
Si Si7 0.788200 0.805685 0.330934
Si Si8 0.631592 0.754723 0.884169
O O1 0.393924 0.575333 0.129662
O O2 0.263432 0.096441 0.279412
O O3 0.236130 0.974274 0.344742
O O4 0.252626 0.733284 0.828804
O O5 0.500000 0.500000 0.500000
O O6 0.605356 0.640515 0.836888
O O7 0.460228 0.941613 0.024469
O O8 0.882177 0.391594 0.412748
O O9 0.791837 0.542460 0.661014
O O10 0.889852 0.673372 0.969616
O O11 0.197120 0.114285 0.716513
O O12 0.027048 0.304604 0.551172
O O13 0.148314 0.887031 0.522044
O O14 0.884298 0.517467 0.271505
O O15 0.000000 0.000000 0.000000
O O16 0.322169 0.448063 0.391949
O O17 0.707870 0.783562 0.135308
#
# Coordination Sequence:
#
# PCOD9045455 Si02
#       8
#     2   2   2   2   2   2   2   2
#     4  10  24  40  67  96 129 170 215 265 326 386
#     4  11  24  43  71 102 130 166 217 272 324 391
#     4  10  24  44  65  92 136 174 220 266 328 390
#     4  11  23  44  65  95 133 178 219 268 327 380
#     4  11  25  40  66 101 128 174 225 276 320 379
#     4  11  24  42  68  96 130 178 215 268 325 392
#     4  11  22  44  68  94 134 173 219 269 323 393
#     4  11  24  42  70  98 131 172 217 264 330 389
#
# _framework density 20.669729
#
# number of rings (size 3 to 8) (size 9 to 14) (size 15 to 20)
#    0.000    1.250    2.500    2.250    5.250    1.000 
#    2.250    1.250    0.000    0.000    0.000    0.000 
#    0.000    0.000    0.000    0.000    0.000    0.000 
#
# Total GULP energy -89312.665156 kJ/mol
# GULP energy per Si atom -5582.041572 kJ/mol
# Density = 2.062268 g / cm^3
# Si number density = 20.669729 Si / 1000 Ang^3
#
#
#
# Elastic Constant Matrix: (Units=GPa)
#
#
# Indices 1 2 3 4 5 6 
#
# 1 88.2571 31.7307 23.4273 0.6958 9.6318 5.8948
# 2 31.7307 132.1311 33.6319 7.4287 12.1066 5.8780
# 3 23.4273 33.6319 92.2812 6.1047 -19.3797 -1.6166
# 4 0.6958 7.4287 6.1047 29.7083 -4.0479 -0.4045
# 5 9.6318 12.1066 -19.3797 -4.0479 25.8781 -2.5418
# 6 5.8948 5.8780 -1.6166 -0.4045 -2.5418 18.8091
#
#
#
# Elastic Compliance Matrix: (Units=1/GPa)
#
#
# Indices 1 2 3 4 5 6 
#
# 1 0.014601 -0.000912 -0.005512 -0.000399 -0.009797 -0.006097
# 2 -0.000912 0.010427 -0.005471 -0.002828 -0.009549 -0.004794
# 3 -0.005512 -0.005471 0.018362 0.000441 0.019179 0.007617
# 4 -0.000399 -0.002828 0.000441 0.035362 0.007612 0.002836
# 5 -0.009797 -0.009549 0.019179 0.007612 0.063932 0.016506
# 6 -0.006097 -0.004794 0.007617 0.002836 0.016506 0.059521
#
#
# Mechanical properties :
#
#
# Convention : Reuss Voigt Hill
#
# Bulk Modulus (GPa) = 51.02146 54.47215 52.74680
# Shear Modulus (GPa) = 21.50275 29.80441 25.65358
#
# Velocity S-wave (km/s) = 3.22887 3.80140 3.52677
# Velocity P-wave (km/s) = 6.21599 6.75857 6.49295
#
# Compressibility (1/GPa) = 0.01959960
#
# Stress axis : x y z
#
# Youngs Moduli (GPa) = 68.48725 95.90524 54.46112
#
# Poissons Ratio (x) = 0.08746 0.30021
# Poissons Ratio (y) = 0.06246 0.29795
# Poissons Ratio (z) = 0.37753 0.52468
#
# Static dielectric constant tensor:
#      x y z
#    x 1.736360 -0.007600 0.005990 
#    y -0.007600 1.750380 0.002360 
#    z 0.005990 0.002360 1.751380 
# 
# From -- ./inp_files/37473.got.cif
#   From: 2010.05.17/outbox.cif.g08.bks.cpg/sg2_19_cif.got.tgz:37473.got - 2010.06.03 11:33:40.
