data_PCOD9045776
_publ_section_title
;
Structure prediction by ZEFSAII (Michael W. Deem and Ramdas Pophale) SiO2 
 PCOD9045776
Probable space group: P -1
;
_chemical_formula_sum "Si O2"
_cell_formula_units_Z 14
_cell_length_a 11.137339
_cell_length_b 9.410865
_cell_length_c 16.527939
_cell_angle_alpha 52.327333
_cell_angle_beta 125.707286
_cell_angle_gamma 151.700709
_cell_volume 645.232637
_symmetry_space_group_name_H-M "P -1"
_symmetry_group_IT_number 2
_symmetry_cell_setting 'triclinic'
loop_
_space_group_symop_operation_xyz
x,y,z
-x,-y,-z
loop_
_atom_site_type_symbol
_atom_site_label
_atom_site_fract_x
_atom_site_fract_y
_atom_site_fract_z
Si Si1 0.831397 0.764460 0.089108
Si Si2 0.372130 0.428602 0.285924
Si Si3 0.772483 0.328191 0.529797
Si Si4 0.898729 0.868927 0.414744
Si Si5 0.573970 0.844652 0.905315
Si Si6 0.272542 0.712129 0.070483
Si Si7 0.239521 0.016294 0.252092
O O1 0.726971 0.473016 0.114338
O O2 0.976337 0.866203 0.192395
O O3 0.639715 0.743093 0.026795
O O4 0.000000 0.000000 0.000000
O O5 0.640421 0.719061 0.338236
O O6 0.301181 0.532630 0.168251
O O7 0.403118 0.290455 0.284853
O O8 0.136245 0.147780 0.351018
O O9 0.809137 0.572774 0.477311
O O10 0.802001 0.227238 0.652985
O O11 0.000000 0.500000 0.500000
O O12 0.500000 0.000000 0.500000
O O13 0.000000 0.000000 0.500000
O O14 0.684038 0.131376 0.885172
O O15 0.656384 0.885400 0.831898
O O16 0.000000 0.500000 0.000000
O O17 0.500000 0.000000 0.000000
#
# Coordination Sequence:
#
# PCOD9045776 Si02
#       7
#     2   2   2   2   2   2   2
#     4   9  21  40  67  99 136 174 234 287 350 414
#     4  12  27  48  73 107 141 191 240 291 369 423
#     4  12  25  47  71 106 140 179 243 296 348 419
#     4  12  27  50  74 104 148 193 237 301 364 433
#     4  10  24  41  69 101 137 182 236 284 359 414
#     4  12  29  48  71 105 150 189 236 292 353 438
#     4  11  24  40  74  96 140 176 236 291 354 406
#
# _framework density 21.697602
#
# number of rings (size 3 to 8) (size 9 to 14) (size 15 to 20)
#    0.000    0.857    2.857    2.143   16.000    1.143 
#    0.000    0.000    0.000    0.000    0.000    0.000 
#    0.000    0.000    0.000    0.000    0.000    0.000 
#
# Total GULP energy -78123.071020 kJ/mol
# GULP energy per Si atom -5580.219359 kJ/mol
# Density = 2.164822 g / cm^3
# Si number density = 21.697602 Si / 1000 Ang^3
#
#
#
# Elastic Constant Matrix: (Units=GPa)
#
#
# Indices 1 2 3 4 5 6 
#
# 1 73.4297 50.8879 44.6613 -4.6639 -5.1280 1.3915
# 2 50.8879 140.7146 54.0531 4.5137 -4.0800 6.0329
# 3 44.6613 54.0531 147.1563 -10.9612 10.2685 8.3354
# 4 -4.6639 4.5137 -10.9612 46.9969 -2.1314 3.6677
# 5 -5.1280 -4.0800 10.2685 -2.1314 39.3986 -2.1534
# 6 1.3915 6.0329 8.3354 3.6677 -2.1534 44.2333
#
#
#
# Elastic Compliance Matrix: (Units=1/GPa)
#
#
# Indices 1 2 3 4 5 6 
#
# 1 0.020550 -0.005789 -0.004273 0.001674 0.003333 0.000972
# 2 -0.005789 0.010125 -0.002124 -0.001963 0.000710 -0.000601
# 3 -0.004273 -0.002124 0.009334 0.001941 -0.003194 -0.001651
# 4 0.001674 -0.001963 0.001941 0.022266 0.000606 -0.001967
# 5 0.003333 0.000710 -0.003194 0.000606 0.026845 0.001657
# 6 0.000972 -0.000601 -0.001651 -0.001967 0.001657 0.023214
#
#
# Mechanical properties :
#
#
# Convention : Reuss Voigt Hill
#
# Bulk Modulus (GPa) = 63.95332 73.38946 68.67139
# Shear Modulus (GPa) = 35.23151 40.23900 37.73525
#
# Velocity S-wave (km/s) = 4.03395 4.31110 4.17483
# Velocity P-wave (km/s) = 7.15792 7.66016 7.41329
#
# Compressibility (1/GPa) = 0.01563640
#
# Stress axis : x y z
#
# Youngs Moduli (GPa) = 48.66164 98.76256 107.13983
#
# Poissons Ratio (x) = 0.57173 0.45785
# Poissons Ratio (y) = 0.28170 0.22756
# Poissons Ratio (z) = 0.20795 0.20977
#
# Static dielectric constant tensor:
#      x y z
#    x 1.845790 -0.004720 0.051410 
#    y -0.004720 1.753720 0.061270 
#    z 0.051410 0.061270 1.779730 
# 
# From -- ./inp_files/514119.got.cif
#   From: 2010.05.17/outbox.cif.g08.bks.cpg/sg2_258_cif.got.tgz:514119.got - 2010.06.03 11:33:40.
