data_PCOD9045673
_publ_section_title
;
Structure prediction by ZEFSAII (Michael W. Deem and Ramdas Pophale) SiO2 
 PCOD9045673
Probable space group: P -1
;
_chemical_formula_sum "Si O2"
_cell_formula_units_Z 14
_cell_length_a 9.093706
_cell_length_b 5.778443
_cell_length_c 15.257087
_cell_angle_alpha 88.825564
_cell_angle_beta 59.565624
_cell_angle_gamma 107.222124
_cell_volume 645.958609
_symmetry_space_group_name_H-M "P -1"
_symmetry_group_IT_number 2
_symmetry_cell_setting 'triclinic'
loop_
_space_group_symop_operation_xyz
x,y,z
-x,-y,-z
loop_
_atom_site_type_symbol
_atom_site_label
_atom_site_fract_x
_atom_site_fract_y
_atom_site_fract_z
Si Si1 0.759519 0.083345 0.011981
Si Si2 0.098128 0.934275 0.844907
Si Si3 0.964129 0.574259 0.728855
Si Si4 0.919798 0.209868 0.493163
Si Si5 0.427670 0.152161 0.452981
Si Si6 0.252225 0.351307 0.660030
Si Si7 0.395520 0.648918 0.081987
O O1 0.729435 0.280300 0.953064
O O2 0.817577 0.145822 0.094354
O O3 0.918618 0.993816 0.927043
O O4 0.558465 0.876064 0.071355
O O5 0.036114 0.721483 0.794331
O O6 0.233757 0.167829 0.748242
O O7 0.746780 0.485693 0.798781
O O8 0.043926 0.749160 0.621530
O O9 0.052777 0.363349 0.702153
O O10 0.000000 0.500000 0.500000
O O11 0.703397 0.054980 0.570874
O O12 0.000000 0.000000 0.500000
O O13 0.315744 0.274609 0.548665
O O14 0.598871 0.379379 0.363610
O O15 0.500000 0.000000 0.500000
O O16 0.500000 0.500000 0.000000
#
# Coordination Sequence:
#
# PCOD9045673 Si02
#       7
#     2   2   2   2   2   2   2
#     4  10  24  41  66 103 137 182 233 304 351 430
#     4  11  22  42  72 100 136 182 247 291 360 430
#     4  12  24  44  71  99 138 195 231 299 367 437
#     4  12  28  48  73 108 150 190 241 305 375 440
#     4  11  23  44  74  97 135 184 242 301 353 429
#     4  11  22  41  73  99 137 183 246 293 363 428
#     4  11  23  44  68  98 144 181 231 293 367 427
#
# _framework density 21.673213000000001
#
# number of rings (size 3 to 8) (size 9 to 14) (size 15 to 20)
#    0.000    0.857    5.714    0.857    2.000    2.857 
#    2.571    0.000    0.000    0.000    0.000    0.000 
#    0.000    0.000    0.000    0.000    0.000    0.000 
#
# Total GULP energy -78131.702261 kJ/mol
# GULP energy per Si atom -5580.835876 kJ/mol
# Density = 2.162388 g / cm^3
# Si number density = 21.673213 Si / 1000 Ang^3
#
#
#
# Elastic Constant Matrix: (Units=GPa)
#
#
# Indices 1 2 3 4 5 6 
#
# 1 97.3689 23.8697 3.8142 6.0008 2.8602 6.5026
# 2 23.8697 92.5541 4.8182 -5.8340 -12.3560 26.4560
# 3 3.8142 4.8182 63.1159 -0.1431 -14.5547 21.7538
# 4 6.0008 -5.8340 -0.1431 39.2947 8.0521 -15.0184
# 5 2.8602 -12.3560 -14.5547 8.0521 40.8473 0.5011
# 6 6.5026 26.4560 21.7538 -15.0184 0.5011 32.0762
#
#
#
# Elastic Compliance Matrix: (Units=1/GPa)
#
#
# Indices 1 2 3 4 5 6 
#
# 1 0.011251 -0.003275 -0.000933 -0.001744 -0.001770 0.000264
# 2 -0.003275 0.020403 0.011566 -0.010133 0.012875 -0.028954
# 3 -0.000933 0.011566 0.033410 -0.017472 0.019409 -0.040492
# 4 -0.001744 -0.010133 -0.017472 0.043677 -0.018285 0.041296
# 5 -0.001770 0.012875 0.019409 -0.018285 0.039420 -0.032600
# 6 0.000264 -0.028954 -0.040492 0.041296 -0.032600 0.102309
#
#
# Mechanical properties :
#
#
# Convention : Reuss Voigt Hill
#
# Bulk Modulus (GPa) = 12.53456 35.33811 23.93634
# Shear Modulus (GPa) = 19.05860 37.14609 28.10235
#
# Velocity S-wave (km/s) = 2.96862 4.14444 3.60479
# Velocity P-wave (km/s) = 4.18883 6.26436 5.32862
#
# Compressibility (1/GPa) = 0.07977940
#
# Stress axis : x y z
#
# Youngs Moduli (GPa) = 88.87717 49.01169 29.93139
#
# Poissons Ratio (x) = 0.16051 0.02793
# Poissons Ratio (y) = 0.29107 -0.34617
# Poissons Ratio (z) = 0.08294 -0.56685
#
# Static dielectric constant tensor:
#      x y z
#    x 1.813110 0.004720 -0.047350 
#    y 0.004720 1.841880 -0.019430 
#    z -0.047350 -0.019430 1.886450 
# 
# From -- ./inp_files/38540.got.cif
#   From: 2010.05.17/outbox.cif.g08.bks.cpg/sg2_20_cif.got.tgz:38540.got - 2010.06.03 11:33:40.
