data_PCOD9045415
_publ_section_title
;
Structure prediction by ZEFSAII (Michael W. Deem and Ramdas Pophale) SiO2 
 PCOD9045415
Probable space group: P -1
;
_chemical_formula_sum "Si O2"
_cell_formula_units_Z 16
_cell_length_a 14.666686
_cell_length_b 8.751583
_cell_length_c 15.213770
_cell_angle_alpha 37.784948
_cell_angle_beta 33.798016
_cell_angle_gamma 46.229698
_cell_volume 662.036934
_symmetry_space_group_name_H-M "P -1"
_symmetry_group_IT_number 2
_symmetry_cell_setting 'triclinic'
loop_
_space_group_symop_operation_xyz
x,y,z
-x,-y,-z
loop_
_atom_site_type_symbol
_atom_site_label
_atom_site_fract_x
_atom_site_fract_y
_atom_site_fract_z
Si Si1 0.222027 0.435769 0.384559
Si Si2 0.425017 0.669100 0.620788
Si Si3 0.897967 0.744917 0.787329
Si Si4 0.573447 0.175740 0.262538
Si Si5 0.944568 0.738911 0.559218
Si Si6 0.556360 0.845063 0.110226
Si Si7 0.856022 0.556823 0.159697
Si Si8 0.289923 0.880720 0.000046
O O1 0.396575 0.339116 0.328312
O O2 0.170938 0.237123 0.444496
O O3 0.079515 0.502947 0.538834
O O4 0.226179 0.686859 0.208033
O O5 0.347980 0.779592 0.725710
O O6 0.525445 0.402334 0.686112
O O7 0.297502 0.589670 0.685046
O O8 0.537403 0.887001 0.407517
O O9 0.853751 0.714095 0.735153
O O10 0.055980 0.554066 0.772517
O O11 0.743569 0.739549 0.979101
O O12 0.955940 0.020449 0.624291
O O13 0.667195 0.248595 0.067893
O O14 0.557161 0.023153 0.112657
O O15 0.500000 0.000000 0.000000
O O16 0.815836 0.856628 0.055638
O O17 0.000000 0.500000 0.000000
#
# Coordination Sequence:
#
# PCOD9045415 Si02
#       8
#     2   2   2   2   2   2   2   2
#     4  11  22  44  65  92 138 165 212 269 324 382
#     4  10  24  43  64  93 131 170 213 262 324 373
#     4  11  22  43  65  98 123 171 218 262 322 381
#     4  11  25  42  65  97 131 171 214 267 322 387
#     4  10  24  40  65  97 124 170 216 261 327 380
#     4  11  23  41  68  93 130 167 216 269 315 379
#     4  11  21  43  66  89 133 167 215 265 311 384
#     4  11  24  40  65  98 124 170 216 260 323 381
#
# _framework density 24.167836000000001
#
# number of rings (size 3 to 8) (size 9 to 14) (size 15 to 20)
#    0.000    1.250    3.750    1.875    3.500    5.000 
#    2.250    1.250    0.000    0.000    0.000    0.000 
#    0.000    0.000    0.000    0.000    0.000    0.000 
#
# Total GULP energy -89415.078779 kJ/mol
# GULP energy per Si atom -5588.442424 kJ/mol
# Density = 2.411283 g / cm^3
# Si number density = 24.167836 Si / 1000 Ang^3
#
#
#
# Elastic Constant Matrix: (Units=GPa)
#
#
# Indices 1 2 3 4 5 6 
#
# 1 66.7504 17.9715 9.4795 -8.7689 0.6898 -7.0898
# 2 17.9715 47.2939 17.8951 -11.9115 -6.2875 -6.9812
# 3 9.4795 17.8951 55.2112 -18.3554 -2.8766 16.7314
# 4 -8.7689 -11.9115 -18.3554 43.8545 12.6183 5.8209
# 5 0.6898 -6.2875 -2.8766 12.6183 32.7896 -4.2982
# 6 -7.0898 -6.9812 16.7314 5.8209 -4.2982 43.1832
#
#
#
# Elastic Compliance Matrix: (Units=1/GPa)
#
#
# Indices 1 2 3 4 5 6 
#
# 1 0.017110 -0.005555 -0.001291 0.001658 -0.001915 0.001997
# 2 -0.005555 0.029459 -0.011244 -0.000803 0.006260 0.008938
# 3 -0.001291 -0.011244 0.031370 0.014054 -0.006984 -0.016773
# 4 0.001658 -0.000803 0.014054 0.034206 -0.013596 -0.011267
# 5 -0.001915 0.006260 -0.006984 -0.013596 0.037534 0.008972
# 6 0.001997 0.008938 -0.016773 -0.011267 0.008972 0.033841
#
#
# Mechanical properties :
#
#
# Convention : Reuss Voigt Hill
#
# Bulk Modulus (GPa) = 23.94738 28.88307 26.41522
# Shear Modulus (GPa) = 21.40235 32.22609 26.81422
#
# Velocity S-wave (km/s) = 2.97908 3.65558 3.33453
# Velocity P-wave (km/s) = 4.66514 5.45845 5.07731
#
# Compressibility (1/GPa) = 0.04175823
#
# Stress axis : x y z
#
# Youngs Moduli (GPa) = 58.44568 33.94509 31.87786
#
# Poissons Ratio (x) = 0.18858 0.04115
# Poissons Ratio (y) = 0.32469 0.35844
# Poissons Ratio (z) = 0.07544 0.38168
#
# Static dielectric constant tensor:
#      x y z
#    x 1.966320 -0.008100 -0.015720 
#    y -0.008100 1.933590 -0.028850 
#    z -0.015720 -0.028850 1.924220 
# 
# From -- ./inp_files/528046.got.cif
#   From: 2010.05.17/outbox.cif.g08.bks.cpg/sg2_265_cif.got.tgz:528046.got - 2010.06.03 11:33:40.
