data_PCOD9045786
_publ_section_title
;
Structure prediction by ZEFSAII (Michael W. Deem and Ramdas Pophale) SiO2 
 PCOD9045786
Probable space group: P -1
;
_chemical_formula_sum "Si O2"
_cell_formula_units_Z 15
_cell_length_a 7.067548
_cell_length_b 9.761966
_cell_length_c 14.238282
_cell_angle_alpha 65.597259
_cell_angle_beta 95.015689
_cell_angle_gamma 129.736234
_cell_volume 665.678501
_symmetry_space_group_name_H-M "P -1"
_symmetry_group_IT_number 2
_symmetry_cell_setting 'triclinic'
loop_
_space_group_symop_operation_xyz
x,y,z
-x,-y,-z
loop_
_atom_site_type_symbol
_atom_site_label
_atom_site_fract_x
_atom_site_fract_y
_atom_site_fract_z
Si Si1 0.589851 0.959583 0.720568
Si Si2 0.032136 0.678178 0.721102
Si Si3 0.682928 0.957958 0.037578
Si Si4 0.428458 0.730920 0.272373
Si Si5 0.059751 0.874804 0.485671
Si Si6 0.251579 0.322376 0.949967
Si Si7 0.500000 0.500000 0.500000
Si Si8 0.723723 0.720906 0.829524
O O1 0.634003 0.150436 0.706129
O O2 0.706496 0.998077 0.611288
O O3 0.736162 0.904183 0.797060
O O4 0.287245 0.771665 0.760746
O O5 0.810353 0.441970 0.755673
O O6 0.903613 0.749377 0.750575
O O7 0.118100 0.784548 0.593823
O O8 0.656753 0.895131 0.163900
O O9 0.620013 0.772357 0.033010
O O10 0.500000 0.000000 0.000000
O O11 0.959904 0.153165 0.958734
O O12 0.484661 0.624052 0.376921
O O13 0.802288 0.692917 0.472868
O O14 0.000000 0.000000 0.500000
O O15 0.431464 0.529954 0.843506
O O16 0.238830 0.348884 0.052566
#
# Coordination Sequence:
#
# PCOD9045786 Si02
#       8
#     2   2   2   2   2   2   1   2
#     4  12  26  42  74 103 135 187 233 287 352 420
#     4  11  24  45  68 100 141 180 232 292 345 419
#     4  11  23  43  68 105 140 182 233 292 347 414
#     4  11  25  47  69 106 143 185 236 288 353 414
#     4  11  23  44  68 101 136 179 229 284 349 410
#     4  10  24  41  69  98 138 184 232 285 356 415
#     4  10  26  44  74 100 144 184 226 294 340 418
#     4  11  23  45  67 103 136 183 235 288 353 412
#
# _framework density 22.533401000000001
#
# number of rings (size 3 to 8) (size 9 to 14) (size 15 to 20)
#    0.000    1.067    2.667    2.800    3.733    3.200 
#    0.000    3.333    0.000    0.000    0.000    0.000 
#    0.000    0.000    0.000    0.000    0.000    0.000 
#
# Total GULP energy -83501.768959 kJ/mol
# GULP energy per Si atom -5566.784597 kJ/mol
# Density = 2.248211 g / cm^3
# Si number density = 22.533401 Si / 1000 Ang^3
#
#
#
# Elastic Constant Matrix: (Units=GPa)
#
#
# Indices 1 2 3 4 5 6 
#
# 1 110.9169 48.1964 31.9983 -3.7278 -3.8500 -6.3740
# 2 48.1964 67.1998 -7.0886 4.4588 4.1022 -4.6882
# 3 31.9983 -7.0886 87.5186 -4.3748 -15.4499 -9.7704
# 4 -3.7278 4.4588 -4.3748 27.8609 -2.4283 -5.5469
# 5 -3.8500 4.1022 -15.4499 -2.4283 32.2620 0.7858
# 6 -6.3740 -4.6882 -9.7704 -5.5469 0.7858 29.4473
#
#
#
# Elastic Compliance Matrix: (Units=1/GPa)
#
#
# Indices 1 2 3 4 5 6 
#
# 1 0.016819 -0.013060 -0.006957 0.003270 0.000586 -0.000146
# 2 -0.013060 0.025544 0.006548 -0.004465 -0.002071 0.002627
# 3 -0.006957 0.006548 0.016273 0.002144 0.006166 0.005176
# 4 0.003270 -0.004465 0.002144 0.039389 0.004755 0.008001
# 5 0.000586 -0.002071 0.006166 0.004755 0.034596 0.001815
# 6 -0.000146 0.002627 0.005176 0.008001 0.001815 0.037521
#
#
# Mechanical properties :
#
#
# Convention : Reuss Voigt Hill
#
# Bulk Modulus (GPa) = 31.54481 45.76084 38.65282
# Shear Modulus (GPa) = 24.07944 30.74931 27.41438
#
# Velocity S-wave (km/s) = 3.27251 3.69807 3.49178
# Velocity P-wave (km/s) = 5.32058 6.21179 5.78338
#
# Compressibility (1/GPa) = 0.03170094
#
# Stress axis : x y z
#
# Youngs Moduli (GPa) = 59.45540 39.14773 61.44998
#
# Poissons Ratio (x) = 0.51126 0.42749
# Poissons Ratio (y) = 0.77647 -0.40240
# Poissons Ratio (z) = 0.41361 -0.25635
#
# Static dielectric constant tensor:
#      x y z
#    x 1.827870 0.023840 0.037340 
#    y 0.023840 1.910930 -0.014320 
#    z 0.037340 -0.014320 1.879700 
# 
# From -- ./inp_files/480338.got.cif
#   From: 2010.05.17/outbox.cif.g08.bks.cpg/sg2_241_cif.got.tgz:480338.got - 2010.06.03 11:33:40.
