data_PCOD9045329
_publ_section_title
;
Structure prediction by ZEFSAII (Michael W. Deem and Ramdas Pophale) SiO2 
 PCOD9045329
Probable space group: P -1
;
_chemical_formula_sum "Si O2"
_cell_formula_units_Z 16
_cell_length_a 9.036810
_cell_length_b 25.009975
_cell_length_c 13.580645
_cell_angle_alpha 158.324370
_cell_angle_beta 50.883407
_cell_angle_gamma 139.401665
_cell_volume 701.207925
_symmetry_space_group_name_H-M "P -1"
_symmetry_group_IT_number 2
_symmetry_cell_setting 'triclinic'
loop_
_space_group_symop_operation_xyz
x,y,z
-x,-y,-z
loop_
_atom_site_type_symbol
_atom_site_label
_atom_site_fract_x
_atom_site_fract_y
_atom_site_fract_z
Si Si1 0.549172 0.458461 0.659537
Si Si2 0.672191 0.408629 0.310133
Si Si3 0.142470 0.468743 0.761331
Si Si4 0.354972 0.905625 0.142899
Si Si5 0.832750 0.912576 0.118445
Si Si6 0.909589 0.854662 0.203716
Si Si7 0.370032 0.066500 0.105437
Si Si8 0.728773 0.199715 0.611030
O O1 0.672097 0.485025 0.546554
O O2 0.304588 0.427962 0.682303
O O3 0.498424 0.282858 0.432873
O O4 0.717541 0.649505 0.970565
O O5 0.829192 0.543845 0.387744
O O6 0.755338 0.283607 0.081773
O O7 0.398105 0.267399 0.144286
O O8 0.882616 0.336197 0.690293
O O9 0.240112 0.674106 0.097260
O O10 0.153746 0.882546 0.121026
O O11 0.461695 0.060893 0.445086
O O12 0.572940 0.949591 0.059288
O O13 0.815839 0.880914 0.188028
O O14 0.814493 0.076451 0.387328
O O15 0.088338 0.966206 0.067918
O O16 0.000000 0.000000 0.500000
O O17 0.500000 0.000000 0.000000
#
# Coordination Sequence:
#
# PCOD9045329 Si02
#       8
#     2   2   2   2   2   2   2   2
#     4  11  24  44  68 100 136 173 228 277 329 398
#     4  10  24  39  71  98 129 171 221 286 331 385
#     4  11  21  41  65 102 129 168 226 277 333 391
#     4  10  24  42  61  98 131 179 220 270 335 392
#     4  11  23  43  69  96 132 177 226 274 340 390
#     4  12  26  44  67  96 140 181 222 272 333 405
#     4  11  23  44  66  97 138 179 222 275 335 402
#     4  10  24  40  68  95 134 175 219 281 331 396
#
# _framework density 22.817769999999999
#
# number of rings (size 3 to 8) (size 9 to 14) (size 15 to 20)
#    0.000    1.250    3.750    1.125    3.500    4.500 
#    2.250    0.625    0.000    0.000    0.000    0.000 
#    0.000    0.000    0.000    0.000    0.000    0.000 
#
# Total GULP energy -89485.876408 kJ/mol
# GULP energy per Si atom -5592.867276 kJ/mol
# Density = 2.276584 g / cm^3
# Si number density = 22.817770 Si / 1000 Ang^3
#
#
#
# Elastic Constant Matrix: (Units=GPa)
#
#
# Indices 1 2 3 4 5 6 
#
# 1 102.2670 13.2030 26.2621 4.6395 -15.0606 -2.8890
# 2 13.2030 73.9371 4.7587 -2.8320 -10.0624 0.2731
# 3 26.2621 4.7587 115.1694 7.7488 -0.2168 -17.2186
# 4 4.6395 -2.8320 7.7488 14.9066 -0.6427 -1.2838
# 5 -15.0606 -10.0624 -0.2168 -0.6427 27.1880 2.9289
# 6 -2.8890 0.2731 -17.2186 -1.2838 2.9289 23.8797
#
#
#
# Elastic Compliance Matrix: (Units=1/GPa)
#
#
# Indices 1 2 3 4 5 6 
#
# 1 0.011558 -0.001156 -0.002622 -0.002309 0.006044 -0.001345
# 2 -0.001156 0.014603 -0.000766 0.003637 0.004981 -0.001274
# 3 -0.002622 -0.000766 0.010723 -0.004368 -0.002562 0.007503
# 4 -0.002309 0.003637 -0.004368 0.070849 0.001693 0.000131
# 5 0.006044 0.004981 -0.002562 0.001693 0.042672 -0.006316
# 6 -0.001345 -0.001274 0.007503 0.000131 -0.006316 0.047920
#
#
# Mechanical properties :
#
#
# Convention : Reuss Voigt Hill
#
# Bulk Modulus (GPa) = 35.97616 42.20233 39.08925
# Shear Modulus (GPa) = 23.07576 29.67152 26.37364
#
# Velocity S-wave (km/s) = 3.18355 3.60998 3.40345
# Velocity P-wave (km/s) = 5.41427 5.99261 5.71077
#
# Compressibility (1/GPa) = 0.02779619
#
# Stress axis : x y z
#
# Youngs Moduli (GPa) = 86.52213 68.48069 93.25583
#
# Poissons Ratio (x) = 0.07917 0.24452
# Poissons Ratio (y) = 0.10003 0.07140
# Poissons Ratio (z) = 0.22686 0.05243
#
# Static dielectric constant tensor:
#      x y z
#    x 1.819820 0.011360 -0.036980 
#    y 0.011360 1.872660 0.002960 
#    z -0.036980 0.002960 1.884580 
# 
# From -- ./inp_files/298100.got.cif
#   From: 2010.05.17/outbox.cif.g08.bks.cpg/sg2_150_cif.got.tgz:298100.got - 2010.06.03 11:33:40.
