data_PCOD9045739
_publ_section_title
;
Structure prediction by ZEFSAII (Michael W. Deem and Ramdas Pophale) SiO2 
 PCOD9045739
Probable space group: P -1
;
_chemical_formula_sum "Si O2"
_cell_formula_units_Z 14
_cell_length_a 17.827306
_cell_length_b 11.645200
_cell_length_c 5.115233
_cell_angle_alpha 108.489263
_cell_angle_beta 114.896787
_cell_angle_gamma 39.285919
_cell_volume 609.848950
_symmetry_space_group_name_H-M "P -1"
_symmetry_group_IT_number 2
_symmetry_cell_setting 'triclinic'
loop_
_space_group_symop_operation_xyz
x,y,z
-x,-y,-z
loop_
_atom_site_type_symbol
_atom_site_label
_atom_site_fract_x
_atom_site_fract_y
_atom_site_fract_z
Si Si1 0.043433 0.698472 0.006993
Si Si2 0.633277 0.808375 0.647070
Si Si3 0.342333 0.752899 0.549322
Si Si4 0.278823 0.551064 0.500374
Si Si5 0.595912 0.460567 0.918816
Si Si6 0.213771 0.301496 0.727409
Si Si7 0.889094 0.842113 0.406182
O O1 0.142736 0.676291 0.281247
O O2 0.955159 0.757614 0.162174
O O3 0.124368 0.501626 0.859286
O O4 0.968281 0.825930 0.734407
O O5 0.641913 0.654473 0.598146
O O6 0.731288 0.726812 0.496432
O O7 0.500000 0.000000 0.500000
O O8 0.676727 0.825770 0.989134
O O9 0.318409 0.639693 0.520575
O O10 0.485078 0.637345 0.706112
O O11 0.328273 0.739211 0.212735
O O12 0.241999 0.948670 0.661556
O O13 0.309661 0.541026 0.844618
O O14 0.500000 0.500000 0.000000
O O15 0.139477 0.257714 0.586055
#
# Coordination Sequence:
#
# PCOD9045739 Si02
#       7
#     2   2   2   2   2   2   2
#     4  11  25  44  68 101 134 188 223 285 336 395
#     4  11  25  42  72 106 133 178 223 280 342 404
#     4  10  24  41  68 100 130 182 222 280 345 403
#     4  10  24  42  69  92 144 170 223 277 351 397
#     4   9  21  42  64  92 133 177 218 270 347 404
#     4  11  24  46  68  97 141 178 226 279 343 398
#     4  12  26  43  72  99 138 176 243 273 328 409
#
# _framework density 22.956505
#
# number of rings (size 3 to 8) (size 9 to 14) (size 15 to 20)
#    0.000    1.429    0.000    3.857   12.000    4.571 
#    0.000    0.000    0.000    0.000    0.000    0.000 
#    0.000    0.000    0.000    0.000    0.000    0.000 
#
# Total GULP energy -78011.977193 kJ/mol
# GULP energy per Si atom -5572.284085 kJ/mol
# Density = 2.290426 g / cm^3
# Si number density = 22.956505 Si / 1000 Ang^3
#
#
#
# Elastic Constant Matrix: (Units=GPa)
#
#
# Indices 1 2 3 4 5 6 
#
# 1 84.7938 20.1641 6.6657 18.8891 -18.2289 -5.1598
# 2 20.1641 60.8968 -0.1768 2.6404 -8.4579 -17.1687
# 3 6.6657 -0.1768 106.5790 -11.8538 17.3221 0.8564
# 4 18.8891 2.6404 -11.8538 28.7556 -2.6521 -3.2419
# 5 -18.2289 -8.4579 17.3221 -2.6521 35.5453 -0.5462
# 6 -5.1598 -17.1687 0.8564 -3.2419 -0.5462 17.3538
#
#
#
# Elastic Compliance Matrix: (Units=1/GPa)
#
#
# Indices 1 2 3 4 5 6 
#
# 1 0.017731 -0.004320 -0.003931 -0.012124 0.009064 -0.000787
# 2 -0.004320 0.025236 -0.000222 0.003611 0.004544 0.024511
# 3 -0.003931 -0.000222 0.011541 0.006587 -0.007217 -0.000954
# 4 -0.012124 0.003611 0.006587 0.045560 -0.005046 0.007995
# 5 0.009064 0.004544 -0.007217 -0.005046 0.037123 0.007772
# 6 -0.000787 0.024511 -0.000954 0.007995 0.007772 0.083425
#
#
# Mechanical properties :
#
#
# Convention : Reuss Voigt Hill
#
# Bulk Modulus (GPa) = 26.62243 33.95281 30.28762
# Shear Modulus (GPa) = 19.99342 31.37204 25.68273
#
# Velocity S-wave (km/s) = 2.95435 3.70075 3.34841
# Velocity P-wave (km/s) = 4.82282 5.75177 5.30766
#
# Compressibility (1/GPa) = 0.03756232
#
# Stress axis : x y z
#
# Youngs Moduli (GPa) = 56.39765 39.62634 86.64438
#
# Poissons Ratio (x) = 0.17118 0.34064
# Poissons Ratio (y) = 0.24363 0.01921
# Poissons Ratio (z) = 0.22173 0.00878
#
# Static dielectric constant tensor:
#      x y z
#    x 2.187050 0.076250 -0.713170 
#    y 0.076250 1.828220 -0.144390 
#    z -0.713170 -0.144390 3.277210 
# 
# From -- ./inp_files/109310.got.cif
#   From: 2010.05.17/outbox.cif.g08.bks.cpg/sg2_55_cif.got.tgz:109310.got - 2010.06.03 11:33:40.
