data_PCOD9045126
_publ_section_title
;
Structure prediction by ZEFSAII (Michael W. Deem and Ramdas Pophale) SiO2 
 PCOD9045126
Probable space group: P -1
;
_chemical_formula_sum "Si O2"
_cell_formula_units_Z 16
_cell_length_a 22.882992
_cell_length_b 5.826142
_cell_length_c 6.566449
_cell_angle_alpha 80.601383
_cell_angle_beta 125.964414
_cell_angle_gamma 91.396980
_cell_volume 696.240512
_symmetry_space_group_name_H-M "P -1"
_symmetry_group_IT_number 2
_symmetry_cell_setting 'triclinic'
loop_
_space_group_symop_operation_xyz
x,y,z
-x,-y,-z
loop_
_atom_site_type_symbol
_atom_site_label
_atom_site_fract_x
_atom_site_fract_y
_atom_site_fract_z
Si Si1 0.154804 0.181435 0.657176
Si Si2 0.156444 0.804161 0.040960
Si Si3 0.750028 0.596158 0.875497
Si Si4 0.754291 0.948775 0.506791
Si Si5 0.345324 0.620631 0.946465
Si Si6 0.000637 0.230954 0.120835
Si Si7 0.564585 0.668409 0.140391
Si Si8 0.516900 0.127651 0.720476
O O1 0.073456 0.202955 0.407890
O O2 0.210302 0.204073 0.582808
O O3 0.178207 0.351426 0.856872
O O4 0.168002 0.933150 0.832851
O O5 0.217453 0.590758 0.193214
O O6 0.176879 0.952339 0.256576
O O7 0.073156 0.763452 0.901272
O O8 0.720338 0.816401 0.645366
O O9 0.696086 0.505276 0.943031
O O10 0.701695 0.151768 0.269021
O O11 0.367436 0.459706 0.818560
O O12 0.419466 0.701593 0.182281
O O13 0.000000 0.500000 0.000000
O O14 0.000000 0.000000 0.000000
O O15 0.554448 0.735823 0.346067
O O16 0.500000 0.500000 0.000000
O O17 0.547226 0.914021 0.957123
O O18 0.500000 0.000000 0.500000
#
# Coordination Sequence:
#
# PCOD9045126 Si02
#       8
#     2   2   2   2   2   2   2   2
#     4  11  25  47  72 101 155 188 257 313 370 453
#     4  11  25  47  71 105 145 198 255 307 380 447
#     4  11  27  45  72 109 143 198 241 311 375 447
#     4  11  25  47  69 105 148 188 244 309 369 452
#     4  11  25  47  73 104 149 187 237 300 376 438
#     4  12  27  45  77 109 146 214 259 318 397 449
#     4   9  22  47  69 103 140 186 226 291 360 432
#     4  10  23  49  74 105 141 182 243 293 354 445
#
# _framework density 22.980564000000001
#
# number of rings (size 3 to 8) (size 9 to 14) (size 15 to 20)
#    0.000    1.250    2.500    1.125    8.750    2.500 
#   18.000    0.000    0.000    0.000    0.000    0.000 
#    0.000    0.000    0.000    0.000    0.000    0.000 
#
# Total GULP energy -89361.270524 kJ/mol
# GULP energy per Si atom -5585.079408 kJ/mol
# Density = 2.292826 g / cm^3
# Si number density = 22.980564 Si / 1000 Ang^3
#
#
#
# Elastic Constant Matrix: (Units=GPa)
#
#
# Indices 1 2 3 4 5 6 
#
# 1 152.9885 32.6414 36.5701 -2.6703 -11.1235 13.7688
# 2 32.6414 71.0565 19.1189 -0.2694 -14.0374 11.1669
# 3 36.5701 19.1189 102.3090 -0.2507 -8.3210 10.7809
# 4 -2.6703 -0.2694 -0.2507 47.4543 0.7700 -6.0032
# 5 -11.1235 -14.0374 -8.3210 0.7700 35.2395 3.6751
# 6 13.7688 11.1669 10.7809 -6.0032 3.6751 38.8783
#
#
#
# Elastic Compliance Matrix: (Units=1/GPa)
#
#
# Indices 1 2 3 4 5 6 
#
# 1 0.007797 -0.002569 -0.002056 0.000202 0.001107 -0.001527
# 2 -0.002569 0.017578 -0.001381 -0.000720 0.006347 -0.004467
# 3 -0.002056 -0.001381 0.011131 -0.000367 0.001664 -0.002176
# 4 0.000202 -0.000720 -0.000367 0.021562 -0.001164 0.003676
# 5 0.001107 0.006347 0.001664 -0.001164 0.032289 -0.005909
# 6 -0.001527 -0.004467 -0.002176 0.003676 -0.005909 0.029275
#
#
# Mechanical properties :
#
#
# Convention : Reuss Voigt Hill
#
# Bulk Modulus (GPa) = 40.82613 55.89053 48.35833
# Shear Modulus (GPa) = 35.76267 40.18266 37.97267
#
# Velocity S-wave (km/s) = 3.94917 4.18610 4.06936
# Velocity P-wave (km/s) = 6.21278 6.90928 6.57027
#
# Compressibility (1/GPa) = 0.02449412
#
# Stress axis : x y z
#
# Youngs Moduli (GPa) = 128.24688 56.88803 89.83966
#
# Poissons Ratio (x) = 0.14617 0.18467
# Poissons Ratio (y) = 0.32952 0.12410
# Poissons Ratio (z) = 0.26362 0.07858
#
# Static dielectric constant tensor:
#      x y z
#    x 1.867320 0.013310 -0.011400 
#    y 0.013310 1.919750 -0.025900 
#    z -0.011400 -0.025900 1.925690 
# 
# From -- ./inp_files/121594.got.cif
#   From: 2010.05.17/outbox.cif.g08.bks.cpg/sg2_61_cif.got.tgz:121594.got - 2010.06.03 11:33:40.
