data_PCOD9045277
_publ_section_title
;
Structure prediction by ZEFSAII (Michael W. Deem and Ramdas Pophale) SiO2 
 PCOD9045277
Probable space group: P -1
;
_chemical_formula_sum "Si O2"
_cell_formula_units_Z 16
_cell_length_a 9.187557
_cell_length_b 22.242368
_cell_length_c 6.932104
_cell_angle_alpha 125.498748
_cell_angle_beta 104.420602
_cell_angle_gamma 48.503424
_cell_volume 842.145307
_symmetry_space_group_name_H-M "P -1"
_symmetry_group_IT_number 2
_symmetry_cell_setting 'triclinic'
loop_
_space_group_symop_operation_xyz
x,y,z
-x,-y,-z
loop_
_atom_site_type_symbol
_atom_site_label
_atom_site_fract_x
_atom_site_fract_y
_atom_site_fract_z
Si Si1 0.032991 0.393339 0.684064
Si Si2 0.229141 0.251525 0.141549
Si Si3 0.786981 0.605619 0.883092
Si Si4 0.012551 0.951294 0.610901
Si Si5 0.688625 0.128022 0.108632
Si Si6 0.062600 0.769205 0.155377
Si Si7 0.362840 0.693501 0.758213
Si Si8 0.694072 0.405906 0.781501
O O1 0.119101 0.304781 0.404603
O O2 0.959661 0.488450 0.718446
O O3 0.841274 0.422855 0.787414
O O4 0.195745 0.366688 0.844175
O O5 0.188788 0.334773 0.144729
O O6 0.464072 0.171761 0.106446
O O7 0.133830 0.211415 0.936262
O O8 0.577870 0.634874 0.819265
O O9 0.212998 0.905045 0.709869
O O10 0.013011 0.864899 0.402533
O O11 0.000000 0.000000 0.500000
O O12 0.830557 0.035136 0.842462
O O13 0.685685 0.213857 0.193648
O O14 0.181908 0.683288 0.192640
O O15 0.201463 0.732552 0.944349
O O16 0.364049 0.626759 0.480334
O O17 0.500000 0.500000 0.000000
#
# Coordination Sequence:
#
# PCOD9045277 Si02
#       8
#     2   2   2   2   2   2   2   2
#     4  11  23  41  61  92 133 176 218 266 320 378
#     4  11  24  41  65  94 134 168 214 271 324 386
#     4  10  24  39  63  92 129 175 222 263 316 378
#     4  11  23  44  72  96 129 165 218 268 331 389
#     4  10  24  43  68 100 125 167 216 271 325 396
#     4  12  24  42  68  97 132 174 214 273 323 385
#     4  11  23  42  67  96 128 173 221 264 322 386
#     4  12  26  41  64  98 137 176 220 266 319 384
#
# _framework density 18.999098
#
# number of rings (size 3 to 8) (size 9 to 14) (size 15 to 20)
#    0.000    1.000    5.000    1.125    3.500    5.500 
#    0.000    0.625    0.000    0.000    0.000    0.000 
#    0.000    0.000    0.000    0.000    0.000    0.000 
#
# Total GULP energy -89463.203601 kJ/mol
# GULP energy per Si atom -5591.450225 kJ/mol
# Density = 1.895586 g / cm^3
# Si number density = 18.999098 Si / 1000 Ang^3
#
#
#
# Elastic Constant Matrix: (Units=GPa)
#
#
# Indices 1 2 3 4 5 6 
#
# 1 100.1841 38.1899 56.1441 -18.2761 16.4933 -18.7283
# 2 38.1899 112.0473 59.3187 -21.4569 11.1992 -13.3359
# 3 56.1441 59.3187 131.3330 0.4480 27.3612 -16.0246
# 4 -18.2761 -21.4569 0.4480 31.7079 0.3480 6.3531
# 5 16.4933 11.1992 27.3612 0.3480 32.1238 -4.3201
# 6 -18.7283 -13.3359 -16.0246 6.3531 -4.3201 23.1654
#
#
#
# Elastic Compliance Matrix: (Units=1/GPa)
#
#
# Indices 1 2 3 4 5 6 
#
# 1 0.016309 0.000070 -0.005653 0.008250 -0.002794 0.006532
# 2 0.000070 0.014232 -0.006452 0.009498 0.000568 0.001288
# 3 -0.005653 -0.006452 0.014779 -0.008344 -0.006952 0.002931
# 4 0.008250 0.009498 -0.008344 0.044068 -0.001730 -0.006043
# 5 -0.002794 0.000568 -0.006952 -0.001730 0.038427 0.000900
# 6 0.006532 0.001288 0.002931 -0.006043 0.000900 0.053042
#
#
# Mechanical properties :
#
#
# Convention : Reuss Voigt Hill
#
# Bulk Modulus (GPa) = 47.05500 72.31885 59.68693
# Shear Modulus (GPa) = 23.58391 30.06021 26.82206
#
# Velocity S-wave (km/s) = 3.52706 3.98199 3.76141
# Velocity P-wave (km/s) = 6.43487 7.69991 7.09564
#
# Compressibility (1/GPa) = 0.02125173
#
# Stress axis : x y z
#
# Youngs Moduli (GPa) = 61.31767 70.26521 67.66270
#
# Poissons Ratio (x) = -0.00495 0.38248
# Poissons Ratio (y) = -0.00432 0.43654
# Poissons Ratio (z) = 0.34661 0.45333
#
# Static dielectric constant tensor:
#      x y z
#    x 1.635080 0.006950 0.001710 
#    y 0.006950 1.643550 -0.009350 
#    z 0.001710 -0.009350 1.645150 
# 
# From -- ./inp_files/37770.got.cif
#   From: 2010.05.17/outbox.cif.g08.bks.cpg/sg2_19_cif.got.tgz:37770.got - 2010.06.03 11:33:40.
