data_PCOD9045443
_publ_section_title
;
Structure prediction by ZEFSAII (Michael W. Deem and Ramdas Pophale) SiO2 
 PCOD9045443
Probable space group: P -1
;
_chemical_formula_sum "Si O2"
_cell_formula_units_Z 16
_cell_length_a 12.579833
_cell_length_b 26.935930
_cell_length_c 8.935748
_cell_angle_alpha 30.173195
_cell_angle_beta 143.704088
_cell_angle_gamma 150.455059
_cell_volume 732.493304
_symmetry_space_group_name_H-M "P -1"
_symmetry_group_IT_number 2
_symmetry_cell_setting 'triclinic'
loop_
_space_group_symop_operation_xyz
x,y,z
-x,-y,-z
loop_
_atom_site_type_symbol
_atom_site_label
_atom_site_fract_x
_atom_site_fract_y
_atom_site_fract_z
Si Si1 0.582793 0.610124 0.093613
Si Si2 0.922105 0.237390 0.802865
Si Si3 0.798946 0.377800 0.515984
Si Si4 0.671783 0.033437 0.275201
Si Si5 0.098825 0.123720 0.700373
Si Si6 0.494289 0.852307 0.018681
Si Si7 0.634147 0.204968 0.309400
Si Si8 0.550516 0.647122 0.309975
O O1 0.595091 0.637382 0.213225
O O2 0.532555 0.476920 0.376573
O O3 0.821860 0.708917 0.036742
O O4 0.384136 0.608494 0.799619
O O5 0.877107 0.322353 0.626276
O O6 0.854384 0.239395 0.550024
O O7 0.754097 0.101206 0.033685
O O8 0.683218 0.279059 0.773117
O O9 0.000000 0.500000 0.500000
O O10 0.897440 0.110827 0.424302
O O11 0.561912 0.891399 0.546538
O O12 0.507138 0.055790 0.112655
O O13 0.275047 0.130852 0.770404
O O14 0.235282 0.240072 0.658655
O O15 0.000000 0.000000 0.000000
O O16 0.425521 0.857647 0.757306
O O17 0.624538 0.319147 0.977471
#
# Coordination Sequence:
#
# PCOD9045443 Si02
#       8
#     2   2   2   2   2   2   2   2
#     4  11  25  46  67  96 138 177 225 273 339 398
#     4  11  26  42  70  97 132 180 221 275 340 395
#     4  11  26  45  65  98 134 171 223 280 329 402
#     4  11  23  43  66 100 135 177 220 277 338 396
#     4  11  22  40  67  97 134 170 225 276 324 392
#     4  10  24  40  66  99 130 174 219 273 332 392
#     4  11  22  45  66  98 137 171 230 271 329 403
#     4  10  24  42  67 100 134 175 223 280 324 400
#
# _framework density 21.843202000000002
#
# number of rings (size 3 to 8) (size 9 to 14) (size 15 to 20)
#    0.000    1.250    3.750    1.500    8.750    2.000 
#    0.000    0.625    0.000    0.000    0.000    0.000 
#    0.000    0.000    0.000    0.000    0.000    0.000 
#
# Total GULP energy -89464.809583 kJ/mol
# GULP energy per Si atom -5591.550599 kJ/mol
# Density = 2.179349 g / cm^3
# Si number density = 21.843202 Si / 1000 Ang^3
#
#
#
# Elastic Constant Matrix: (Units=GPa)
#
#
# Indices 1 2 3 4 5 6 
#
# 1 74.9239 32.3896 27.1201 2.1112 4.8350 7.9336
# 2 32.3896 84.7939 23.0855 18.9161 12.2811 0.9930
# 3 27.1201 23.0855 89.7199 8.9986 -4.8184 -5.6712
# 4 2.1112 18.9161 8.9986 42.6335 1.0857 -3.6523
# 5 4.8350 12.2811 -4.8184 1.0857 27.3396 0.0827
# 6 7.9336 0.9930 -5.6712 -3.6523 0.0827 24.9624
#
#
#
# Elastic Compliance Matrix: (Units=1/GPa)
#
#
# Indices 1 2 3 4 5 6 
#
# 1 0.018315 -0.005916 -0.004715 0.002209 -0.001481 -0.006329
# 2 -0.005916 0.017173 -0.002344 -0.006683 -0.006815 -0.000291
# 3 -0.004715 -0.002344 0.013832 -0.001370 0.004365 0.004519
# 4 0.002209 -0.006683 -0.001370 0.026840 0.001295 0.003175
# 5 -0.001481 -0.006815 0.004365 0.001295 0.040613 0.001788
# 6 -0.006329 -0.000291 0.004519 0.003175 0.001788 0.043569
#
#
# Mechanical properties :
#
#
# Convention : Reuss Voigt Hill
#
# Bulk Modulus (GPa) = 42.79366 46.06980 44.43173
# Shear Modulus (GPa) = 25.76253 30.10993 27.93623
#
# Velocity S-wave (km/s) = 3.43801 3.71679 3.58011
# Velocity P-wave (km/s) = 5.94926 6.28938 6.12168
#
# Compressibility (1/GPa) = 0.02336795
#
# Stress axis : x y z
#
# Youngs Moduli (GPa) = 54.60133 58.23178 72.29782
#
# Poissons Ratio (x) = 0.34452 0.34087
# Poissons Ratio (y) = 0.32304 0.16949
# Poissons Ratio (z) = 0.25744 0.13652
#
# Static dielectric constant tensor:
#      x y z
#    x 1.901640 0.119040 -0.036100 
#    y 0.119040 1.991430 -0.056510 
#    z -0.036100 -0.056510 1.845990 
# 
# From -- ./inp_files/273659.got.cif
#   From: 2010.05.17/outbox.cif.g08.bks.cpg/sg2_137_cif.got.tgz:273659.got - 2010.06.03 11:33:40.
