data_PCOD9045893
_publ_section_title
;
Structure prediction by ZEFSAII (Michael W. Deem and Ramdas Pophale) SiO2 
 PCOD9045893
Probable space group: P -1
;
_chemical_formula_sum "Si O2"
_cell_formula_units_Z 16
_cell_length_a 11.355067
_cell_length_b 10.124280
_cell_length_c 8.002351
_cell_angle_alpha 61.278543
_cell_angle_beta 108.048744
_cell_angle_gamma 120.240885
_cell_volume 694.191857
_symmetry_space_group_name_H-M "P -1"
_symmetry_group_IT_number 2
_symmetry_cell_setting 'triclinic'
loop_
_space_group_symop_operation_xyz
x,y,z
-x,-y,-z
loop_
_atom_site_type_symbol
_atom_site_label
_atom_site_fract_x
_atom_site_fract_y
_atom_site_fract_z
Si Si1 0.356789 0.004740 0.463864
Si Si2 0.463421 0.358185 0.410396
Si Si3 0.916739 0.144847 0.725495
Si Si4 0.037879 0.366791 0.316179
Si Si5 0.260812 0.724212 0.831840
Si Si6 0.667924 0.392469 0.728036
Si Si7 0.917137 0.786113 0.920156
Si Si8 0.643546 0.521753 0.128375
O O1 0.382485 0.195671 0.364397
O O2 0.500000 0.000000 0.500000
O O3 0.243801 0.904117 0.337730
O O4 0.293224 0.906816 0.668054
O O5 0.532708 0.289675 0.624065
O O6 0.364719 0.447938 0.341072
O O7 0.602793 0.510411 0.309955
O O8 0.995548 0.265018 0.533368
O O9 0.972899 0.210566 0.893866
O O10 0.932262 0.973868 0.804955
O O11 0.901911 0.386313 0.187126
O O12 0.177094 0.527879 0.318948
O O13 0.065848 0.276678 0.218581
O O14 0.330945 0.641411 0.789407
O O15 0.321319 0.707955 0.045073
O O16 0.772672 0.669367 0.015741
O O17 0.500000 0.500000 0.000000
#
# Coordination Sequence:
#
# PCOD9045893 Si02
#       8
#     2   2   2   2   2   2   2   2
#     4  11  23  42  63  92 134 170 208 271 324 383
#     4  11  24  41  67  95 126 171 222 265 323 383
#     4  10  24  42  63 100 126 172 224 257 328 393
#     4  11  22  43  64  92 138 165 210 272 327 386
#     4  11  24  40  65  95 127 169 212 259 336 384
#     4  11  23  42  66  96 127 170 218 268 321 390
#     4  11  23  40  70  96 128 174 215 269 324 384
#     4  12  21  40  67  93 124 171 220 263 318 386
#
# _framework density 23.048382
#
# number of rings (size 3 to 8) (size 9 to 14) (size 15 to 20)
#    0.000    1.000    3.750    3.000    0.000    2.500 
#    0.000    5.625    0.000    0.000    0.000    0.000 
#    0.000    0.000    0.000    0.000    0.000    0.000 
#
# Total GULP energy -89297.235023 kJ/mol
# GULP energy per Si atom -5581.077189 kJ/mol
# Density = 2.299592 g / cm^3
# Si number density = 23.048382 Si / 1000 Ang^3
#
#
#
# Elastic Constant Matrix: (Units=GPa)
#
#
# Indices 1 2 3 4 5 6 
#
# 1 87.5771 9.7027 3.1761 2.7207 15.3945 26.4295
# 2 9.7027 63.1041 5.6823 6.4338 3.6978 18.8680
# 3 3.1761 5.6823 103.4079 13.8368 12.8572 21.2785
# 4 2.7207 6.4338 13.8368 37.9670 9.5586 11.7078
# 5 15.3945 3.6978 12.8572 9.5586 31.4077 5.4481
# 6 26.4295 18.8680 21.2785 11.7078 5.4481 35.4533
#
#
#
# Elastic Compliance Matrix: (Units=1/GPa)
#
#
# Indices 1 2 3 4 5 6 
#
# 1 0.017239 0.001859 0.003103 0.004344 -0.008515 -0.015828
# 2 0.001859 0.019196 0.001621 0.000293 -0.001773 -0.012399
# 3 0.003103 0.001621 0.012135 -0.000795 -0.004797 -0.009459
# 4 0.004344 0.000293 -0.000795 0.032432 -0.009600 -0.012151
# 5 -0.008515 -0.001773 -0.004797 -0.009600 0.039855 0.007216
# 6 -0.015828 -0.012399 -0.009459 -0.012151 0.007216 0.055186
#
#
# Mechanical properties :
#
#
# Convention : Reuss Voigt Hill
#
# Bulk Modulus (GPa) = 16.19824 32.35680 24.27752
# Shear Modulus (GPa) = 27.25442 36.66747 31.96094
#
# Velocity S-wave (km/s) = 3.44246 3.99292 3.72787
# Velocity P-wave (km/s) = 4.77953 5.94366 5.39310
#
# Compressibility (1/GPa) = 0.06173511
#
# Stress axis : x y z
#
# Youngs Moduli (GPa) = 58.00916 52.09323 82.40392
#
# Poissons Ratio (x) = -0.09683 -0.25569
# Poissons Ratio (y) = -0.10783 -0.13355
# Poissons Ratio (z) = -0.18000 -0.08442
#
# Static dielectric constant tensor:
#      x y z
#    x 1.858810 -0.001980 -0.037470 
#    y -0.001980 1.878270 0.040470 
#    z -0.037470 0.040470 2.005520 
# 
# From -- ./inp_files/261761.got.cif
#   From: 2010.05.17/outbox.cif.g08.bks.cpg/sg2_131_cif.got.tgz:261761.got - 2010.06.03 11:33:40.
