data_PCOD9045979
_publ_section_title
;
Structure prediction by ZEFSAII (Michael W. Deem and Ramdas Pophale) SiO2 
 PCOD9045979
Probable space group: P -1
;
_chemical_formula_sum "Si O2"
_cell_formula_units_Z 14
_cell_length_a 4.984794
_cell_length_b 5.183973
_cell_length_c 21.675104
_cell_angle_alpha 77.570167
_cell_angle_beta 97.954169
_cell_angle_gamma 87.389106
_cell_volume 540.069992
_symmetry_space_group_name_H-M "P -1"
_symmetry_group_IT_number 2
_symmetry_cell_setting 'triclinic'
loop_
_space_group_symop_operation_xyz
x,y,z
-x,-y,-z
loop_
_atom_site_type_symbol
_atom_site_label
_atom_site_fract_x
_atom_site_fract_y
_atom_site_fract_z
Si Si1 0.625192 0.846564 0.687642
Si Si2 0.064795 0.754838 0.389988
Si Si3 0.024787 0.410378 0.829947
Si Si4 0.319758 0.617196 0.932854
Si Si5 0.651390 0.657370 0.282219
Si Si6 0.210945 0.117843 0.129859
Si Si7 0.595780 0.872260 0.446079
O O1 0.892142 0.977298 0.663427
O O2 0.586199 0.543521 0.715308
O O3 0.488275 0.050922 0.722947
O O4 0.441026 0.898704 0.618125
O O5 0.375579 0.673035 0.423945
O O6 0.876900 0.601195 0.346371
O O7 0.904272 0.774886 0.448490
O O8 0.235435 0.390888 0.895073
O O9 0.187806 0.372128 0.774591
O O10 0.882826 0.705139 0.822123
O O11 0.818973 0.186910 0.844142
O O12 0.030165 0.773641 0.930937
O O13 0.503290 0.804711 0.889470
O O14 0.500000 0.500000 0.000000
O O15 0.500000 0.000000 0.500000
#
# Coordination Sequence:
#
# PCOD9045979 Si02
#       7
#     2   2   2   2   2   2   2
#     4   9  23  36  68  88 129 163 213 258 320 371
#     4   9  21  38  61  93 124 165 208 261 316 372
#     4  10  25  39  69  91 131 169 215 264 319 377
#     4  10  24  44  67  97 131 168 214 264 319 380
#     4  11  21  45  61  95 127 169 214 263 317 380
#     4  10  24  42  65  97 127 166 218 253 330 368
#     4   9  18  40  65  92 127 165 210 260 319 378
#
# _framework density 25.92257
#
# number of rings (size 3 to 8) (size 9 to 14) (size 15 to 20)
#    1.714    0.571    0.000    1.714    2.000    5.714 
#    0.000    3.571    0.000    0.000    0.000    0.000 
#    0.000    0.000    0.000    0.000    0.000    0.000 
#
# Total GULP energy -78211.681337 kJ/mol
# GULP energy per Si atom -5586.548667 kJ/mol
# Density = 2.586357 g / cm^3
# Si number density = 25.922570 Si / 1000 Ang^3
#
#
#
# Elastic Constant Matrix: (Units=GPa)
#
#
# Indices 1 2 3 4 5 6 
#
# 1 93.0848 45.3663 17.6747 2.9665 -6.5877 23.9853
# 2 45.3663 165.4565 33.7677 9.9370 -11.9509 14.6913
# 3 17.6747 33.7677 86.8666 17.9013 -13.7479 2.3127
# 4 2.9665 9.9370 17.9013 27.8706 8.0004 -0.8220
# 5 -6.5877 -11.9509 -13.7479 8.0004 39.6271 -7.5976
# 6 23.9853 14.6913 2.3127 -0.8220 -7.5976 48.7932
#
#
#
# Elastic Compliance Matrix: (Units=1/GPa)
#
#
# Indices 1 2 3 4 5 6 
#
# 1 0.014034 -0.003039 -0.001721 0.000650 -0.000455 -0.005962
# 2 -0.003039 0.007470 -0.001710 -0.001656 0.001396 -0.000485
# 3 -0.001721 -0.001710 0.016046 -0.011593 0.007404 0.001558
# 4 0.000650 -0.001656 -0.011593 0.047908 -0.014216 -0.000678
# 5 -0.000455 0.001396 0.007404 -0.014216 0.031818 0.004168
# 6 -0.005962 -0.000485 0.001558 -0.000678 0.004168 0.024135
#
#
# Mechanical properties :
#
#
# Convention : Reuss Voigt Hill
#
# Bulk Modulus (GPa) = 40.63621 59.89170 50.26396
# Shear Modulus (GPa) = 30.75855 39.83147 35.29501
#
# Velocity S-wave (km/s) = 3.44838 3.92414 3.69393
# Velocity P-wave (km/s) = 5.61828 6.60955 6.13397
#
# Compressibility (1/GPa) = 0.02460859
#
# Stress axis : x y z
#
# Youngs Moduli (GPa) = 71.25405 133.87719 62.31913
#
# Poissons Ratio (x) = 0.40689 0.10728
# Poissons Ratio (y) = 0.21656 0.10658
# Poissons Ratio (z) = 0.12266 0.22895
#
# Static dielectric constant tensor:
#      x y z
#    x 2.172380 -0.065030 0.040870 
#    y -0.065030 1.994060 -0.001440 
#    z 0.040870 -0.001440 2.088880 
# 
# From -- ./inp_files/12508.got.cif
#   From: 2010.05.17/outbox.cif.g08.bks.cpg/sg2_7_cif.got.tgz:12508.got - 2010.06.03 11:33:40.
