data_PCOD9045086
_publ_section_title
;
Structure prediction by ZEFSAII (Michael W. Deem and Ramdas Pophale) SiO2 
 PCOD9045086
Probable space group: P -1
;
_chemical_formula_sum "Si O2"
_cell_formula_units_Z 14
_cell_length_a 16.855454
_cell_length_b 7.683986
_cell_length_c 11.564385
_cell_angle_alpha 41.692735
_cell_angle_beta 139.465754
_cell_angle_gamma 143.738489
_cell_volume 539.687381
_symmetry_space_group_name_H-M "P -1"
_symmetry_group_IT_number 2
_symmetry_cell_setting 'triclinic'
loop_
_space_group_symop_operation_xyz
x,y,z
-x,-y,-z
loop_
_atom_site_type_symbol
_atom_site_label
_atom_site_fract_x
_atom_site_fract_y
_atom_site_fract_z
Si Si1 0.631421 0.834448 0.524837
Si Si2 0.800264 0.329776 0.904182
Si Si3 0.705777 0.413911 0.416139
Si Si4 0.981840 0.435543 0.260433
Si Si5 0.739751 0.523700 0.958626
Si Si6 0.219975 0.172749 0.512739
Si Si7 0.652228 0.646054 0.029179
O O1 0.500000 0.500000 0.500000
O O2 0.724484 0.775443 0.747933
O O3 0.723647 0.979319 0.437642
O O4 0.589737 0.058961 0.424572
O O5 0.697959 0.267405 0.937782
O O6 0.817417 0.623984 0.711059
O O7 0.941951 0.402131 0.096954
O O8 0.726566 0.014150 0.905900
O O9 0.665849 0.565627 0.398779
O O10 0.749121 0.624528 0.245803
O O11 0.849523 0.423865 0.606529
O O12 0.899868 0.103814 0.401854
O O13 0.902359 0.609842 0.129064
O O14 0.648124 0.463483 0.001849
O O15 0.500000 0.500000 0.000000
#
# Coordination Sequence:
#
# PCOD9045086 Si02
#       7
#     2   2   2   2   2   2   2
#     4  11  27  45  71 103 139 192 233 282 353 413
#     4   9  23  46  67 103 136 186 222 288 350 397
#     4  12  26  44  71 106 140 185 231 293 345 414
#     4  10  23  49  69 107 142 176 239 283 355 411
#     4   9  23  47  65  99 142 177 234 289 338 413
#     4  11  23  46  73 103 142 182 229 292 345 412
#     4  12  26  41  70 102 141 188 233 281 348 413
#
# _framework density 25.940940999999999
#
# number of rings (size 3 to 8) (size 9 to 14) (size 15 to 20)
#    0.857    0.571    1.429    2.143    6.000    4.571 
#    2.571    0.000    0.000    0.000    0.000    0.000 
#    0.000    0.000    0.000    0.000    0.000    0.000 
#
# Total GULP energy -78186.725126 kJ/mol
# GULP energy per Si atom -5584.766080 kJ/mol
# Density = 2.588190 g / cm^3
# Si number density = 25.940941 Si / 1000 Ang^3
#
#
#
# Elastic Constant Matrix: (Units=GPa)
#
#
# Indices 1 2 3 4 5 6 
#
# 1 124.6383 -3.3456 49.1170 15.7889 -20.0782 -18.0494
# 2 -3.3456 63.1756 46.9821 -8.2878 -2.2971 -4.4730
# 3 49.1170 46.9821 141.6543 -13.1871 -10.6012 -2.0281
# 4 15.7889 -8.2878 -13.1871 27.4237 2.6765 -2.5605
# 5 -20.0782 -2.2971 -10.6012 2.6765 47.0151 0.1436
# 6 -18.0494 -4.4730 -2.0281 -2.5605 0.1436 28.5674
#
#
#
# Elastic Compliance Matrix: (Units=1/GPa)
#
#
# Indices 1 2 3 4 5 6 
#
# 1 0.014360 0.005668 -0.007249 -0.009760 0.005305 0.008544
# 2 0.005668 0.023821 -0.009690 -0.000245 0.001393 0.006594
# 3 -0.007249 -0.009690 0.013333 0.007331 -0.000966 -0.004489
# 4 -0.009760 -0.000245 0.007331 0.045892 -0.005135 -0.001545
# 5 0.005305 0.001393 -0.000966 -0.005135 0.023669 0.002922
# 6 0.008544 0.006594 -0.004489 -0.001545 0.002922 0.040964
#
#
# Mechanical properties :
#
#
# Convention : Reuss Voigt Hill
#
# Bulk Modulus (GPa) = 34.51465 57.21948 45.86707
# Shear Modulus (GPa) = 25.74175 36.38224 31.06199
#
# Velocity S-wave (km/s) = 3.15353 3.74906 3.46412
# Velocity P-wave (km/s) = 5.15690 6.39110 5.80688
#
# Compressibility (1/GPa) = 0.02897320
#
# Stress axis : x y z
#
# Youngs Moduli (GPa) = 69.63721 41.97991 75.00409
#
# Poissons Ratio (x) = -0.23796 0.54367
# Poissons Ratio (y) = -0.39474 0.72680
# Poissons Ratio (z) = 0.50477 0.40679
#
# Static dielectric constant tensor:
#      x y z
#    x 2.131810 0.008510 0.035950 
#    y 0.008510 2.036990 0.049050 
#    z 0.035950 0.049050 2.069360 
# 
# From -- ./inp_files/461820.got.cif
#   From: 2010.05.17/outbox.cif.g08.bks.cpg/sg2_231_cif.got.tgz:461820.got - 2010.06.03 11:33:40.
