data_PCOD9045781
_publ_section_title
;
Structure prediction by ZEFSAII (Michael W. Deem and Ramdas Pophale) SiO2 
 PCOD9045781
Probable space group: P -1
;
_chemical_formula_sum "Si O2"
_cell_formula_units_Z 15
_cell_length_a 7.898519
_cell_length_b 8.918422
_cell_length_c 12.083420
_cell_angle_alpha 133.768426
_cell_angle_beta 115.490577
_cell_angle_gamma 71.822597
_cell_volume 554.707787
_symmetry_space_group_name_H-M "P -1"
_symmetry_group_IT_number 2
_symmetry_cell_setting 'triclinic'
loop_
_space_group_symop_operation_xyz
x,y,z
-x,-y,-z
loop_
_atom_site_type_symbol
_atom_site_label
_atom_site_fract_x
_atom_site_fract_y
_atom_site_fract_z
Si Si1 0.859328 0.988587 0.352543
Si Si2 0.216790 0.224424 0.112000
Si Si3 0.661940 0.583396 0.166128
Si Si4 0.000000 0.500000 0.000000
Si Si5 0.472842 0.241061 0.538673
Si Si6 0.100547 0.748094 0.807913
Si Si7 0.217179 0.884514 0.287780
Si Si8 0.373746 0.672798 0.655536
O O1 0.776745 0.756717 0.218753
O O2 0.015370 0.993158 0.302358
O O3 0.703167 0.163758 0.373436
O O4 0.000000 0.000000 0.500000
O O5 0.135401 0.379683 0.074385
O O6 0.441882 0.230935 0.186112
O O7 0.113280 0.281793 0.228853
O O8 0.156664 0.988010 0.954228
O O9 0.601242 0.691051 0.322348
O O10 0.786582 0.388698 0.139954
O O11 0.500000 0.500000 0.000000
O O12 0.164066 0.668383 0.111350
O O13 0.681277 0.169534 0.594724
O O14 0.443144 0.433646 0.548772
O O15 0.357923 0.048104 0.361811
O O16 0.189131 0.660650 0.675600
#
# Coordination Sequence:
#
# PCOD9045781 Si02
#       8
#     2   2   2   1   2   2   2   2
#     4  12  26  49  74 107 145 193 253 305 382 446
#     4  11  23  44  69 115 151 194 248 310 371 441
#     4  11  24  44  75 110 145 193 245 312 367 449
#     4  12  24  42  82 108 146 196 258 306 366 446
#     4  10  24  47  72 103 156 191 245 299 387 436
#     4  10  24  41  69 110 150 191 248 307 370 440
#     4  11  24  45  72 109 143 198 245 303 370 449
#     4  11  24  48  73 104 150 198 243 313 373 449
#
# _framework density 27.041267000000001
#
# number of rings (size 3 to 8) (size 9 to 14) (size 15 to 20)
#    0.000    1.067    2.667    2.800    3.733    1.600 
#    4.800    0.667    0.000    0.000    0.000    0.000 
#    0.000    0.000    0.000    0.000    0.000    0.000 
#
# Total GULP energy -83706.847201 kJ/mol
# GULP energy per Si atom -5580.456480 kJ/mol
# Density = 2.697972 g / cm^3
# Si number density = 27.041267 Si / 1000 Ang^3
#
#
#
# Elastic Constant Matrix: (Units=GPa)
#
#
# Indices 1 2 3 4 5 6 
#
# 1 107.8600 44.4093 24.9978 -9.9993 15.9289 -13.0691
# 2 44.4093 271.1911 69.4382 -8.1322 20.8991 -12.8107
# 3 24.9978 69.4382 129.0733 -0.8424 49.9367 12.5018
# 4 -9.9993 -8.1322 -0.8424 51.8139 5.5128 7.2479
# 5 15.9289 20.8991 49.9367 5.5128 30.5980 0.6744
# 6 -13.0691 -12.8107 12.5018 7.2479 0.6744 41.9063
#
#
#
# Elastic Compliance Matrix: (Units=1/GPa)
#
#
# Indices 1 2 3 4 5 6 
#
# 1 0.011154 -0.001383 0.001178 0.002391 -0.007270 0.002408
# 2 -0.001383 0.004746 -0.004169 -0.000363 0.004298 0.002257
# 3 0.001178 -0.004169 0.027658 0.006008 -0.043777 -0.009493
# 4 0.002391 -0.000363 0.006008 0.022024 -0.014667 -0.004731
# 5 -0.007270 0.004298 -0.043777 -0.014667 0.107333 0.012916
# 6 0.002408 0.002257 -0.009493 -0.004731 0.012916 0.028746
#
#
# Mechanical properties :
#
#
# Convention : Reuss Voigt Hill
#
# Bulk Modulus (GPa) = 28.72666 87.31279 58.01973
# Shear Modulus (GPa) = 22.52136 49.48225 36.00181
#
# Velocity S-wave (km/s) = 2.88905 4.28235 3.65275
# Velocity P-wave (km/s) = 4.66638 7.53725 6.26838
#
# Compressibility (1/GPa) = 0.03481087
#
# Stress axis : x y z
#
# Youngs Moduli (GPa) = 89.65002 210.70820 36.15656
#
# Poissons Ratio (x) = 0.29134 -0.04261
# Poissons Ratio (y) = 0.12396 0.15075
# Poissons Ratio (z) = -0.10565 0.87850
#
# Static dielectric constant tensor:
#      x y z
#    x 6.254020 -0.021800 -0.434990 
#    y -0.021800 2.060690 0.026480 
#    z -0.434990 0.026480 2.150710 
# 
# From -- ./inp_files/493981.got.cif
#   From: 2010.05.17/outbox.cif.g08.bks.cpg/sg2_247_cif.got.tgz:493981.got - 2010.06.03 11:33:40.
