data_PCOD9045805
_publ_section_title
;
Structure prediction by ZEFSAII (Michael W. Deem and Ramdas Pophale) SiO2 
 PCOD9045805
Probable space group: P -1
;
_chemical_formula_sum "Si O2"
_cell_formula_units_Z 14
_cell_length_a 5.637559
_cell_length_b 18.380145
_cell_length_c 9.864133
_cell_angle_alpha 144.907946
_cell_angle_beta 69.867457
_cell_angle_gamma 102.664764
_cell_volume 548.004149
_symmetry_space_group_name_H-M "P -1"
_symmetry_group_IT_number 2
_symmetry_cell_setting 'triclinic'
loop_
_space_group_symop_operation_xyz
x,y,z
-x,-y,-z
loop_
_atom_site_type_symbol
_atom_site_label
_atom_site_fract_x
_atom_site_fract_y
_atom_site_fract_z
Si Si1 0.221734 0.385318 0.042426
Si Si2 0.793512 0.667291 0.336494
Si Si3 0.141484 0.090701 0.936491
Si Si4 0.512247 0.147443 0.745960
Si Si5 0.226829 0.810969 0.595930
Si Si6 0.166574 0.769045 0.989752
Si Si7 0.490594 0.570455 0.464523
O O1 0.180217 0.408044 0.926059
O O2 0.399835 0.248382 0.812485
O O3 0.347514 0.492876 0.262870
O O4 0.992493 0.348098 0.122470
O O5 0.509065 0.749845 0.495834
O O6 0.748732 0.591899 0.369299
O O7 0.049360 0.734383 0.415638
O O8 0.356606 0.171030 0.956133
O O9 0.253032 0.948806 0.734971
O O10 0.974530 0.152970 0.186568
O O11 0.961803 0.101690 0.857093
O O12 0.500000 0.000000 0.500000
O O13 0.774405 0.187374 0.804630
O O14 0.347415 0.705817 0.740924
O O15 0.500000 0.500000 0.500000
#
# Coordination Sequence:
#
# PCOD9045805 Si02
#       7
#     2   2   2   2   2   2   2
#     4  11  27  44  72 109 147 195 244 311 371 433
#     4  12  28  48  75 110 151 191 250 310 378 429
#     4  10  24  41  70 107 146 198 248 298 367 444
#     4  11  24  42  71 105 150 189 248 298 375 441
#     4  11  26  45  75 108 152 196 242 306 370 448
#     4  11  24  45  74 106 145 197 250 304 366 446
#     4  12  25  50  77 104 144 198 257 305 368 447
#
# _framework density 25.547252
#
# number of rings (size 3 to 8) (size 9 to 14) (size 15 to 20)
#    0.000    0.857    2.857    2.571   10.000    3.429 
#    0.000    2.143    0.000    0.000    0.000    0.000 
#    0.000    0.000    0.000    0.000    0.000    0.000 
#
# Total GULP energy -78108.299384 kJ/mol
# GULP energy per Si atom -5579.164242 kJ/mol
# Density = 2.548910 g / cm^3
# Si number density = 25.547252 Si / 1000 Ang^3
#
#
#
# Elastic Constant Matrix: (Units=GPa)
#
#
# Indices 1 2 3 4 5 6 
#
# 1 59.1849 1.7095 31.2963 8.3831 -5.4246 -11.6375
# 2 1.7095 127.7981 19.5107 -30.7123 1.5929 -16.2363
# 3 31.2963 19.5107 75.3519 -0.8855 -11.8187 -2.3502
# 4 8.3831 -30.7123 -0.8855 45.1940 3.3167 -3.3736
# 5 -5.4246 1.5929 -11.8187 3.3167 43.2612 7.5767
# 6 -11.6375 -16.2363 -2.3502 -3.3736 7.5767 34.9585
#
#
#
# Elastic Compliance Matrix: (Units=1/GPa)
#
#
# Indices 1 2 3 4 5 6 
#
# 1 0.024281 0.001602 -0.010448 -0.002940 -0.001057 0.008070
# 2 0.001602 0.011212 -0.003738 0.007990 -0.003058 0.006923
# 3 -0.010448 -0.003738 0.019199 -0.000978 0.005043 -0.005111
# 4 -0.002940 0.007990 -0.000978 0.028871 -0.004260 0.006376
# 5 -0.001057 -0.003058 0.005043 -0.004260 0.026114 -0.007504
# 6 0.008070 0.006923 -0.005111 0.006376 -0.007504 0.036405
#
#
# Mechanical properties :
#
#
# Convention : Reuss Voigt Hill
#
# Bulk Modulus (GPa) = 33.87199 40.81866 37.34532
# Shear Modulus (GPa) = 27.61016 38.67063 33.14040
#
# Velocity S-wave (km/s) = 3.29104 3.89484 3.60560
# Velocity P-wave (km/s) = 5.26580 6.01986 5.65541
#
# Compressibility (1/GPa) = 0.02952292
#
# Stress axis : x y z
#
# Youngs Moduli (GPa) = 41.18395 89.18997 52.08705
#
# Poissons Ratio (x) = -0.14291 0.54422
# Poissons Ratio (y) = -0.06599 0.19473
# Poissons Ratio (z) = 0.43030 0.33343
#
# Static dielectric constant tensor:
#      x y z
#    x 2.444850 -0.085140 -0.028070 
#    y -0.085140 2.019850 -0.035230 
#    z -0.028070 -0.035230 2.027960 
# 
# From -- ./inp_files/48314.got.cif
#   From: 2010.05.17/outbox.cif.g08.bks.cpg/sg2_25_cif.got.tgz:48314.got - 2010.06.03 11:33:40.
