data_PCOD9045511
_publ_section_title
;
Structure prediction by ZEFSAII (Michael W. Deem and Ramdas Pophale) SiO2 
 PCOD9045511
Probable space group: P -1
;
_chemical_formula_sum "Si O2"
_cell_formula_units_Z 15
_cell_length_a 9.008398
_cell_length_b 6.687959
_cell_length_c 13.872159
_cell_angle_alpha 62.444380
_cell_angle_beta 114.381097
_cell_angle_gamma 81.887637
_cell_volume 615.169609
_symmetry_space_group_name_H-M "P -1"
_symmetry_group_IT_number 2
_symmetry_cell_setting 'triclinic'
loop_
_space_group_symop_operation_xyz
x,y,z
-x,-y,-z
loop_
_atom_site_type_symbol
_atom_site_label
_atom_site_fract_x
_atom_site_fract_y
_atom_site_fract_z
Si Si1 0.259056 0.314272 0.729826
Si Si2 0.763966 0.218521 0.478740
Si Si3 0.989619 0.781127 0.986503
Si Si4 0.500000 0.500000 0.500000
Si Si5 0.296812 0.283983 0.183465
Si Si6 0.074334 0.961877 0.767231
Si Si7 0.375818 0.124557 0.591282
Si Si8 0.414324 0.546874 0.861860
O O1 0.170281 0.598597 0.603876
O O2 0.348818 0.163707 0.690295
O O3 0.388474 0.329603 0.845475
O O4 0.138031 0.177925 0.763878
O O5 0.573491 0.394253 0.434665
O O6 0.104125 0.912145 0.370030
O O7 0.736615 0.011711 0.453594
O O8 0.050282 0.822000 0.886142
O O9 0.793037 0.788842 0.916543
O O10 0.127922 0.519783 0.124119
O O11 0.000000 0.000000 0.000000
O O12 0.347512 0.384174 0.480057
O O13 0.450799 0.374782 0.179826
O O14 0.408899 0.037217 0.328534
O O15 0.221118 0.762595 0.782751
O O16 0.500000 0.500000 0.000000
#
# Coordination Sequence:
#
# PCOD9045511 Si02
#       8
#     2   2   2   1   2   2   2   2
#     4  11  25  43  73 105 139 190 239 299 365 434
#     4  11  24  45  69 107 147 192 240 299 366 430
#     4  11  28  45  73 103 146 191 242 304 364 438
#     4  10  24  40  70 104 140 196 238 286 358 438
#     4  11  24  47  69 103 139 190 240 295 370 423
#     4  12  26  45  70 110 143 189 243 304 360 436
#     4  11  23  45  72 103 145 192 239 300 360 440
#     4  12  26  46  74 104 141 189 242 305 366 432
#
# _framework density 24.383520999999998
#
# number of rings (size 3 to 8) (size 9 to 14) (size 15 to 20)
#    0.000    0.800    4.000    1.600    3.733    5.867 
#    0.000    0.000    0.000    0.000    0.000    0.000 
#    0.000    0.000    0.000    0.000    0.000    0.000 
#
# Total GULP energy -83605.972571 kJ/mol
# GULP energy per Si atom -5573.731505 kJ/mol
# Density = 2.432802 g / cm^3
# Si number density = 24.383521 Si / 1000 Ang^3
#
#
#
# Elastic Constant Matrix: (Units=GPa)
#
#
# Indices 1 2 3 4 5 6 
#
# 1 85.5654 39.6153 25.1629 7.9331 -0.8809 21.7040
# 2 39.6153 176.1210 20.7660 28.9648 9.5844 36.4770
# 3 25.1629 20.7660 41.6754 9.0564 4.3792 -0.8655
# 4 7.9331 28.9648 9.0564 33.5670 1.0715 7.1669
# 5 -0.8809 9.5844 4.3792 1.0715 35.9674 -1.4687
# 6 21.7040 36.4770 -0.8655 7.1669 -1.4687 39.1382
#
#
#
# Elastic Compliance Matrix: (Units=1/GPa)
#
#
# Indices 1 2 3 4 5 6 
#
# 1 0.017565 -0.001146 -0.010751 0.001640 0.001622 -0.009149
# 2 -0.001146 0.008494 -0.002374 -0.004962 -0.002120 -0.006505
# 3 -0.010751 -0.002374 0.033621 -0.006515 -0.003122 0.009994
# 4 0.001640 -0.004962 -0.006515 0.036052 0.000959 -0.002995
# 5 0.001622 -0.002120 -0.003122 0.000959 0.028837 0.001914
# 6 -0.009149 -0.006505 0.009994 -0.002995 0.001914 0.037528
#
#
# Mechanical properties :
#
#
# Convention : Reuss Voigt Hill
#
# Bulk Modulus (GPa) = 32.11693 52.71668 42.41681
# Shear Modulus (GPa) = 24.87329 36.25569 30.56449
#
# Velocity S-wave (km/s) = 3.19734 3.86021 3.54431
# Velocity P-wave (km/s) = 5.17985 6.44477 5.84662
#
# Compressibility (1/GPa) = 0.03113623
#
# Stress axis : x y z
#
# Youngs Moduli (GPa) = 56.93230 117.72627 29.74348
#
# Poissons Ratio (x) = 0.13496 0.31977
# Poissons Ratio (y) = 0.06526 0.07062
# Poissons Ratio (z) = 0.61208 0.27954
#
# Static dielectric constant tensor:
#      x y z
#    x 1.987670 -0.073890 -0.024660 
#    y -0.073890 2.047110 -0.066060 
#    z -0.024660 -0.066060 2.072590 
# 
# From -- ./inp_files/487601.got.cif
#   From: 2010.05.17/outbox.cif.g08.bks.cpg/sg2_244_cif.got.tgz:487601.got - 2010.06.03 11:33:40.
