data_PCOD9045448
_publ_section_title
;
Structure prediction by ZEFSAII (Michael W. Deem and Ramdas Pophale) SiO2 
 PCOD9045448
Probable space group: P -1
;
_chemical_formula_sum "Si O2"
_cell_formula_units_Z 16
_cell_length_a 11.322542
_cell_length_b 11.237250
_cell_length_c 10.389456
_cell_angle_alpha 76.872500
_cell_angle_beta 138.235523
_cell_angle_gamma 72.708313
_cell_volume 595.601394
_symmetry_space_group_name_H-M "P -1"
_symmetry_group_IT_number 2
_symmetry_cell_setting 'triclinic'
loop_
_space_group_symop_operation_xyz
x,y,z
-x,-y,-z
loop_
_atom_site_type_symbol
_atom_site_label
_atom_site_fract_x
_atom_site_fract_y
_atom_site_fract_z
Si Si1 0.984052 0.260656 0.365984
Si Si2 0.636288 0.574627 0.362469
Si Si3 0.755727 0.579404 0.704006
Si Si4 0.335655 0.923150 0.437150
Si Si5 0.733243 0.616318 0.178339
Si Si6 0.922569 0.184424 0.613604
Si Si7 0.556314 0.961290 0.836944
Si Si8 0.840168 0.274685 0.952360
O O1 0.786709 0.470892 0.173078
O O2 0.940244 0.194306 0.470389
O O3 0.927041 0.246111 0.178574
O O4 0.290576 0.134608 0.645606
O O5 0.825251 0.553741 0.615354
O O6 0.551187 0.670392 0.135068
O O7 0.753427 0.383654 0.477219
O O8 0.400808 0.691700 0.239468
O O9 0.531510 0.770684 0.533789
O O10 0.742144 0.445430 0.766932
O O11 0.000000 0.500000 0.000000
O O12 0.219485 0.869047 0.444333
O O13 0.473195 0.959141 0.626485
O O14 0.084424 0.102262 0.121926
O O15 0.000000 0.500000 0.500000
O O16 0.647107 0.785164 0.009118
O O17 0.207249 0.066180 0.932630
#
# Coordination Sequence:
#
# PCOD9045448 Si02
#       8
#     2   2   2   2   2   2   2   2
#     4  10  24  40  67 105 140 180 223 281 344 410
#     4  11  25  44  68 102 135 180 233 283 339 412
#     4  12  27  50  73  93 139 181 233 295 341 396
#     4  11  27  46  72 104 135 185 231 283 346 410
#     4  11  23  38  69 105 136 182 223 272 351 412
#     4  11  23  43  70 102 143 182 219 285 348 402
#     4  11  23  44  68 104 150 172 231 282 340 416
#     4  11  26  46  70 101 136 176 237 279 343 415
#
# _framework density 26.863603999999999
#
# number of rings (size 3 to 8) (size 9 to 14) (size 15 to 20)
#    0.000    1.000    3.750    2.250    5.250    3.000 
#    2.250    0.000    0.000    0.000    0.000    0.000 
#    0.000    0.000    0.000    0.000    0.000    0.000 
#
# Total GULP energy -89668.678257 kJ/mol
# GULP energy per Si atom -5604.292391 kJ/mol
# Density = 2.680246 g / cm^3
# Si number density = 26.863604 Si / 1000 Ang^3
#
#
#
# Elastic Constant Matrix: (Units=GPa)
#
#
# Indices 1 2 3 4 5 6 
#
# 1 110.1885 53.7194 30.4399 -2.7483 -2.2614 -5.1042
# 2 53.7194 115.7916 42.5377 -25.3495 -8.5541 -12.7306
# 3 30.4399 42.5377 97.6602 -13.5976 -5.4593 -10.0022
# 4 -2.7483 -25.3495 -13.5976 50.6503 -0.6076 -0.9475
# 5 -2.2614 -8.5541 -5.4593 -0.6076 34.0661 -0.6650
# 6 -5.1042 -12.7306 -10.0022 -0.9475 -0.6650 49.1249
#
#
#
# Elastic Compliance Matrix: (Units=1/GPa)
#
#
# Indices 1 2 3 4 5 6 
#
# 1 0.012271 -0.005769 -0.001814 -0.002733 -0.000986 -0.000656
# 2 -0.005769 0.014303 -0.003157 0.006081 0.002862 0.002621
# 3 -0.001814 -0.003157 0.012658 0.001764 0.001178 0.001621
# 4 -0.002733 0.006081 0.001764 0.023177 0.002083 0.002126
# 5 -0.000986 0.002862 0.001178 0.002083 0.030260 0.001329
# 6 -0.000656 0.002621 0.001621 0.002126 0.001329 0.021356
#
#
# Mechanical properties :
#
#
# Convention : Reuss Voigt Hill
#
# Bulk Modulus (GPa) = 56.33667 64.11493 60.22580
# Shear Modulus (GPa) = 35.35506 39.89781 37.62644
#
# Velocity S-wave (km/s) = 3.63174 3.85801 3.74658
# Velocity P-wave (km/s) = 6.21313 6.61546 6.41745
#
# Compressibility (1/GPa) = 0.01775043
#
# Stress axis : x y z
#
# Youngs Moduli (GPa) = 81.49609 69.91355 79.00395
#
# Poissons Ratio (x) = 0.40336 0.14335
# Poissons Ratio (y) = 0.47018 0.24939
# Poissons Ratio (z) = 0.14787 0.22070
#
# Static dielectric constant tensor:
#      x y z
#    x 2.265470 0.074660 0.092760 
#    y 0.074660 2.056610 0.098130 
#    z 0.092760 0.098130 2.286080 
# 
# From -- ./inp_files/428249.got.cif
#   From: 2010.05.17/outbox.cif.g08.bks.cpg/sg2_215_cif.got.tgz:428249.got - 2010.06.03 11:33:40.
