data_PCOD9045412
_publ_section_title
;
Structure prediction by ZEFSAII (Michael W. Deem and Ramdas Pophale) SiO2 
 PCOD9045412
Probable space group: P -1
;
_chemical_formula_sum "Si O2"
_cell_formula_units_Z 10
_cell_length_a 5.151174
_cell_length_b 18.849734
_cell_length_c 9.342956
_cell_angle_alpha 43.372313
_cell_angle_beta 92.261341
_cell_angle_gamma 116.099587
_cell_volume 498.328901
_symmetry_space_group_name_H-M "P -1"
_symmetry_group_IT_number 2
_symmetry_cell_setting 'triclinic'
loop_
_space_group_symop_operation_xyz
x,y,z
-x,-y,-z
loop_
_atom_site_type_symbol
_atom_site_label
_atom_site_fract_x
_atom_site_fract_y
_atom_site_fract_z
Si Si1 0.256455 0.812856 0.772834
Si Si2 0.893343 0.909109 0.467610
Si Si3 0.783106 0.091406 0.074550
Si Si4 0.089883 0.824026 0.360980
Si Si5 0.885071 0.588618 0.887439
O O1 0.588057 0.853963 0.645311
O O2 0.260884 0.835662 0.907764
O O3 0.998205 0.667835 0.922943
O O4 0.145078 0.895707 0.577063
O O5 0.830961 0.830353 0.436001
O O6 0.986689 0.044560 0.214151
O O7 0.437765 0.957348 0.217927
O O8 0.936300 0.171645 0.815324
O O9 0.043369 0.699577 0.606301
O O10 0.500000 0.500000 0.000000
O O11 0.000000 0.500000 0.000000
#
# Coordination Sequence:
#
# PCOD9045412 Si02
#       5
#     2   2   2   2   2
#     4  11  24  38  66  93 122 161 208 251 300 366
#     4  11  20  39  59  95 126 158 193 243 313 374
#     4  11  22  40  63 101 127 151 196 263 324 355
#     4  10  24  40  65  93 129 160 196 256 315 364
#     4  11  23  43  62  84 119 169 215 241 289 366
#
# _framework density 20.067069
#
# number of rings (size 3 to 8) (size 9 to 14) (size 15 to 20)
#    0.000    1.200    4.000    4.200    2.800    0.000 
#    0.000    2.000    0.000    0.000    0.000    0.000 
#    0.000    0.000    0.000    0.000    0.000    0.000 
#
# Total GULP energy -55838.030021 kJ/mol
# GULP energy per Si atom -5583.803002 kJ/mol
# Density = 2.002140 g / cm^3
# Si number density = 20.067069 Si / 1000 Ang^3
#
#
#
# Elastic Constant Matrix: (Units=GPa)
#
#
# Indices 1 2 3 4 5 6 
#
# 1 134.3302 60.6557 41.9333 6.6906 -4.3848 -23.0320
# 2 60.6557 179.1758 94.9054 24.2862 8.5187 -16.9810
# 3 41.9333 94.9054 115.9942 16.4736 3.9155 -14.6435
# 4 6.6906 24.2862 16.4736 50.1829 -2.2309 -1.4619
# 5 -4.3848 8.5187 3.9155 -2.2309 19.3659 -6.0133
# 6 -23.0320 -16.9810 -14.6435 -1.4619 -6.0133 35.6056
#
#
#
# Elastic Compliance Matrix: (Units=1/GPa)
#
#
# Indices 1 2 3 4 5 6 
#
# 1 0.010122 -0.002707 -0.000998 0.000705 0.005572 0.005816
# 2 -0.002707 0.011048 -0.007586 -0.002704 -0.004392 -0.000455
# 3 -0.000998 -0.007586 0.015625 -0.001239 0.000490 0.002194
# 4 0.000705 -0.002704 -0.001239 0.021742 0.004184 0.000256
# 5 0.005572 -0.004392 0.000490 0.004184 0.058886 0.011828
# 6 0.005816 -0.000455 0.002194 0.000256 0.011828 0.034541
#
#
# Mechanical properties :
#
#
# Convention : Reuss Voigt Hill
#
# Bulk Modulus (GPa) = 70.35948 91.60989 80.98469
# Shear Modulus (GPa) = 27.88868 36.49796 32.19332
#
# Velocity S-wave (km/s) = 3.73201 4.26936 4.00970
# Velocity P-wave (km/s) = 7.32863 8.36984 7.86648
#
# Compressibility (1/GPa) = 0.01421273
#
# Stress axis : x y z
#
# Youngs Moduli (GPa) = 98.79131 90.51686 64.00000
#
# Poissons Ratio (x) = 0.24504 0.06390
# Poissons Ratio (y) = 0.26745 0.48548
# Poissons Ratio (z) = 0.09863 0.68662
#
# Static dielectric constant tensor:
#      x y z
#    x 1.804070 0.037530 -0.014300 
#    y 0.037530 1.760020 0.002030 
#    z -0.014300 0.002030 1.691200 
# 
# From -- ./inp_files/132027.got.cif
#   From: 2010.05.17/outbox.cif.g08.bks.cpg/sg2_67_cif.got.tgz:132027.got - 2010.06.03 11:33:40.
