data_PCOD9045900
_publ_section_title
;
Structure prediction by ZEFSAII (Michael W. Deem and Ramdas Pophale) SiO2 
 PCOD9045900
Probable space group: P -1
;
_chemical_formula_sum "Si O2"
_cell_formula_units_Z 16
_cell_length_a 6.300669
_cell_length_b 15.942257
_cell_length_c 8.386959
_cell_angle_alpha 81.343751
_cell_angle_beta 123.376101
_cell_angle_gamma 93.648160
_cell_volume 695.304800
_symmetry_space_group_name_H-M "P -1"
_symmetry_group_IT_number 2
_symmetry_cell_setting 'triclinic'
loop_
_space_group_symop_operation_xyz
x,y,z
-x,-y,-z
loop_
_atom_site_type_symbol
_atom_site_label
_atom_site_fract_x
_atom_site_fract_y
_atom_site_fract_z
Si Si1 0.201851 0.026769 0.858734
Si Si2 0.345024 0.581171 0.702509
Si Si3 0.466976 0.762016 0.799437
Si Si4 0.194755 0.495782 0.940282
Si Si5 0.908018 0.353545 0.718887
Si Si6 0.406764 0.750064 0.157111
Si Si7 0.940013 0.799378 0.414817
Si Si8 0.933800 0.877591 0.900475
O O1 0.127862 0.104247 0.690359
O O2 0.144578 0.067745 0.994541
O O3 0.022010 0.945856 0.786379
O O4 0.500000 0.000000 0.000000
O O5 0.478735 0.670280 0.749391
O O6 0.150636 0.571117 0.772719
O O7 0.226400 0.582436 0.480709
O O8 0.537109 0.506675 0.856162
O O9 0.692039 0.817246 0.801659
O O10 0.181555 0.796682 0.631871
O O11 0.481858 0.752040 0.000311
O O12 0.146178 0.405688 0.860867
O O13 0.000000 0.500000 0.000000
O O14 0.731639 0.329979 0.801537
O O15 0.973483 0.266700 0.673139
O O16 0.664194 0.764675 0.358940
O O17 0.190018 0.823634 0.059452
#
# Coordination Sequence:
#
# PCOD9045900 Si02
#       8
#     2   2   2   2   2   2   2   2
#     4  11  21  42  68  95 131 176 224 271 334 389
#     4  10  24  42  63  95 133 169 218 270 322 395
#     4  11  24  42  65  99 130 172 226 271 332 396
#     4  11  23  42  67  96 131 172 213 272 330 382
#     4  11  24  41  66  95 131 176 223 265 328 393
#     4  12  21  41  64  95 130 174 216 279 327 385
#     4  11  24  42  67  96 131 179 221 273 333 394
#     4  11  22  39  68  91 132 175 218 277 331 390
#
# _framework density 23.011489999999998
#
# number of rings (size 3 to 8) (size 9 to 14) (size 15 to 20)
#    0.000    1.000    3.750    2.625    0.000    7.000 
#    0.000    2.500    0.000    0.000    0.000    0.000 
#    0.000    0.000    0.000    0.000    0.000    0.000 
#
# Total GULP energy -89278.717188 kJ/mol
# GULP energy per Si atom -5579.919824 kJ/mol
# Density = 2.295911 g / cm^3
# Si number density = 23.011490 Si / 1000 Ang^3
#
#
#
# Elastic Constant Matrix: (Units=GPa)
#
#
# Indices 1 2 3 4 5 6 
#
# 1 66.6413 36.2468 34.3405 11.3875 21.3535 19.8988
# 2 36.2468 99.7354 28.2674 1.7539 6.2136 34.4729
# 3 34.3405 28.2674 116.9976 -16.4995 23.9172 13.3336
# 4 11.3875 1.7539 -16.4995 32.2594 2.5492 3.7432
# 5 21.3535 6.2136 23.9172 2.5492 34.0326 6.3774
# 6 19.8988 34.4729 13.3336 3.7432 6.3774 54.6099
#
#
#
# Elastic Compliance Matrix: (Units=1/GPa)
#
#
# Indices 1 2 3 4 5 6 
#
# 1 0.027665 -0.006774 -0.005532 -0.011081 -0.010951 -0.002415
# 2 -0.006774 0.015147 -0.001408 0.001398 0.003734 -0.007281
# 3 -0.005532 -0.001408 0.013088 0.009232 -0.006122 -0.000209
# 4 -0.011081 0.001398 0.009232 0.039932 -0.002492 -0.001545
# 5 -0.010951 0.003734 -0.006122 -0.002492 0.040326 -0.001411
# 6 -0.002415 -0.007281 -0.000209 -0.001545 -0.001411 0.024110
#
#
# Mechanical properties :
#
#
# Convention : Reuss Voigt Hill
#
# Bulk Modulus (GPa) = 35.12271 53.45376 44.28824
# Shear Modulus (GPa) = 25.35663 36.48167 30.91915
#
# Velocity S-wave (km/s) = 3.32311 3.98599 3.66955
# Velocity P-wave (km/s) = 5.47908 6.66811 6.10262
#
# Compressibility (1/GPa) = 0.02847161
#
# Stress axis : x y z
#
# Youngs Moduli (GPa) = 36.14730 66.01940 76.40407
#
# Poissons Ratio (x) = 0.44724 0.42268
# Poissons Ratio (y) = 0.24488 0.10755
# Poissons Ratio (z) = 0.19997 0.09293
#
# Static dielectric constant tensor:
#      x y z
#    x 2.039590 0.045020 -0.005430 
#    y 0.045020 1.914010 -0.001790 
#    z -0.005430 -0.001790 1.887830 
# 
# From -- ./inp_files/53997.got.cif
#   From: 2010.05.17/outbox.cif.g08.bks.cpg/sg2_27_cif.got.tgz:53997.got - 2010.06.03 11:33:40.
