data_PCOD9045667
_publ_section_title
;
Structure prediction by ZEFSAII (Michael W. Deem and Ramdas Pophale) SiO2 
 PCOD9045667
Probable space group: P -1
;
_chemical_formula_sum "Si O2"
_cell_formula_units_Z 16
_cell_length_a 12.069908
_cell_length_b 5.176944
_cell_length_c 29.409684
_cell_angle_alpha 101.065047
_cell_angle_beta 156.498282
_cell_angle_gamma 79.637851
_cell_volume 719.161893
_symmetry_space_group_name_H-M "P -1"
_symmetry_group_IT_number 2
_symmetry_cell_setting 'triclinic'
loop_
_space_group_symop_operation_xyz
x,y,z
-x,-y,-z
loop_
_atom_site_type_symbol
_atom_site_label
_atom_site_fract_x
_atom_site_fract_y
_atom_site_fract_z
Si Si1 0.341592 0.275370 0.958116
Si Si2 0.870992 0.909550 0.995745
Si Si3 0.944943 0.587011 0.682053
Si Si4 0.434784 0.545473 0.096625
Si Si5 0.317533 0.492276 0.603298
Si Si6 0.861181 0.993768 0.733614
Si Si7 0.553130 0.666748 0.454453
Si Si8 0.657946 0.988841 0.751322
O O1 0.036550 0.249801 0.820792
O O2 0.500000 0.500000 0.000000
O O3 0.341925 0.366600 0.012986
O O4 0.500000 0.000000 0.000000
O O5 0.672775 0.158944 0.941339
O O6 0.124050 0.910544 0.126764
O O7 0.708554 0.631462 0.923858
O O8 0.000000 0.000000 0.000000
O O9 0.232117 0.441485 0.774391
O O10 0.798093 0.679347 0.583516
O O11 0.710343 0.443470 0.619627
O O12 0.026547 0.826625 0.753582
O O13 0.351030 0.485458 0.560374
O O14 0.470625 0.231398 0.671119
O O15 0.000000 0.500000 0.500000
O O16 0.469488 0.749736 0.688320
O O17 0.567483 0.059201 0.601580
O O18 0.819362 0.876222 0.763721
#
# Coordination Sequence:
#
# PCOD9045667 Si02
#       8
#     2   2   2   2   2   2   2   2
#     4  12  24  38  67 103 141 174 226 287 343 421
#     4  12  28  49  70  99 140 188 237 294 359 415
#     4  11  23  42  66 100 145 182 228 290 354 432
#     4  12  26  44  70 105 135 183 241 286 353 429
#     4  11  24  45  73 102 133 181 244 288 339 411
#     4  11  22  40  66  96 140 182 224 277 359 422
#     4  10  24  41  65  99 140 188 225 285 364 413
#     4  11  24  44  71  97 136 179 228 293 353 412
#
# _framework density 22.248117000000001
#
# number of rings (size 3 to 8) (size 9 to 14) (size 15 to 20)
#    0.000    0.750    3.750    3.375    3.500    2.000 
#    0.000    0.000    0.000    0.000    0.000    0.000 
#    0.000    0.000    0.000    0.000    0.000    0.000 
#
# Total GULP energy -89436.303167 kJ/mol
# GULP energy per Si atom -5589.768948 kJ/mol
# Density = 2.219748 g / cm^3
# Si number density = 22.248117 Si / 1000 Ang^3
#
#
#
# Elastic Constant Matrix: (Units=GPa)
#
#
# Indices 1 2 3 4 5 6 
#
# 1 75.9828 -5.4575 28.9977 -9.9639 2.6036 8.0560
# 2 -5.4575 81.3836 17.7535 -5.1995 11.9159 11.1167
# 3 28.9977 17.7535 115.2737 -13.0710 5.4731 -5.8840
# 4 -9.9639 -5.1995 -13.0710 34.1252 10.5039 6.7214
# 5 2.6036 11.9159 5.4731 10.5039 38.5244 5.3879
# 6 8.0560 11.1167 -5.8840 6.7214 5.3879 24.9396
#
#
#
# Elastic Compliance Matrix: (Units=1/GPa)
#
#
# Indices 1 2 3 4 5 6 
#
# 1 0.017209 0.004249 -0.004641 0.006513 -0.002220 -0.009824
# 2 0.004249 0.015650 -0.003069 0.005861 -0.004950 -0.009583
# 3 -0.004641 -0.003069 0.010855 0.001756 -0.001496 0.005278
# 4 0.006513 0.005861 0.001756 0.038677 -0.011331 -0.012278
# 5 -0.002220 -0.004950 -0.001496 -0.011331 0.031093 -0.001093
# 6 -0.009824 -0.009583 0.005278 -0.012278 -0.001093 0.052332
#
#
# Mechanical properties :
#
#
# Convention : Reuss Voigt Hill
#
# Bulk Modulus (GPa) = 27.17926 39.46971 33.32449
# Shear Modulus (GPa) = 27.02690 34.94093 30.98391
#
# Velocity S-wave (km/s) = 3.48917 3.96727 3.73588
# Velocity P-wave (km/s) = 5.33623 6.22614 5.79828
#
# Compressibility (1/GPa) = 0.03679276
#
# Stress axis : x y z
#
# Youngs Moduli (GPa) = 58.10949 63.89760 92.12624
#
# Poissons Ratio (x) = -0.27153 0.42756
# Poissons Ratio (y) = -0.24693 0.28272
# Poissons Ratio (z) = 0.26969 0.19609
#
# Static dielectric constant tensor:
#      x y z
#    x 1.512060 0.045400 0.165630 
#    y 0.045400 1.866160 -0.007050 
#    z 0.165630 -0.007050 1.756090 
# 
# From -- ./inp_files/441964.got.cif
#   From: 2010.05.17/outbox.cif.g08.bks.cpg/sg2_221_cif.got.tgz:441964.got - 2010.06.03 11:33:40.
