data_PCOD9045600
_publ_section_title
;
Structure prediction by ZEFSAII (Michael W. Deem and Ramdas Pophale) SiO2 
 PCOD9045600
Probable space group: P -1
;
_chemical_formula_sum "Si O2"
_cell_formula_units_Z 12
_cell_length_a 21.217526
_cell_length_b 12.471137
_cell_length_c 9.482260
_cell_angle_alpha 47.108861
_cell_angle_beta 132.940729
_cell_angle_gamma 159.375430
_cell_volume 637.924281
_symmetry_space_group_name_H-M "P -1"
_symmetry_group_IT_number 2
_symmetry_cell_setting 'triclinic'
loop_
_space_group_symop_operation_xyz
x,y,z
-x,-y,-z
loop_
_atom_site_type_symbol
_atom_site_label
_atom_site_fract_x
_atom_site_fract_y
_atom_site_fract_z
Si Si1 0.804895 0.277563 0.384615
Si Si2 0.671715 0.662068 0.558355
Si Si3 0.549069 0.703694 0.709606
Si Si4 0.386616 0.529027 0.916127
Si Si5 0.054489 0.201201 0.784124
Si Si6 0.478700 0.133237 0.897539
O O1 0.834209 0.494435 0.257147
O O2 0.000000 0.500000 0.500000
O O3 0.672401 0.001800 0.543488
O O4 0.714936 0.110600 0.245229
O O5 0.500000 0.500000 0.500000
O O6 0.632737 0.594716 0.393437
O O7 0.631821 0.447543 0.761988
O O8 0.875268 0.998687 0.616682
O O9 0.497748 0.684797 0.801861
O O10 0.639510 0.678075 0.885293
O O11 0.194546 0.322567 0.790014
O O12 0.493475 0.777114 0.979639
O O13 0.000000 0.000000 0.000000
O O14 0.500000 0.000000 0.000000
#
# Coordination Sequence:
#
# PCOD9045600 Si02
#       6
#     2   2   2   2   2   2
#     4  11  23  37  63  92 116 156 211 246 295 357
#     4  11  20  38  64  87 118 158 206 240 299 359
#     4  10  24  41  62  87 123 165 195 253 303 357
#     4  11  22  41  63  86 126 159 203 244 315 346
#     4  12  21  37  65  92 121 156 206 251 291 364
#     4  11  20  38  60  88 115 160 197 249 296 360
#
# _framework density 18.81101
#
# number of rings (size 3 to 8) (size 9 to 14) (size 15 to 20)
#    0.000    1.000    5.000    3.000    0.000    1.333 
#    0.000    0.833    3.667    0.000    0.000    0.000 
#    0.000    0.000    0.000    0.000    0.000    0.000 
#
# Total GULP energy -66913.382527 kJ/mol
# GULP energy per Si atom -5576.115211 kJ/mol
# Density = 1.876820 g / cm^3
# Si number density = 18.811010 Si / 1000 Ang^3
#
#
#
# Elastic Constant Matrix: (Units=GPa)
#
#
# Indices 1 2 3 4 5 6 
#
# 1 120.0341 40.8027 48.5745 8.1102 2.4049 -11.0441
# 2 40.8027 113.2386 41.2983 19.1564 4.9442 -5.8646
# 3 48.5745 41.2983 80.9521 7.6899 -0.7770 -6.8564
# 4 8.1102 19.1564 7.6899 46.4421 -5.9808 10.4118
# 5 2.4049 4.9442 -0.7770 -5.9808 32.2826 5.4364
# 6 -11.0441 -5.8646 -6.8564 10.4118 5.4364 28.6642
#
#
#
# Elastic Compliance Matrix: (Units=1/GPa)
#
#
# Indices 1 2 3 4 5 6 
#
# 1 0.011669 -0.001600 -0.005756 -0.001450 -0.001643 0.003630
# 2 -0.001600 0.012273 -0.004555 -0.005216 -0.003400 0.003344
# 3 -0.005756 -0.004555 0.018249 -0.000194 0.001356 0.001029
# 4 -0.001450 -0.005216 -0.000194 0.028062 0.008366 -0.013452
# 5 -0.001643 -0.003400 0.001356 0.008366 0.035001 -0.010681
# 6 0.003630 0.003344 0.001029 -0.013452 -0.010681 0.044128
#
#
# Mechanical properties :
#
#
# Convention : Reuss Voigt Hill
#
# Bulk Modulus (GPa) = 54.44062 63.95288 59.19675
# Shear Modulus (GPa) = 27.88211 33.71440 30.79825
#
# Velocity S-wave (km/s) = 3.85414 4.23811 4.05068
# Velocity P-wave (km/s) = 6.98638 7.61710 7.30855
#
# Compressibility (1/GPa) = 0.01836864
#
# Stress axis : x y z
#
# Youngs Moduli (GPa) = 85.69589 81.48181 54.79774
#
# Poissons Ratio (x) = 0.13041 0.31542
# Poissons Ratio (y) = 0.13715 0.24958
# Poissons Ratio (z) = 0.49327 0.37111
#
# Static dielectric constant tensor:
#      x y z
#    x 1.677900 -0.029260 0.051780 
#    y -0.029260 1.678650 0.023080 
#    z 0.051780 0.023080 1.713810 
# 
# From -- ./inp_files/144739.got.cif
#   From: 2010.05.17/outbox.cif.g08.bks.cpg/sg2_73_cif.got.tgz:144739.got - 2010.06.03 11:33:40.
