data_PCOD9045888
_publ_section_title
;
Structure prediction by ZEFSAII (Michael W. Deem and Ramdas Pophale) SiO2 
 PCOD9045888
Probable space group: P -1
;
_chemical_formula_sum "Si O2"
_cell_formula_units_Z 16
_cell_length_a 15.382165
_cell_length_b 8.011344
_cell_length_c 12.319650
_cell_angle_alpha 50.735498
_cell_angle_beta 39.671006
_cell_angle_gamma 65.140777
_cell_volume 743.483655
_symmetry_space_group_name_H-M "P -1"
_symmetry_group_IT_number 2
_symmetry_cell_setting 'triclinic'
loop_
_space_group_symop_operation_xyz
x,y,z
-x,-y,-z
loop_
_atom_site_type_symbol
_atom_site_label
_atom_site_fract_x
_atom_site_fract_y
_atom_site_fract_z
Si Si1 0.614221 0.691426 0.774209
Si Si2 0.015656 0.635477 0.751761
Si Si3 0.541546 0.073916 0.551635
Si Si4 0.168534 0.665705 0.800029
Si Si5 0.871384 0.684120 0.665265
Si Si6 0.270812 0.225700 0.795191
Si Si7 0.080373 0.805834 0.224764
Si Si8 0.177262 0.329022 0.610076
O O1 0.728809 0.754266 0.731755
O O2 0.706134 0.631689 0.608772
O O3 0.537290 0.881516 0.721979
O O4 0.500000 0.500000 0.000000
O O5 0.087237 0.752206 0.740661
O O6 0.132459 0.558729 0.595201
O O7 0.911647 0.733212 0.731493
O O8 0.935480 0.412703 0.971724
O O9 0.699646 0.177291 0.355725
O O10 0.434122 0.227781 0.634176
O O11 0.500000 0.000000 0.500000
O O12 0.222866 0.442533 0.800921
O O13 0.860576 0.421629 0.763865
O O14 0.999616 0.780521 0.426927
O O15 0.225485 0.217900 0.716347
O O16 0.193493 0.013544 0.016646
O O17 0.956231 0.809788 0.256679
#
# Coordination Sequence:
#
# PCOD9045888 Si02
#       8
#     2   2   2   2   2   2   2   2
#     4  11  23  38  60  97 129 161 210 263 311 374
#     4   9  20  39  66  88 125 166 204 262 315 376
#     4  12  26  41  64  92 123 171 216 258 304 378
#     4  10  24  42  62  95 127 161 214 260 317 373
#     4   9  19  35  60  92 129 163 204 266 315 366
#     4  11  21  39  63  89 128 170 204 261 312 367
#     4   9  18  33  60  95 123 159 211 257 314 371
#     4   9  19  34  60  95 123 158 206 261 310 363
#
# _framework density 21.520311
#
# number of rings (size 3 to 8) (size 9 to 14) (size 15 to 20)
#    0.000    2.000    1.250    2.250    5.250    6.000 
#    0.000    2.500    0.000    4.500    0.000    0.000 
#    0.000    0.000    0.000    0.000    0.000    0.000 
#
# Total GULP energy -89428.727927 kJ/mol
# GULP energy per Si atom -5589.295495 kJ/mol
# Density = 2.147133 g / cm^3
# Si number density = 21.520311 Si / 1000 Ang^3
#
#
#
# Elastic Constant Matrix: (Units=GPa)
#
#
# Indices 1 2 3 4 5 6 
#
# 1 160.6119 15.4954 39.5448 -7.0578 13.5644 -3.7140
# 2 15.4954 57.3518 14.3775 -0.8295 7.0912 -7.0247
# 3 39.5448 14.3775 78.3237 -5.4808 -9.1039 8.6809
# 4 -7.0578 -0.8295 -5.4808 34.6539 0.0410 -3.5587
# 5 13.5644 7.0912 -9.1039 0.0410 28.9552 -0.3471
# 6 -3.7140 -7.0247 8.6809 -3.5587 -0.3471 31.6948
#
#
#
# Elastic Compliance Matrix: (Units=1/GPa)
#
#
# Indices 1 2 3 4 5 6 
#
# 1 0.007949 -0.000002 -0.004797 0.001104 -0.005205 0.002312
# 2 -0.000002 0.020236 -0.005095 0.000286 -0.006487 0.005841
# 3 -0.004797 -0.005095 0.017962 0.001075 0.009064 -0.006391
# 4 0.001104 0.000286 0.001075 0.029589 -0.000252 0.003218
# 5 -0.005205 -0.006487 0.009064 -0.000252 0.041364 -0.004106
# 6 0.002312 0.005841 -0.006391 0.003218 -0.004106 0.035183
#
#
# Mechanical properties :
#
#
# Convention : Reuss Voigt Hill
#
# Bulk Modulus (GPa) = 37.93869 48.34697 43.14283
# Shear Modulus (GPa) = 27.64608 34.18543 30.91576
#
# Velocity S-wave (km/s) = 3.58809 3.98995 3.79434
# Velocity P-wave (km/s) = 5.90198 6.61368 6.26794
#
# Compressibility (1/GPa) = 0.02635831
#
# Stress axis : x y z
#
# Youngs Moduli (GPa) = 125.80087 49.41752 55.67379
#
# Poissons Ratio (x) = 0.00012 0.26706
# Poissons Ratio (y) = 0.00031 0.28364
# Poissons Ratio (z) = 0.60346 0.25177
#
# Static dielectric constant tensor:
#      x y z
#    x 1.809050 -0.016550 0.019280 
#    y -0.016550 1.841650 -0.019460 
#    z 0.019280 -0.019460 1.739160 
# 
# From -- ./inp_files/243535.got.cif
#   From: 2010.05.17/outbox.cif.g08.bks.cpg/sg2_122_cif.got.tgz:243535.got - 2010.06.03 11:33:40.
