data_PCOD9045368
_publ_section_title
;
Structure prediction by ZEFSAII (Michael W. Deem and Ramdas Pophale) SiO2 
 PCOD9045368
Probable space group: P -1
;
_chemical_formula_sum "Si O2"
_cell_formula_units_Z 16
_cell_length_a 6.829926
_cell_length_b 23.768663
_cell_length_c 20.359318
_cell_angle_alpha 20.297075
_cell_angle_beta 126.421111
_cell_angle_gamma 135.229131
_cell_volume 771.450448
_symmetry_space_group_name_H-M "P -1"
_symmetry_group_IT_number 2
_symmetry_cell_setting 'triclinic'
loop_
_space_group_symop_operation_xyz
x,y,z
-x,-y,-z
loop_
_atom_site_type_symbol
_atom_site_label
_atom_site_fract_x
_atom_site_fract_y
_atom_site_fract_z
Si Si1 0.665106 0.459380 0.632963
Si Si2 0.434553 0.361470 0.334484
Si Si3 0.795921 0.167658 0.614964
Si Si4 0.648739 0.188844 0.276913
Si Si5 0.160881 0.096634 0.994679
Si Si6 0.752431 0.565915 0.923425
Si Si7 0.076863 0.007705 0.288342
Si Si8 0.973806 0.733028 0.099241
O O1 0.500000 0.500000 0.500000
O O2 0.428243 0.307525 0.801186
O O3 0.879790 0.655610 0.498724
O O4 0.841379 0.363939 0.748786
O O5 0.610789 0.260121 0.468228
O O6 0.363517 0.414397 0.192017
O O7 0.645026 0.551788 0.213099
O O8 0.145100 0.188890 0.501603
O O9 0.791788 0.052742 0.677431
O O10 0.724890 0.028761 0.814740
O O11 0.361702 0.159986 0.218701
O O12 0.913361 0.238855 0.224536
O O13 0.500000 0.000000 0.500000
O O14 0.791150 0.385536 0.131662
O O15 0.993054 0.137615 0.972474
O O16 0.000000 0.000000 0.000000
O O17 0.500000 0.500000 0.000000
O O18 0.939511 0.118657 0.107083
#
# Coordination Sequence:
#
# PCOD9045368 Si02
#       8
#     2   2   2   2   2   2   2   2
#     4  11  22  42  62  91 126 164 210 264 320 387
#     4  11  22  43  65  92 130 168 215 267 322 392
#     4  10  24  40  62  93 123 167 215 259 326 384
#     4  11  24  44  66  93 132 172 219 266 325 391
#     4  11  22  42  62  92 126 162 214 267 317 382
#     4  11  26  43  65  99 134 171 217 270 330 386
#     4  11  22  43  67  92 126 173 215 269 319 383
#     4  10  24  42  63  93 128 171 212 263 331 380
#
# _framework density 20.740154
#
# number of rings (size 3 to 8) (size 9 to 14) (size 15 to 20)
#    0.000    1.250    3.750    1.500    1.750    2.500 
#   11.250    0.000    0.000    0.000    0.000    0.000 
#    0.000    0.000    0.000    0.000    0.000    0.000 
#
# Total GULP energy -89164.763755 kJ/mol
# GULP energy per Si atom -5572.797735 kJ/mol
# Density = 2.069295 g / cm^3
# Si number density = 20.740154 Si / 1000 Ang^3
#
#
#
# Elastic Constant Matrix: (Units=GPa)
#
#
# Indices 1 2 3 4 5 6 
#
# 1 40.8154 33.9410 40.2425 -31.7197 -29.1514 24.8328
# 2 33.9410 63.0885 24.2113 42.2100 3.0716 -3.9313
# 3 40.2425 24.2113 137.9000 54.7168 -6.7028 -14.0962
# 4 -31.7197 42.2100 54.7168 -67.1589 -31.4046 47.7848
# 5 -29.1514 3.0716 -6.7028 -31.4046 32.7057 13.4133
# 6 24.8328 -3.9313 -14.0962 47.7848 13.4133 0.2180
#
#
#
# Elastic Compliance Matrix: (Units=1/GPa)
#
#
# Indices 1 2 3 4 5 6 
#
# 1 0.019924 -0.002719 -0.000034 -0.012129 0.005456 0.002205
# 2 -0.002719 0.017087 -0.003794 0.001538 0.000735 -0.009909
# 3 -0.000034 -0.003794 0.007544 0.000961 0.003481 -0.001671
# 4 -0.012129 0.001538 0.000961 0.009179 -0.009064 0.017359
# 5 0.005456 0.000735 0.003481 -0.009064 0.026010 0.003341
# 6 0.002205 -0.009909 -0.001671 0.017359 0.003341 0.038722
#
#
# Mechanical properties :
#
#
# Convention : Reuss Voigt Hill
#
# Bulk Modulus (GPa) = 31.78416 48.73260 40.25838
# Shear Modulus (GPa) = 35.19968 2.71355 18.95662
#
# Velocity S-wave (km/s) = 4.12415 1.14508 3.02653
# Velocity P-wave (km/s) = 6.16736 5.02951 5.62727
#
# Compressibility (1/GPa) = 0.03146221
#
# Stress axis : x y z
#
# Youngs Moduli (GPa) = 50.19060 58.52379 132.54691
#
# Poissons Ratio (x) = 0.15913 0.00445
# Poissons Ratio (y) = 0.13647 0.50289
# Poissons Ratio (z) = 0.00169 0.22204
#
# Static dielectric constant tensor:
#      x y z
#    x 1.757470 0.028080 -0.019120 
#    y 0.028080 1.798790 0.008610 
#    z -0.019120 0.008610 1.739630 
# 
# From -- ./inp_files/323222.got.cif
#   From: 2010.05.17/outbox.cif.g08.bks.cpg/sg2_162_cif.got.tgz:323222.got - 2010.06.03 11:33:40.
