data_PCOD9045063
_publ_section_title
;
Structure prediction by ZEFSAII (Michael W. Deem and Ramdas Pophale) SiO2 
 PCOD9045063
Probable space group: P -1
;
_chemical_formula_sum "Si O2"
_cell_formula_units_Z 14
_cell_length_a 8.629921
_cell_length_b 19.961692
_cell_length_c 5.410564
_cell_angle_alpha 113.282065
_cell_angle_beta 61.837882
_cell_angle_gamma 135.819483
_cell_volume 570.225768
_symmetry_space_group_name_H-M "P -1"
_symmetry_group_IT_number 2
_symmetry_cell_setting 'triclinic'
loop_
_space_group_symop_operation_xyz
x,y,z
-x,-y,-z
loop_
_atom_site_type_symbol
_atom_site_label
_atom_site_fract_x
_atom_site_fract_y
_atom_site_fract_z
Si Si1 0.777674 0.890417 0.415818
Si Si2 0.678862 0.988721 0.261330
Si Si3 0.921515 0.685218 0.318539
Si Si4 0.984149 0.814090 0.873853
Si Si5 0.375035 0.833841 0.903865
Si Si6 0.239117 0.524670 0.794951
Si Si7 0.495097 0.411909 0.825821
O O1 0.687401 0.916133 0.295502
O O2 0.539722 0.816088 0.644913
O O3 0.859524 0.833162 0.189653
O O4 0.000000 0.000000 0.500000
O O5 0.500000 0.000000 0.500000
O O6 0.580147 0.942494 0.000439
O O7 0.922295 0.095425 0.244822
O O8 0.877594 0.726029 0.640890
O O9 0.823982 0.578774 0.298260
O O10 0.771299 0.671881 0.177738
O O11 0.192389 0.759262 0.143130
O O12 0.209797 0.834141 0.845590
O O13 0.350880 0.566870 0.501058
O O14 0.404646 0.591488 0.998820
O O15 0.000000 0.500000 0.000000
O O16 0.500000 0.500000 0.000000
#
# Coordination Sequence:
#
# PCOD9045063 Si02
#       7
#     2   2   2   2   2   2   2
#     4  12  26  43  71  98 140 199 256 293 364 437
#     4  12  22  45  67  96 141 196 242 296 366 431
#     4  11  26  45  72 103 145 187 242 306 368 442
#     4  12  26  44  70 101 145 191 248 307 363 430
#     4  12  25  44  68 102 144 191 246 303 367 428
#     4  11  25  51  80 111 148 194 241 306 382 466
#     4  10  23  48  79 104 145 196 240 291 387 463
#
# _framework density 24.551682
#
# number of rings (size 3 to 8) (size 9 to 14) (size 15 to 20)
#    0.000    0.571    4.286    3.857    6.000    0.000 
#    7.714    0.000    0.000    0.000    0.000    0.000 
#    0.000    0.000    0.000    0.000    0.000    0.000 
#
# Total GULP energy -78209.483457 kJ/mol
# GULP energy per Si atom -5586.391676 kJ/mol
# Density = 2.449580 g / cm^3
# Si number density = 24.551682 Si / 1000 Ang^3
#
#
#
# Elastic Constant Matrix: (Units=GPa)
#
#
# Indices 1 2 3 4 5 6 
#
# 1 99.4391 41.5461 68.6507 13.5726 -5.8605 34.5205
# 2 41.5461 100.2510 56.6272 0.1914 -16.0546 9.9825
# 3 68.6507 56.6272 188.5111 -3.3508 -25.0065 32.3974
# 4 13.5726 0.1914 -3.3508 56.1185 12.5823 -5.5814
# 5 -5.8605 -16.0546 -25.0065 12.5823 50.4719 -4.4627
# 6 34.5205 9.9825 32.3974 -5.5814 -4.4627 40.7320
#
#
#
# Elastic Compliance Matrix: (Units=1/GPa)
#
#
# Indices 1 2 3 4 5 6 
#
# 1 0.020472 -0.005087 -0.003714 -0.006394 -0.000734 -0.014106
# 2 -0.005087 0.013539 -0.002424 0.000783 0.002613 0.003314
# 3 -0.003714 -0.002424 0.008131 0.000603 0.002466 -0.002373
# 4 -0.006394 0.000783 0.000603 0.021194 -0.004849 0.007120
# 5 -0.000734 0.002613 0.002466 -0.004849 0.022978 -0.000126
# 6 -0.014106 0.003314 -0.002373 0.007120 -0.000126 0.038542
#
#
# Mechanical properties :
#
#
# Convention : Reuss Voigt Hill
#
# Bulk Modulus (GPa) = 50.77968 80.20548 65.49258
# Shear Modulus (GPa) = 32.49465 44.22296 38.35881
#
# Velocity S-wave (km/s) = 3.64197 4.24868 3.95697
# Velocity P-wave (km/s) = 6.19782 7.53706 6.90001
#
# Compressibility (1/GPa) = 0.01969292
#
# Stress axis : x y z
#
# Youngs Moduli (GPa) = 48.84609 73.86071 122.98637
#
# Poissons Ratio (x) = 0.37573 0.45680
# Poissons Ratio (y) = 0.24848 0.29806
# Poissons Ratio (z) = 0.18143 0.17900
#
# Static dielectric constant tensor:
#      x y z
#    x 1.868050 0.039430 0.132100 
#    y 0.039430 2.006130 -0.175840 
#    z 0.132100 -0.175840 1.890380 
# 
# From -- ./inp_files/53658.got.cif
#   From: 2010.05.17/outbox.cif.g08.bks.cpg/sg2_27_cif.got.tgz:53658.got - 2010.06.03 11:33:40.
