data_PCOD9045025
_publ_section_title
;
Structure prediction by ZEFSAII (Michael W. Deem and Ramdas Pophale) SiO2 
 PCOD9045025
Probable space group: P -1
;
_chemical_formula_sum "Si O2"
_cell_formula_units_Z 13
_cell_length_a 12.765719
_cell_length_b 13.297558
_cell_length_c 4.931474
_cell_angle_alpha 121.412709
_cell_angle_beta 96.911081
_cell_angle_gamma 43.634909
_cell_volume 443.630061
_symmetry_space_group_name_H-M "P -1"
_symmetry_group_IT_number 2
_symmetry_cell_setting 'triclinic'
loop_
_space_group_symop_operation_xyz
x,y,z
-x,-y,-z
loop_
_atom_site_type_symbol
_atom_site_label
_atom_site_fract_x
_atom_site_fract_y
_atom_site_fract_z
Si Si1 0.249338 0.123182 0.304316
Si Si2 0.090847 0.587341 0.678652
Si Si3 0.816569 0.258311 0.359733
Si Si4 0.440597 0.782140 0.539571
Si Si5 0.157601 0.963396 0.339373
Si Si6 0.500000 0.500000 0.500000
Si Si7 0.710419 0.666644 0.116105
O O1 0.095346 0.291288 0.291674
O O2 0.177915 0.076667 0.389851
O O3 0.297095 0.191390 0.598471
O O4 0.227152 0.407308 0.271480
O O5 0.105076 0.711853 0.770568
O O6 0.457370 0.253022 0.728939
O O7 0.143009 0.518370 0.905071
O O8 0.637138 0.435810 0.683570
O O9 0.743679 0.220291 0.072790
O O10 0.964206 0.099705 0.395065
O O11 0.257309 0.891082 0.545448
O O12 0.528096 0.600347 0.469271
O O13 0.400134 0.932408 0.918760
#
# Coordination Sequence:
#
# PCOD9045025 Si02
#       7
#     2   2   2   2   2   1   2
#     4  11  26  50  76 114 158 208 264 316 400 476
#     4  11  27  49  79 116 156 214 262 325 391 473
#     4  10  23  48  73 109 154 195 267 314 398 462
#     4  12  28  47  80 114 159 207 263 328 401 466
#     4  10  25  47  74 112 151 205 254 327 394 476
#     4  12  24  48  70 112 154 196 264 318 394 460
#     4  12  28  49  80 117 161 205 268 328 390 464
#
# _framework density 29.303692999999999
#
# number of rings (size 3 to 8) (size 9 to 14) (size 15 to 20)
#    0.000    0.923    3.077    1.385   10.769    3.077 
#    0.000    0.000    0.000    2.769    0.000    0.000 
#    0.000    0.000    0.000    0.000    0.000    0.000 
#
# Total GULP energy -72787.346585 kJ/mol
# GULP energy per Si atom -5599.026660 kJ/mol
# Density = 2.923700 g / cm^3
# Si number density = 29.303693 Si / 1000 Ang^3
#
#
#
# Elastic Constant Matrix: (Units=GPa)
#
#
# Indices 1 2 3 4 5 6 
#
# 1 158.3981 26.8424 36.3026 24.9349 11.6464 8.7302
# 2 26.8424 147.6996 4.3657 3.7701 -4.8099 -12.1495
# 3 36.3026 4.3657 142.4525 16.6844 24.6994 8.2044
# 4 24.9349 3.7701 16.6844 28.3564 2.9625 1.2380
# 5 11.6464 -4.8099 24.6994 2.9625 49.8082 11.2846
# 6 8.7302 -12.1495 8.2044 1.2380 11.2846 48.0074
#
#
#
# Elastic Compliance Matrix: (Units=1/GPa)
#
#
# Indices 1 2 3 4 5 6 
#
# 1 0.007854 -0.001374 -0.001048 -0.005968 -0.000811 -0.001252
# 2 -0.001374 0.007199 -0.000109 0.000165 0.000621 0.001940
# 3 -0.001048 -0.000109 0.008357 -0.003589 -0.003624 -0.000321
# 4 -0.005968 0.000165 -0.003589 0.042524 0.000545 0.000516
# 5 -0.000811 0.000621 -0.003624 0.000545 0.023116 -0.004524
# 6 -0.001252 0.001940 -0.000321 0.000516 -0.004524 0.022654
#
#
# Mechanical properties :
#
#
# Convention : Reuss Voigt Hill
#
# Bulk Modulus (GPa) = 54.49838 64.84128 59.66983
# Shear Modulus (GPa) = 40.68953 50.63703 45.66328
#
# Velocity S-wave (km/s) = 3.73036 4.16144 3.95178
# Velocity P-wave (km/s) = 6.09855 6.72796 6.42097
#
# Compressibility (1/GPa) = 0.01834917
#
# Stress axis : x y z
#
# Youngs Moduli (GPa) = 127.31996 138.90930 119.65464
#
# Poissons Ratio (x) = 0.19079 0.12537
# Poissons Ratio (y) = 0.17488 0.01309
# Poissons Ratio (z) = 0.13340 0.01520
#
# Static dielectric constant tensor:
#      x y z
#    x 2.083150 0.187150 0.331710 
#    y 0.187150 2.061880 -0.381350 
#    z 0.331710 -0.381350 1.448160 
# 
# From -- ./inp_files/166357.got.cif
#   From: 2010.05.17/outbox.cif.g08.bks.cpg/sg2_84_cif.got.tgz:166357.got - 2010.06.03 11:33:40.
