data_PCOD9045433
_publ_section_title
;
Structure prediction by ZEFSAII (Michael W. Deem and Ramdas Pophale) SiO2 
 PCOD9045433
Probable space group: P -1
;
_chemical_formula_sum "Si O2"
_cell_formula_units_Z 16
_cell_length_a 11.801790
_cell_length_b 12.862051
_cell_length_c 9.046280
_cell_angle_alpha 132.287677
_cell_angle_beta 54.077445
_cell_angle_gamma 112.799310
_cell_volume 822.583473
_symmetry_space_group_name_H-M "P -1"
_symmetry_group_IT_number 2
_symmetry_cell_setting 'triclinic'
loop_
_space_group_symop_operation_xyz
x,y,z
-x,-y,-z
loop_
_atom_site_type_symbol
_atom_site_label
_atom_site_fract_x
_atom_site_fract_y
_atom_site_fract_z
Si Si1 0.863979 0.011068 0.715349
Si Si2 0.500788 0.984180 0.311043
Si Si3 0.230604 0.492703 0.829029
Si Si4 0.637076 0.803251 0.597132
Si Si5 0.002331 0.743749 0.733555
Si Si6 0.985564 0.503545 0.269190
Si Si7 0.824255 0.010592 0.073425
Si Si8 0.619667 0.221384 0.004949
O O1 0.771058 0.872216 0.637934
O O2 0.759136 0.134975 0.862121
O O3 0.000000 0.000000 0.500000
O O4 0.901326 0.029942 0.875674
O O5 0.439416 0.838542 0.160182
O O6 0.500000 0.000000 0.500000
O O7 0.405205 0.100951 0.417080
O O8 0.660734 0.004348 0.159910
O O9 0.318263 0.350117 0.631748
O O10 0.146315 0.498501 0.743322
O O11 0.119032 0.501447 0.056073
O O12 0.336783 0.619474 0.879901
O O13 0.504040 0.805442 0.809320
O O14 0.012474 0.633882 0.757159
O O15 0.987655 0.642987 0.504896
O O16 0.133505 0.851625 0.733682
O O17 0.876665 0.860032 0.952187
#
# Coordination Sequence:
#
# PCOD9045433 Si02
#       8
#     2   2   2   2   2   2   2   2
#     4  11  23  38  72  99 130 166 220 270 324 373
#     4  11  25  42  66  93 133 168 209 266 325 391
#     4  11  25  40  70  90 129 168 225 265 321 370
#     4  11  23  45  64  96 129 170 217 267 319 387
#     4  10  24  40  66  90 136 166 208 262 334 382
#     4  10  24  44  59  99 130 169 209 277 316 385
#     4  11  22  41  68  99 126 170 216 266 326 379
#     4  11  23  45  64  96 129 170 217 267 319 387
#
# _framework density 19.450914999999998
#
# number of rings (size 3 to 8) (size 9 to 14) (size 15 to 20)
#    0.000    1.250    2.500    2.625   10.500    2.000 
#    0.000    0.625    0.000    0.000    0.000    0.000 
#    0.000    0.000    0.000    0.000    0.000    0.000 
#
# Total GULP energy -89388.654864 kJ/mol
# GULP energy per Si atom -5586.790929 kJ/mol
# Density = 1.940664 g / cm^3
# Si number density = 19.450915 Si / 1000 Ang^3
#
#
#
# Elastic Constant Matrix: (Units=GPa)
#
#
# Indices 1 2 3 4 5 6 
#
# 1 107.2400 42.8482 48.1243 9.0397 21.3220 8.9608
# 2 42.8482 67.0031 56.6558 24.1065 17.1588 13.9564
# 3 48.1243 56.6558 98.9300 5.4162 19.3515 9.4465
# 4 9.0397 24.1065 5.4162 45.5112 7.3978 9.5294
# 5 21.3220 17.1588 19.3515 7.3978 37.9718 -4.8747
# 6 8.9608 13.9564 9.4465 9.5294 -4.8747 29.7385
#
#
#
# Elastic Compliance Matrix: (Units=1/GPa)
#
#
# Indices 1 2 3 4 5 6 
#
# 1 0.013584 -0.005853 -0.002311 0.001792 -0.004399 -0.001907
# 2 -0.005853 0.045139 -0.020449 -0.017989 -0.004192 -0.007847
# 3 -0.002311 -0.020449 0.023088 0.009141 -0.003070 -0.000473
# 4 0.001792 -0.017989 0.009141 0.032058 -0.004554 -0.006021
# 5 -0.004399 -0.004192 -0.003070 -0.004554 0.034615 0.011401
# 6 -0.001907 -0.007847 -0.000473 -0.006021 0.011401 0.041832
#
#
# Mechanical properties :
#
#
# Convention : Reuss Voigt Hill
#
# Bulk Modulus (GPa) = 40.67671 63.15887 51.91779
# Shear Modulus (GPa) = 19.55124 31.01394 25.28259
#
# Velocity S-wave (km/s) = 3.17386 3.99742 3.60921
# Velocity P-wave (km/s) = 5.86422 7.33806 6.64215
#
# Compressibility (1/GPa) = 0.02458410
#
# Stress axis : x y z
#
# Youngs Moduli (GPa) = 73.61802 22.15379 43.31166
#
# Poissons Ratio (x) = 0.12968 0.10010
# Poissons Ratio (y) = 0.43092 0.88568
# Poissons Ratio (z) = 0.17014 0.45302
#
# Static dielectric constant tensor:
#      x y z
#    x 1.683830 0.011010 0.018200 
#    y 0.011010 1.683460 0.005060 
#    z 0.018200 0.005060 1.709790 
# 
# From -- ./inp_files/261412.got.cif
#   From: 2010.05.17/outbox.cif.g08.bks.cpg/sg2_131_cif.got.tgz:261412.got - 2010.06.03 11:33:40.
