data_PCOD9045728
_publ_section_title
;
Structure prediction by ZEFSAII (Michael W. Deem and Ramdas Pophale) SiO2 
 PCOD9045728
Probable space group: P -1
;
_chemical_formula_sum "Si O2"
_cell_formula_units_Z 16
_cell_length_a 26.955648
_cell_length_b 8.567068
_cell_length_c 11.613827
_cell_angle_alpha 142.625857
_cell_angle_beta 29.644534
_cell_angle_gamma 149.783151
_cell_volume 657.270962
_symmetry_space_group_name_H-M "P -1"
_symmetry_group_IT_number 2
_symmetry_cell_setting 'triclinic'
loop_
_space_group_symop_operation_xyz
x,y,z
-x,-y,-z
loop_
_atom_site_type_symbol
_atom_site_label
_atom_site_fract_x
_atom_site_fract_y
_atom_site_fract_z
Si Si1 0.809273 0.330257 0.027631
Si Si2 0.622237 0.695848 0.795898
Si Si3 0.648823 0.301477 0.136524
Si Si4 0.074782 0.110057 0.295965
Si Si5 0.608899 0.096476 0.449569
Si Si6 0.908554 0.340076 0.371116
Si Si7 0.870533 0.894210 0.395335
Si Si8 0.765090 0.993994 0.225720
O O1 0.765448 0.409086 0.046140
O O2 0.677551 0.035919 0.174017
O O3 0.844738 0.587459 0.206206
O O4 0.943052 0.405567 0.780983
O O5 0.612522 0.402569 0.579980
O O6 0.755780 0.837469 0.666363
O O7 0.500000 0.500000 0.000000
O O8 0.627881 0.005874 0.931318
O O9 0.678692 0.617247 0.201695
O O10 0.528084 0.154758 0.374625
O O11 0.154838 0.484447 0.365844
O O12 0.147975 0.964846 0.031042
O O13 0.000000 0.000000 0.500000
O O14 0.986549 0.030309 0.319976
O O15 0.688677 0.129816 0.420878
O O16 0.885565 0.108345 0.383963
O O17 0.849738 0.166569 0.267680
#
# Coordination Sequence:
#
# PCOD9045728 Si02
#       8
#     2   2   2   2   2   2   2   2
#     4  11  21  39  69  98 131 181 232 280 336 409
#     4   9  21  40  68  95 130 178 234 282 324 404
#     4  11  21  43  71  98 132 182 237 276 339 410
#     4  12  27  41  66  99 139 185 225 282 350 416
#     4  10  24  41  67  97 142 179 222 289 340 406
#     4  12  24  42  70 102 140 180 226 286 348 408
#     4  11  21  42  65  99 135 179 232 280 342 410
#     4  12  25  45  69 104 147 178 224 286 352 414
#
# _framework density 24.343078999999999
#
# number of rings (size 3 to 8) (size 9 to 14) (size 15 to 20)
#    0.000    1.000    2.500    4.500    3.500    1.000 
#    0.000    0.000    0.000    3.000    0.000    0.000 
#    0.000    0.000    0.000    0.000    0.000    0.000 
#
# Total GULP energy -89167.368154 kJ/mol
# GULP energy per Si atom -5572.960510 kJ/mol
# Density = 2.428767 g / cm^3
# Si number density = 24.343079 Si / 1000 Ang^3
#
#
#
# Elastic Constant Matrix: (Units=GPa)
#
#
# Indices 1 2 3 4 5 6 
#
# 1 114.7849 39.3815 37.4320 6.2966 -8.0214 -2.2157
# 2 39.3815 94.2126 31.2999 -7.4031 -1.7256 -14.8440
# 3 37.4320 31.2999 124.4029 -1.0652 -15.8658 13.6360
# 4 6.2966 -7.4031 -1.0652 32.3606 -2.3817 -5.3204
# 5 -8.0214 -1.7256 -15.8658 -2.3817 29.1349 1.3949
# 6 -2.2157 -14.8440 13.6360 -5.3204 1.3949 28.3628
#
#
#
# Elastic Compliance Matrix: (Units=1/GPa)
#
#
# Indices 1 2 3 4 5 6 
#
# 1 0.011131 -0.004438 -0.001931 -0.003333 0.001536 -0.001226
# 2 -0.004438 0.016108 -0.004250 0.006089 -0.002630 0.011398
# 3 -0.001931 -0.004250 0.011314 -0.001173 0.005680 -0.008314
# 4 -0.003333 0.006089 -0.001173 0.034622 0.001159 0.009928
# 5 0.001536 -0.002630 0.005680 0.001159 0.038048 -0.005641
# 6 -0.001226 0.011398 -0.008314 0.009928 -0.005641 0.047264
#
#
# Mechanical properties :
#
#
# Convention : Reuss Voigt Hill
#
# Bulk Modulus (GPa) = 57.75354 61.06968 59.41161
# Shear Modulus (GPa) = 26.95465 32.99080 29.97273
#
# Velocity S-wave (km/s) = 3.33119 3.68536 3.51274
# Velocity P-wave (km/s) = 6.21065 6.57653 6.39620
#
# Compressibility (1/GPa) = 0.01731496
#
# Stress axis : x y z
#
# Youngs Moduli (GPa) = 89.84050 62.08249 88.38341
#
# Poissons Ratio (x) = 0.27554 0.17065
# Poissons Ratio (y) = 0.39873 0.37562
# Poissons Ratio (z) = 0.17346 0.26385
#
# Static dielectric constant tensor:
#      x y z
#    x 1.791260 0.106310 -0.106700 
#    y 0.106310 1.966020 0.090890 
#    z -0.106700 0.090890 1.930940 
# 
# From -- ./inp_files/476404.got.cif
#   From: 2010.05.17/outbox.cif.g08.bks.cpg/sg2_239_cif.got.tgz:476404.got - 2010.06.03 11:33:40.
