data_PCOD9045853
_publ_section_title
;
Structure prediction by ZEFSAII (Michael W. Deem and Ramdas Pophale) SiO2 
 PCOD9045853
Probable space group: P -1
;
_chemical_formula_sum "Si O2"
_cell_formula_units_Z 16
_cell_length_a 15.112651
_cell_length_b 9.490184
_cell_length_c 8.411984
_cell_angle_alpha 110.327566
_cell_angle_beta 60.773004
_cell_angle_gamma 144.098153
_cell_volume 614.665425
_symmetry_space_group_name_H-M "P -1"
_symmetry_group_IT_number 2
_symmetry_cell_setting 'triclinic'
loop_
_space_group_symop_operation_xyz
x,y,z
-x,-y,-z
loop_
_atom_site_type_symbol
_atom_site_label
_atom_site_fract_x
_atom_site_fract_y
_atom_site_fract_z
Si Si1 0.390080 0.427020 0.330231
Si Si2 0.200142 0.451823 0.671225
Si Si3 0.444162 0.817942 0.111252
Si Si4 0.881899 0.943328 0.831745
Si Si5 0.902918 0.533496 0.544747
Si Si6 0.317051 0.056296 0.817760
Si Si7 0.776909 0.939888 0.414014
Si Si8 0.744249 0.607743 0.090556
O O1 0.355171 0.542513 0.501991
O O2 0.252802 0.256719 0.253257
O O3 0.556356 0.656629 0.187025
O O4 0.357653 0.249462 0.406294
O O5 0.148848 0.517700 0.615729
O O6 0.219913 0.489848 0.858798
O O7 0.049220 0.161884 0.682442
O O8 0.267255 0.647915 0.279486
O O9 0.582759 0.953080 0.177352
O O10 0.409752 0.624532 0.967643
O O11 0.500000 0.000000 0.000000
O O12 0.833275 0.048701 0.993245
O O13 0.874282 0.810513 0.924689
O O14 0.000000 0.500000 0.500000
O O15 0.047601 0.823199 0.569196
O O16 0.265120 0.980990 0.649190
O O17 0.752654 0.759542 0.261012
#
# Coordination Sequence:
#
# PCOD9045853 Si02
#       8
#     2   2   2   2   2   2   2   2
#     4  11  20  39  68 106 144 178 225 287 359 407
#     4  11  23  41  70 104 138 185 232 291 345 414
#     4  12  29  50  72  98 144 192 233 286 352 417
#     4  11  21  36  70 106 145 173 228 289 355 410
#     4  12  28  52  70  99 142 192 239 284 344 422
#     4  11  24  43  66 106 143 180 228 290 351 414
#     4  10  25  43  76 110 138 177 232 293 351 415
#     4  10  24  41  75 109 140 173 234 286 351 408
#
# _framework density 26.030422000000002
#
# number of rings (size 3 to 8) (size 9 to 14) (size 15 to 20)
#    0.000    1.000    3.750    1.500   12.250    1.000 
#    4.500    2.500    0.000    0.000    0.000    0.000 
#    0.000    0.000    0.000    0.000    0.000    0.000 
#
# Total GULP energy -89339.875745 kJ/mol
# GULP energy per Si atom -5583.742234 kJ/mol
# Density = 2.597118 g / cm^3
# Si number density = 26.030422 Si / 1000 Ang^3
#
#
#
# Elastic Constant Matrix: (Units=GPa)
#
#
# Indices 1 2 3 4 5 6 
#
# 1 174.4185 16.3988 54.3448 -12.7957 49.9238 -3.3020
# 2 16.3988 72.1739 8.4067 -18.6658 11.2869 -5.3336
# 3 54.3448 8.4067 100.1347 -26.2598 24.2927 -8.2879
# 4 -12.7957 -18.6658 -26.2598 29.8615 2.0179 11.9988
# 5 49.9238 11.2869 24.2927 2.0179 63.4688 -1.5121
# 6 -3.3020 -5.3336 -8.2879 11.9988 -1.5121 52.9305
#
#
#
# Elastic Compliance Matrix: (Units=1/GPa)
#
#
# Indices 1 2 3 4 5 6 
#
# 1 0.008297 -0.000386 -0.002832 0.001363 -0.005428 -0.000429
# 2 -0.000386 0.018140 0.003792 0.015327 -0.004890 -0.001217
# 3 -0.002832 0.003792 0.016835 0.016779 -0.005450 -0.001118
# 4 0.001363 0.015327 0.016779 0.063465 -0.012487 -0.010487
# 5 -0.005428 -0.004890 -0.005450 -0.012487 0.023421 0.001815
# 6 -0.000429 -0.001217 -0.001118 -0.010487 0.001815 0.020997
#
#
# Mechanical properties :
#
#
# Convention : Reuss Voigt Hill
#
# Bulk Modulus (GPa) = 22.51234 56.11420 39.31327
# Shear Modulus (GPa) = 30.33684 47.09060 38.71372
#
# Velocity S-wave (km/s) = 3.41755 4.25792 3.86067
# Velocity P-wave (km/s) = 4.92343 6.76588 5.91681
#
# Compressibility (1/GPa) = 0.04442009
#
# Stress axis : x y z
#
# Youngs Moduli (GPa) = 120.51909 55.12587 59.39981
#
# Poissons Ratio (x) = 0.02127 0.16823
# Poissons Ratio (y) = 0.04650 -0.22522
# Poissons Ratio (z) = 0.34133 -0.20902
#
# Static dielectric constant tensor:
#      x y z
#    x 2.266080 -0.060270 -0.006690 
#    y -0.060270 2.032990 0.024740 
#    z -0.006690 0.024740 2.042290 
# 
# From -- ./inp_files/298807.got.cif
#   From: 2010.05.17/outbox.cif.g08.bks.cpg/sg2_150_cif.got.tgz:298807.got - 2010.06.03 11:33:40.
