data_PCOD9045551
_publ_section_title
;
Structure prediction by ZEFSAII (Michael W. Deem and Ramdas Pophale) SiO2 
 PCOD9045551
Probable space group: P -1
;
_chemical_formula_sum "Si O2"
_cell_formula_units_Z 15
_cell_length_a 15.428292
_cell_length_b 18.367824
_cell_length_c 9.286505
_cell_angle_alpha 131.983222
_cell_angle_beta 130.066669
_cell_angle_gamma 21.100625
_cell_volume 702.355144
_symmetry_space_group_name_H-M "P -1"
_symmetry_group_IT_number 2
_symmetry_cell_setting 'triclinic'
loop_
_space_group_symop_operation_xyz
x,y,z
-x,-y,-z
loop_
_atom_site_type_symbol
_atom_site_label
_atom_site_fract_x
_atom_site_fract_y
_atom_site_fract_z
Si Si1 0.727871 0.794884 0.874617
Si Si2 0.000000 0.000000 0.000000
Si Si3 0.290701 0.103538 0.330738
Si Si4 0.069231 0.840457 0.309850
Si Si5 0.403999 0.660057 0.208673
Si Si6 0.807449 0.504597 0.528225
Si Si7 0.851321 0.416664 0.789097
Si Si8 0.334937 0.856234 0.958605
O O1 0.718474 0.853781 0.787374
O O2 0.734104 0.673880 0.692274
O O3 0.965679 0.650019 0.021531
O O4 0.500000 0.000000 0.000000
O O5 0.232440 0.853166 0.952218
O O6 0.169026 0.880264 0.168173
O O7 0.037834 0.316557 0.422020
O O8 0.500000 0.000000 0.500000
O O9 0.354420 0.940385 0.182959
O O10 0.324259 0.665152 0.274899
O O11 0.079936 0.746824 0.313215
O O12 0.000000 0.000000 0.500000
O O13 0.870694 0.963435 0.141238
O O14 0.596073 0.597453 0.362795
O O15 0.500000 0.500000 0.000000
O O16 0.866287 0.422187 0.642601
O O17 0.582579 0.641522 0.859662
#
# Coordination Sequence:
#
# PCOD9045551 Si02
#       8
#     2   1   2   2   2   2   2   2
#     4  12  27  49  76 106 149 198 248 312 372 445
#     4  10  24  40  72 100 146 186 236 292 362 426
#     4  12  26  46  73 110 150 188 248 310 375 441
#     4  11  25  44  71 103 145 192 247 296 362 439
#     4  11  25  45  68 106 146 187 240 298 365 432
#     4  12  27  45  77 112 147 198 252 306 374 446
#     4  12  26  48  77 105 151 195 247 307 371 443
#     4  11  24  46  72 107 145 198 238 304 373 439
#
# _framework density 21.356715000000001
#
# number of rings (size 3 to 8) (size 9 to 14) (size 15 to 20)
#    0.000    0.533    1.333    6.400    5.600    6.400 
#    0.000    0.000    0.000    0.000    0.000    0.000 
#    0.000    0.000    0.000    0.000    0.000    0.000 
#
# Total GULP energy -83698.461858 kJ/mol
# GULP energy per Si atom -5579.897457 kJ/mol
# Density = 2.130811 g / cm^3
# Si number density = 21.356715 Si / 1000 Ang^3
#
#
#
# Elastic Constant Matrix: (Units=GPa)
#
#
# Indices 1 2 3 4 5 6 
#
# 1 132.4227 65.2646 58.8202 2.1305 -17.2646 -19.9162
# 2 65.2646 86.4010 48.2130 -4.6229 5.1705 -22.9577
# 3 58.8202 48.2130 136.8578 0.6131 16.9722 -15.6622
# 4 2.1305 -4.6229 0.6131 53.8359 -6.6392 3.5927
# 5 -17.2646 5.1705 16.9722 -6.6392 53.3356 1.9783
# 6 -19.9162 -22.9577 -15.6622 3.5927 1.9783 36.7863
#
#
#
# Elastic Compliance Matrix: (Units=1/GPa)
#
#
# Indices 1 2 3 4 5 6 
#
# 1 0.014878 -0.009460 -0.003896 -0.000517 0.006902 0.000172
# 2 -0.009460 0.022531 -0.002381 0.001227 -0.004635 0.008056
# 3 -0.003896 -0.002381 0.010523 -0.000809 -0.004524 0.001207
# 4 -0.000517 0.001227 -0.000809 0.019133 0.002422 -0.001857
# 5 0.006902 -0.004635 -0.004524 0.002422 0.023269 -0.002570
# 6 0.000172 0.008056 0.001207 -0.001857 -0.002570 0.033138
#
#
# Mechanical properties :
#
#
# Convention : Reuss Voigt Hill
#
# Bulk Modulus (GPa) = 60.75300 77.80857 69.28078
# Shear Modulus (GPa) = 31.16584 41.01714 36.09149
#
# Velocity S-wave (km/s) = 3.82422 4.38719 4.11534
# Velocity P-wave (km/s) = 6.92879 7.88512 7.42237
#
# Compressibility (1/GPa) = 0.01646009
#
# Stress axis : x y z
#
# Youngs Moduli (GPa) = 67.21158 44.38254 95.03095
#
# Poissons Ratio (x) = 0.41984 0.37025
# Poissons Ratio (y) = 0.63579 0.22623
# Poissons Ratio (z) = 0.26186 0.10566
#
# Static dielectric constant tensor:
#      x y z
#    x 1.752410 0.017740 -0.004330 
#    y 0.017740 1.739600 -0.005180 
#    z -0.004330 -0.005180 1.726640 
# 
# From -- ./inp_files/222960.got.cif
#   From: 2010.05.17/outbox.cif.g08.bks.cpg/sg2_112_cif.got.tgz:222960.got - 2010.06.03 11:33:40.
