data_PCOD9045587
_publ_section_title
;
Structure prediction by ZEFSAII (Michael W. Deem and Ramdas Pophale) SiO2 
 PCOD9045587
Probable space group: P -1
;
_chemical_formula_sum "Si O2"
_cell_formula_units_Z 16
_cell_length_a 7.678322
_cell_length_b 7.674040
_cell_length_c 13.681250
_cell_angle_alpha 120.271165
_cell_angle_beta 64.157674
_cell_angle_gamma 91.886405
_cell_volume 608.239139
_symmetry_space_group_name_H-M "P -1"
_symmetry_group_IT_number 2
_symmetry_cell_setting 'triclinic'
loop_
_space_group_symop_operation_xyz
x,y,z
-x,-y,-z
loop_
_atom_site_type_symbol
_atom_site_label
_atom_site_fract_x
_atom_site_fract_y
_atom_site_fract_z
Si Si1 0.196857 0.354455 0.539947
Si Si2 0.768442 0.083577 0.608770
Si Si3 0.952591 0.968583 0.807174
Si Si4 0.555097 0.442582 0.859549
Si Si5 0.834470 0.301471 0.489769
Si Si6 0.242417 0.210621 0.907561
Si Si7 0.084048 0.589997 0.815587
Si Si8 0.376554 0.831106 0.915813
O O1 0.277608 0.525652 0.509353
O O2 0.175488 0.390803 0.671043
O O3 0.974091 0.390426 0.556673
O O4 0.310055 0.121679 0.417461
O O5 0.745288 0.253584 0.746651
O O6 0.686068 0.210642 0.566954
O O7 0.000000 0.000000 0.500000
O O8 0.015043 0.877633 0.659740
O O9 0.998002 0.762064 0.803377
O O10 0.100884 0.107255 0.846470
O O11 0.732785 0.081712 0.930773
O O12 0.384428 0.318243 0.840480
O O13 0.562075 0.646526 0.852748
O O14 0.500000 0.500000 0.000000
O O15 0.359478 0.025649 0.900712
O O16 0.096671 0.390932 0.058876
O O17 0.241988 0.693025 0.859704
#
# Coordination Sequence:
#
# PCOD9045587 Si02
#       8
#     2   2   2   2   2   2   2   2
#     4   9  18  33  59  88 116 153 201 243 289 351
#     4  10  24  41  56  81 119 159 201 248 299 361
#     4   8  16  35  64  96 120 159 204 236 293 372
#     4  12  28  40  58  94 121 155 212 253 302 358
#     4   9  18  33  59  88 116 153 201 243 289 351
#     4   9  20  39  62  89 128 159 194 250 302 352
#     4   8  16  35  64  96 120 159 204 236 293 372
#     4   9  20  39  62  89 128 159 194 250 302 352
#
# _framework density 26.305441999999999
#
# number of rings (size 3 to 8) (size 9 to 14) (size 15 to 20)
#    0.000    2.750    0.000    1.500    7.000    4.500 
#    0.000    2.500    0.000    4.500    0.000    0.000 
#    0.000    0.000    0.000    0.000    0.000    0.000 
#
# Total GULP energy -89350.689168 kJ/mol
# GULP energy per Si atom -5584.418073 kJ/mol
# Density = 2.624557 g / cm^3
# Si number density = 26.305442 Si / 1000 Ang^3
#
#
#
# Elastic Constant Matrix: (Units=GPa)
#
#
# Indices 1 2 3 4 5 6 
#
# 1 58.5937 1.9291 13.2836 5.8678 11.9670 6.5883
# 2 1.9291 140.1040 32.9779 12.9835 -3.3045 -15.3486
# 3 13.2836 32.9779 158.1068 22.2763 28.4483 -8.1070
# 4 5.8678 12.9835 22.2763 45.2539 1.2644 -4.1988
# 5 11.9670 -3.3045 28.4483 1.2644 26.2536 4.4938
# 6 6.5883 -15.3486 -8.1070 -4.1988 4.4938 22.1212
#
#
#
# Elastic Compliance Matrix: (Units=1/GPa)
#
#
# Indices 1 2 3 4 5 6 
#
# 1 0.019575 -0.000809 0.000080 -0.002603 -0.008094 -0.005212
# 2 -0.000809 0.008213 -0.001716 -0.001051 0.002525 0.004598
# 3 0.000080 -0.001716 0.009296 -0.003446 -0.010798 0.003732
# 4 -0.002603 -0.001051 -0.003446 0.024607 0.003121 0.002820
# 5 -0.008094 0.002525 -0.010798 0.003121 0.055439 -0.010465
# 6 -0.005212 0.004598 0.003732 0.002820 -0.010465 0.053977
#
#
# Mechanical properties :
#
#
# Convention : Reuss Voigt Hill
#
# Bulk Modulus (GPa) = 31.06124 50.35396 40.70760
# Shear Modulus (GPa) = 26.77692 39.30001 33.03846
#
# Velocity S-wave (km/s) = 3.19395 3.86941 3.54779
# Velocity P-wave (km/s) = 5.04334 6.25673 5.68252
#
# Compressibility (1/GPa) = 0.03219447
#
# Stress axis : x y z
#
# Youngs Moduli (GPa) = 51.08579 121.75472 107.57581
#
# Poissons Ratio (x) = 0.09850 -0.00860
# Poissons Ratio (y) = 0.04133 0.18456
# Poissons Ratio (z) = -0.00408 0.20889
#
# Static dielectric constant tensor:
#      x y z
#    x 2.160270 0.010030 -0.033350 
#    y 0.010030 2.238540 0.025120 
#    z -0.033350 0.025120 2.145370 
# 
# From -- ./inp_files/495569.got.cif
#   From: 2010.05.17/outbox.cif.g08.bks.cpg/sg2_248_cif.got.tgz:495569.got - 2010.06.03 11:33:40.
