data_PCOD9045960
_publ_section_title
;
Structure prediction by ZEFSAII (Michael W. Deem and Ramdas Pophale) SiO2 
 PCOD9045960
Probable space group: P -1
;
_chemical_formula_sum "Si O2"
_cell_formula_units_Z 16
_cell_length_a 10.689446
_cell_length_b 16.356371
_cell_length_c 18.641502
_cell_angle_alpha 24.343101
_cell_angle_beta 33.908914
_cell_angle_gamma 49.116448
_cell_volume 672.345257
_symmetry_space_group_name_H-M "P -1"
_symmetry_group_IT_number 2
_symmetry_cell_setting 'triclinic'
loop_
_space_group_symop_operation_xyz
x,y,z
-x,-y,-z
loop_
_atom_site_type_symbol
_atom_site_label
_atom_site_fract_x
_atom_site_fract_y
_atom_site_fract_z
Si Si1 0.473644 0.666513 0.143773
Si Si2 0.202426 0.188568 0.904797
Si Si3 0.864249 0.569672 0.114821
Si Si4 0.431162 0.861174 0.324942
Si Si5 0.712835 0.509026 0.781377
Si Si6 0.558729 0.210973 0.351960
Si Si7 0.714727 0.079853 0.152866
Si Si8 0.769542 0.200934 0.731541
O O1 0.677804 0.582414 0.133350
O O2 0.311603 0.554207 0.241198
O O3 0.299852 0.634503 0.320968
O O4 0.606280 0.933180 0.852992
O O5 0.171746 0.292008 0.911398
O O6 0.473396 0.259354 0.683715
O O7 0.008259 0.201091 0.931471
O O8 0.121525 0.929831 0.165332
O O9 0.789198 0.326632 0.376234
O O10 0.145170 0.670379 0.873755
O O11 0.648618 0.976330 0.188450
O O12 0.541594 0.635333 0.765282
O O13 0.002733 0.668102 0.535095
O O14 0.623384 0.272317 0.050726
O O15 0.500000 0.000000 0.500000
O O16 0.414415 0.109818 0.575283
O O17 0.500000 0.000000 0.000000
#
# Coordination Sequence:
#
# PCOD9045960 Si02
#       8
#     2   2   2   2   2   2   2   2
#     4  10  24  42  65 105 137 177 224 280 344 409
#     4  11  22  43  65 102 141 173 222 282 338 407
#     4  12  24  43  71  97 136 186 226 279 339 397
#     4  10  25  41  68 104 138 171 224 285 343 404
#     4  11  25  44  70  97 138 184 225 277 348 399
#     4  12  26  49  67  98 138 182 236 277 332 409
#     4  11  24  45  68 101 135 179 228 278 338 409
#     4  11  21  40  68 102 140 175 223 284 336 403
#
# _framework density 23.797297
#
# number of rings (size 3 to 8) (size 9 to 14) (size 15 to 20)
#    0.000    1.000    3.750    1.875    1.750    5.500 
#    0.000    2.500    0.000    0.000    0.000    0.000 
#    0.000    0.000    0.000    0.000    0.000    0.000 
#
# Total GULP energy -89445.631142 kJ/mol
# GULP energy per Si atom -5590.351946 kJ/mol
# Density = 2.374313 g / cm^3
# Si number density = 23.797297 Si / 1000 Ang^3
#
#
#
# Elastic Constant Matrix: (Units=GPa)
#
#
# Indices 1 2 3 4 5 6 
#
# 1 67.1287 20.6332 23.2441 2.8307 -4.1847 -11.4241
# 2 20.6332 89.4475 20.6118 -14.6644 -2.5297 -20.8666
# 3 23.2441 20.6118 94.4840 2.2409 4.6509 -27.7558
# 4 2.8307 -14.6644 2.2409 31.7443 -4.4430 0.3206
# 5 -4.1847 -2.5297 4.6509 -4.4430 33.5171 -7.1794
# 6 -11.4241 -20.8666 -27.7558 0.3206 -7.1794 42.8681
#
#
#
# Elastic Compliance Matrix: (Units=1/GPa)
#
#
# Indices 1 2 3 4 5 6 
#
# 1 0.017528 -0.003333 -0.003239 -0.002560 0.002339 0.001362
# 2 -0.003333 0.014977 -0.000945 0.007668 0.003205 0.006269
# 3 -0.003239 -0.000945 0.013871 -0.001339 -0.000970 0.007505
# 4 -0.002560 0.007668 -0.001339 0.036157 0.005858 0.002894
# 5 0.002339 0.003205 -0.000970 0.005858 0.032780 0.007001
# 6 0.001362 0.006269 0.007505 0.002894 0.007001 0.032752
#
#
# Mechanical properties :
#
#
# Convention : Reuss Voigt Hill
#
# Bulk Modulus (GPa) = 31.90633 42.22651 37.06642
# Shear Modulus (GPa) = 28.81055 34.06397 31.43726
#
# Velocity S-wave (km/s) = 3.48324 3.78752 3.63856
# Velocity P-wave (km/s) = 5.44186 6.07535 5.76731
#
# Compressibility (1/GPa) = 0.03134175
#
# Stress axis : x y z
#
# Youngs Moduli (GPa) = 57.05028 66.77121 72.09188
#
# Poissons Ratio (x) = 0.22253 0.23353
# Poissons Ratio (y) = 0.19013 0.06814
# Poissons Ratio (z) = 0.18480 0.06311
#
# Static dielectric constant tensor:
#      x y z
#    x 1.943940 0.029260 0.013420 
#    y 0.029260 1.898600 -0.024820 
#    z 0.013420 -0.024820 1.922040 
# 
# From -- ./inp_files/403185.got.cif
#   From: 2010.05.17/outbox.cif.g08.bks.cpg/sg2_202_cif.got.tgz:403185.got - 2010.06.03 11:33:40.
