data_PCOD9045620
_publ_section_title
;
Structure prediction by ZEFSAII (Michael W. Deem and Ramdas Pophale) SiO2 
 PCOD9045620
Probable space group: P -1
;
_chemical_formula_sum "Si O2"
_cell_formula_units_Z 16
_cell_length_a 9.141556
_cell_length_b 5.120230
_cell_length_c 14.891832
_cell_angle_alpha 108.170029
_cell_angle_beta 96.348679
_cell_angle_gamma 93.846591
_cell_volume 654.402346
_symmetry_space_group_name_H-M "P -1"
_symmetry_group_IT_number 2
_symmetry_cell_setting 'triclinic'
loop_
_space_group_symop_operation_xyz
x,y,z
-x,-y,-z
loop_
_atom_site_type_symbol
_atom_site_label
_atom_site_fract_x
_atom_site_fract_y
_atom_site_fract_z
Si Si1 0.867636 0.513740 0.855815
Si Si2 0.582409 0.803259 0.857769
Si Si3 0.629921 0.240562 0.555464
Si Si4 0.014653 0.788911 0.743958
Si Si5 0.082212 0.201676 0.936432
Si Si6 0.363149 0.644867 0.963760
Si Si7 0.323119 0.133450 0.321506
Si Si8 0.912220 0.200229 0.452452
O O1 0.696879 0.566843 0.841145
O O2 0.959843 0.513403 0.769342
O O3 0.925372 0.276229 0.893911
O O4 0.920173 0.774236 0.953271
O O5 0.421106 0.694731 0.871726
O O6 0.586919 0.903281 0.766908
O O7 0.638314 0.058849 0.955164
O O8 0.614865 0.567989 0.599373
O O9 0.753016 0.209395 0.485945
O O10 0.500000 0.000000 0.500000
O O11 0.679300 0.126998 0.641978
O O12 0.847982 0.854403 0.714718
O O13 0.094993 0.835498 0.659394
O O14 0.109788 0.955061 0.845708
O O15 0.213926 0.444294 0.945314
O O16 0.500000 0.500000 0.000000
O O17 0.000000 0.500000 0.500000
O O18 0.000000 0.000000 0.500000
#
# Coordination Sequence:
#
# PCOD9045620 Si02
#       8
#     2   2   2   2   2   2   2   2
#     4  10  24  41  64 102 138 177 238 291 348 418
#     4  10  25  41  68  96 138 191 235 290 361 435
#     4  12  26  50  75 108 143 186 240 307 370 437
#     4  11  25  40  71 100 140 181 243 290 367 425
#     4  11  25  39  69 101 139 184 243 299 350 431
#     4  11  24  44  63  94 144 188 229 290 363 423
#     4  11  26  45  78 104 140 188 244 295 367 438
#     4  12  25  48  73 104 144 187 235 304 367 433
#
# _framework density 24.449791000000001
#
# number of rings (size 3 to 8) (size 9 to 14) (size 15 to 20)
#    0.000    1.000    3.750    0.750   15.750    1.000 
#    2.250    0.000    0.000    0.000    0.000    0.000 
#    0.000    0.000    0.000    0.000    0.000    0.000 
#
# Total GULP energy -89296.545092 kJ/mol
# GULP energy per Si atom -5581.034068 kJ/mol
# Density = 2.439414 g / cm^3
# Si number density = 24.449791 Si / 1000 Ang^3
#
#
#
# Elastic Constant Matrix: (Units=GPa)
#
#
# Indices 1 2 3 4 5 6 
#
# 1 83.5764 26.5211 32.7572 0.4308 -28.4403 17.9136
# 2 26.5211 105.7906 40.8436 0.4546 -8.7640 3.8211
# 3 32.7572 40.8436 160.0329 -22.8673 -40.3199 26.7868
# 4 0.4308 0.4546 -22.8673 60.4358 21.6917 5.6486
# 5 -28.4403 -8.7640 -40.3199 21.6917 49.2581 -9.6515
# 6 17.9136 3.8211 26.7868 5.6486 -9.6515 45.6283
#
#
#
# Elastic Compliance Matrix: (Units=1/GPa)
#
#
# Indices 1 2 3 4 5 6 
#
# 1 0.017340 -0.003370 0.000060 -0.003345 0.010150 -0.003999
# 2 -0.003370 0.011266 -0.003048 -0.000773 -0.001724 0.001900
# 3 0.000060 -0.003048 0.009412 0.002044 0.005434 -0.004397
# 4 -0.003345 -0.000773 0.002044 0.021712 -0.010900 -0.004816
# 5 0.010150 -0.001724 0.005434 -0.010900 0.035460 0.001819
# 6 -0.003999 0.001900 -0.004397 -0.004816 0.001819 0.026889
#
#
# Mechanical properties :
#
#
# Convention : Reuss Voigt Hill
#
# Bulk Modulus (GPa) = 39.52641 61.07153 50.29897
# Shear Modulus (GPa) = 34.90882 47.68295 41.29589
#
# Velocity S-wave (km/s) = 3.78269 4.42094 4.11421
# Velocity P-wave (km/s) = 5.93968 7.14788 6.57161
#
# Compressibility (1/GPa) = 0.02529954
#
# Stress axis : x y z
#
# Youngs Moduli (GPa) = 57.67154 88.75994 106.25013
#
# Poissons Ratio (x) = 0.29914 -0.00633
# Poissons Ratio (y) = 0.19437 0.32389
# Poissons Ratio (z) = -0.00344 0.27058
#
# Static dielectric constant tensor:
#      x y z
#    x 1.946100 -0.015980 0.005540 
#    y -0.015980 2.051660 0.020250 
#    z 0.005540 0.020250 2.048870 
# 
# From -- ./inp_files/488676.got.cif
#   From: 2010.05.17/outbox.cif.g08.bks.cpg/sg2_245_cif.got.tgz:488676.got - 2010.06.03 11:33:40.
