data_PCOD9045633
_publ_section_title
;
Structure prediction by ZEFSAII (Michael W. Deem and Ramdas Pophale) SiO2 
 PCOD9045633
Probable space group: P -1
;
_chemical_formula_sum "Si O2"
_cell_formula_units_Z 16
_cell_length_a 12.751698
_cell_length_b 11.303312
_cell_length_c 12.471057
_cell_angle_alpha 80.133024
_cell_angle_beta 145.568046
_cell_angle_gamma 74.954213
_cell_volume 695.195528
_symmetry_space_group_name_H-M "P -1"
_symmetry_group_IT_number 2
_symmetry_cell_setting 'triclinic'
loop_
_space_group_symop_operation_xyz
x,y,z
-x,-y,-z
loop_
_atom_site_type_symbol
_atom_site_label
_atom_site_fract_x
_atom_site_fract_y
_atom_site_fract_z
Si Si1 0.338137 0.198654 0.322183
Si Si2 0.253240 0.321054 0.001303
Si Si3 0.860767 0.775053 0.282197
Si Si4 0.178234 0.755279 0.914125
Si Si5 0.473935 0.841267 0.093289
Si Si6 0.639720 0.360248 0.373994
Si Si7 0.179002 0.285110 0.412733
Si Si8 0.869120 0.079080 0.763098
O O1 0.212691 0.271837 0.088052
O O2 0.173363 0.286702 0.278071
O O3 0.500000 0.000000 0.500000
O O4 0.559578 0.198068 0.507512
O O5 0.495175 0.306228 0.215629
O O6 0.273983 0.218913 0.938604
O O7 0.991741 0.521284 0.727845
O O8 0.758597 0.734747 0.295196
O O9 0.173805 0.653079 0.548733
O O10 0.726895 0.967559 0.153229
O O11 0.344566 0.772307 0.982161
O O12 0.400684 0.559336 0.179411
O O13 0.968821 0.769284 0.672779
O O14 0.006406 0.915862 0.827032
O O15 0.533571 0.835725 0.271200
O O16 0.849118 0.214443 0.662719
O O17 0.000000 0.000000 0.000000
#
# Coordination Sequence:
#
# PCOD9045633 Si02
#       8
#     2   2   2   2   2   2   2   2
#     4  11  21  37  63  91 126 169 212 261 320 384
#     4  10  24  41  64  95 131 168 216 269 319 389
#     4  11  24  43  68  94 132 170 217 270 327 387
#     4  11  23  43  65  93 131 169 217 269 321 386
#     4  11  25  42  67  99 125 173 220 268 327 385
#     4  10  24  42  65  94 129 171 215 265 327 386
#     4  11  23  42  65  95 130 171 217 265 325 383
#     4  11  23  39  62  94 131 170 216 265 321 385
#
# _framework density 23.015108000000001
#
# number of rings (size 3 to 8) (size 9 to 14) (size 15 to 20)
#    0.000    1.250    2.500    2.625    3.500    3.500 
#    0.000    5.000    0.000    0.000    0.000    0.000 
#    0.000    0.000    0.000    0.000    0.000    0.000 
#
# Total GULP energy -89342.993268 kJ/mol
# GULP energy per Si atom -5583.937079 kJ/mol
# Density = 2.296272 g / cm^3
# Si number density = 23.015108 Si / 1000 Ang^3
#
#
#
# Elastic Constant Matrix: (Units=GPa)
#
#
# Indices 1 2 3 4 5 6 
#
# 1 89.9603 18.8815 2.9479 3.2852 14.8895 18.6218
# 2 18.8815 60.7774 7.9347 -10.2113 2.1933 21.7999
# 3 2.9479 7.9347 58.6226 -8.1662 3.3669 1.2889
# 4 3.2852 -10.2113 -8.1662 30.8803 1.0937 5.8343
# 5 14.8895 2.1933 3.3669 1.0937 33.9459 3.4536
# 6 18.6218 21.7999 1.2889 5.8343 3.4536 29.6720
#
#
#
# Elastic Compliance Matrix: (Units=1/GPa)
#
#
# Indices 1 2 3 4 5 6 
#
# 1 0.013745 -0.001842 -0.000093 -0.000678 -0.005215 -0.006529
# 2 -0.001842 0.026884 -0.001369 0.012684 0.000949 -0.021141
# 3 -0.000093 -0.001369 0.017977 0.004446 -0.001758 -0.000386
# 4 -0.000678 0.012684 0.004446 0.041076 -0.000547 -0.017100
# 5 -0.005215 0.000949 -0.001758 -0.000547 0.031974 -0.000962
# 6 -0.006529 -0.021141 -0.000386 -0.017100 -0.000962 0.056822
#
#
# Mechanical properties :
#
#
# Convention : Reuss Voigt Hill
#
# Bulk Modulus (GPa) = 19.23144 29.87648 24.55396
# Shear Modulus (GPa) = 23.53830 30.87270 27.20550
#
# Velocity S-wave (km/s) = 3.20149 3.66650 3.44186
# Velocity P-wave (km/s) = 4.69470 5.56181 5.14655
#
# Compressibility (1/GPa) = 0.05199818
#
# Stress axis : x y z
#
# Youngs Moduli (GPa) = 72.75412 37.19646 55.62635
#
# Poissons Ratio (x) = 0.06851 0.00519
# Poissons Ratio (y) = 0.13400 0.07615
# Poissons Ratio (z) = 0.00679 0.05092
#
# Static dielectric constant tensor:
#      x y z
#    x 2.048170 0.025750 -0.019150 
#    y 0.025750 1.831660 0.018260 
#    z -0.019150 0.018260 1.867750 
# 
# From -- ./inp_files/274179.got.cif
#   From: 2010.05.17/outbox.cif.g08.bks.cpg/sg2_138_cif.got.tgz:274179.got - 2010.06.03 11:33:40.
