data_PCOD9045704
_publ_section_title
;
Structure prediction by ZEFSAII (Michael W. Deem and Ramdas Pophale) SiO2 
 PCOD9045704
Probable space group: P -1
;
_chemical_formula_sum "Si O2"
_cell_formula_units_Z 14
_cell_length_a 4.780191
_cell_length_b 14.275395
_cell_length_c 25.964719
_cell_angle_alpha 23.419064
_cell_angle_beta 110.987061
_cell_angle_gamma 100.522674
_cell_volume 604.446920
_symmetry_space_group_name_H-M "P -1"
_symmetry_group_IT_number 2
_symmetry_cell_setting 'triclinic'
loop_
_space_group_symop_operation_xyz
x,y,z
-x,-y,-z
loop_
_atom_site_type_symbol
_atom_site_label
_atom_site_fract_x
_atom_site_fract_y
_atom_site_fract_z
Si Si1 0.404240 0.984867 0.848639
Si Si2 0.843849 0.241847 0.763394
Si Si3 0.153843 0.031963 0.441364
Si Si4 0.159371 0.589375 0.589299
Si Si5 0.903751 0.754386 0.830408
Si Si6 0.357966 0.615011 0.839213
Si Si7 0.448025 0.240683 0.614690
O O1 0.065529 0.116356 0.790698
O O2 0.384793 0.128773 0.720844
O O3 0.479387 0.689804 0.993620
O O4 0.714066 0.015968 0.882320
O O5 0.083412 0.384446 0.724520
O O6 0.489266 0.467672 0.638753
O O7 0.859410 0.684132 0.481732
O O8 0.171244 0.816884 0.509490
O O9 0.500000 0.000000 0.500000
O O10 0.000000 0.000000 0.500000
O O11 0.924634 0.295682 0.266432
O O12 0.620714 0.736073 0.784271
O O13 0.204583 0.725710 0.828762
O O14 0.748648 0.014500 0.720987
O O15 0.000000 0.500000 0.000000
O O16 0.500000 0.500000 0.500000
#
# Coordination Sequence:
#
# PCOD9045704 Si02
#       7
#     2   2   2   2   2   2   2
#     4  11  24  42  67 105 148 194 239 277 359 455
#     4  10  24  41  67 101 145 191 230 289 350 432
#     4  12  27  49  79 106 134 183 256 328 378 421
#     4  11  24  45  69 104 145 185 241 302 366 423
#     4  12  26  43  69 106 158 200 238 291 366 453
#     4  12  26  47  72 103 145 196 242 309 370 433
#     4  12  26  43  70 111 153 202 241 285 356 457
#
# _framework density 23.161670000000001
#
# number of rings (size 3 to 8) (size 9 to 14) (size 15 to 20)
#    0.000    0.571    4.286    3.000    2.000    4.000 
#    0.000    0.000    0.000   17.143    0.000    0.000 
#    0.000    0.000    0.000    0.000    0.000    0.000 
#
# Total GULP energy -78184.032144 kJ/mol
# GULP energy per Si atom -5584.573725 kJ/mol
# Density = 2.310895 g / cm^3
# Si number density = 23.161670 Si / 1000 Ang^3
#
#
#
# Elastic Constant Matrix: (Units=GPa)
#
#
# Indices 1 2 3 4 5 6 
#
# 1 179.4457 48.7043 45.3983 -19.1309 9.2463 -9.9305
# 2 48.7043 121.5110 71.1342 -29.1016 14.2546 4.6415
# 3 45.3983 71.1342 112.4000 -38.3998 10.6017 -10.9555
# 4 -19.1309 -29.1016 -38.3998 49.9804 -0.3426 3.9273
# 5 9.2463 14.2546 10.6017 -0.3426 32.2466 -12.3929
# 6 -9.9305 4.6415 -10.9555 3.9273 -12.3929 55.9226
#
#
#
# Elastic Compliance Matrix: (Units=1/GPa)
#
#
# Indices 1 2 3 4 5 6 
#
# 1 0.006479 -0.001782 -0.001222 0.000426 -0.000293 0.000964
# 2 -0.001782 0.014848 -0.007856 0.002237 -0.005130 -0.004382
# 3 -0.001222 -0.007856 0.017520 0.008166 -0.000638 0.003152
# 4 0.000426 0.002237 0.008166 0.027826 -0.004021 -0.001355
# 5 -0.000293 -0.005130 -0.000638 -0.004021 0.036875 0.008703
# 6 0.000964 -0.004382 0.003152 -0.001355 0.008703 0.021058
#
#
# Mechanical properties :
#
#
# Convention : Reuss Voigt Hill
#
# Bulk Modulus (GPa) = 58.38995 82.64782 70.51889
# Shear Modulus (GPa) = 32.88719 44.17124 38.52922
#
# Velocity S-wave (km/s) = 3.77224 4.37175 4.08302
# Velocity P-wave (km/s) = 6.65113 7.82582 7.26226
#
# Compressibility (1/GPa) = 0.01712623
#
# Stress axis : x y z
#
# Youngs Moduli (GPa) = 154.33393 67.34963 57.07912
#
# Poissons Ratio (x) = 0.12003 0.06976
# Poissons Ratio (y) = 0.27504 0.44842
# Poissons Ratio (z) = 0.18861 0.52910
#
# Static dielectric constant tensor:
#      x y z
#    x 1.862000 0.052880 -0.011450 
#    y 0.052880 1.889210 0.007690 
#    z -0.011450 0.007690 1.910360 
# 
# From -- ./inp_files/615652.got.cif
#   From: 2010.05.17/outbox.cif.g08.bks.cpg/sg2_308_cif.got.tgz:615652.got - 2010.06.03 11:33:40.
