data_PCOD9045238
_publ_section_title
;
Structure prediction by ZEFSAII (Michael W. Deem and Ramdas Pophale) SiO2 
 PCOD9045238
Probable space group: P -1
;
_chemical_formula_sum "Si O2"
_cell_formula_units_Z 15
_cell_length_a 11.704512
_cell_length_b 19.124401
_cell_length_c 22.036131
_cell_angle_alpha 160.553996
_cell_angle_beta 29.038059
_cell_angle_gamma 151.689306
_cell_volume 747.757514
_symmetry_space_group_name_H-M "P -1"
_symmetry_group_IT_number 2
_symmetry_cell_setting 'triclinic'
loop_
_space_group_symop_operation_xyz
x,y,z
-x,-y,-z
loop_
_atom_site_type_symbol
_atom_site_label
_atom_site_fract_x
_atom_site_fract_y
_atom_site_fract_z
Si Si1 0.229714 0.164988 0.844730
Si Si2 0.660197 0.394074 0.518575
Si Si3 0.093669 0.251500 0.636808
Si Si4 0.173329 0.620791 0.244063
Si Si5 0.000000 0.500000 0.000000
Si Si6 0.509171 0.485872 0.793411
Si Si7 0.777948 0.944797 0.106212
Si Si8 0.107281 0.687620 0.465023
O O1 0.530915 0.242483 0.773848
O O2 0.137290 0.104274 0.907137
O O3 0.130224 0.944044 0.670222
O O4 0.157155 0.374101 0.028134
O O5 0.395231 0.342361 0.565708
O O6 0.648122 0.514900 0.686915
O O7 0.891563 0.537821 0.487600
O O8 0.685751 0.154832 0.325562
O O9 0.957174 0.265693 0.649406
O O10 0.024326 0.405844 0.844330
O O11 0.000000 0.000000 0.500000
O O12 0.058589 0.605236 0.351604
O O13 0.218706 0.398809 0.840611
O O14 0.631556 0.338309 0.655262
O O15 0.573034 0.720349 0.991180
O O16 0.000000 0.000000 0.000000
#
# Coordination Sequence:
#
# PCOD9045238 Si02
#       8
#     2   2   2   2   1   2   2   2
#     4  11  23  39  61  92 130 164 213 266 318 376
#     4  11  23  40  65  97 128 172 213 265 316 380
#     4  11  25  45  68  92 129 166 214 265 323 389
#     4  11  25  42  62  94 126 171 213 264 322 385
#     4  10  24  38  62  92 124 164 206 258 318 370
#     4  11  21  37  62  94 130 164 213 263 314 375
#     4  12  20  37  64  94 128 163 211 267 316 372
#     4  12  23  40  64  96 129 169 215 267 320 377
#
# _framework density 20.059978999999998
#
# number of rings (size 3 to 8) (size 9 to 14) (size 15 to 20)
#    0.000    0.800    4.000    4.000    3.733    1.600 
#    0.000    0.667    0.000    0.000    0.000    0.000 
#    0.000    0.000    0.000    0.000    0.000    0.000 
#
# Total GULP energy -83626.304597 kJ/mol
# GULP energy per Si atom -5575.086973 kJ/mol
# Density = 2.001432 g / cm^3
# Si number density = 20.059979 Si / 1000 Ang^3
#
#
#
# Elastic Constant Matrix: (Units=GPa)
#
#
# Indices 1 2 3 4 5 6 
#
# 1 106.9925 13.9297 34.5527 -3.8086 -21.6392 -7.5145
# 2 13.9297 41.4728 30.0948 1.5809 -14.0536 -3.5000
# 3 34.5527 30.0948 104.0888 9.7872 -5.0525 0.4653
# 4 -3.8086 1.5809 9.7872 34.6981 0.6495 2.3449
# 5 -21.6392 -14.0536 -5.0525 0.6495 31.3628 1.7734
# 6 -7.5145 -3.5000 0.4653 2.3449 1.7734 23.6104
#
#
#
# Elastic Compliance Matrix: (Units=1/GPa)
#
#
# Indices 1 2 3 4 5 6 
#
# 1 0.012657 0.002333 -0.004672 0.002194 0.008777 0.003589
# 2 0.002333 0.037049 -0.010816 0.000969 0.016158 0.005138
# 3 -0.004672 -0.010816 0.014386 -0.003800 -0.005528 -0.002581
# 4 0.002194 0.000969 -0.003800 0.030218 0.000832 -0.002147
# 5 0.008777 0.016158 -0.005528 0.000832 0.044166 0.001898
# 6 0.003589 0.005138 -0.002581 -0.002147 0.001898 0.044380
#
#
# Mechanical properties :
#
#
# Convention : Reuss Voigt Hill
#
# Bulk Modulus (GPa) = 26.46831 45.52316 35.99573
# Shear Modulus (GPa) = 22.54678 29.53271 26.03975
#
# Velocity S-wave (km/s) = 3.35620 3.84112 3.60682
# Velocity P-wave (km/s) = 5.31432 6.51268 5.94378
#
# Compressibility (1/GPa) = 0.03778104
#
# Stress axis : x y z
#
# Youngs Moduli (GPa) = 79.00781 26.99092 69.51257
#
# Poissons Ratio (x) = -0.06296 0.32478
# Poissons Ratio (y) = -0.18431 0.75186
# Poissons Ratio (z) = 0.36915 0.29194
#
# Static dielectric constant tensor:
#      x y z
#    x 1.690470 0.003190 0.011520 
#    y 0.003190 1.738600 -0.002240 
#    z 0.011520 -0.002240 1.706370 
# 
# From -- ./inp_files/255753.got.cif
#   From: 2010.05.17/outbox.cif.g08.bks.cpg/sg2_128_cif.got.tgz:255753.got - 2010.06.03 11:33:40.
