data_PCOD9045948
_publ_section_title
;
Structure prediction by ZEFSAII (Michael W. Deem and Ramdas Pophale) SiO2 
 PCOD9045948
Probable space group: P -1
;
_chemical_formula_sum "Si O2"
_cell_formula_units_Z 14
_cell_length_a 22.924876
_cell_length_b 15.923447
_cell_length_c 16.333387
_cell_angle_alpha 19.354852
_cell_angle_beta 157.370255
_cell_angle_gamma 161.435948
_cell_volume 605.520333
_symmetry_space_group_name_H-M "P -1"
_symmetry_group_IT_number 2
_symmetry_cell_setting 'triclinic'
loop_
_space_group_symop_operation_xyz
x,y,z
-x,-y,-z
loop_
_atom_site_type_symbol
_atom_site_label
_atom_site_fract_x
_atom_site_fract_y
_atom_site_fract_z
Si Si1 0.307205 0.764865 0.631635
Si Si2 0.667057 0.495580 0.754085
Si Si3 0.986807 0.198494 0.503472
Si Si4 0.239893 0.597096 0.880462
Si Si5 0.274945 0.855055 0.247979
Si Si6 0.949101 0.444769 0.079288
Si Si7 0.859912 0.957348 0.947954
O O1 0.321692 0.791844 0.724027
O O2 0.512938 0.941117 0.695644
O O3 0.212951 0.920848 0.328305
O O4 0.192435 0.389805 0.808252
O O5 0.500000 0.500000 0.500000
O O6 0.748571 0.373127 0.908281
O O7 0.863209 0.847237 0.699346
O O8 0.613822 0.342316 0.916125
O O9 0.885976 0.329499 0.299435
O O10 0.206065 0.505013 0.513013
O O11 0.945211 0.176409 0.372024
O O12 0.086624 0.228659 0.995924
O O13 0.236565 0.022359 0.113990
O O14 0.128645 0.754050 0.075952
O O15 0.000000 0.500000 0.000000
#
# Coordination Sequence:
#
# PCOD9045948 Si02
#       7
#     2   2   2   2   2   2   2
#     4  12  25  40  70 105 131 186 239 283 337 428
#     4  11  23  41  72  99 130 184 232 283 356 420
#     4   8  21  41  64  87 137 173 211 281 351 398
#     4  10  24  42  64  98 138 176 222 296 342 410
#     4   9  22  43  63  96 135 180 220 293 344 415
#     4   9  21  42  64  96 131 175 220 285 349 411
#     4  11  24  42  67  98 141 182 232 282 357 403
#
# _framework density 23.120611
#
# number of rings (size 3 to 8) (size 9 to 14) (size 15 to 20)
#    0.857    1.143    1.429    1.714    6.000    6.286 
#    0.000    0.000    0.000    0.000    0.000    0.000 
#    0.000    0.000    0.000    0.000    0.000    0.000 
#
# Total GULP energy -78080.269291 kJ/mol
# GULP energy per Si atom -5577.162092 kJ/mol
# Density = 2.306799 g / cm^3
# Si number density = 23.120611 Si / 1000 Ang^3
#
#
#
# Elastic Constant Matrix: (Units=GPa)
#
#
# Indices 1 2 3 4 5 6 
#
# 1 168.8358 13.1500 41.3798 11.9912 -35.3216 10.1420
# 2 13.1500 84.1839 23.0429 -4.7077 6.9231 11.9556
# 3 41.3798 23.0429 80.1535 15.1144 -18.8588 -1.9279
# 4 11.9912 -4.7077 15.1144 38.6892 -1.9153 0.5676
# 5 -35.3216 6.9231 -18.8588 -1.9153 31.0189 -1.3110
# 6 10.1420 11.9556 -1.9279 0.5676 -1.3110 23.8055
#
#
#
# Elastic Compliance Matrix: (Units=1/GPa)
#
#
# Indices 1 2 3 4 5 6 
#
# 1 0.008559 -0.001309 -0.001726 -0.001665 0.008776 -0.002606
# 2 -0.001309 0.016519 -0.007549 0.005010 -0.009839 -0.009011
# 3 -0.001726 -0.007549 0.019890 -0.007680 0.011632 0.006961
# 4 -0.001665 0.005010 -0.007680 0.029727 -0.005995 -0.003468
# 5 0.008776 -0.009839 0.011632 -0.005995 0.051346 0.005115
# 6 -0.002606 -0.009011 0.006961 -0.003468 0.005115 0.048571
#
#
# Mechanical properties :
#
#
# Convention : Reuss Voigt Hill
#
# Bulk Modulus (GPa) = 42.02020 54.25760 48.13890
# Shear Modulus (GPa) = 24.54433 35.74274 30.14354
#
# Velocity S-wave (km/s) = 3.26172 3.93609 3.61467
# Velocity P-wave (km/s) = 5.69200 6.64645 6.18765
#
# Compressibility (1/GPa) = 0.02379808
#
# Stress axis : x y z
#
# Youngs Moduli (GPa) = 116.84134 60.53732 50.27644
#
# Poissons Ratio (x) = 0.07926 0.08678
# Poissons Ratio (y) = 0.15297 0.37956
# Poissons Ratio (z) = 0.20167 0.45702
#
# Static dielectric constant tensor:
#      x y z
#    x 1.891370 -0.047220 -0.060460 
#    y -0.047220 1.886170 -0.057040 
#    z -0.060460 -0.057040 1.987970 
# 
# From -- ./inp_files/579353.got.cif
#   From: 2010.05.17/outbox.cif.g08.bks.cpg/sg2_290_cif.got.tgz:579353.got - 2010.06.03 11:33:40.
