data_PCOD9045085
_publ_section_title
;
Structure prediction by ZEFSAII (Michael W. Deem and Ramdas Pophale) SiO2 
 PCOD9045085
Probable space group: P -1
;
_chemical_formula_sum "Si O2"
_cell_formula_units_Z 14
_cell_length_a 5.267991
_cell_length_b 7.705864
_cell_length_c 14.129738
_cell_angle_alpha 94.373811
_cell_angle_beta 102.791906
_cell_angle_gamma 106.835502
_cell_volume 529.288192
_symmetry_space_group_name_H-M "P -1"
_symmetry_group_IT_number 2
_symmetry_cell_setting 'triclinic'
loop_
_space_group_symop_operation_xyz
x,y,z
-x,-y,-z
loop_
_atom_site_type_symbol
_atom_site_label
_atom_site_fract_x
_atom_site_fract_y
_atom_site_fract_z
Si Si1 0.971426 0.157340 0.925956
Si Si2 0.363539 0.952112 0.864646
Si Si3 0.362421 0.187482 0.410036
Si Si4 0.454091 0.451745 0.693880
Si Si5 0.692066 0.151200 0.727293
Si Si6 0.540393 0.614060 0.910849
Si Si7 0.031118 0.702127 0.472959
O O1 0.518004 0.495487 0.810746
O O2 0.155640 0.258310 0.031158
O O3 0.912254 0.254963 0.830370
O O4 0.663655 0.069006 0.934848
O O5 0.124677 0.025342 0.884974
O O6 0.435161 0.016112 0.763401
O O7 0.355078 0.744021 0.875126
O O8 0.153878 0.214529 0.471936
O O9 0.432768 0.362125 0.350578
O O10 0.652069 0.188844 0.478816
O O11 0.233787 0.998473 0.335848
O O12 0.135076 0.349629 0.641266
O O13 0.599160 0.302776 0.672671
O O14 0.500000 0.500000 0.000000
O O15 0.000000 0.500000 0.500000
#
# Coordination Sequence:
#
# PCOD9045085 Si02
#       7
#     2   2   2   2   2   2   2
#     4  10  24  46  69 102 146 192 244 290 361 429
#     4  10  23  49  69 101 150 192 239 302 353 427
#     4  11  24  49  74 106 143 190 235 302 368 422
#     4  11  23  48  70 110 141 192 240 301 352 443
#     4  10  25  44  76 104 146 188 245 287 369 429
#     4  12  25  46  73 111 147 197 244 299 366 434
#     4  10  24  47  75 107 144 185 240 300 365 426
#
# _framework density 26.450620000000001
#
# number of rings (size 3 to 8) (size 9 to 14) (size 15 to 20)
#    0.857    0.571    1.429    3.429    2.000    1.714 
#   20.571    0.000    0.000    0.000    0.000    0.000 
#    0.000    0.000    0.000    0.000    0.000    0.000 
#
# Total GULP energy -78292.411837 kJ/mol
# GULP energy per Si atom -5592.315131 kJ/mol
# Density = 2.639042 g / cm^3
# Si number density = 26.450620 Si / 1000 Ang^3
#
#
#
# Elastic Constant Matrix: (Units=GPa)
#
#
# Indices 1 2 3 4 5 6 
#
# 1 170.3652 45.2696 50.5360 11.8542 -4.1490 -11.4543
# 2 45.2696 124.2856 39.4856 -3.0527 -2.0605 -10.8340
# 3 50.5360 39.4856 178.4149 22.9974 7.7839 -2.1097
# 4 11.8542 -3.0527 22.9974 45.2095 -5.8378 -3.0514
# 5 -4.1490 -2.0605 7.7839 -5.8378 48.9787 -8.4117
# 6 -11.4543 -10.8340 -2.1097 -3.0514 -8.4117 26.3203
#
#
#
# Elastic Compliance Matrix: (Units=1/GPa)
#
#
# Indices 1 2 3 4 5 6 
#
# 1 0.007065 -0.001899 -0.001479 -0.000930 0.001056 0.002404
# 2 -0.001899 0.009795 -0.001991 0.002631 0.001541 0.003843
# 3 -0.001479 -0.001991 0.007012 -0.003722 -0.002112 -0.002007
# 4 -0.000930 0.002631 -0.003722 0.025330 0.004457 0.004740
# 5 0.001056 0.001541 -0.002112 0.004457 0.022945 0.008774
# 6 0.002404 0.003843 -0.002007 0.004740 0.008774 0.043814
#
#
# Mechanical properties :
#
#
# Convention : Reuss Voigt Hill
#
# Bulk Modulus (GPa) = 76.12904 82.62757 79.37831
# Shear Modulus (GPa) = 38.14526 46.62000 42.38263
#
# Velocity S-wave (km/s) = 3.80166 4.20280 4.00725
# Velocity P-wave (km/s) = 6.93644 7.40660 7.17537
#
# Compressibility (1/GPa) = 0.01313559
#
# Stress axis : x y z
#
# Youngs Moduli (GPa) = 141.54089 102.08786 142.60356
#
# Poissons Ratio (x) = 0.19391 0.21085
# Poissons Ratio (y) = 0.26885 0.28388
# Poissons Ratio (z) = 0.20928 0.20323
#
# Static dielectric constant tensor:
#      x y z
#    x 2.004660 0.053560 -0.006660 
#    y 0.053560 2.209920 -0.101440 
#    z -0.006660 -0.101440 2.166120 
# 
# From -- ./inp_files/491038.got.cif
#   From: 2010.05.17/outbox.cif.g08.bks.cpg/sg2_246_cif.got.tgz:491038.got - 2010.06.03 11:33:40.
