data_PCOD9045188
_publ_section_title
;
Structure prediction by ZEFSAII (Michael W. Deem and Ramdas Pophale) SiO2 
 PCOD9045188
Probable space group: P -1
;
_chemical_formula_sum "Si O2"
_cell_formula_units_Z 8
_cell_length_a 7.259503
_cell_length_b 6.886270
_cell_length_c 9.340621
_cell_angle_alpha 75.884001
_cell_angle_beta 44.927591
_cell_angle_gamma 66.140192
_cell_volume 300.927262
_symmetry_space_group_name_H-M "P -1"
_symmetry_group_IT_number 2
_symmetry_cell_setting 'triclinic'
loop_
_space_group_symop_operation_xyz
x,y,z
-x,-y,-z
loop_
_atom_site_type_symbol
_atom_site_label
_atom_site_fract_x
_atom_site_fract_y
_atom_site_fract_z
Si Si1 0.804304 0.999168 0.870510
Si Si2 0.576803 0.366682 0.126403
Si Si3 0.214232 0.521578 0.733363
Si Si4 0.770067 0.802887 0.441998
O O1 0.004683 0.758872 0.796412
O O2 0.870390 0.651794 0.275643
O O3 0.977199 0.120401 0.663311
O O4 0.500000 0.000000 0.000000
O O5 0.704448 0.496734 0.141467
O O6 0.326243 0.324534 0.358708
O O7 0.756734 0.126806 0.023653
O O8 0.500000 0.500000 0.000000
O O9 0.500000 0.500000 0.500000
O O10 0.500000 0.000000 0.500000
#
# Coordination Sequence:
#
# PCOD9045188 Si02
#       4
#     2   2   2   2
#     4  12  28  50  82 127 164 212 280 343 409 492
#     4  11  27  51  80 128 164 211 278 345 411 491
#     4  10  23  52  85 116 160 222 275 337 406 501
#     4  11  25  52  89 115 163 224 274 334 415 493
#
# _framework density 26.584496000000001
#
# number of rings (size 3 to 8) (size 9 to 14) (size 15 to 20)
#    0.000    1.000    5.000    0.750    3.500    5.000 
#    4.500    0.000    0.000    1.500    0.000    0.000 
#    0.000    0.000    0.000    0.000    0.000    0.000 
#
# Total GULP energy -44816.391108 kJ/mol
# GULP energy per Si atom -5602.048888 kJ/mol
# Density = 2.652399 g / cm^3
# Si number density = 26.584496 Si / 1000 Ang^3
#
#
#
# Elastic Constant Matrix: (Units=GPa)
#
#
# Indices 1 2 3 4 5 6 
#
# 1 183.9785 89.9652 88.1442 -13.0340 -8.5239 17.8545
# 2 89.9652 194.5830 83.0185 28.7223 13.5617 14.6540
# 3 88.1442 83.0185 191.0365 -14.0102 -7.3662 6.0076
# 4 -13.0340 28.7223 -14.0102 62.4028 13.5898 2.0006
# 5 -8.5239 13.5617 -7.3662 13.5898 71.5993 3.7005
# 6 17.8545 14.6540 6.0076 2.0006 3.7005 55.8136
#
#
#
# Elastic Compliance Matrix: (Units=1/GPa)
#
#
# Indices 1 2 3 4 5 6 
#
# 1 0.008525 -0.003334 -0.002195 0.002660 0.001008 -0.001778
# 2 -0.003334 0.008678 -0.002628 -0.004969 -0.001334 -0.000663
# 3 -0.002195 -0.002628 0.007566 0.002315 0.000552 0.000458
# 4 0.002660 -0.004969 0.002315 0.019891 -0.002261 -0.000359
# 5 0.001008 -0.001334 0.000552 -0.002261 0.014873 -0.000937
# 6 -0.001778 -0.000663 0.000458 -0.000359 -0.000937 0.018685
#
#
# Mechanical properties :
#
#
# Convention : Reuss Voigt Hill
#
# Bulk Modulus (GPa) = 118.26487 121.31710 119.79099
# Shear Modulus (GPa) = 51.36064 58.52781 54.94423
#
# Velocity S-wave (km/s) = 4.40019 4.69719 4.55111
# Velocity P-wave (km/s) = 8.39039 8.66901 8.53083
#
# Compressibility (1/GPa) = 0.00845560
#
# Stress axis : x y z
#
# Youngs Moduli (GPa) = 117.30325 115.23030 132.17239
#
# Poissons Ratio (x) = 0.38419 0.29007
# Poissons Ratio (y) = 0.39111 0.34734
# Poissons Ratio (z) = 0.25744 0.30282
#
# Static dielectric constant tensor:
#      x y z
#    x 2.212500 -0.060620 -0.102010 
#    y -0.060620 2.073180 0.016020 
#    z -0.102010 0.016020 2.150540 
# 
# From -- ./inp_files/152407.got.cif
#   From: 2010.05.17/outbox.cif.g08.bks.cpg/sg2_77_cif.got.tgz:152407.got - 2010.06.03 11:33:40.
