data_PCOD9045045
_publ_section_title
;
Structure prediction by ZEFSAII (Michael W. Deem and Ramdas Pophale) SiO2 
 PCOD9045045
Probable space group: P -1
;
_chemical_formula_sum "Si O2"
_cell_formula_units_Z 12
_cell_length_a 10.607015
_cell_length_b 5.911914
_cell_length_c 8.508771
_cell_angle_alpha 101.080528
_cell_angle_beta 92.741140
_cell_angle_gamma 69.408095
_cell_volume 490.051294
_symmetry_space_group_name_H-M "P -1"
_symmetry_group_IT_number 2
_symmetry_cell_setting 'triclinic'
loop_
_space_group_symop_operation_xyz
x,y,z
-x,-y,-z
loop_
_atom_site_type_symbol
_atom_site_label
_atom_site_fract_x
_atom_site_fract_y
_atom_site_fract_z
Si Si1 0.011701 0.880909 0.156420
Si Si2 0.238741 0.162508 0.711931
Si Si3 0.088334 0.240231 0.398489
Si Si4 0.256726 0.404029 0.191626
Si Si5 0.571057 0.673466 0.103099
Si Si6 0.483029 0.113596 0.341010
O O1 0.156208 0.668829 0.165606
O O2 0.888436 0.787799 0.175508
O O3 0.001663 0.079682 0.318518
O O4 0.000000 0.000000 0.000000
O O5 0.194010 0.133783 0.529189
O O6 0.308822 0.371230 0.765227
O O7 0.368220 0.915560 0.717523
O O8 0.161003 0.278819 0.250271
O O9 0.000000 0.500000 0.500000
O O10 0.369721 0.372509 0.330598
O O11 0.346081 0.276858 0.031791
O O12 0.455850 0.902745 0.205418
O O13 0.500000 0.500000 0.000000
O O14 0.500000 0.000000 0.500000
#
# Coordination Sequence:
#
# PCOD9045045 Si02
#       6
#     2   2   2   2   2   2
#     4  12  29  47  79 112 153 204 254 313 384 453
#     4  10  24  48  74 111 152 194 256 309 378 454
#     4  12  26  49  79 112 157 195 256 319 379 453
#     4  12  25  46  80 109 152 197 259 310 379 452
#     4  10  25  45  76 110 154 199 251 312 382 449
#     4  10  23  48  76 104 156 194 251 315 374 451
#
# _framework density 24.487233
#
# number of rings (size 3 to 8) (size 9 to 14) (size 15 to 20)
#    1.000    0.000    3.333    2.000    4.667    2.667 
#    0.000    4.167    0.000    0.000    0.000    0.000 
#    0.000    0.000    0.000    0.000    0.000    0.000 
#
# Total GULP energy -66882.673967 kJ/mol
# GULP energy per Si atom -5573.556164 kJ/mol
# Density = 2.443150 g / cm^3
# Si number density = 24.487233 Si / 1000 Ang^3
#
#
#
# Elastic Constant Matrix: (Units=GPa)
#
#
# Indices 1 2 3 4 5 6 
#
# 1 131.1220 56.9312 44.2534 -2.8259 13.9573 -18.9557
# 2 56.9312 84.8684 52.1328 -12.6766 16.7929 -26.1754
# 3 44.2534 52.1328 139.1672 -4.2883 8.9288 10.7534
# 4 -2.8259 -12.6766 -4.2883 38.0713 5.7774 12.3190
# 5 13.9573 16.7929 8.9288 5.7774 56.5699 -0.1270
# 6 -18.9557 -26.1754 10.7534 12.3190 -0.1270 45.0752
#
#
#
# Elastic Compliance Matrix: (Units=1/GPa)
#
#
# Indices 1 2 3 4 5 6 
#
# 1 0.011060 -0.006171 -0.001383 -0.001941 -0.000476 0.001927
# 2 -0.006171 0.027654 -0.009041 0.003879 -0.005623 0.014545
# 3 -0.001383 -0.009041 0.011655 0.000903 0.001073 -0.008856
# 4 -0.001941 0.003879 0.000903 0.030411 -0.003937 -0.007102
# 5 -0.000476 -0.005623 0.001073 -0.003937 0.019691 -0.002590
# 6 0.001927 0.014545 -0.008856 -0.007102 -0.002590 0.035488
#
#
# Mechanical properties :
#
#
# Convention : Reuss Voigt Hill
#
# Bulk Modulus (GPa) = 58.20914 73.53248 65.87081
# Shear Modulus (GPa) = 28.59185 41.39929 34.99557
#
# Velocity S-wave (km/s) = 3.42076 4.11621 3.78449
# Velocity P-wave (km/s) = 6.27893 7.25844 6.78638
#
# Compressibility (1/GPa) = 0.01717943
#
# Stress axis : x y z
#
# Youngs Moduli (GPa) = 90.41498 36.16147 85.79703
#
# Poissons Ratio (x) = 0.22315 0.11870
# Poissons Ratio (y) = 0.55794 0.77565
# Poissons Ratio (z) = 0.12509 0.32692
#
# Static dielectric constant tensor:
#      x y z
#    x 2.071410 -0.027260 0.070080 
#    y -0.027260 2.040520 -0.016330 
#    z 0.070080 -0.016330 2.012760 
# 
# From -- ./inp_files/229359.got.cif
#   From: 2010.05.17/outbox.cif.g08.bks.cpg/sg2_115_cif.got.tgz:229359.got - 2010.06.03 11:33:40.
