data_PCOD9045850
_publ_section_title
;
Structure prediction by ZEFSAII (Michael W. Deem and Ramdas Pophale) SiO2 
 PCOD9045850
Probable space group: P -1
;
_chemical_formula_sum "Si O2"
_cell_formula_units_Z 14
_cell_length_a 10.223987
_cell_length_b 11.494296
_cell_length_c 4.933075
_cell_angle_alpha 106.317580
_cell_angle_beta 113.338370
_cell_angle_gamma 64.447920
_cell_volume 475.969809
_symmetry_space_group_name_H-M "P -1"
_symmetry_group_IT_number 2
_symmetry_cell_setting 'triclinic'
loop_
_space_group_symop_operation_xyz
x,y,z
-x,-y,-z
loop_
_atom_site_type_symbol
_atom_site_label
_atom_site_fract_x
_atom_site_fract_y
_atom_site_fract_z
Si Si1 0.976311 0.897829 0.212340
Si Si2 0.804949 0.373862 0.587239
Si Si3 0.706103 0.746367 0.706825
Si Si4 0.635225 0.921193 0.259585
Si Si5 0.466179 0.627520 0.246516
Si Si6 0.254072 0.907012 0.162026
Si Si7 0.948830 0.406701 0.214919
O O1 0.051668 0.761956 0.335404
O O2 0.099097 0.878595 0.061505
O O3 0.000000 0.000000 0.500000
O O4 0.804494 0.972970 0.017056
O O5 0.819556 0.387882 0.289596
O O6 0.650379 0.370954 0.598698
O O7 0.865447 0.459831 0.898558
O O8 0.615699 0.861110 0.495352
O O9 0.619866 0.643600 0.510237
O O10 0.885723 0.707350 0.753594
O O11 0.702549 0.789519 0.045225
O O12 0.706724 0.026209 0.496489
O O13 0.500000 0.000000 0.000000
O O14 0.380278 0.766438 0.112967
O O15 0.500000 0.500000 0.000000
O O16 0.000000 0.500000 0.500000
#
# Coordination Sequence:
#
# PCOD9045850 Si02
#       7
#     2   2   2   2   2   2   2
#     4  10  24  41  74 113 155 201 262 332 404 481
#     4  11  27  49  80 113 157 209 263 335 405 477
#     4  12  28  48  81 121 160 215 271 342 408 482
#     4  12  26  48  77 117 165 209 266 340 415 484
#     4  11  26  52  79 117 167 218 278 332 407 499
#     4  10  24  44  74 117 162 210 270 333 419 474
#     4  12  27  51  79 114 156 209 271 326 399 482
#
# _framework density 29.413630999999999
#
# number of rings (size 3 to 8) (size 9 to 14) (size 15 to 20)
#    0.000    0.857    1.429    3.429   12.000    2.286 
#    0.000    2.143    0.000    0.000    0.000    0.000 
#    0.000    0.000    0.000    0.000    0.000    0.000 
#
# Total GULP energy -78268.018626 kJ/mol
# GULP energy per Si atom -5590.572759 kJ/mol
# Density = 2.934668 g / cm^3
# Si number density = 29.413631 Si / 1000 Ang^3
#
#
#
# Elastic Constant Matrix: (Units=GPa)
#
#
# Indices 1 2 3 4 5 6 
#
# 1 172.8027 32.4742 58.6022 3.2397 15.1966 -29.5885
# 2 32.4742 153.3085 75.5404 11.7789 10.5917 -36.5989
# 3 58.6022 75.5404 220.8866 14.0718 5.8357 -19.7223
# 4 3.2397 11.7789 14.0718 65.6466 -3.7196 12.3577
# 5 15.1966 10.5917 5.8357 -3.7196 53.6937 -0.2290
# 6 -29.5885 -36.5989 -19.7223 12.3577 -0.2290 45.2138
#
#
#
# Elastic Compliance Matrix: (Units=1/GPa)
#
#
# Indices 1 2 3 4 5 6 
#
# 1 0.007239 0.000639 -0.001575 -0.001170 -0.002064 0.004877
# 2 0.000639 0.009986 -0.002618 -0.002910 -0.002033 0.008145
# 3 -0.001575 -0.002618 0.005832 -0.000604 0.000285 -0.000440
# 4 -0.001170 -0.002910 -0.000604 0.017605 0.002155 -0.008186
# 5 -0.002064 -0.002033 0.000285 0.002155 0.019713 -0.003362
# 6 0.004877 0.008145 -0.000440 -0.008186 -0.003362 0.033930
#
#
# Mechanical properties :
#
#
# Convention : Reuss Voigt Hill
#
# Bulk Modulus (GPa) = 62.69635 97.80349 80.24992
# Shear Modulus (GPa) = 46.84677 58.26956 52.55817
#
# Velocity S-wave (km/s) = 3.99518 4.45572 4.23172
# Velocity P-wave (km/s) = 6.53021 7.73269 7.15675
#
# Compressibility (1/GPa) = 0.01594989
#
# Stress axis : x y z
#
# Youngs Moduli (GPa) = 138.13241 100.14068 171.46383
#
# Poissons Ratio (x) = -0.06402 0.27001
# Poissons Ratio (y) = -0.08830 0.44895
# Poissons Ratio (z) = 0.21752 0.26220
#
# Static dielectric constant tensor:
#      x y z
#    x 2.666000 0.225670 0.071370 
#    y 0.225670 2.661290 0.132410 
#    z 0.071370 0.132410 2.434150 
# 
# From -- ./inp_files/98621.got.cif
#   From: 2010.05.17/outbox.cif.g08.bks.cpg/sg2_50_cif.got.tgz:98621.got - 2010.06.03 11:33:40.
