data_PCOD9045528
_publ_section_title
;
Structure prediction by ZEFSAII (Michael W. Deem and Ramdas Pophale) SiO2 
 PCOD9045528
Probable space group: P -1
;
_chemical_formula_sum "Si O2"
_cell_formula_units_Z 14
_cell_length_a 9.257175
_cell_length_b 14.116980
_cell_length_c 15.136922
_cell_angle_alpha 127.147053
_cell_angle_beta 151.215608
_cell_angle_gamma 43.964735
_cell_volume 659.088775
_symmetry_space_group_name_H-M "P -1"
_symmetry_group_IT_number 2
_symmetry_cell_setting 'triclinic'
loop_
_space_group_symop_operation_xyz
x,y,z
-x,-y,-z
loop_
_atom_site_type_symbol
_atom_site_label
_atom_site_fract_x
_atom_site_fract_y
_atom_site_fract_z
Si Si1 0.263628 0.916729 0.171955
Si Si2 0.739365 0.057733 0.130099
Si Si3 0.418785 0.460044 0.311956
Si Si4 0.273655 0.661707 0.959499
Si Si5 0.550743 0.686528 0.582414
Si Si6 0.179854 0.982398 0.491703
Si Si7 0.392585 0.352702 0.046388
O O1 0.549589 0.962745 0.339470
O O2 0.380952 0.757561 0.126247
O O3 0.044108 0.968637 0.173779
O O4 0.000000 0.000000 0.000000
O O5 0.467420 0.203154 0.026268
O O6 0.920847 0.062382 0.319544
O O7 0.500000 0.000000 0.000000
O O8 0.586182 0.555283 0.475220
O O9 0.564637 0.340856 0.397828
O O10 0.457319 0.412829 0.204758
O O11 0.996043 0.552193 0.145904
O O12 0.322434 0.678789 0.892319
O O13 0.886191 0.698485 0.792322
O O14 0.500000 0.500000 0.000000
O O15 0.343951 0.817628 0.481830
O O16 0.000000 0.000000 0.500000
#
# Coordination Sequence:
#
# PCOD9045528 Si02
#       7
#     2   2   2   2   2   2   2
#     4  12  25  46  70 100 142 181 234 295 339 422
#     4  12  26  43  72 102 139 186 235 285 351 413
#     4  10  24  40  70  96 140 172 230 288 330 418
#     4  12  26  43  71  98 139 179 223 284 355 404
#     4  11  23  44  65 100 134 180 229 280 343 413
#     4  12  26  43  72 102 139 186 235 285 351 413
#     4  11  23  44  65 100 134 180 229 280 343 413
#
# _framework density 21.241447999999998
#
# number of rings (size 3 to 8) (size 9 to 14) (size 15 to 20)
#    0.000    0.571    4.286    3.000    4.000    2.857 
#    0.000    0.000    0.000    0.000    0.000    0.000 
#    0.000    0.000    0.000    0.000    0.000    0.000 
#
# Total GULP energy -78106.497551 kJ/mol
# GULP energy per Si atom -5579.035539 kJ/mol
# Density = 2.119310 g / cm^3
# Si number density = 21.241448 Si / 1000 Ang^3
#
#
#
# Elastic Constant Matrix: (Units=GPa)
#
#
# Indices 1 2 3 4 5 6 
#
# 1 127.6418 28.2728 22.8393 31.9443 3.1657 1.3648
# 2 28.2728 114.0981 0.0844 23.8559 5.2099 11.9721
# 3 22.8393 0.0844 64.8525 28.5132 11.6842 7.3520
# 4 31.9443 23.8559 28.5132 40.3023 10.6987 0.4428
# 5 3.1657 5.2099 11.6842 10.6987 28.5474 6.2942
# 6 1.3648 11.9721 7.3520 0.4428 6.2942 35.7690
#
#
#
# Elastic Compliance Matrix: (Units=1/GPa)
#
#
# Indices 1 2 3 4 5 6 
#
# 1 0.009979 -0.000983 -0.000588 -0.007484 0.002167 -0.000219
# 2 -0.000983 0.011516 0.005037 -0.009722 0.000658 -0.004847
# 3 -0.000588 0.005037 0.025486 -0.019818 -0.002487 -0.006219
# 4 -0.007484 -0.009722 -0.019818 0.053414 -0.011273 0.008935
# 5 0.002167 0.000658 -0.002487 -0.011273 0.041443 -0.006945
# 6 -0.000219 -0.004847 -0.006219 0.008935 -0.006945 0.031978
#
#
# Mechanical properties :
#
#
# Convention : Reuss Voigt Hill
#
# Bulk Modulus (GPa) = 18.54907 45.44282 31.99595
# Shear Modulus (GPa) = 27.04810 37.95015 32.49912
#
# Velocity S-wave (km/s) = 3.57229 4.23141 3.91575
# Velocity P-wave (km/s) = 5.07607 6.73150 5.96153
#
# Compressibility (1/GPa) = 0.05391104
#
# Stress axis : x y z
#
# Youngs Moduli (GPa) = 100.20921 86.83922 39.23669
#
# Poissons Ratio (x) = 0.08540 0.02307
# Poissons Ratio (y) = 0.09855 -0.19762
# Poissons Ratio (z) = 0.05893 -0.43737
#
# Static dielectric constant tensor:
#      x y z
#    x 1.685830 -0.138880 0.010510 
#    y -0.138880 1.745390 -0.043990 
#    z 0.010510 -0.043990 1.708580 
# 
# From -- ./inp_files/156794.got.cif
#   From: 2010.05.17/outbox.cif.g08.bks.cpg/sg2_79_cif.got.tgz:156794.got - 2010.06.03 11:33:40.
