data_PCOD9045005
_publ_section_title
;
Structure prediction by ZEFSAII (Michael W. Deem and Ramdas Pophale) SiO2 
 PCOD9045005
Probable space group: P -1
;
_chemical_formula_sum "Si O2"
_cell_formula_units_Z 12
_cell_length_a 12.576912
_cell_length_b 8.823669
_cell_length_c 5.795772
_cell_angle_alpha 101.762362
_cell_angle_beta 76.809506
_cell_angle_gamma 56.237503
_cell_volume 475.176797
_symmetry_space_group_name_H-M "P -1"
_symmetry_group_IT_number 2
_symmetry_cell_setting 'triclinic'
loop_
_space_group_symop_operation_xyz
x,y,z
-x,-y,-z
loop_
_atom_site_type_symbol
_atom_site_label
_atom_site_fract_x
_atom_site_fract_y
_atom_site_fract_z
Si Si1 0.719984 0.363614 0.787911
Si Si2 0.942794 0.212141 0.981475
Si Si3 0.385546 0.136391 0.295274
Si Si4 0.250533 0.980521 0.598223
Si Si5 0.516919 0.321286 0.310149
Si Si6 0.887169 0.471103 0.503082
O O1 0.786620 0.310958 0.990882
O O2 0.718545 0.192955 0.636250
O O3 0.568852 0.574015 0.856096
O O4 0.849153 0.339588 0.593626
O O5 0.912577 0.388477 0.207702
O O6 0.081752 0.142118 0.746596
O O7 0.000000 0.000000 0.000000
O O8 0.431649 0.252697 0.438671
O O9 0.248921 0.312574 0.283041
O O10 0.330065 0.054556 0.467728
O O11 0.500000 0.000000 0.000000
O O12 0.323876 0.877797 0.778625
O O13 0.500000 0.500000 0.500000
O O14 0.000000 0.500000 0.500000
#
# Coordination Sequence:
#
# PCOD9045005 Si02
#       6
#     2   2   2   2   2   2
#     4  10  23  48  72 110 153 194 249 313 370 452
#     4  12  26  45  84 109 150 202 248 312 383 446
#     4  11  26  47  72 108 153 197 250 313 374 441
#     4  11  23  45  80 111 147 197 258 305 378 454
#     4   9  22  48  72 104 146 195 251 307 367 442
#     4  11  26  48  74 113 153 192 260 307 379 450
#
# _framework density 25.253758999999999
#
# number of rings (size 3 to 8) (size 9 to 14) (size 15 to 20)
#    0.000    1.333    1.667    2.000    4.667    2.667 
#   15.000    5.000    0.000    0.000    0.000    0.000 
#    0.000    0.000    0.000    0.000    0.000    0.000 
#
# Total GULP energy -66827.804976 kJ/mol
# GULP energy per Si atom -5568.983748 kJ/mol
# Density = 2.519628 g / cm^3
# Si number density = 25.253759 Si / 1000 Ang^3
#
#
#
# Elastic Constant Matrix: (Units=GPa)
#
#
# Indices 1 2 3 4 5 6 
#
# 1 191.4520 74.6635 52.1965 -9.6863 -1.2136 22.8096
# 2 74.6635 88.9953 46.2494 5.7329 4.8155 16.5426
# 3 52.1965 46.2494 74.2171 15.4677 -19.5922 2.7831
# 4 -9.6863 5.7329 15.4677 36.5180 -1.1503 -8.3632
# 5 -1.2136 4.8155 -19.5922 -1.1503 51.1895 -15.6773
# 6 22.8096 16.5426 2.7831 -8.3632 -15.6773 68.0486
#
#
#
# Elastic Compliance Matrix: (Units=1/GPa)
#
#
# Indices 1 2 3 4 5 6 
#
# 1 0.008741 -0.005207 -0.004111 0.004567 -0.001140 -0.001197
# 2 -0.005207 0.024316 -0.013522 -0.001124 -0.009425 -0.005922
# 3 -0.004111 -0.013522 0.030478 -0.010177 0.014283 0.005458
# 4 0.004567 -0.001124 -0.010177 0.033663 -0.002061 0.002821
# 5 -0.001140 -0.009425 0.014283 -0.002061 0.028380 0.008374
# 6 -0.001197 -0.005922 0.005458 0.002821 0.008374 0.018589
#
#
# Mechanical properties :
#
#
# Convention : Reuss Voigt Hill
#
# Bulk Modulus (GPa) = 56.00658 77.87591 66.94124
# Shear Modulus (GPa) = 25.53627 43.25487 34.39557
#
# Velocity S-wave (km/s) = 3.18337 4.14310 3.69453
# Velocity P-wave (km/s) = 5.97808 7.33426 6.69062
#
# Compressibility (1/GPa) = 0.01785505
#
# Stress axis : x y z
#
# Youngs Moduli (GPa) = 114.40128 41.12568 32.81009
#
# Poissons Ratio (x) = 0.21415 0.13487
# Poissons Ratio (y) = 0.59570 0.44367
# Poissons Ratio (z) = 0.47026 0.55611
#
# Static dielectric constant tensor:
#      x y z
#    x 2.060490 -0.010600 -0.026420 
#    y -0.010600 2.140380 -0.230100 
#    z -0.026420 -0.230100 2.241620 
# 
# From -- ./inp_files/60879.got.cif
#   From: 2010.05.17/outbox.cif.g08.bks.cpg/sg2_31_cif.got.tgz:60879.got - 2010.06.03 11:33:40.
