data_PCOD9045725
_publ_section_title
;
Structure prediction by ZEFSAII (Michael W. Deem and Ramdas Pophale) SiO2 
 PCOD9045725
Probable space group: P -1
;
_chemical_formula_sum "Si O2"
_cell_formula_units_Z 16
_cell_length_a 7.146228
_cell_length_b 9.459875
_cell_length_c 13.376349
_cell_angle_alpha 55.581678
_cell_angle_beta 65.481064
_cell_angle_gamma 90.143596
_cell_volume 643.949543
_symmetry_space_group_name_H-M "P -1"
_symmetry_group_IT_number 2
_symmetry_cell_setting 'triclinic'
loop_
_space_group_symop_operation_xyz
x,y,z
-x,-y,-z
loop_
_atom_site_type_symbol
_atom_site_label
_atom_site_fract_x
_atom_site_fract_y
_atom_site_fract_z
Si Si1 0.577725 0.605267 0.716648
Si Si2 0.522452 0.982023 0.641264
Si Si3 0.151035 0.052291 0.791480
Si Si4 0.250198 0.402493 0.032254
Si Si5 0.727081 0.547496 0.328375
Si Si6 0.798733 0.983915 0.751751
Si Si7 0.910901 0.310352 0.973961
Si Si8 0.925049 0.277279 0.454075
O O1 0.431697 0.455693 0.885058
O O2 0.491940 0.547274 0.646403
O O3 0.828958 0.629255 0.668745
O O4 0.526194 0.790887 0.677440
O O5 0.291413 0.011615 0.683653
O O6 0.582080 0.998866 0.741313
O O7 0.733840 0.134432 0.487953
O O8 0.263925 0.258173 0.712631
O O9 0.903535 0.025468 0.821116
O O10 0.146331 0.904386 0.937072
O O11 0.261967 0.584004 0.016631
O O12 0.028066 0.338484 0.044593
O O13 0.233077 0.227290 0.171198
O O14 0.803918 0.426066 0.440591
O O15 0.917250 0.586388 0.187306
O O16 0.957041 0.143403 0.586776
#
# Coordination Sequence:
#
# PCOD9045725 Si02
#       8
#     2   2   2   2   2   2   2   2
#     4  11  23  43  67 102 129 166 222 278 324 382
#     4  10  24  41  67  97 124 175 220 265 327 383
#     4  11  22  45  67  95 132 181 213 267 327 390
#     4   9  18  38  70  96 127 168 214 274 328 379
#     4  11  26  40  68  97 137 172 217 268 327 391
#     4   9  24  41  65  98 134 168 217 269 321 393
#     4   9  19  38  66  98 128 168 218 268 328 385
#     4  10  26  43  60 103 132 175 213 273 328 381
#
# _framework density 24.846668000000001
#
# number of rings (size 3 to 8) (size 9 to 14) (size 15 to 20)
#    0.750    1.250    1.250    0.750    5.250    4.000 
#    0.000    0.000    0.000    6.000    0.000    0.000 
#    0.000    0.000    0.000    0.000    0.000    0.000 
#
# Total GULP energy -89140.549916 kJ/mol
# GULP energy per Si atom -5571.284370 kJ/mol
# Density = 2.479012 g / cm^3
# Si number density = 24.846668 Si / 1000 Ang^3
#
#
#
# Elastic Constant Matrix: (Units=GPa)
#
#
# Indices 1 2 3 4 5 6 
#
# 1 98.9927 20.5629 44.5573 -9.4048 6.0954 -0.6715
# 2 20.5629 80.5497 27.2790 -33.2692 -2.6654 0.5926
# 3 44.5573 27.2790 108.8073 -30.7216 2.4080 -13.4204
# 4 -9.4048 -33.2692 -30.7216 40.9846 -1.4395 -0.0880
# 5 6.0954 -2.6654 2.4080 -1.4395 35.5489 -10.9829
# 6 -0.6715 0.5926 -13.4204 -0.0880 -10.9829 20.3022
#
#
#
# Elastic Compliance Matrix: (Units=1/GPa)
#
#
# Indices 1 2 3 4 5 6 
#
# 1 0.013587 -0.003227 -0.006769 -0.004738 -0.004233 -0.006241
# 2 -0.003227 0.019616 0.001117 0.016135 0.003172 0.001845
# 3 -0.006769 0.001117 0.016610 0.011998 0.004724 0.013330
# 4 -0.004738 0.016135 0.011998 0.045654 0.006454 0.010993
# 5 -0.004233 0.003172 0.004724 0.006454 0.035944 0.022363
# 6 -0.006241 0.001845 0.013330 0.010993 0.022363 0.069952
#
#
# Mechanical properties :
#
#
# Convention : Reuss Voigt Hill
#
# Bulk Modulus (GPa) = 31.19687 52.57200 41.88444
# Shear Modulus (GPa) = 21.75742 32.43050 27.09396
#
# Velocity S-wave (km/s) = 2.96238 3.61671 3.30577
# Velocity P-wave (km/s) = 4.92787 6.21653 5.60933
#
# Compressibility (1/GPa) = 0.03205449
#
# Stress axis : x y z
#
# Youngs Moduli (GPa) = 73.60004 50.97881 60.20557
#
# Poissons Ratio (x) = 0.16452 0.40751
# Poissons Ratio (y) = 0.23752 -0.06723
# Poissons Ratio (z) = 0.49817 -0.05693
#
# Static dielectric constant tensor:
#      x y z
#    x 2.006450 0.020040 0.030340 
#    y 0.020040 1.949800 -0.001810 
#    z 0.030340 -0.001810 2.085700 
# 
# From -- ./inp_files/555900.got.cif
#   From: 2010.05.17/outbox.cif.g08.bks.cpg/sg2_278_cif.got.tgz:555900.got - 2010.06.03 11:33:40.
