data_PCOD9045682
_publ_section_title
;
Structure prediction by ZEFSAII (Michael W. Deem and Ramdas Pophale) SiO2 
 PCOD9045682
Probable space group: P -1
;
_chemical_formula_sum "Si O2"
_cell_formula_units_Z 16
_cell_length_a 15.035553
_cell_length_b 24.040760
_cell_length_c 6.451189
_cell_angle_alpha 78.273682
_cell_angle_beta 102.094804
_cell_angle_gamma 160.178215
_cell_volume 773.048193
_symmetry_space_group_name_H-M "P -1"
_symmetry_group_IT_number 2
_symmetry_cell_setting 'triclinic'
loop_
_space_group_symop_operation_xyz
x,y,z
-x,-y,-z
loop_
_atom_site_type_symbol
_atom_site_label
_atom_site_fract_x
_atom_site_fract_y
_atom_site_fract_z
Si Si1 0.963741 0.937126 0.725593
Si Si2 0.115503 0.513522 0.663439
Si Si3 0.234304 0.766832 0.998497
Si Si4 0.798021 0.514672 0.658327
Si Si5 0.237697 0.304560 0.285474
Si Si6 0.168846 0.858364 0.044190
Si Si7 0.196685 0.357162 0.608091
Si Si8 0.571760 0.764819 0.994392
O O1 0.850756 0.811646 0.689110
O O2 0.760125 0.844656 0.860255
O O3 0.000000 0.000000 0.500000
O O4 0.237301 0.088996 0.869099
O O5 0.227745 0.535843 0.527976
O O6 0.345731 0.663253 0.827033
O O7 0.000000 0.500000 0.500000
O O8 0.889544 0.348120 0.806212
O O9 0.545767 0.947014 0.990617
O O10 0.173532 0.796211 0.014420
O O11 0.078455 0.665178 0.786105
O O12 0.784782 0.573574 0.562891
O O13 0.581829 0.369282 0.830735
O O14 0.214351 0.313575 0.501522
O O15 0.544085 0.489987 0.238476
O O16 0.044621 0.230445 0.115809
O O17 0.070017 0.799231 0.275929
#
# Coordination Sequence:
#
# PCOD9045682 Si02
#       8
#     2   2   2   2   2   2   2   2
#     4  11  24  44  68  97 136 175 218 278 341 393
#     4  11  24  43  68  96 131 179 228 274 331 400
#     4  10  24  41  66  95 131 176 221 278 333 390
#     4  11  22  43  68  93 132 173 220 274 336 400
#     4  11  25  39  65 100 131 170 221 271 329 407
#     4  11  23  42  63  96 135 170 220 275 332 395
#     4  11  23  41  67  98 132 174 216 270 339 400
#     4  10  24  42  68  96 131 175 223 274 339 393
#
# _framework density 20.697285000000001
#
# number of rings (size 3 to 8) (size 9 to 14) (size 15 to 20)
#    0.000    1.250    2.500    2.625    1.750   10.500 
#    0.000    0.000    0.000    0.000    0.000    0.000 
#    0.000    0.000    0.000    0.000    0.000    0.000 
#
# Total GULP energy -89465.140687 kJ/mol
# GULP energy per Si atom -5591.571293 kJ/mol
# Density = 2.065018 g / cm^3
# Si number density = 20.697285 Si / 1000 Ang^3
#
#
#
# Elastic Constant Matrix: (Units=GPa)
#
#
# Indices 1 2 3 4 5 6 
#
# 1 68.4309 33.2319 29.8935 0.8774 5.1772 -9.1990
# 2 33.2319 125.6526 61.8299 1.5580 6.7821 3.9132
# 3 29.8935 61.8299 102.4692 2.3711 7.6182 0.4318
# 4 0.8774 1.5580 2.3711 32.1231 2.9073 -9.4161
# 5 5.1772 6.7821 7.6182 2.9073 34.7335 7.9961
# 6 -9.1990 3.9132 0.4318 -9.4161 7.9961 30.3685
#
#
#
# Elastic Compliance Matrix: (Units=1/GPa)
#
#
# Indices 1 2 3 4 5 6 
#
# 1 0.019055 -0.003525 -0.003266 0.002546 -0.003486 0.007980
# 2 -0.003525 0.012039 -0.006224 -0.000898 0.000278 -0.002882
# 3 -0.003266 -0.006224 0.014586 -0.000624 -0.001394 -0.000221
# 4 0.002546 -0.000898 -0.000624 0.035694 -0.006184 0.013591
# 5 -0.003486 0.000278 -0.001394 -0.006184 0.032753 -0.011613
# 6 0.007980 -0.002882 -0.000221 0.013591 -0.011613 0.042993
#
#
# Mechanical properties :
#
#
# Convention : Reuss Voigt Hill
#
# Bulk Modulus (GPa) = 50.88469 60.71816 55.80142
# Shear Modulus (GPa) = 26.35751 30.88486 28.62118
#
# Velocity S-wave (km/s) = 3.57245 3.86711 3.72270
# Velocity P-wave (km/s) = 6.45408 7.02420 6.74517
#
# Compressibility (1/GPa) = 0.01965228
#
# Stress axis : x y z
#
# Youngs Moduli (GPa) = 52.47863 83.06261 68.55775
#
# Poissons Ratio (x) = 0.29277 0.22389
# Poissons Ratio (y) = 0.18497 0.42670
# Poissons Ratio (z) = 0.17138 0.51697
#
# Static dielectric constant tensor:
#      x y z
#    x 1.710220 0.020380 -0.006480 
#    y 0.020380 1.734640 0.025220 
#    z -0.006480 0.025220 1.744580 
# 
# From -- ./inp_files/71670.got.cif
#   From: 2010.05.17/outbox.cif.g08.bks.cpg/sg2_36_cif.got.tgz:71670.got - 2010.06.03 11:33:40.
