data_PCOD9045152
_publ_section_title
;
Structure prediction by ZEFSAII (Michael W. Deem and Ramdas Pophale) SiO2 
 PCOD9045152
Probable space group: P -1
;
_chemical_formula_sum "Si O2"
_cell_formula_units_Z 14
_cell_length_a 9.101494
_cell_length_b 9.968321
_cell_length_c 9.126630
_cell_angle_alpha 59.730900
_cell_angle_beta 61.661213
_cell_angle_gamma 103.018371
_cell_volume 498.233094
_symmetry_space_group_name_H-M "P -1"
_symmetry_group_IT_number 2
_symmetry_cell_setting 'triclinic'
loop_
_space_group_symop_operation_xyz
x,y,z
-x,-y,-z
loop_
_atom_site_type_symbol
_atom_site_label
_atom_site_fract_x
_atom_site_fract_y
_atom_site_fract_z
Si Si1 0.961465 0.717899 0.366046
Si Si2 0.069141 0.623209 0.075157
Si Si3 0.493309 0.635678 0.278545
Si Si4 0.295651 0.984492 0.563169
Si Si5 0.239473 0.078983 0.223448
Si Si6 0.406751 0.645051 0.621830
Si Si7 0.744845 0.584088 0.849386
O O1 0.732848 0.574679 0.480826
O O2 0.883160 0.623190 0.618138
O O3 0.094782 0.941206 0.232331
O O4 0.088337 0.694350 0.195280
O O5 0.226587 0.565730 0.001171
O O6 0.123828 0.801273 0.846600
O O7 0.831958 0.427421 0.258616
O O8 0.518605 0.740868 0.358176
O O9 0.633743 0.562980 0.228810
O O10 0.535151 0.766657 0.047690
O O11 0.265729 0.982990 0.404010
O O12 0.500000 0.000000 0.500000
O O13 0.160527 0.200793 0.252407
O O14 0.607851 0.797366 0.548320
O O15 0.500000 0.500000 0.000000
#
# Coordination Sequence:
#
# PCOD9045152 Si02
#       7
#     2   2   2   2   2   2   2
#     4  11  25  50  83 117 152 210 273 324 391 480
#     4  11  28  53  81 114 161 210 268 326 399 478
#     4  10  23  49  81 115 155 208 264 330 392 475
#     4  12  29  49  73 117 161 205 259 332 399 469
#     4  12  27  48  84 115 160 207 268 325 403 474
#     4  10  25  49  79 113 159 209 263 324 402 470
#     4  12  25  49  79 118 158 202 260 337 399 467
#
# _framework density 28.099298999999998
#
# number of rings (size 3 to 8) (size 9 to 14) (size 15 to 20)
#    0.000    0.857    1.429    3.429    4.000    5.143 
#    2.571    8.571    0.000    0.000    0.000    0.000 
#    0.000    0.000    0.000    0.000    0.000    0.000 
#
# Total GULP energy -78087.881109 kJ/mol
# GULP energy per Si atom -5577.705793 kJ/mol
# Density = 2.803534 g / cm^3
# Si number density = 28.099299 Si / 1000 Ang^3
#
#
#
# Elastic Constant Matrix: (Units=GPa)
#
#
# Indices 1 2 3 4 5 6 
#
# 1 127.7099 33.4665 58.2837 -2.8045 4.6659 1.4440
# 2 33.4665 184.5957 45.0028 4.4322 3.0069 9.9275
# 3 58.2837 45.0028 154.0483 -12.7044 14.2764 0.7704
# 4 -2.8045 4.4322 -12.7044 32.9874 14.8883 4.6703
# 5 4.6659 3.0069 14.2764 14.8883 48.8195 -3.7944
# 6 1.4440 9.9275 0.7704 4.6703 -3.7944 31.3067
#
#
#
# Elastic Compliance Matrix: (Units=1/GPa)
#
#
# Indices 1 2 3 4 5 6 
#
# 1 0.009616 -0.000897 -0.003450 -0.000538 0.000312 0.000044
# 2 -0.000897 0.006083 -0.001605 -0.001528 0.000525 -0.001556
# 3 -0.003450 -0.001605 0.009067 0.005290 -0.003900 -0.000817
# 4 -0.000538 -0.001528 0.005290 0.039928 -0.014145 -0.007292
# 5 0.000312 0.000525 -0.003900 -0.014145 0.026281 0.005210
# 6 0.000044 -0.001556 -0.000817 -0.007292 0.005210 0.034173
#
#
# Mechanical properties :
#
#
# Convention : Reuss Voigt Hill
#
# Bulk Modulus (GPa) = 77.73857 82.20665 79.97261
# Shear Modulus (GPa) = 35.37626 44.59610 39.98618
#
# Velocity S-wave (km/s) = 3.55205 3.98815 3.77640
# Velocity P-wave (km/s) = 6.67446 7.10819 6.89474
#
# Compressibility (1/GPa) = 0.01286363
#
# Stress axis : x y z
#
# Youngs Moduli (GPa) = 103.99451 164.39575 110.28764
#
# Poissons Ratio (x) = 0.14744 0.38045
# Poissons Ratio (y) = 0.09327 0.17697
# Poissons Ratio (z) = 0.35875 0.26380
#
# Static dielectric constant tensor:
#      x y z
#    x 1.859220 0.766830 -0.050100 
#    y 0.766830 0.900200 0.141740 
#    z -0.050100 0.141740 2.302320 
# 
# From -- ./inp_files/269949.got.cif
#   From: 2010.05.17/outbox.cif.g08.bks.cpg/sg2_135_cif.got.tgz:269949.got - 2010.06.03 11:33:40.
