data_PCOD9045349
_publ_section_title
;
Structure prediction by ZEFSAII (Michael W. Deem and Ramdas Pophale) SiO2 
 PCOD9045349
Probable space group: P -1
;
_chemical_formula_sum "Si O2"
_cell_formula_units_Z 16
_cell_length_a 15.687868
_cell_length_b 20.135135
_cell_length_c 8.921576
_cell_angle_alpha 112.532766
_cell_angle_beta 76.885173
_cell_angle_gamma 160.225146
_cell_volume 795.970210
_symmetry_space_group_name_H-M "P -1"
_symmetry_group_IT_number 2
_symmetry_cell_setting 'triclinic'
loop_
_space_group_symop_operation_xyz
x,y,z
-x,-y,-z
loop_
_atom_site_type_symbol
_atom_site_label
_atom_site_fract_x
_atom_site_fract_y
_atom_site_fract_z
Si Si1 0.671971 0.121240 0.239891
Si Si2 0.151605 0.836488 0.531382
Si Si3 0.958871 0.372479 0.810188
Si Si4 0.502746 0.623966 0.111958
Si Si5 0.226448 0.674935 0.415190
Si Si6 0.033260 0.142897 0.375850
Si Si7 0.509779 0.504299 0.249501
Si Si8 0.092538 0.433142 0.118265
O O1 0.844782 0.200134 0.342515
O O2 0.770217 0.278197 0.389795
O O3 0.771284 0.179661 0.083335
O O4 0.352363 0.864943 0.198578
O O5 0.982058 0.656322 0.324002
O O6 0.071686 0.856683 0.588944
O O7 0.462933 0.067757 0.546882
O O8 0.970877 0.441071 0.732823
O O9 0.140142 0.511264 0.008638
O O10 0.491431 0.559712 0.198853
O O11 0.238698 0.471098 0.086122
O O12 0.499096 0.572460 0.919706
O O13 0.776348 0.887563 0.243974
O O14 0.217288 0.582212 0.324831
O O15 0.251335 0.300566 0.290709
O O16 0.209169 0.272215 0.570755
#
# Coordination Sequence:
#
# PCOD9045349 Si02
#       8
#     2   2   2   2   2   2   2   2
#     4   9  19  32  51  73 109 142 176 219 267 315
#     4   9  17  35  53  75  99 142 181 212 263 329
#     4   9  19  32  51  73 109 142 176 219 267 315
#     4  11  23  39  59  88 116 142 190 238 284 338
#     4   9  18  33  49  73 105 142 174 213 260 318
#     4  11  20  40  65  83 111 151 189 225 289 348
#     4  10  24  40  60  86 114 146 182 240 292 338
#     4  12  19  31  52  80 103 138 179 225 269 319
#
# _framework density 20.101254999999998
#
# number of rings (size 3 to 8) (size 9 to 14) (size 15 to 20)
#    0.000    2.000    1.250    4.875    0.000    0.000 
#    0.000    0.000    0.000    0.000    0.000    0.000 
#    0.000    0.000    0.000    0.000    0.000    0.000 
#
# Total GULP energy -89174.088869 kJ/mol
# GULP energy per Si atom -5573.380554 kJ/mol
# Density = 2.005550 g / cm^3
# Si number density = 20.101255 Si / 1000 Ang^3
#
#
#
# Elastic Constant Matrix: (Units=GPa)
#
#
# Indices 1 2 3 4 5 6 
#
# 1 128.2157 28.6690 57.9015 -16.4679 -15.6175 14.0604
# 2 28.6690 49.1044 32.6001 -11.8457 -0.6647 6.9999
# 3 57.9015 32.6001 89.6762 -21.1275 -4.4135 5.2877
# 4 -16.4679 -11.8457 -21.1275 29.4605 -6.3785 -1.2724
# 5 -15.6175 -0.6647 -4.4135 -6.3785 31.0907 -1.0768
# 6 14.0604 6.9999 5.2877 -1.2724 -1.0768 25.0614
#
#
#
# Elastic Compliance Matrix: (Units=1/GPa)
#
#
# Indices 1 2 3 4 5 6 
#
# 1 0.012643 -0.001740 -0.006263 0.002933 0.005857 -0.004885
# 2 -0.001740 0.028405 -0.007891 0.004428 -0.000655 -0.005096
# 3 -0.006263 -0.007891 0.019873 0.007923 0.001200 0.001979
# 4 0.002933 0.004428 0.007923 0.045565 0.011981 -0.001726
# 5 0.005857 -0.000655 0.001200 0.011981 0.037681 -0.001129
# 6 -0.004885 -0.005096 0.001979 -0.001726 -0.001129 0.043512
#
#
# Mechanical properties :
#
#
# Convention : Reuss Voigt Hill
#
# Bulk Modulus (GPa) = 34.32667 56.14861 45.23764
# Shear Modulus (GPa) = 21.81697 26.97757 24.39727
#
# Velocity S-wave (km/s) = 3.29804 3.66742 3.48763
# Velocity P-wave (km/s) = 5.62288 6.77693 6.22670
#
# Compressibility (1/GPa) = 0.02913187
#
# Stress axis : x y z
#
# Youngs Moduli (GPa) = 79.09745 35.20467 50.31944
#
# Poissons Ratio (x) = 0.06126 0.31516
# Poissons Ratio (y) = 0.13763 0.39709
# Poissons Ratio (z) = 0.49540 0.27781
#
# Static dielectric constant tensor:
#      x y z
#    x 1.699930 -0.054260 0.012520 
#    y -0.054260 1.793960 0.014330 
#    z 0.012520 0.014330 1.761870 
# 
# From -- ./inp_files/201997.got.cif
#   From: 2010.05.17/outbox.cif.g08.bks.cpg/sg2_101_cif.got.tgz:201997.got - 2010.06.03 11:33:40.
