data_PCOD9045689
_publ_section_title
;
Structure prediction by ZEFSAII (Michael W. Deem and Ramdas Pophale) SiO2 
 PCOD9045689
Probable space group: P -1
;
_chemical_formula_sum "Si O2"
_cell_formula_units_Z 16
_cell_length_a 18.628533
_cell_length_b 22.362316
_cell_length_c 5.258062
_cell_angle_alpha 70.985208
_cell_angle_beta 109.068466
_cell_angle_gamma 160.468548
_cell_volume 691.004772
_symmetry_space_group_name_H-M "P -1"
_symmetry_group_IT_number 2
_symmetry_cell_setting 'triclinic'
loop_
_space_group_symop_operation_xyz
x,y,z
-x,-y,-z
loop_
_atom_site_type_symbol
_atom_site_label
_atom_site_fract_x
_atom_site_fract_y
_atom_site_fract_z
Si Si1 0.323179 0.089929 0.327217
Si Si2 0.220588 0.612732 0.584527
Si Si3 0.870534 0.260609 0.433694
Si Si4 0.248990 0.179918 0.092758
Si Si5 0.478903 0.409661 0.537335
Si Si6 0.260076 0.941894 0.079743
Si Si7 0.940957 0.707513 0.659685
Si Si8 0.686948 0.239241 0.994160
O O1 0.569124 0.263505 0.430123
O O2 0.281793 0.131199 0.248456
O O3 0.305623 0.048014 0.079211
O O4 0.133463 0.903318 0.509342
O O5 0.260244 0.674579 0.820174
O O6 0.009440 0.405855 0.603041
O O7 0.202955 0.650879 0.286585
O O8 0.710355 0.086783 0.624636
O O9 0.756319 0.223360 0.177676
O O10 0.034552 0.342132 0.366400
O O11 0.338112 0.287191 0.291948
O O12 0.375678 0.297048 0.821791
O O13 0.000000 0.000000 0.000000
O O14 0.500000 0.500000 0.500000
O O15 0.714172 0.562795 0.557693
O O16 0.430755 0.049584 0.925178
O O17 0.013635 0.751661 0.971906
#
# Coordination Sequence:
#
# PCOD9045689 Si02
#       8
#     2   2   2   2   2   2   2   2
#     4  10  24  44  67 100 141 183 240 284 353 426
#     4  11  24  42  65  96 135 184 235 296 355 414
#     4  11  25  40  66  98 136 182 242 297 353 420
#     4  12  28  49  81 112 144 189 231 289 357 425
#     4  12  29  49  78 112 149 185 234 289 351 428
#     4  10  24  41  66  97 139 191 231 299 349 421
#     4  11  25  43  70  99 143 186 234 290 358 412
#     4  11  24  44  64  96 134 188 238 295 356 415
#
# _framework density 23.154688
#
# number of rings (size 3 to 8) (size 9 to 14) (size 15 to 20)
#    0.000    1.000    1.250    3.375   12.250    1.500 
#    0.000    0.000    0.000    0.000    0.000    0.000 
#    0.000    0.000    0.000    0.000    0.000    0.000 
#
# Total GULP energy -89503.543754 kJ/mol
# GULP energy per Si atom -5593.971485 kJ/mol
# Density = 2.310199 g / cm^3
# Si number density = 23.154688 Si / 1000 Ang^3
#
#
#
# Elastic Constant Matrix: (Units=GPa)
#
#
# Indices 1 2 3 4 5 6 
#
# 1 162.8862 56.8055 23.9744 23.9500 17.0292 3.6615
# 2 56.8055 99.3896 27.5486 26.6356 3.8056 8.1496
# 3 23.9744 27.5486 79.7925 20.2824 -5.2137 -2.2621
# 4 23.9500 26.6356 20.2824 35.5274 0.9403 2.0192
# 5 17.0292 3.8056 -5.2137 0.9403 37.6643 9.6092
# 6 3.6615 8.1496 -2.2621 2.0192 9.6092 38.5299
#
#
#
# Elastic Compliance Matrix: (Units=1/GPa)
#
#
# Indices 1 2 3 4 5 6 
#
# 1 0.008291 -0.003871 -0.000811 -0.002185 -0.003674 0.001014
# 2 -0.003871 0.015026 -0.002204 -0.007262 0.000813 -0.002762
# 3 -0.000811 -0.002204 0.015458 -0.006761 0.002603 0.001156
# 4 -0.002185 -0.007262 -0.006761 0.038964 -0.000010 -0.000693
# 5 -0.003674 0.000813 0.002603 -0.000010 0.030336 -0.007235
# 6 0.001014 -0.002762 0.001156 -0.000693 -0.007235 0.028350
#
#
# Mechanical properties :
#
#
# Convention : Reuss Voigt Hill
#
# Bulk Modulus (GPa) = 39.99282 62.08058 51.03670
# Shear Modulus (GPa) = 31.53936 37.92697 34.73317
#
# Velocity S-wave (km/s) = 3.69469 4.05159 3.87725
# Velocity P-wave (km/s) = 5.95907 6.98259 6.49104
#
# Compressibility (1/GPa) = 0.02500449
#
# Stress axis : x y z
#
# Youngs Moduli (GPa) = 120.61145 66.54972 64.68983
#
# Poissons Ratio (x) = 0.25762 0.05244
# Poissons Ratio (y) = 0.46689 0.14258
# Poissons Ratio (z) = 0.09777 0.14668
#
# Static dielectric constant tensor:
#      x y z
#    x 1.821850 -0.004080 -0.043470 
#    y -0.004080 1.915370 0.011040 
#    z -0.043470 0.011040 1.930430 
# 
# From -- ./inp_files/53628.got.cif
#   From: 2010.05.17/outbox.cif.g08.bks.cpg/sg2_27_cif.got.tgz:53628.got - 2010.06.03 11:33:40.
