data_PCOD9045982
_publ_section_title
;
Structure prediction by ZEFSAII (Michael W. Deem and Ramdas Pophale) SiO2 
 PCOD9045982
Probable space group: P -1
;
_chemical_formula_sum "Si O2"
_cell_formula_units_Z 12
_cell_length_a 7.418309
_cell_length_b 16.068789
_cell_length_c 8.522645
_cell_angle_alpha 119.862460
_cell_angle_beta 35.170892
_cell_angle_gamma 103.334729
_cell_volume 474.804459
_symmetry_space_group_name_H-M "P -1"
_symmetry_group_IT_number 2
_symmetry_cell_setting 'triclinic'
loop_
_space_group_symop_operation_xyz
x,y,z
-x,-y,-z
loop_
_atom_site_type_symbol
_atom_site_label
_atom_site_fract_x
_atom_site_fract_y
_atom_site_fract_z
Si Si1 0.556263 0.046856 0.837990
Si Si2 0.630976 0.294385 0.353485
Si Si3 0.676183 0.469774 0.680431
Si Si4 0.656479 0.097580 0.327706
Si Si5 0.860379 0.352012 0.925155
Si Si6 0.842275 0.173784 0.560518
O O1 0.193518 0.139381 0.185127
O O2 0.819073 0.099682 0.651294
O O3 0.500000 0.000000 0.000000
O O4 0.593010 0.958387 0.601110
O O5 0.732257 0.354215 0.479429
O O6 0.675037 0.179278 0.262855
O O7 0.835916 0.303359 0.064392
O O8 0.238132 0.348245 0.640040
O O9 0.424575 0.538242 0.791784
O O10 0.000000 0.500000 0.500000
O O11 0.500000 0.500000 0.000000
O O12 0.590489 0.157246 0.595182
O O13 0.000000 0.000000 0.000000
O O14 0.784115 0.282258 0.779518
#
# Coordination Sequence:
#
# PCOD9045982 Si02
#       6
#     2   2   2   2   2   2
#     4  11  22  39  61  91 128 174 225 277 331 392
#     4  12  26  46  70 102 140 182 227 283 343 406
#     4  12  26  47  75 105 136 177 225 282 346 414
#     4  10  24  42  65  97 136 183 233 282 335 399
#     4  12  25  45  71 103 139 179 226 282 345 412
#     4  11  23  39  62  92 129 173 221 276 331 395
#
# _framework density 25.27356
#
# number of rings (size 3 to 8) (size 9 to 14) (size 15 to 20)
#    0.000    0.667    0.000    8.000    0.000    9.333 
#    0.000    0.000    0.000    0.000    0.000    0.000 
#    0.000    0.000    0.000    0.000    0.000    0.000 
#
# Total GULP energy -67204.866816 kJ/mol
# GULP energy per Si atom -5600.405568 kJ/mol
# Density = 2.521604 g / cm^3
# Si number density = 25.273560 Si / 1000 Ang^3
#
#
#
# Elastic Constant Matrix: (Units=GPa)
#
#
# Indices 1 2 3 4 5 6 
#
# 1 83.0674 17.7703 18.0753 6.2106 6.9735 16.3779
# 2 17.7703 112.8650 27.2922 10.9580 -4.1222 18.9149
# 3 18.0753 27.2922 102.4208 -18.5416 11.7053 20.5318
# 4 6.2106 10.9580 -18.5416 43.5496 2.3073 2.7544
# 5 6.9735 -4.1222 11.7053 2.3073 46.4021 1.6461
# 6 16.3779 18.9149 20.5318 2.7544 1.6461 54.9434
#
#
#
# Elastic Compliance Matrix: (Units=1/GPa)
#
#
# Indices 1 2 3 4 5 6 
#
# 1 0.013493 -0.001072 -0.001743 -0.002138 -0.001476 -0.002850
# 2 -0.001072 0.010586 -0.003173 -0.003849 0.002165 -0.002011
# 3 -0.001743 -0.003173 0.013352 0.007153 -0.003615 -0.003628
# 4 -0.002138 -0.003849 0.007153 0.027573 -0.003125 -0.001999
# 5 -0.001476 0.002165 -0.003615 -0.003125 0.023014 0.000513
# 6 -0.002850 -0.002011 -0.003628 -0.001999 0.000513 0.021183
#
#
# Mechanical properties :
#
#
# Convention : Reuss Voigt Hill
#
# Bulk Modulus (GPa) = 39.28268 47.18097 43.23182
# Shear Modulus (GPa) = 38.56241 44.66004 41.61123
#
# Velocity S-wave (km/s) = 3.91039 4.20821 4.06203
# Velocity P-wave (km/s) = 5.99707 6.50543 6.25642
#
# Compressibility (1/GPa) = 0.02545651
#
# Stress axis : x y z
#
# Youngs Moduli (GPa) = 74.11470 94.46537 74.89570
#
# Poissons Ratio (x) = 0.10123 0.13051
# Poissons Ratio (y) = 0.07942 0.23762
# Poissons Ratio (z) = 0.12915 0.29971
#
# Static dielectric constant tensor:
#      x y z
#    x 2.122380 -0.097300 -0.063180 
#    y -0.097300 2.006530 0.053230 
#    z -0.063180 0.053230 1.958600 
# 
# From -- ./inp_files/196420.got.cif
#   From: 2010.05.17/outbox.cif.g08.bks.cpg/sg2_99_cif.got.tgz:196420.got - 2010.06.03 11:33:40.
