data_PCOD9045236
_publ_section_title
;
Structure prediction by ZEFSAII (Michael W. Deem and Ramdas Pophale) SiO2 
 PCOD9045236
Probable space group: P -1
;
_chemical_formula_sum "Si O2"
_cell_formula_units_Z 12
_cell_length_a 14.571475
_cell_length_b 12.809693
_cell_length_c 6.891589
_cell_angle_alpha 124.736789
_cell_angle_beta 116.420120
_cell_angle_gamma 29.829541
_cell_volume 521.976170
_symmetry_space_group_name_H-M "P -1"
_symmetry_group_IT_number 2
_symmetry_cell_setting 'triclinic'
loop_
_space_group_symop_operation_xyz
x,y,z
-x,-y,-z
loop_
_atom_site_type_symbol
_atom_site_label
_atom_site_fract_x
_atom_site_fract_y
_atom_site_fract_z
Si Si1 0.709037 0.263258 0.370162
Si Si2 0.989530 0.835185 0.476887
Si Si3 0.601621 0.758647 0.354450
Si Si4 0.735579 0.036681 0.809783
Si Si5 0.170734 0.318055 0.246893
Si Si6 0.181503 0.413996 0.978206
O O1 0.500000 0.500000 0.500000
O O2 0.826872 0.268134 0.439702
O O3 0.833593 0.066550 0.444889
O O4 0.707432 0.177538 0.086232
O O5 0.052885 0.646852 0.215544
O O6 0.894584 0.904018 0.665617
O O7 0.763782 0.625380 0.515226
O O8 0.500000 0.000000 0.500000
O O9 0.454521 0.803147 0.312935
O O10 0.680224 0.655086 0.103864
O O11 0.778863 0.864285 0.791645
O O12 0.262415 0.240294 0.037726
O O13 0.950981 0.533387 0.228066
#
# Coordination Sequence:
#
# PCOD9045236 Si02
#       6
#     2   2   2   2   2   2
#     4  11  25  49  72  98 134 178 229 286 344 403
#     4  11  26  44  72 102 133 178 231 281 342 401
#     4  10  24  38  61  99 137 178 224 270 329 401
#     4  11  24  44  67 101 137 172 227 284 331 407
#     4  10  24  39  68  96 138 179 223 264 339 402
#     4  11  23  42  67  96 140 182 220 276 335 405
#
# _framework density 22.989554999999999
#
# number of rings (size 3 to 8) (size 9 to 14) (size 15 to 20)
#    0.000    1.333    1.667    2.000   11.667    6.000 
#    0.000    0.000    0.000    0.000    0.000    0.000 
#    0.000    0.000    0.000    0.000    0.000    0.000 
#
# Total GULP energy -67110.717871 kJ/mol
# GULP energy per Si atom -5592.559823 kJ/mol
# Density = 2.293723 g / cm^3
# Si number density = 22.989555 Si / 1000 Ang^3
#
#
#
# Elastic Constant Matrix: (Units=GPa)
#
#
# Indices 1 2 3 4 5 6 
#
# 1 133.4750 67.8115 58.8273 -1.4311 7.7305 -40.1486
# 2 67.8115 87.4874 66.0816 11.6798 -9.3418 -25.5024
# 3 58.8273 66.0816 138.2867 7.8898 3.1992 -26.2285
# 4 -1.4311 11.6798 7.8898 36.4494 -4.3675 -3.4950
# 5 7.7305 -9.3418 3.1992 -4.3675 35.3400 1.5896
# 6 -40.1486 -25.5024 -26.2285 -3.4950 1.5896 37.7612
#
#
#
# Elastic Compliance Matrix: (Units=1/GPa)
#
#
# Indices 1 2 3 4 5 6 
#
# 1 0.016995 -0.011406 0.000248 0.004544 -0.006699 0.011242
# 2 -0.011406 0.028950 -0.008786 -0.006583 0.010116 0.000287
# 3 0.000248 -0.008786 0.011928 0.000081 -0.003571 0.002773
# 4 0.004544 -0.006583 0.000081 0.030112 0.000836 0.003193
# 5 -0.006699 0.010116 -0.003571 0.000836 0.033047 -0.004085
# 6 0.011242 0.000287 0.002773 0.003193 -0.004085 0.041023
#
#
# Mechanical properties :
#
#
# Convention : Reuss Voigt Hill
#
# Bulk Modulus (GPa) = 55.59593 82.74334 69.16963
# Shear Modulus (GPa) = 24.04578 33.01203 28.52891
#
# Velocity S-wave (km/s) = 3.23761 3.79351 3.52653
# Velocity P-wave (km/s) = 6.18157 7.43354 6.83628
#
# Compressibility (1/GPa) = 0.01798693
#
# Stress axis : x y z
#
# Youngs Moduli (GPa) = 58.83930 34.54258 83.83539
#
# Poissons Ratio (x) = 0.39398 -0.02083
# Poissons Ratio (y) = 0.67111 0.73657
# Poissons Ratio (z) = -0.01462 0.30349
#
# Static dielectric constant tensor:
#      x y z
#    x 1.865130 0.018150 -0.038860 
#    y 0.018150 1.942220 -0.075250 
#    z -0.038860 -0.075250 1.898200 
# 
# From -- ./inp_files/97370.got.cif
#   From: 2010.05.17/outbox.cif.g08.bks.cpg/sg2_49_cif.got.tgz:97370.got - 2010.06.03 11:33:40.
