data_PCOD9045363
_publ_section_title
;
Structure prediction by ZEFSAII (Michael W. Deem and Ramdas Pophale) SiO2 
 PCOD9045363
Probable space group: P -1
;
_chemical_formula_sum "Si O2"
_cell_formula_units_Z 16
_cell_length_a 21.961820
_cell_length_b 9.485593
_cell_length_c 5.264809
_cell_angle_alpha 126.713729
_cell_angle_beta 70.209952
_cell_angle_gamma 126.733535
_cell_volume 704.310952
_symmetry_space_group_name_H-M "P -1"
_symmetry_group_IT_number 2
_symmetry_cell_setting 'triclinic'
loop_
_space_group_symop_operation_xyz
x,y,z
-x,-y,-z
loop_
_atom_site_type_symbol
_atom_site_label
_atom_site_fract_x
_atom_site_fract_y
_atom_site_fract_z
Si Si1 0.058509 0.997772 0.222454
Si Si2 0.353183 0.411243 0.882686
Si Si3 0.233499 0.502026 0.043871
Si Si4 0.625756 0.788436 0.859765
Si Si5 0.080182 0.336829 0.235197
Si Si6 0.084401 0.654496 0.925397
Si Si7 0.511535 0.134323 0.876075
Si Si8 0.753912 0.265743 0.196933
O O1 0.102886 0.227439 0.301333
O O2 0.098493 0.883003 0.148388
O O3 0.000000 0.000000 0.500000
O O4 0.004853 0.832583 0.904842
O O5 0.370040 0.305170 0.513825
O O6 0.268060 0.364021 0.919623
O O7 0.369500 0.340106 0.050090
O O8 0.406547 0.657466 0.035667
O O9 0.143080 0.375487 0.983635
O O10 0.243171 0.639644 0.427492
O O11 0.271150 0.634995 0.880914
O O12 0.549552 0.795549 0.975037
O O13 0.695770 0.022680 0.033287
O O14 0.081111 0.538489 0.541936
O O15 0.163021 0.687343 0.954566
O O16 0.000000 0.500000 0.000000
O O17 0.500000 0.000000 0.500000
O O18 0.500000 0.000000 0.000000
#
# Coordination Sequence:
#
# PCOD9045363 Si02
#       8
#     2   2   2   2   2   2   2   2
#     4  11  22  39  62  92 124 165 225 276 348 406
#     4  12  25  43  70 102 138 177 215 283 332 387
#     4  11  24  45  67  91 133 173 225 263 343 395
#     4  12  25  44  67 105 139 170 228 275 333 393
#     4  10  24  40  62  91 126 172 219 284 332 417
#     4  11  22  41  66  90 130 172 226 280 348 399
#     4  12  24  44  73 100 139 184 224 266 325 402
#     4  11  25  44  67  95 130 178 223 274 333 411
#
# _framework density 22.717241000000001
#
# number of rings (size 3 to 8) (size 9 to 14) (size 15 to 20)
#    0.000    0.750    1.250    6.375    3.500    2.000 
#    0.000    0.000    0.000    0.000    0.000    0.000 
#    0.000    0.000    0.000    0.000    0.000    0.000 
#
# Total GULP energy -89406.229662 kJ/mol
# GULP energy per Si atom -5587.889354 kJ/mol
# Density = 2.266554 g / cm^3
# Si number density = 22.717241 Si / 1000 Ang^3
#
#
#
# Elastic Constant Matrix: (Units=GPa)
#
#
# Indices 1 2 3 4 5 6 
#
# 1 87.3301 -10.7821 -11.1943 -8.7546 -18.1529 -13.7679
# 2 -10.7821 72.0501 -29.2837 -9.1238 12.6685 -21.8898
# 3 -11.1943 -29.2837 74.6055 -2.3467 -6.1160 -2.4920
# 4 -8.7546 -9.1238 -2.3467 31.5580 -2.0249 1.4419
# 5 -18.1529 12.6685 -6.1160 -2.0249 41.9817 3.3731
# 6 -13.7679 -21.8898 -2.4920 1.4419 3.3731 45.9695
#
#
#
# Elastic Compliance Matrix: (Units=1/GPa)
#
#
# Indices 1 2 3 4 5 6 
#
# 1 0.016293 0.007415 0.006294 0.007108 0.005414 0.008132
# 2 0.007415 0.026448 0.012001 0.009646 -0.003802 0.015442
# 3 0.006294 0.012001 0.019671 0.006400 0.001604 0.008348
# 4 0.007108 0.009646 0.006400 0.036817 0.002410 0.005738
# 5 0.005414 -0.003802 0.001604 0.002410 0.027836 -0.002220
# 6 0.008132 0.015442 0.008348 0.005738 -0.002220 0.031978
#
#
# Mechanical properties :
#
#
# Convention : Reuss Voigt Hill
#
# Bulk Modulus (GPa) = 8.78478 14.60727 11.69603
# Shear Modulus (GPa) = 34.34882 42.91824 38.63353
#
# Velocity S-wave (km/s) = 3.89268 4.35125 4.12834
# Velocity P-wave (km/s) = 4.90707 5.62925 5.28052
#
# Compressibility (1/GPa) = 0.11383319
#
# Stress axis : x y z
#
# Youngs Moduli (GPa) = 61.37611 37.80980 50.83723
#
# Poissons Ratio (x) = -0.28036 -0.31998
# Poissons Ratio (y) = -0.45511 -0.61012
# Poissons Ratio (z) = -0.38632 -0.45377
#
# Static dielectric constant tensor:
#      x y z
#    x 1.938610 0.016400 0.029880 
#    y 0.016400 1.931310 -0.012330 
#    z 0.029880 -0.012330 1.826320 
# 
# From -- ./inp_files/117517.got.cif
#   From: 2010.05.17/outbox.cif.g08.bks.cpg/sg2_59_cif.got.tgz:117517.got - 2010.06.03 11:33:40.
