data_PCOD9045496
_publ_section_title
;
Structure prediction by ZEFSAII (Michael W. Deem and Ramdas Pophale) SiO2 
 PCOD9045496
Probable space group: P -1
;
_chemical_formula_sum "Si O2"
_cell_formula_units_Z 16
_cell_length_a 18.596298
_cell_length_b 8.022439
_cell_length_c 11.768651
_cell_angle_alpha 126.254247
_cell_angle_beta 140.184045
_cell_angle_gamma 34.625704
_cell_volume 634.800472
_symmetry_space_group_name_H-M "P -1"
_symmetry_group_IT_number 2
_symmetry_cell_setting 'triclinic'
loop_
_space_group_symop_operation_xyz
x,y,z
-x,-y,-z
loop_
_atom_site_type_symbol
_atom_site_label
_atom_site_fract_x
_atom_site_fract_y
_atom_site_fract_z
Si Si1 0.579299 0.158412 0.777110
Si Si2 0.946205 0.153328 0.374490
Si Si3 0.746533 0.072921 0.604306
Si Si4 0.431451 0.310194 0.427718
Si Si5 0.430888 0.328174 0.905255
Si Si6 0.079790 0.203996 0.912513
Si Si7 0.639971 0.009119 0.226120
Si Si8 0.939405 0.583429 0.275880
O O1 0.447505 0.346959 0.594870
O O2 0.517663 0.281461 0.878036
O O3 0.618449 0.860575 0.707460
O O4 0.748236 0.049189 0.920524
O O5 0.755823 0.388043 0.223462
O O6 0.988476 0.338965 0.517579
O O7 0.006963 0.906201 0.254401
O O8 0.000000 0.000000 0.500000
O O9 0.614819 0.108568 0.526234
O O10 0.683908 0.389400 0.663671
O O11 0.720355 0.049229 0.431440
O O12 0.926845 0.766426 0.725729
O O13 0.443922 0.063235 0.834968
O O14 0.516687 0.290540 0.108814
O O15 0.100158 0.257681 0.828658
O O16 0.000000 0.500000 0.000000
O O17 0.775300 0.732679 0.196947
#
# Coordination Sequence:
#
# PCOD9045496 Si02
#       8
#     2   2   2   2   2   2   2   2
#     4  11  22  46  68  97 138 184 227 280 343 410
#     4  10  24  43  69 100 137 177 230 285 344 404
#     4  11  22  42  66 102 140 177 231 278 344 415
#     4  10  24  40  69 101 138 185 223 279 349 421
#     4  11  23  43  67 100 132 173 235 288 330 404
#     4  11  25  43  67  98 140 178 229 284 348 408
#     4  11  23  40  70  95 136 176 227 288 339 399
#     4  11  22  45  68 100 137 185 227 286 346 413
#
# _framework density 25.20477
#
# number of rings (size 3 to 8) (size 9 to 14) (size 15 to 20)
#    0.000    1.250    3.750    1.125    1.750    6.500 
#    0.000    0.625    0.000    0.000    0.000    0.000 
#    0.000    0.000    0.000    0.000    0.000    0.000 
#
# Total GULP energy -89490.324171 kJ/mol
# GULP energy per Si atom -5593.145261 kJ/mol
# Density = 2.514740 g / cm^3
# Si number density = 25.204770 Si / 1000 Ang^3
#
#
#
# Elastic Constant Matrix: (Units=GPa)
#
#
# Indices 1 2 3 4 5 6 
#
# 1 57.4470 15.2670 -2.0029 -4.9948 -5.5892 -1.3814
# 2 15.2670 99.7235 27.2622 -10.2331 6.8531 6.1394
# 3 -2.0029 27.2622 98.9948 5.0383 -5.3681 1.1769
# 4 -4.9948 -10.2331 5.0383 59.0851 3.1084 -3.9071
# 5 -5.5892 6.8531 -5.3681 3.1084 34.8887 -2.5794
# 6 -1.3814 6.1394 1.1769 -3.9071 -2.5794 38.0384
#
#
#
# Elastic Compliance Matrix: (Units=1/GPa)
#
#
# Indices 1 2 3 4 5 6 
#
# 1 0.018915 -0.003615 0.001541 0.000733 0.004028 0.001571
# 2 -0.003615 0.012222 -0.003738 0.002201 -0.003901 -0.002027
# 3 0.001541 -0.003738 0.011398 -0.001620 0.002904 0.000337
# 4 0.000733 0.002201 -0.001620 0.017706 -0.002038 0.001402
# 5 0.004028 -0.003901 0.002904 -0.002038 0.030893 0.002572
# 6 0.001571 -0.002027 0.000337 0.001402 0.002572 0.026981
#
#
# Mechanical properties :
#
#
# Convention : Reuss Voigt Hill
#
# Bulk Modulus (GPa) = 32.35256 37.46865 34.91061
# Shear Modulus (GPa) = 35.70294 40.77838 38.24066
#
# Velocity S-wave (km/s) = 3.76774 4.02666 3.89935
# Velocity P-wave (km/s) = 5.63841 6.04290 5.84415
#
# Compressibility (1/GPa) = 0.03090945
#
# Stress axis : x y z
#
# Youngs Moduli (GPa) = 52.86713 81.82021 87.73362
#
# Poissons Ratio (x) = 0.29581 -0.13518
# Poissons Ratio (y) = 0.19113 0.32798
# Poissons Ratio (z) = -0.08145 0.30588
#
# Static dielectric constant tensor:
#      x y z
#    x 1.987100 0.022960 0.025480 
#    y 0.022960 2.066660 0.065710 
#    z 0.025480 0.065710 1.972040 
# 
# From -- ./inp_files/470148.got.cif
#   From: 2010.05.17/outbox.cif.g08.bks.cpg/sg2_236_cif.got.tgz:470148.got - 2010.06.03 11:33:40.
