data_PCOD9045712
_publ_section_title
;
Structure prediction by ZEFSAII (Michael W. Deem and Ramdas Pophale) SiO2 
 PCOD9045712
Probable space group: P -1
;
_chemical_formula_sum "Si O2"
_cell_formula_units_Z 16
_cell_length_a 5.418909
_cell_length_b 10.908347
_cell_length_c 19.226208
_cell_angle_alpha 33.852992
_cell_angle_beta 95.576768
_cell_angle_gamma 97.402373
_cell_volume 627.720437
_symmetry_space_group_name_H-M "P -1"
_symmetry_group_IT_number 2
_symmetry_cell_setting 'triclinic'
loop_
_space_group_symop_operation_xyz
x,y,z
-x,-y,-z
loop_
_atom_site_type_symbol
_atom_site_label
_atom_site_fract_x
_atom_site_fract_y
_atom_site_fract_z
Si Si1 0.755505 0.123838 0.420695
Si Si2 0.913865 0.996777 0.744263
Si Si3 0.296172 0.599449 0.399831
Si Si4 0.226363 0.656656 0.108038
Si Si5 0.183321 0.413490 0.986266
Si Si6 0.460569 0.266077 0.232609
Si Si7 0.984545 0.564039 0.287732
Si Si8 0.667745 0.931545 0.176014
O O1 0.685459 0.144680 0.327822
O O2 0.810717 0.364856 0.343027
O O3 0.500000 0.000000 0.500000
O O4 0.000000 0.000000 0.500000
O O5 0.779851 0.892507 0.721472
O O6 0.867872 0.252253 0.626955
O O7 0.768720 0.833201 0.874145
O O8 0.191330 0.984440 0.787782
O O9 0.500000 0.500000 0.500000
O O10 0.131729 0.458941 0.405220
O O11 0.434918 0.778509 0.267671
O O12 0.373212 0.441778 0.202417
O O13 0.155508 0.668943 0.180371
O O14 0.975439 0.610280 0.077651
O O15 0.361187 0.870482 0.972195
O O16 0.420191 0.579363 0.898057
O O17 0.000000 0.500000 0.000000
O O18 0.841306 0.761368 0.223352
#
# Coordination Sequence:
#
# PCOD9045712 Si02
#       8
#     2   2   2   2   2   2   2   2
#     4  12  30  50  77 112 150 203 259 318 387 459
#     4  10  24  41  67 109 139 193 243 305 380 445
#     4  11  27  46  73 101 146 204 257 312 375 455
#     4  11  23  44  75 113 150 197 249 319 399 461
#     4  11  22  39  67 107 150 186 241 305 388 454
#     4  12  25  42  74 107 152 193 247 316 387 455
#     4  11  26  50  73 109 150 195 262 314 389 457
#     4  10  25  45  75 108 153 197 254 314 382 461
#
# _framework density 25.489056000000001
#
# number of rings (size 3 to 8) (size 9 to 14) (size 15 to 20)
#    0.000    1.000    2.500    2.250    8.750    3.500 
#    0.000    0.000    0.000    0.000    0.000    0.000 
#    0.000    0.000    0.000    0.000    0.000    0.000 
#
# Total GULP energy -89516.109735 kJ/mol
# GULP energy per Si atom -5594.756858 kJ/mol
# Density = 2.543104 g / cm^3
# Si number density = 25.489056 Si / 1000 Ang^3
#
#
#
# Elastic Constant Matrix: (Units=GPa)
#
#
# Indices 1 2 3 4 5 6 
#
# 1 63.0647 27.5840 18.5694 10.4719 2.4246 8.5426
# 2 27.5840 122.4410 37.6649 13.7859 11.9384 18.0825
# 3 18.5694 37.6649 101.8829 15.6795 15.1816 12.6376
# 4 10.4719 13.7859 15.6795 40.1114 4.6786 2.5023
# 5 2.4246 11.9384 15.1816 4.6786 58.5595 -1.2333
# 6 8.5426 18.0825 12.6376 2.5023 -1.2333 47.9664
#
#
#
# Elastic Compliance Matrix: (Units=1/GPa)
#
#
# Indices 1 2 3 4 5 6 
#
# 1 0.018393 -0.003131 -0.001614 -0.003061 0.000508 -0.001497
# 2 -0.003131 0.010317 -0.002508 -0.001437 -0.001264 -0.002629
# 3 -0.001614 -0.002508 0.012086 -0.003051 -0.002350 -0.001853
# 4 -0.003061 -0.001437 -0.003051 0.027503 -0.000978 0.000431
# 5 0.000508 -0.001264 -0.002350 -0.000978 0.018033 0.001520
# 6 -0.001497 -0.002629 -0.001853 0.000431 0.001520 0.022610
#
#
# Mechanical properties :
#
#
# Convention : Reuss Voigt Hill
#
# Bulk Modulus (GPa) = 38.03602 50.55835 44.29719
# Shear Modulus (GPa) = 37.81807 42.89882 40.35844
#
# Velocity S-wave (km/s) = 3.85606 4.10692 3.98347
# Velocity P-wave (km/s) = 5.89750 6.50903 6.21080
#
# Compressibility (1/GPa) = 0.02629087
#
# Stress axis : x y z
#
# Youngs Moduli (GPa) = 54.36873 96.92476 82.73934
#
# Poissons Ratio (x) = 0.30347 0.13352
# Poissons Ratio (y) = 0.17023 0.20751
# Poissons Ratio (z) = 0.08774 0.24309
#
# Static dielectric constant tensor:
#      x y z
#    x 2.070490 -0.022010 0.016220 
#    y -0.022010 2.037700 0.014060 
#    z 0.016220 0.014060 2.045220 
# 
# From -- ./inp_files/583218.got.cif
#   From: 2010.05.17/outbox.cif.g08.bks.cpg/sg2_292_cif.got.tgz:583218.got - 2010.06.03 11:33:40.
