data_PCOD9045702
_publ_section_title
;
Structure prediction by ZEFSAII (Michael W. Deem and Ramdas Pophale) SiO2 
 PCOD9045702
Probable space group: P -1
;
_chemical_formula_sum "Si O2"
_cell_formula_units_Z 14
_cell_length_a 15.619736
_cell_length_b 7.916084
_cell_length_c 11.424317
_cell_angle_alpha 73.144322
_cell_angle_beta 153.383177
_cell_angle_gamma 101.237758
_cell_volume 598.818729
_symmetry_space_group_name_H-M "P -1"
_symmetry_group_IT_number 2
_symmetry_cell_setting 'triclinic'
loop_
_space_group_symop_operation_xyz
x,y,z
-x,-y,-z
loop_
_atom_site_type_symbol
_atom_site_label
_atom_site_fract_x
_atom_site_fract_y
_atom_site_fract_z
Si Si1 0.794463 0.129670 0.706211
Si Si2 0.817666 0.624903 0.105060
Si Si3 0.625027 0.866787 0.415030
Si Si4 0.127051 0.714410 0.643473
Si Si5 0.865300 0.900016 0.492215
Si Si6 0.739450 0.045322 0.913848
Si Si7 0.925972 0.620199 0.991826
O O1 0.879463 0.306510 0.745605
O O2 0.671991 0.064107 0.465999
O O3 0.698002 0.124632 0.717161
O O4 0.000000 0.000000 0.000000
O O5 0.741190 0.465696 0.114517
O O6 0.844452 0.547027 0.023080
O O7 0.015681 0.652447 0.407212
O O8 0.725523 0.833117 0.937135
O O9 0.708270 0.824641 0.396400
O O10 0.405921 0.864913 0.183115
O O11 0.754186 0.754688 0.694869
O O12 0.956907 0.782002 0.518554
O O13 0.210501 0.897316 0.683466
O O14 0.046650 0.922971 0.794167
O O15 0.000000 0.500000 0.000000
#
# Coordination Sequence:
#
# PCOD9045702 Si02
#       7
#     2   2   2   2   2   2   2
#     4  10  17  34  54  83 120 148 182 221 287 354
#     4  10  19  35  56  87 113 149 196 235 280 337
#     4  11  21  36  61  90 115 151 185 234 292 348
#     4   9  20  36  60  79 112 158 196 235 279 328
#     4  10  19  39  60  84 113 152 195 236 282 336
#     4  11  20  35  60  89 117 148 190 230 290 349
#     4  11  21  35  60  90 118 145 187 239 290 342
#
# _framework density 23.379363999999999
#
# number of rings (size 3 to 8) (size 9 to 14) (size 15 to 20)
#    0.000    1.714    5.714    2.143    0.000    0.000 
#    0.000    9.286    0.000    0.000    0.000    0.000 
#    0.000    0.000    0.000    0.000    0.000    0.000 
#
# Total GULP energy -78060.278566 kJ/mol
# GULP energy per Si atom -5575.734183 kJ/mol
# Density = 2.332615 g / cm^3
# Si number density = 23.379364 Si / 1000 Ang^3
#
#
#
# Elastic Constant Matrix: (Units=GPa)
#
#
# Indices 1 2 3 4 5 6 
#
# 1 137.7513 -8.7299 26.7332 -6.2730 -1.3511 0.8579
# 2 -8.7299 30.1716 0.3131 -7.8404 -4.5336 0.8619
# 3 26.7332 0.3131 34.2411 -1.9792 5.7818 10.3221
# 4 -6.2730 -7.8404 -1.9792 13.9735 3.2735 -11.5632
# 5 -1.3511 -4.5336 5.7818 3.2735 35.5069 1.1068
# 6 0.8579 0.8619 10.3221 -11.5632 1.1068 36.0067
#
#
#
# Elastic Compliance Matrix: (Units=1/GPa)
#
#
# Indices 1 2 3 4 5 6 
#
# 1 0.009849 0.005775 -0.009057 0.010689 0.001427 0.005612
# 2 0.005775 0.044348 -0.007099 0.035805 0.003356 0.012231
# 3 -0.009057 -0.007099 0.041324 -0.013704 -0.006228 -0.015670
# 4 0.010689 0.035805 -0.013704 0.134228 -0.006603 0.046126
# 5 0.001427 0.003356 -0.006228 -0.006603 0.030312 -0.001381
# 6 0.005612 0.012231 -0.015670 0.046126 -0.001381 0.046694
#
#
# Mechanical properties :
#
#
# Convention : Reuss Voigt Hill
#
# Bulk Modulus (GPa) = 13.37613 26.53297 19.95455
# Shear Modulus (GPa) = 14.18702 29.35393 21.77047
#
# Velocity S-wave (km/s) = 2.46604 3.54722 3.05484
# Velocity P-wave (km/s) = 3.72052 5.30571 4.58218
#
# Compressibility (1/GPa) = 0.07476002
#
# Stress axis : x y z
#
# Youngs Moduli (GPa) = 101.53337 22.54915 24.19889
#
# Poissons Ratio (x) = -0.13023 0.21917
# Poissons Ratio (y) = -0.58639 0.17178
# Poissons Ratio (z) = 0.91960 0.16007
#
# Static dielectric constant tensor:
#      x y z
#    x 1.913880 0.027830 -0.007790 
#    y 0.027830 1.931020 -0.052760 
#    z -0.007790 -0.052760 1.911090 
# 
# From -- ./inp_files/196814.got.cif
#   From: 2010.05.17/outbox.cif.g08.bks.cpg/sg2_99_cif.got.tgz:196814.got - 2010.06.03 11:33:40.
