data_PCOD9045302
_publ_section_title
;
Structure prediction by ZEFSAII (Michael W. Deem and Ramdas Pophale) SiO2 
 PCOD9045302
Probable space group: P -1
;
_chemical_formula_sum "Si O2"
_cell_formula_units_Z 16
_cell_length_a 8.643317
_cell_length_b 10.387458
_cell_length_c 10.483142
_cell_angle_alpha 90.960595
_cell_angle_beta 40.211344
_cell_angle_gamma 94.231952
_cell_volume 604.842640
_symmetry_space_group_name_H-M "P -1"
_symmetry_group_IT_number 2
_symmetry_cell_setting 'triclinic'
loop_
_space_group_symop_operation_xyz
x,y,z
-x,-y,-z
loop_
_atom_site_type_symbol
_atom_site_label
_atom_site_fract_x
_atom_site_fract_y
_atom_site_fract_z
Si Si1 0.515191 0.499026 0.840189
Si Si2 0.991409 0.354031 0.427735
Si Si3 0.656982 0.250201 0.179045
Si Si4 0.846196 0.850396 0.173949
Si Si5 0.228583 0.038844 0.522583
Si Si6 0.725335 0.779778 0.972860
Si Si7 0.243433 0.865520 0.282521
Si Si8 0.580398 0.362528 0.487162
O O1 0.798365 0.543363 0.654360
O O2 0.389306 0.617793 0.861550
O O3 0.377057 0.357935 0.899875
O O4 0.500000 0.500000 0.000000
O O5 0.893081 0.274597 0.611359
O O6 0.767136 0.385851 0.483674
O O7 0.117872 0.258035 0.246371
O O8 0.412887 0.154607 0.349928
O O9 0.718819 0.298172 0.284486
O O10 0.879783 0.183639 0.978917
O O11 0.769330 0.958411 0.324710
O O12 0.822430 0.864140 0.036042
O O13 0.658005 0.730885 0.334041
O O14 0.950691 0.055128 0.661757
O O15 0.294421 0.917866 0.396135
O O16 0.498725 0.847994 0.060684
O O17 0.500000 0.500000 0.500000
#
# Coordination Sequence:
#
# PCOD9045302 Si02
#       8
#     2   2   2   2   2   2   2   2
#     4  10  24  39  66  99 132 172 216 265 323 402
#     4  11  23  44  65  99 135 173 221 272 329 392
#     4  11  23  44  64  98 138 172 220 267 334 394
#     4  11  24  42  66  96 135 174 219 268 331 394
#     4  10  26  45  70  98 126 176 224 285 325 390
#     4  11  24  42  66  99 132 178 212 271 330 398
#     4  11  24  47  69  96 132 168 232 276 333 386
#     4  11  24  39  64  98 135 182 217 265 328 393
#
# _framework density 26.453163
#
# number of rings (size 3 to 8) (size 9 to 14) (size 15 to 20)
#    0.000    1.250    3.750    0.750    7.000    4.000 
#    0.000    3.750    0.000    0.000    0.000    0.000 
#    0.000    0.000    0.000    0.000    0.000    0.000 
#
# Total GULP energy -89545.264431 kJ/mol
# GULP energy per Si atom -5596.579027 kJ/mol
# Density = 2.639295 g / cm^3
# Si number density = 26.453163 Si / 1000 Ang^3
#
#
#
# Elastic Constant Matrix: (Units=GPa)
#
#
# Indices 1 2 3 4 5 6 
#
# 1 80.0239 14.1667 36.6642 0.1479 -12.1791 12.1213
# 2 14.1667 93.9945 14.5711 -9.7437 -0.6240 7.6444
# 3 36.6642 14.5711 138.0867 10.0455 -17.8716 1.5773
# 4 0.1479 -9.7437 10.0455 33.6693 -3.1406 5.0058
# 5 -12.1791 -0.6240 -17.8716 -3.1406 51.0093 22.6121
# 6 12.1213 7.6444 1.5773 5.0058 22.6121 40.1641
#
#
#
# Elastic Compliance Matrix: (Units=1/GPa)
#
#
# Indices 1 2 3 4 5 6 
#
# 1 0.016662 -0.000917 -0.003535 0.002677 0.006838 -0.008899
# 2 -0.000917 0.011651 -0.001111 0.004275 0.001166 -0.003087
# 3 -0.003535 -0.001111 0.008750 -0.002760 0.001961 0.000175
# 4 0.002677 0.004275 -0.002760 0.033617 0.005760 -0.008946
# 5 0.006838 0.001166 0.001961 0.005760 0.031526 -0.020829
# 6 -0.008899 -0.003087 0.000175 -0.008946 -0.020829 0.041006
#
#
# Mechanical properties :
#
#
# Convention : Reuss Voigt Hill
#
# Bulk Modulus (GPa) = 38.55415 49.21213 43.88314
# Shear Modulus (GPa) = 30.67792 41.41542 36.04667
#
# Velocity S-wave (km/s) = 3.40914 3.96108 3.69543
# Velocity P-wave (km/s) = 5.48657 6.29000 5.90197
#
# Compressibility (1/GPa) = 0.02593755
#
# Stress axis : x y z
#
# Youngs Moduli (GPa) = 60.01704 85.82812 114.28210
#
# Poissons Ratio (x) = 0.07867 0.40404
# Poissons Ratio (y) = 0.05501 0.12696
# Poissons Ratio (z) = 0.21219 0.09535
#
# Static dielectric constant tensor:
#      x y z
#    x 2.077900 0.053900 -0.028250 
#    y 0.053900 2.089350 0.078370 
#    z -0.028250 0.078370 2.111840 
# 
# From -- ./inp_files/346519.got.cif
#   From: 2010.05.17/outbox.cif.g08.bks.cpg/sg2_174_cif.got.tgz:346519.got - 2010.06.03 11:33:40.
