data_PCOD9045996
_publ_section_title
;
Structure prediction by ZEFSAII (Michael W. Deem and Ramdas Pophale) SiO2 
 PCOD9045996
Probable space group: P -1
;
_chemical_formula_sum "Si O2"
_cell_formula_units_Z 16
_cell_length_a 14.191543
_cell_length_b 11.636913
_cell_length_c 9.049528
_cell_angle_alpha 131.970736
_cell_angle_beta 111.550538
_cell_angle_gamma 41.361922
_cell_volume 706.155433
_symmetry_space_group_name_H-M "P -1"
_symmetry_group_IT_number 2
_symmetry_cell_setting 'triclinic'
loop_
_space_group_symop_operation_xyz
x,y,z
-x,-y,-z
loop_
_atom_site_type_symbol
_atom_site_label
_atom_site_fract_x
_atom_site_fract_y
_atom_site_fract_z
Si Si1 0.912999 0.473906 0.744505
Si Si2 0.169190 0.685387 0.214179
Si Si3 0.811431 0.002872 0.549275
Si Si4 0.505011 0.626437 0.734680
Si Si5 0.691696 0.936119 0.180648
Si Si6 0.667950 0.708073 0.227701
Si Si7 0.174523 0.336435 0.433280
Si Si8 0.373111 0.837842 0.134112
O O1 0.914060 0.338126 0.748145
O O2 0.817153 0.560665 0.615713
O O3 0.081393 0.266209 0.604600
O O4 0.836893 0.703993 0.981244
O O5 0.327548 0.531245 0.253347
O O6 0.107667 0.922729 0.351377
O O7 0.203865 0.552682 0.972615
O O8 0.729257 0.048016 0.391157
O O9 0.698800 0.148485 0.746438
O O10 0.500000 0.500000 0.500000
O O11 0.433926 0.864866 0.833428
O O12 0.419665 0.681961 0.887189
O O13 0.648315 0.855840 0.210605
O O14 0.725665 0.715098 0.418851
O O15 0.517439 0.777377 0.210301
O O16 0.000000 0.500000 0.500000
O O17 0.247428 0.093246 0.221865
#
# Coordination Sequence:
#
# PCOD9045996 Si02
#       8
#     2   2   2   2   2   2   2   2
#     4  11  24  41  67  96 133 178 225 282 325 394
#     4  10  25  44  64  95 139 179 225 269 337 399
#     4  12  23  44  65  98 138 181 220 272 337 405
#     4  11  23  43  65 100 130 176 219 278 335 396
#     4  11  22  40  69  96 131 173 228 271 332 396
#     4  10  24  42  66 101 132 178 218 283 337 393
#     4  12  22  42  68 104 133 169 230 279 333 393
#     4  11  24  41  68  99 137 173 223 278 339 396
#
# _framework density 22.657902
#
# number of rings (size 3 to 8) (size 9 to 14) (size 15 to 20)
#    0.000    1.000    5.000    1.125    1.750    4.500 
#    2.250    0.625    0.000    0.000    0.000    0.000 
#    0.000    0.000    0.000    0.000    0.000    0.000 
#
# Total GULP energy -89266.630960 kJ/mol
# GULP energy per Si atom -5579.164435 kJ/mol
# Density = 2.260633 g / cm^3
# Si number density = 22.657902 Si / 1000 Ang^3
#
#
#
# Elastic Constant Matrix: (Units=GPa)
#
#
# Indices 1 2 3 4 5 6 
#
# 1 57.1626 -0.9195 30.8970 -4.2755 -10.2626 14.0507
# 2 -0.9195 78.4486 25.9924 0.7842 -12.0481 8.3218
# 3 30.8970 25.9924 158.0347 -6.6384 -12.8247 1.8593
# 4 -4.2755 0.7842 -6.6384 36.8471 3.3593 -1.1340
# 5 -10.2626 -12.0481 -12.8247 3.3593 27.1902 5.9866
# 6 14.0507 8.3218 1.8593 -1.1340 5.9866 22.8118
#
#
#
# Elastic Compliance Matrix: (Units=1/GPa)
#
#
# Indices 1 2 3 4 5 6 
#
# 1 0.029930 0.007541 -0.005358 -0.000049 0.017709 -0.025399
# 2 0.007541 0.017288 -0.003226 -0.001623 0.012265 -0.013988
# 3 -0.005358 -0.003226 0.007838 0.001057 -0.000787 0.004097
# 4 -0.000049 -0.001623 0.001057 0.027850 -0.004354 0.003063
# 5 0.017709 0.012265 -0.000787 -0.004354 0.055703 -0.030153
# 6 -0.025399 -0.013988 0.004097 0.003063 -0.030153 0.072316
#
#
# Mechanical properties :
#
#
# Convention : Reuss Voigt Hill
#
# Bulk Modulus (GPa) = 18.87850 45.06510 31.97180
# Shear Modulus (GPa) = 21.67618 33.21487 27.44553
#
# Velocity S-wave (km/s) = 3.09637 3.83290 3.48415
# Velocity P-wave (km/s) = 4.59711 6.28655 5.50700
#
# Compressibility (1/GPa) = 0.05297030
#
# Stress axis : x y z
#
# Youngs Moduli (GPa) = 33.41097 57.84278 127.58168
#
# Poissons Ratio (x) = -0.43618 0.68357
# Poissons Ratio (y) = -0.25194 0.41157
# Poissons Ratio (z) = 0.17901 0.18660
#
# Static dielectric constant tensor:
#      x y z
#    x 1.915400 0.021990 -0.053490 
#    y 0.021990 1.876970 0.042900 
#    z -0.053490 0.042900 1.910490 
# 
# From -- ./inp_files/263484.got.cif
#   From: 2010.05.17/outbox.cif.g08.bks.cpg/sg2_132_cif.got.tgz:263484.got - 2010.06.03 11:33:40.
