data_PCOD9045048
_publ_section_title
;
Structure prediction by ZEFSAII (Michael W. Deem and Ramdas Pophale) SiO2 
 PCOD9045048
Probable space group: P -1
;
_chemical_formula_sum "Si O2"
_cell_formula_units_Z 10
_cell_length_a 12.963598
_cell_length_b 5.183899
_cell_length_c 10.550349
_cell_angle_alpha 58.448803
_cell_angle_beta 136.047669
_cell_angle_gamma 103.055861
_cell_volume 405.487248
_symmetry_space_group_name_H-M "P -1"
_symmetry_group_IT_number 2
_symmetry_cell_setting 'triclinic'
loop_
_space_group_symop_operation_xyz
x,y,z
-x,-y,-z
loop_
_atom_site_type_symbol
_atom_site_label
_atom_site_fract_x
_atom_site_fract_y
_atom_site_fract_z
Si Si1 0.197855 0.408921 0.911751
Si Si2 0.607946 0.186309 0.620235
Si Si3 0.602888 0.208142 0.090249
Si Si4 0.914822 0.254063 0.759707
Si Si5 0.112327 0.854590 0.523217
O O1 0.294796 0.067986 0.127503
O O2 0.303177 0.649496 0.969677
O O3 0.029268 0.485186 0.807951
O O4 0.169275 0.487017 0.716119
O O5 0.500000 0.500000 0.500000
O O6 0.736147 0.298552 0.621276
O O7 0.500000 0.000000 0.500000
O O8 0.734242 0.026790 0.350042
O O9 0.500000 0.500000 0.000000
O O10 0.500000 0.000000 0.000000
O O11 0.937439 0.136938 0.665680
O O12 0.000000 0.000000 0.000000
O O13 0.000000 0.000000 0.500000
#
# Coordination Sequence:
#
# PCOD9045048 Si02
#       5
#     2   2   2   2   2
#     4   9  24  46  72 112 152 207 260 319 387 478
#     4  11  27  50  74 111 155 206 261 325 400 467
#     4  10  25  45  72 112 159 198 259 328 390 456
#     4  10  23  48  76 110 157 210 260 324 395 474
#     4  10  24  44  77 115 155 203 270 318 395 472
#
# _framework density 24.661687000000001
#
# number of rings (size 3 to 8) (size 9 to 14) (size 15 to 20)
#    1.200    0.800    0.000    0.600    5.600    6.400 
#    0.000    8.000    0.000    0.000    0.000    0.000 
#    0.000    0.000    0.000    0.000    0.000    0.000 
#
# Total GULP energy -55765.879499 kJ/mol
# GULP energy per Si atom -5576.587950 kJ/mol
# Density = 2.460556 g / cm^3
# Si number density = 24.661687 Si / 1000 Ang^3
#
#
#
# Elastic Constant Matrix: (Units=GPa)
#
#
# Indices 1 2 3 4 5 6 
#
# 1 147.2930 89.1305 81.9777 11.0226 6.1065 10.8314
# 2 89.1305 204.6867 64.8809 26.8298 32.3798 26.1452
# 3 81.9777 64.8809 137.9576 19.8254 11.5716 -12.3752
# 4 11.0226 26.8298 19.8254 44.2215 19.4935 8.9467
# 5 6.1065 32.3798 11.5716 19.4935 64.9588 4.5585
# 6 10.8314 26.1452 -12.3752 8.9467 4.5585 51.3884
#
#
#
# Elastic Compliance Matrix: (Units=1/GPa)
#
#
# Indices 1 2 3 4 5 6 
#
# 1 0.012490 -0.003502 -0.006410 0.001863 0.001354 -0.002839
# 2 -0.003502 0.007896 -0.001484 -0.001429 -0.002693 -0.003149
# 3 -0.006410 -0.001484 0.012945 -0.004507 -0.000033 0.006011
# 4 0.001863 -0.001429 -0.004507 0.029201 -0.007058 -0.005209
# 5 0.001354 -0.002693 -0.000033 -0.007058 0.018688 0.000648
# 6 -0.002839 -0.003149 0.006011 -0.005209 0.000648 0.023957
#
#
# Mechanical properties :
#
#
# Convention : Reuss Voigt Hill
#
# Bulk Modulus (GPa) = 94.89299 106.87949 100.88624
# Shear Modulus (GPa) = 38.02761 49.04362 43.53561
#
# Velocity S-wave (km/s) = 3.93105 4.46427 4.20612
# Velocity P-wave (km/s) = 7.69192 8.36692 8.03651
#
# Compressibility (1/GPa) = 0.01053819
#
# Stress axis : x y z
#
# Youngs Moduli (GPa) = 80.06706 126.63971 77.24801
#
# Poissons Ratio (x) = 0.44354 0.49519
# Poissons Ratio (y) = 0.28043 0.11462
# Poissons Ratio (z) = 0.51326 0.18790
#
# Static dielectric constant tensor:
#      x y z
#    x 1.954790 0.011040 0.009870 
#    y 0.011040 2.750010 -0.233350 
#    z 0.009870 -0.233350 2.210490 
# 
# From -- ./inp_files/40461.got.cif
#   From: 2010.05.17/outbox.cif.g08.bks.cpg/sg2_21_cif.got.tgz:40461.got - 2010.06.03 11:33:40.
