data_PCOD9045088
_publ_section_title
;
Structure prediction by ZEFSAII (Michael W. Deem and Ramdas Pophale) SiO2 
 PCOD9045088
Probable space group: P -1
;
_chemical_formula_sum "Si O2"
_cell_formula_units_Z 15
_cell_length_a 12.312721
_cell_length_b 8.532777
_cell_length_c 11.628579
_cell_angle_alpha 141.159060
_cell_angle_beta 63.602290
_cell_angle_gamma 94.381719
_cell_volume 601.922844
_symmetry_space_group_name_H-M "P -1"
_symmetry_group_IT_number 2
_symmetry_cell_setting 'triclinic'
loop_
_space_group_symop_operation_xyz
x,y,z
-x,-y,-z
loop_
_atom_site_type_symbol
_atom_site_label
_atom_site_fract_x
_atom_site_fract_y
_atom_site_fract_z
Si Si1 0.000000 0.000000 0.500000
Si Si2 0.879053 0.419755 0.510534
Si Si3 0.582673 0.283136 0.137929
Si Si4 0.984441 0.849650 0.035634
Si Si5 0.214651 0.149879 0.381012
Si Si6 0.612838 0.763566 0.969841
Si Si7 0.765975 0.637845 0.039438
Si Si8 0.710842 0.660058 0.340378
O O1 0.073911 0.175985 0.510206
O O2 0.868015 0.300326 0.783875
O O3 0.801604 0.564964 0.511183
O O4 0.772380 0.572320 0.747774
O O5 0.000000 0.500000 0.500000
O O6 0.938889 0.084669 0.292392
O O7 0.719118 0.079584 0.882635
O O8 0.564311 0.079851 0.123351
O O9 0.466090 0.365198 0.142206
O O10 0.608139 0.526130 0.319812
O O11 0.858760 0.783475 0.043372
O O12 0.130906 0.585947 0.848541
O O13 0.000000 0.000000 0.000000
O O14 0.312028 0.102897 0.418314
O O15 0.630166 0.735172 0.081026
O O16 0.717261 0.732343 0.246606
#
# Coordination Sequence:
#
# PCOD9045088 Si02
#       8
#     1   2   2   2   2   2   2   2
#     4  12  22  42  62  98 140 178 214 272 342 406
#     4  11  22  40  69  99 128 172 227 281 340 390
#     4  10  23  49  69  92 134 180 233 281 321 401
#     4  12  22  40  64 101 134 167 227 282 339 394
#     4  11  23  41  67  99 131 181 222 276 336 396
#     4  10  24  45  70  95 127 183 229 274 337 394
#     4  12  26  39  65 100 139 176 219 281 345 405
#     4  12  24  40  65  98 139 176 216 278 341 402
#
# _framework density 24.920135999999999
#
# number of rings (size 3 to 8) (size 9 to 14) (size 15 to 20)
#    0.000    0.800    4.000    4.400    1.867    0.533 
#    2.400    2.667    0.000    0.000    0.000    0.000 
#    0.000    0.000    0.000    0.000    0.000    0.000 
#
# Total GULP energy -83722.405523 kJ/mol
# GULP energy per Si atom -5581.493702 kJ/mol
# Density = 2.486342 g / cm^3
# Si number density = 24.920136 Si / 1000 Ang^3
#
#
#
# Elastic Constant Matrix: (Units=GPa)
#
#
# Indices 1 2 3 4 5 6 
#
# 1 89.6354 6.7967 -3.2953 3.6991 4.1405 -16.3258
# 2 6.7967 78.7639 -4.1846 -15.4651 8.1866 -16.6629
# 3 -3.2953 -4.1846 38.2143 3.4123 13.8498 -6.9411
# 4 3.6991 -15.4651 3.4123 26.4420 0.7821 14.4264
# 5 4.1405 8.1866 13.8498 0.7821 35.1764 -6.9029
# 6 -16.3258 -16.6629 -6.9411 14.4264 -6.9029 43.2612
#
#
#
# Elastic Compliance Matrix: (Units=1/GPa)
#
#
# Indices 1 2 3 4 5 6 
#
# 1 0.012950 -0.000569 0.003355 -0.006457 -0.001162 0.007174
# 2 -0.000569 0.015423 0.003141 0.007085 -0.004292 0.003182
# 3 0.003355 0.003141 0.033463 -0.007052 -0.012536 0.008196
# 4 -0.006457 0.007085 -0.007052 0.054521 -0.003156 -0.019524
# 5 -0.001162 -0.004292 -0.012536 -0.003156 0.035069 0.002545
# 6 0.007174 0.003182 0.008196 -0.019524 0.002545 0.035280
#
#
# Mechanical properties :
#
#
# Convention : Reuss Voigt Hill
#
# Bulk Modulus (GPa) = 13.57048 22.80524 18.18786
# Shear Modulus (GPa) = 25.07337 34.79571 29.93454
#
# Velocity S-wave (km/s) = 3.17543 3.74075 3.46962
# Velocity P-wave (km/s) = 4.34763 5.27530 4.83377
#
# Compressibility (1/GPa) = 0.07368935
#
# Stress axis : x y z
#
# Youngs Moduli (GPa) = 77.22298 64.84019 29.88360
#
# Poissons Ratio (x) = 0.03686 -0.10026
# Poissons Ratio (y) = 0.04390 -0.09385
# Poissons Ratio (z) = -0.25908 -0.20364
#
# Static dielectric constant tensor:
#      x y z
#    x 1.990140 -0.050160 0.013970 
#    y -0.050160 1.981480 0.007930 
#    z 0.013970 0.007930 2.073270 
# 
# From -- ./inp_files/253804.got.cif
#   From: 2010.05.17/outbox.cif.g08.bks.cpg/sg2_127_cif.got.tgz:253804.got - 2010.06.03 11:33:40.
