data_PCOD9045077
_publ_section_title
;
Structure prediction by ZEFSAII (Michael W. Deem and Ramdas Pophale) SiO2 
 PCOD9045077
Probable space group: P -1
;
_chemical_formula_sum "Si O2"
_cell_formula_units_Z 16
_cell_length_a 9.561656
_cell_length_b 11.819493
_cell_length_c 14.396534
_cell_angle_alpha 123.395939
_cell_angle_beta 49.521837
_cell_angle_gamma 141.745270
_cell_volume 763.403649
_symmetry_space_group_name_H-M "P -1"
_symmetry_group_IT_number 2
_symmetry_cell_setting 'triclinic'
loop_
_space_group_symop_operation_xyz
x,y,z
-x,-y,-z
loop_
_atom_site_type_symbol
_atom_site_label
_atom_site_fract_x
_atom_site_fract_y
_atom_site_fract_z
Si Si1 0.000723 0.403546 0.867903
Si Si2 0.417419 0.112030 0.974904
Si Si3 0.249810 0.244329 0.740916
Si Si4 0.247045 0.142147 0.261459
Si Si5 0.463975 0.336723 0.893499
Si Si6 0.996013 0.431246 0.322088
Si Si7 0.778321 0.553839 0.580410
Si Si8 0.681303 0.220446 0.203261
O O1 0.146981 0.340578 0.800639
O O2 0.146246 0.567867 0.805956
O O3 0.713201 0.232257 0.893451
O O4 0.000000 0.500000 0.000000
O O5 0.358277 0.181865 0.946296
O O6 0.286660 0.900994 0.925142
O O7 0.360694 0.154735 0.117274
O O8 0.296451 0.261500 0.839380
O O9 0.514333 0.354212 0.628019
O O10 0.040781 0.038003 0.703668
O O11 0.270888 0.312116 0.348812
O O12 0.402724 0.134208 0.266247
O O13 0.741223 0.434589 0.784163
O O14 0.500000 0.500000 0.000000
O O15 0.051610 0.384273 0.374092
O O16 0.902782 0.535494 0.434367
O O17 0.782515 0.246124 0.274104
#
# Coordination Sequence:
#
# PCOD9045077 Si02
#       8
#     2   2   2   2   2   2   2   2
#     4  12  20  39  62  90 139 172 207 259 324 386
#     4  12  24  39  63 102 136 166 210 265 328 386
#     4  11  24  41  63  96 127 172 219 262 320 378
#     4  12  24  40  65  99 131 173 212 260 328 384
#     4  11  24  42  67  98 131 168 212 267 324 383
#     4  10  24  45  69  92 125 178 217 262 322 376
#     4  10  23  49  65  87 132 173 221 267 312 376
#     4  12  24  39  66  99 130 170 213 263 323 385
#
# _framework density 20.958767999999999
#
# number of rings (size 3 to 8) (size 9 to 14) (size 15 to 20)
#    0.000    0.750    5.000    3.375    3.500    1.000 
#    2.250    2.500    0.000    0.000    0.000    0.000 
#    0.000    0.000    0.000    0.000    0.000    0.000 
#
# Total GULP energy -89449.759537 kJ/mol
# GULP energy per Si atom -5590.609971 kJ/mol
# Density = 2.091107 g / cm^3
# Si number density = 20.958768 Si / 1000 Ang^3
#
#
#
# Elastic Constant Matrix: (Units=GPa)
#
#
# Indices 1 2 3 4 5 6 
#
# 1 63.6823 33.9598 14.8366 -7.2608 -11.4160 6.4740
# 2 33.9598 84.9654 15.7288 0.3375 -1.6280 20.4624
# 3 14.8366 15.7288 87.6281 -4.1696 -17.8548 10.5458
# 4 -7.2608 0.3375 -4.1696 18.4763 -2.6125 -3.9105
# 5 -11.4160 -1.6280 -17.8548 -2.6125 25.5001 6.1939
# 6 6.4740 20.4624 10.5458 -3.9105 6.1939 33.8293
#
#
#
# Elastic Compliance Matrix: (Units=1/GPa)
#
#
# Indices 1 2 3 4 5 6 
#
# 1 0.024067 -0.009594 0.000542 0.011450 0.011662 0.000217
# 2 -0.009594 0.017979 -0.001388 -0.006668 -0.002642 -0.008893
# 3 0.000542 -0.001388 0.015002 0.004173 0.012481 -0.005744
# 4 0.011450 -0.006668 0.004173 0.062639 0.012715 0.005454
# 5 0.011662 -0.002642 0.012481 0.012715 0.057614 -0.013603
# 6 0.000217 -0.008893 -0.005744 0.005454 -0.013603 0.039809
#
#
# Mechanical properties :
#
#
# Convention : Reuss Voigt Hill
#
# Bulk Modulus (GPa) = 27.64870 40.59179 34.12024
# Shear Modulus (GPa) = 19.99643 27.01118 23.50380
#
# Velocity S-wave (km/s) = 3.09218 3.59385 3.35241
# Velocity P-wave (km/s) = 5.09601 6.05231 5.59463
#
# Compressibility (1/GPa) = 0.03616807
#
# Stress axis : x y z
#
# Youngs Moduli (GPa) = 41.55110 55.62167 66.65725
#
# Poissons Ratio (x) = 0.53362 -0.03614
# Poissons Ratio (y) = 0.39863 0.09252
# Poissons Ratio (z) = -0.02253 0.07721
#
# Static dielectric constant tensor:
#      x y z
#    x 1.736730 0.012470 0.005770 
#    y 0.012470 1.763970 -0.017760 
#    z 0.005770 -0.017760 1.732850 
# 
# From -- ./inp_files/433819.got.cif
#   From: 2010.05.17/outbox.cif.g08.bks.cpg/sg2_217_cif.got.tgz:433819.got - 2010.06.03 11:33:40.
