data_PCOD9045220
_publ_section_title
;
Structure prediction by ZEFSAII (Michael W. Deem and Ramdas Pophale) SiO2 
 PCOD9045220
Probable space group: P -1
;
_chemical_formula_sum "Si O2"
_cell_formula_units_Z 14
_cell_length_a 9.589579
_cell_length_b 5.165003
_cell_length_c 12.241103
_cell_angle_alpha 82.789095
_cell_angle_beta 113.708263
_cell_angle_gamma 70.129870
_cell_volume 497.296320
_symmetry_space_group_name_H-M "P -1"
_symmetry_group_IT_number 2
_symmetry_cell_setting 'triclinic'
loop_
_space_group_symop_operation_xyz
x,y,z
-x,-y,-z
loop_
_atom_site_type_symbol
_atom_site_label
_atom_site_fract_x
_atom_site_fract_y
_atom_site_fract_z
Si Si1 0.789121 0.804375 0.310585
Si Si2 0.553919 0.171343 0.722179
Si Si3 0.816744 0.288727 0.914559
Si Si4 0.117770 0.224686 0.433612
Si Si5 0.079723 0.837208 0.810998
Si Si6 0.680569 0.601223 0.658003
Si Si7 0.609702 0.678508 0.010136
O O1 0.611305 0.792596 0.267245
O O2 0.815242 0.950338 0.425422
O O3 0.936224 0.484423 0.381844
O O4 0.823566 0.984645 0.216023
O O5 0.559811 0.443369 0.645051
O O6 0.214384 0.500581 0.861284
O O7 0.592355 0.920016 0.661158
O O8 0.841019 0.416917 0.799621
O O9 0.679015 0.588472 0.913284
O O10 0.704946 0.119290 0.858791
O O11 0.242625 0.369582 0.433618
O O12 0.084176 0.082549 0.320165
O O13 0.058136 0.857124 0.935811
O O14 0.500000 0.500000 0.000000
O O15 0.500000 0.000000 0.000000
#
# Coordination Sequence:
#
# PCOD9045220 Si02
#       7
#     2   2   2   2   2   2   2
#     4  11  27  47  74 106 149 200 261 306 365 438
#     4  10  25  47  75 110 144 194 248 311 370 437
#     4   8  24  40  69 111 145 188 240 307 377 445
#     4  11  27  48  72 106 150 205 252 307 369 446
#     4  10  25  41  72 107 153 193 241 309 377 448
#     4  10  25  48  75 110 148 192 247 310 375 446
#     4  10  24  37  67 107 148 186 236 300 369 438
#
# _framework density 28.152225999999999
#
# number of rings (size 3 to 8) (size 9 to 14) (size 15 to 20)
#    1.714    0.286    0.000    0.429   12.000    3.429 
#    0.000    1.429    0.000    0.000    0.000    0.000 
#    0.000    0.000    0.000    0.000    0.000    0.000 
#
# Total GULP energy -78313.071919 kJ/mol
# GULP energy per Si atom -5593.790851 kJ/mol
# Density = 2.808815 g / cm^3
# Si number density = 28.152226 Si / 1000 Ang^3
#
#
#
# Elastic Constant Matrix: (Units=GPa)
#
#
# Indices 1 2 3 4 5 6 
#
# 1 152.0192 21.6893 32.4793 -7.4448 -3.8414 25.8368
# 2 21.6893 124.3265 9.7031 -19.4017 -0.7378 39.8113
# 3 32.4793 9.7031 146.1664 18.2390 -4.5647 9.9096
# 4 -7.4448 -19.4017 18.2390 29.6235 6.8228 2.5809
# 5 -3.8414 -0.7378 -4.5647 6.8228 47.8705 -1.2393
# 6 25.8368 39.8113 9.9096 2.5809 -1.2393 35.3597
#
#
#
# Elastic Compliance Matrix: (Units=1/GPa)
#
#
# Indices 1 2 3 4 5 6 
#
# 1 0.008472 0.002431 -0.002214 0.005980 -0.000573 -0.008763
# 2 0.002431 0.017204 -0.002253 0.015751 -0.002563 -0.021754
# 3 -0.002214 -0.002253 0.008344 -0.007787 0.001756 0.002446
# 4 0.005980 0.015751 -0.007787 0.054412 -0.008401 -0.024187
# 5 -0.000573 -0.002563 0.001756 -0.008401 0.022278 0.004206
# 6 -0.008763 -0.021754 0.002446 -0.024187 0.004206 0.060404
#
#
# Mechanical properties :
#
#
# Convention : Reuss Voigt Hill
#
# Bulk Modulus (GPa) = 33.39168 61.13948 47.26558
# Shear Modulus (GPa) = 27.00248 46.48009 36.74129
#
# Velocity S-wave (km/s) = 3.10039 4.06769 3.61653
# Velocity P-wave (km/s) = 4.97025 6.62013 5.85361
#
# Compressibility (1/GPa) = 0.02994758
#
# Stress axis : x y z
#
# Youngs Moduli (GPa) = 118.03553 58.12641 119.85144
#
# Poissons Ratio (x) = -0.14128 0.26533
# Poissons Ratio (y) = -0.28690 0.27000
# Poissons Ratio (z) = 0.26131 0.13095
#
# Static dielectric constant tensor:
#      x y z
#    x 2.186970 -0.095580 0.050700 
#    y -0.095580 2.332500 0.087770 
#    z 0.050700 0.087770 2.389440 
# 
# From -- ./inp_files/488163.got.cif
#   From: 2010.05.17/outbox.cif.g08.bks.cpg/sg2_245_cif.got.tgz:488163.got - 2010.06.03 11:33:40.
