data_PCOD9045665
_publ_section_title
;
Structure prediction by ZEFSAII (Michael W. Deem and Ramdas Pophale) SiO2 
 PCOD9045665
Probable space group: P -1
;
_chemical_formula_sum "Si O2"
_cell_formula_units_Z 16
_cell_length_a 19.847719
_cell_length_b 8.926774
_cell_length_c 7.751710
_cell_angle_alpha 126.846161
_cell_angle_beta 76.459392
_cell_angle_gamma 138.794089
_cell_volume 659.836010
_symmetry_space_group_name_H-M "P -1"
_symmetry_group_IT_number 2
_symmetry_cell_setting 'triclinic'
loop_
_space_group_symop_operation_xyz
x,y,z
-x,-y,-z
loop_
_atom_site_type_symbol
_atom_site_label
_atom_site_fract_x
_atom_site_fract_y
_atom_site_fract_z
Si Si1 0.648009 0.069971 0.158897
Si Si2 0.995527 0.623175 0.804112
Si Si3 0.561118 0.179960 0.765575
Si Si4 0.176882 0.297545 0.614294
Si Si5 0.773847 0.214655 0.517379
Si Si6 0.605898 0.861109 0.671948
Si Si7 0.808825 0.702178 0.982018
Si Si8 0.965595 0.652101 0.219032
O O1 0.706827 0.400210 0.333746
O O2 0.704794 0.082663 0.291485
O O3 0.517531 0.837323 0.105236
O O4 0.663941 0.000899 0.920163
O O5 0.892457 0.360170 0.556134
O O6 0.058169 0.577933 0.812542
O O7 0.938070 0.580031 0.984900
O O8 0.083636 0.956278 0.907867
O O9 0.685538 0.522680 0.893883
O O10 0.500000 0.000000 0.500000
O O11 0.574551 0.009936 0.741003
O O12 0.099771 0.315515 0.636409
O O13 0.100526 0.968478 0.364874
O O14 0.188051 0.305954 0.818372
O O15 0.806765 0.498294 0.745578
O O16 0.690267 0.969664 0.548639
O O17 0.500000 0.500000 0.500000
#
# Coordination Sequence:
#
# PCOD9045665 Si02
#       8
#     2   2   2   2   2   2   2   2
#     4  12  23  45  76  95 135 189 223 280 343 407
#     4  11  23  44  66 100 137 176 225 289 337 396
#     4  11  23  47  70 102 134 179 239 273 338 416
#     4  11  23  42  67  98 132 184 225 269 347 413
#     4  11  23  44  69 104 137 181 229 276 348 414
#     4  11  25  46  69 104 141 174 230 290 335 404
#     4  11  22  42  68  96 140 177 227 290 328 405
#     4  10  24  41  65  99 137 176 228 273 340 415
#
# _framework density 24.248450999999999
#
# number of rings (size 3 to 8) (size 9 to 14) (size 15 to 20)
#    0.000    1.000    6.250    1.500    3.500    2.000 
#    4.500    0.000    0.000    0.000    0.000    0.000 
#    0.000    0.000    0.000    0.000    0.000    0.000 
#
# Total GULP energy -89594.693190 kJ/mol
# GULP energy per Si atom -5599.668324 kJ/mol
# Density = 2.419326 g / cm^3
# Si number density = 24.248451 Si / 1000 Ang^3
#
#
#
# Elastic Constant Matrix: (Units=GPa)
#
#
# Indices 1 2 3 4 5 6 
#
# 1 76.5830 37.2776 17.7946 -0.6522 28.2384 9.0776
# 2 37.2776 140.3425 29.9224 5.5892 19.1429 2.4011
# 3 17.7946 29.9224 93.1510 -14.3072 32.1191 -15.5053
# 4 -0.6522 5.5892 -14.3072 45.2175 -5.0916 7.5264
# 5 28.2384 19.1429 32.1191 -5.0916 38.2535 -0.1284
# 6 9.0776 2.4011 -15.5053 7.5264 -0.1284 25.2817
#
#
#
# Elastic Compliance Matrix: (Units=1/GPa)
#
#
# Indices 1 2 3 4 5 6 
#
# 1 0.020652 -0.003694 0.001177 0.000612 -0.014325 -0.006598
# 2 -0.003694 0.008694 -0.002545 -0.001817 0.000270 -0.000518
# 3 0.001177 -0.002545 0.018571 0.002831 -0.014776 0.010291
# 4 0.000612 -0.001817 0.002831 0.024313 0.001298 -0.005543
# 5 -0.014325 0.000270 -0.014776 0.001298 0.049147 -0.004081
# 6 -0.006598 -0.000518 0.010291 -0.005543 -0.004081 0.049913
#
#
# Mechanical properties :
#
#
# Convention : Reuss Voigt Hill
#
# Bulk Modulus (GPa) = 26.46127 53.34063 39.90095
# Shear Modulus (GPa) = 25.77168 36.75602 31.26385
#
# Velocity S-wave (km/s) = 3.26363 3.89756 3.59460
# Velocity P-wave (km/s) = 5.01377 6.50384 5.80680
#
# Compressibility (1/GPa) = 0.03779108
#
# Stress axis : x y z
#
# Youngs Moduli (GPa) = 48.42225 115.02619 53.84785
#
# Poissons Ratio (x) = 0.42489 -0.06336
# Poissons Ratio (y) = 0.17887 0.13706
# Poissons Ratio (z) = -0.05698 0.29278
#
# Static dielectric constant tensor:
#      x y z
#    x 1.966570 0.041200 -0.020810 
#    y 0.041200 1.963660 0.013350 
#    z -0.020810 0.013350 1.959140 
# 
# From -- ./inp_files/343770.got.cif
#   From: 2010.05.17/outbox.cif.g08.bks.cpg/sg2_172_cif.got.tgz:343770.got - 2010.06.03 11:33:40.
