data_PCOD9045090
_publ_section_title
;
Structure prediction by ZEFSAII (Michael W. Deem and Ramdas Pophale) SiO2 
 PCOD9045090
Probable space group: P -1
;
_chemical_formula_sum "Si O2"
_cell_formula_units_Z 16
_cell_length_a 12.868766
_cell_length_b 8.509166
_cell_length_c 11.618585
_cell_angle_alpha 140.139319
_cell_angle_beta 124.475869
_cell_angle_gamma 58.164411
_cell_volume 661.716748
_symmetry_space_group_name_H-M "P -1"
_symmetry_group_IT_number 2
_symmetry_cell_setting 'triclinic'
loop_
_space_group_symop_operation_xyz
x,y,z
-x,-y,-z
loop_
_atom_site_type_symbol
_atom_site_label
_atom_site_fract_x
_atom_site_fract_y
_atom_site_fract_z
Si Si1 0.349393 0.226141 0.613461
Si Si2 0.778308 0.143136 0.515986
Si Si3 0.405546 0.356429 0.289128
Si Si4 0.612312 0.022919 0.745122
Si Si5 0.744809 0.848394 0.094780
Si Si6 0.859564 0.963526 0.997151
Si Si7 0.007782 0.398765 0.784088
Si Si8 0.909505 0.459818 0.318834
O O1 0.490047 0.231822 0.756648
O O2 0.240056 0.462399 0.699613
O O3 0.288494 0.000381 0.507605
O O4 0.373939 0.164232 0.460119
O O5 0.718280 0.435345 0.649388
O O6 0.925929 0.183755 0.640853
O O7 0.740319 0.022194 0.303136
O O8 0.500000 0.500000 0.500000
O O9 0.422114 0.108453 0.234763
O O10 0.379118 0.266544 0.091187
O O11 0.756124 0.050602 0.880341
O O12 0.866485 0.629579 0.073538
O O13 0.787271 0.992317 0.091933
O O14 0.948239 0.167153 0.157684
O O15 0.929694 0.679187 0.885511
O O16 0.064812 0.368636 0.674208
O O17 0.000000 0.500000 0.500000
#
# Coordination Sequence:
#
# PCOD9045090 Si02
#       8
#     2   2   2   2   2   2   2   2
#     4  11  25  45  71 101 140 186 235 286 361 419
#     4  12  24  44  74 105 144 183 238 293 354 425
#     4  11  24  46  73 103 141 190 240 299 356 414
#     4  10  23  49  69  99 136 186 236 291 355 419
#     4  11  25  43  70 108 142 185 239 295 356 422
#     4  11  25  45  69 100 140 190 239 285 359 421
#     4  12  24  46  70 106 146 186 236 293 357 424
#     4  12  27  43  67 104 145 187 234 290 353 425
#
# _framework density 24.179528000000001
#
# number of rings (size 3 to 8) (size 9 to 14) (size 15 to 20)
#    0.000    0.750    5.000    2.625    3.500    2.000 
#    0.000    0.000    0.000    0.000    0.000    0.000 
#    0.000    0.000    0.000    0.000    0.000    0.000 
#
# Total GULP energy -89158.798747 kJ/mol
# GULP energy per Si atom -5572.424922 kJ/mol
# Density = 2.412449 g / cm^3
# Si number density = 24.179528 Si / 1000 Ang^3
#
#
#
# Elastic Constant Matrix: (Units=GPa)
#
#
# Indices 1 2 3 4 5 6 
#
# 1 33.8271 26.7836 5.1330 -7.3348 -3.1948 -6.0199
# 2 26.7836 111.3882 54.9111 -13.7709 2.9707 -12.0144
# 3 5.1330 54.9111 141.0351 -24.4629 11.4000 -7.3918
# 4 -7.3348 -13.7709 -24.4629 49.4109 -1.8884 -9.3138
# 5 -3.1948 2.9707 11.4000 -1.8884 34.4480 5.8427
# 6 -6.0199 -12.0144 -7.3918 -9.3138 5.8427 33.6349
#
#
#
# Elastic Compliance Matrix: (Units=1/GPa)
#
#
# Indices 1 2 3 4 5 6 
#
# 1 0.039451 -0.009984 0.003549 0.005963 0.002748 0.005448
# 2 -0.009984 0.014120 -0.004843 0.000489 -0.000936 0.002490
# 3 0.003549 -0.004843 0.010015 0.004567 -0.002802 0.002858
# 4 0.005963 0.000489 0.004567 0.025256 -0.001219 0.009451
# 5 0.002748 -0.000936 -0.002802 -0.001219 0.031282 -0.006230
# 6 0.005448 0.002490 0.002858 0.009451 -0.006230 0.035923
#
#
# Mechanical properties :
#
#
# Convention : Reuss Voigt Hill
#
# Bulk Modulus (GPa) = 24.37253 51.10065 37.73659
# Shear Modulus (GPa) = 26.00380 36.79360 31.39870
#
# Velocity S-wave (km/s) = 3.28296 3.90511 3.60747
# Velocity P-wave (km/s) = 4.94693 6.44305 5.74391
#
# Compressibility (1/GPa) = 0.04102981
#
# Stress axis : x y z
#
# Youngs Moduli (GPa) = 25.34801 70.82213 99.84716
#
# Poissons Ratio (x) = 0.70710 -0.35437
# Poissons Ratio (y) = 0.25308 0.48357
# Poissons Ratio (z) = -0.08996 0.34300
#
# Static dielectric constant tensor:
#      x y z
#    x 2.095070 -0.116570 -0.002720 
#    y -0.116570 2.011310 0.002600 
#    z -0.002720 0.002600 2.444680 
# 
# From -- ./inp_files/448403.got.cif
#   From: 2010.05.17/outbox.cif.g08.bks.cpg/sg2_225_cif.got.tgz:448403.got - 2010.06.03 11:33:40.
