data_PCOD9045033
_publ_section_title
;
Structure prediction by ZEFSAII (Michael W. Deem and Ramdas Pophale) SiO2 
 PCOD9045033
Probable space group: P -1
;
_chemical_formula_sum "Si O2"
_cell_formula_units_Z 14
_cell_length_a 21.459288
_cell_length_b 9.607231
_cell_length_c 5.035185
_cell_angle_alpha 83.884751
_cell_angle_beta 59.931903
_cell_angle_gamma 43.013052
_cell_volume 550.302027
_symmetry_space_group_name_H-M "P -1"
_symmetry_group_IT_number 2
_symmetry_cell_setting 'triclinic'
loop_
_space_group_symop_operation_xyz
x,y,z
-x,-y,-z
loop_
_atom_site_type_symbol
_atom_site_label
_atom_site_fract_x
_atom_site_fract_y
_atom_site_fract_z
Si Si1 0.506329 0.631966 0.631697
Si Si2 0.096027 0.506771 0.451801
Si Si3 0.253991 0.800764 0.625972
Si Si4 0.468236 0.953462 0.328344
Si Si5 0.979994 0.775608 0.150183
Si Si6 0.118253 0.762766 0.165024
Si Si7 0.704050 0.962395 0.601577
O O1 0.500000 0.500000 0.500000
O O2 0.614404 0.452441 0.642217
O O3 0.527590 0.718330 0.346302
O O4 0.604205 0.156204 0.992085
O O5 0.163067 0.555252 0.261900
O O6 0.029937 0.591873 0.297196
O O7 0.185246 0.259186 0.424656
O O8 0.996801 0.688357 0.843250
O O9 0.269157 0.939747 0.644274
O O10 0.201767 0.764036 0.939544
O O11 0.152894 0.969865 0.583949
O O12 0.340015 0.091740 0.491054
O O13 0.500000 0.000000 0.500000
O O14 0.500000 0.000000 0.000000
O O15 0.070008 0.766793 0.995009
O O16 0.000000 0.000000 0.500000
#
# Coordination Sequence:
#
# PCOD9045033 Si02
#       7
#     2   2   2   2   2   2   2
#     4  12  29  53  79 124 167 216 279 342 408 502
#     4  10  26  46  79 105 168 198 279 325 403 483
#     4  12  25  46  81 112 164 214 260 341 408 474
#     4  12  28  54  80 110 159 215 279 337 399 483
#     4  10  24  48  74 118 150 208 271 329 399 487
#     4  10  23  48  74 117 154 203 272 328 398 488
#     4  12  29  52  77 121 165 219 274 336 419 494
#
# _framework density 25.440570999999998
#
# number of rings (size 3 to 8) (size 9 to 14) (size 15 to 20)
#    0.857    0.000    4.286    0.857    4.000    4.571 
#    0.000    0.000    0.000    0.000    0.000    0.000 
#    0.000    0.000    0.000    0.000    0.000    0.000 
#
# Total GULP energy -78181.202882 kJ/mol
# GULP energy per Si atom -5584.371634 kJ/mol
# Density = 2.538267 g / cm^3
# Si number density = 25.440571 Si / 1000 Ang^3
#
#
#
# Elastic Constant Matrix: (Units=GPa)
#
#
# Indices 1 2 3 4 5 6 
#
# 1 130.5624 38.5930 61.2575 -9.0982 -4.0177 4.4307
# 2 38.5930 179.5588 35.6090 -16.9110 -20.7514 -13.2863
# 3 61.2575 35.6090 74.8825 -3.1975 -1.9044 7.8076
# 4 -9.0982 -16.9110 -3.1975 50.6846 1.7558 -13.8641
# 5 -4.0177 -20.7514 -1.9044 1.7558 42.8980 -5.6940
# 6 4.4307 -13.2863 7.8076 -13.8641 -5.6940 56.5379
#
#
#
# Elastic Compliance Matrix: (Units=1/GPa)
#
#
# Indices 1 2 3 4 5 6 
#
# 1 0.012652 -0.000427 -0.010142 0.001682 0.000563 0.000778
# 2 -0.000427 0.007231 -0.003212 0.002897 0.003628 0.003252
# 3 -0.010142 -0.003212 0.023441 -0.002438 -0.001892 -0.003986
# 4 0.001682 0.002897 -0.002438 0.022592 0.001398 0.006567
# 5 0.000563 0.003628 -0.001892 0.001398 0.025506 0.003981
# 6 0.000778 0.003252 -0.003986 0.006567 0.003981 0.020952
#
#
# Mechanical properties :
#
#
# Convention : Reuss Voigt Hill
#
# Bulk Modulus (GPa) = 63.44295 72.88029 68.16162
# Shear Modulus (GPa) = 34.43742 46.66038 40.54890
#
# Velocity S-wave (km/s) = 3.68318 4.28728 3.99666
# Velocity P-wave (km/s) = 6.56350 7.29501 6.93890
#
# Compressibility (1/GPa) = 0.01576219
#
# Stress axis : x y z
#
# Youngs Moduli (GPa) = 79.03994 138.29643 42.65944
#
# Poissons Ratio (x) = 0.05906 0.43264
# Poissons Ratio (y) = 0.03376 0.13703
# Poissons Ratio (z) = 0.80160 0.44424
#
# Static dielectric constant tensor:
#      x y z
#    x 2.102190 0.061600 -0.022020 
#    y 0.061600 2.001560 -0.004290 
#    z -0.022020 -0.004290 1.989410 
# 
# From -- ./inp_files/116892.got.cif
#   From: 2010.05.17/outbox.cif.g08.bks.cpg/sg2_59_cif.got.tgz:116892.got - 2010.06.03 11:33:40.
