data_PCOD9045965
_publ_section_title
;
Structure prediction by ZEFSAII (Michael W. Deem and Ramdas Pophale) SiO2 
 PCOD9045965
Probable space group: P -1
;
_chemical_formula_sum "Si O2"
_cell_formula_units_Z 12
_cell_length_a 5.788220
_cell_length_b 6.571959
_cell_length_c 14.494476
_cell_angle_alpha 104.998980
_cell_angle_beta 91.763331
_cell_angle_gamma 107.517429
_cell_volume 504.339118
_symmetry_space_group_name_H-M "P -1"
_symmetry_group_IT_number 2
_symmetry_cell_setting 'triclinic'
loop_
_space_group_symop_operation_xyz
x,y,z
-x,-y,-z
loop_
_atom_site_type_symbol
_atom_site_label
_atom_site_fract_x
_atom_site_fract_y
_atom_site_fract_z
Si Si1 0.421211 0.960907 0.845170
Si Si2 0.852815 0.670542 0.543144
Si Si3 0.250308 0.651681 0.974324
Si Si4 0.525714 0.691821 0.379978
Si Si5 0.234822 0.957060 0.307482
Si Si6 0.236766 0.310115 0.804436
O O1 0.586341 0.917423 0.758797
O O2 0.242230 0.071235 0.807642
O O3 0.256450 0.775535 0.890093
O O4 0.608256 0.150501 0.933300
O O5 0.759527 0.747491 0.455902
O O6 0.651524 0.508634 0.588314
O O7 0.000000 0.500000 0.500000
O O8 0.916237 0.897089 0.630332
O O9 0.350269 0.463930 0.910750
O O10 0.000000 0.500000 0.000000
O O11 0.401183 0.880267 0.375672
O O12 0.596093 0.617040 0.273673
O O13 0.041770 0.734245 0.235403
#
# Coordination Sequence:
#
# PCOD9045965 Si02
#       6
#     2   2   2   2   2   2
#     4  10  24  43  66  99 138 179 227 279 335 405
#     4  11  24  42  66  98 132 178 229 284 339 405
#     4  11  22  44  68  97 138 179 226 277 341 404
#     4  10  24  42  65  93 136 177 225 282 338 402
#     4  11  23  43  66  98 134 181 227 278 342 406
#     4  11  23  41  67  98 132 178 226 283 335 405
#
# _framework density 23.793519
#
# number of rings (size 3 to 8) (size 9 to 14) (size 15 to 20)
#    0.000    1.333    1.667    3.000    0.000   11.333 
#    3.000    0.000    0.000    0.000    0.000    0.000 
#    0.000    0.000    0.000    0.000    0.000    0.000 
#
# Total GULP energy -66843.835393 kJ/mol
# GULP energy per Si atom -5570.319616 kJ/mol
# Density = 2.373936 g / cm^3
# Si number density = 23.793519 Si / 1000 Ang^3
#
#
#
# Elastic Constant Matrix: (Units=GPa)
#
#
# Indices 1 2 3 4 5 6 
#
# 1 50.2886 44.5270 52.8619 -14.6271 0.9757 -8.0613
# 2 44.5270 114.6717 58.6401 -19.3083 -8.5219 11.8879
# 3 52.8619 58.6401 149.1829 2.6900 -9.4482 -10.7627
# 4 -14.6271 -19.3083 2.6900 48.0771 6.4043 -14.2288
# 5 0.9757 -8.5219 -9.4482 6.4043 37.9974 -7.2397
# 6 -8.0613 11.8879 -10.7627 -14.2288 -7.2397 36.6068
#
#
#
# Elastic Compliance Matrix: (Units=1/GPa)
#
#
# Indices 1 2 3 4 5 6 
#
# 1 0.054323 -0.013610 -0.013394 0.018132 -0.007399 0.018029
# 2 -0.013610 0.015953 -0.001936 -0.000402 0.001888 -0.008530
# 3 -0.013394 -0.001936 0.012560 -0.006159 0.004028 -0.000225
# 4 0.018132 -0.000402 -0.006159 0.031120 -0.004767 0.013466
# 5 -0.007399 0.001888 0.004028 -0.004767 0.029285 0.002881
# 6 0.018029 -0.008530 -0.000225 0.013466 0.002881 0.039795
#
#
# Mechanical properties :
#
#
# Convention : Reuss Voigt Hill
#
# Bulk Modulus (GPa) = 40.07237 69.57792 54.82515
# Shear Modulus (GPa) = 20.06128 35.07721 27.56925
#
# Velocity S-wave (km/s) = 2.90684 3.84374 3.40764
# Velocity P-wave (km/s) = 5.30514 7.00036 6.21086
#
# Compressibility (1/GPa) = 0.02495485
#
# Stress axis : x y z
#
# Youngs Moduli (GPa) = 18.40831 62.68586 79.61552
#
# Poissons Ratio (x) = 0.85316 1.06638
# Poissons Ratio (y) = 0.25054 0.15417
# Poissons Ratio (z) = 0.24656 0.12139
#
# Static dielectric constant tensor:
#      x y z
#    x 1.986590 -0.030250 0.035110 
#    y -0.030250 1.975070 0.064440 
#    z 0.035110 0.064440 1.944820 
# 
# From -- ./inp_files/4467.got.cif
#   From: 2010.05.17/outbox.cif.g08.bks.cpg/sg2_3_cif.got.tgz:4467.got - 2010.06.03 11:33:40.
