data_PCOD9045198
_publ_section_title
;
Structure prediction by ZEFSAII (Michael W. Deem and Ramdas Pophale) SiO2 
 PCOD9045198
Probable space group: P -1
;
_chemical_formula_sum "Si O2"
_cell_formula_units_Z 16
_cell_length_a 14.235793
_cell_length_b 15.121441
_cell_length_c 5.392291
_cell_angle_alpha 63.692589
_cell_angle_beta 121.622233
_cell_angle_gamma 116.839261
_cell_volume 848.764437
_symmetry_space_group_name_H-M "P -1"
_symmetry_group_IT_number 2
_symmetry_cell_setting 'triclinic'
loop_
_space_group_symop_operation_xyz
x,y,z
-x,-y,-z
loop_
_atom_site_type_symbol
_atom_site_label
_atom_site_fract_x
_atom_site_fract_y
_atom_site_fract_z
Si Si1 0.805228 0.977517 0.328354
Si Si2 0.675975 0.611288 0.681474
Si Si3 0.777260 0.721392 0.192974
Si Si4 0.363605 0.950809 0.321750
Si Si5 0.593501 0.251804 0.487205
Si Si6 0.577406 0.367680 0.802472
Si Si7 0.663933 0.872927 0.656624
Si Si8 0.976866 0.908797 0.281136
O O1 0.752041 0.879075 0.550279
O O2 0.888524 0.940697 0.303561
O O3 0.897591 0.076953 0.448910
O O4 0.692854 0.005434 0.039339
O O5 0.754976 0.658675 0.495695
O O6 0.642637 0.487768 0.779101
O O7 0.554713 0.639049 0.445167
O O8 0.731133 0.652219 0.972754
O O9 0.907496 0.794002 0.248330
O O10 0.698858 0.800853 0.995454
O O11 0.338951 0.829752 0.400790
O O12 0.500000 0.000000 0.500000
O O13 0.311032 0.006432 0.394123
O O14 0.630392 0.322540 0.694294
O O15 0.470106 0.177202 0.502807
O O16 0.579833 0.311252 0.140757
O O17 0.000000 0.000000 0.000000
#
# Coordination Sequence:
#
# PCOD9045198 Si02
#       8
#     2   2   2   2   2   2   2   2
#     4  11  22  38  56  82 131 164 204 245 291 351
#     4  11  23  37  61  83 121 154 208 250 318 358
#     4  12  21  36  59  88 116 166 184 247 306 368
#     4  10  24  36  56  87 124 172 203 240 290 372
#     4  11  24  36  61  85 124 166 204 240 308 348
#     4  11  22  40  56  88 116 159 204 264 298 367
#     4  11  21  35  55  86 129 159 202 231 291 375
#     4  11  23  36  58  88 124 163 201 252 296 364
#
# _framework density 18.850930999999999
#
# number of rings (size 3 to 8) (size 9 to 14) (size 15 to 20)
#    0.000    1.000    5.000    1.500    7.000    3.000 
#    0.000    0.000    0.000    0.000    0.000    5.250 
#    0.000    0.000    0.000    0.000    0.000    0.000 
#
# Total GULP energy -89072.356428 kJ/mol
# GULP energy per Si atom -5567.022277 kJ/mol
# Density = 1.880803 g / cm^3
# Si number density = 18.850931 Si / 1000 Ang^3
#
#
#
# Elastic Constant Matrix: (Units=GPa)
#
#
# Indices 1 2 3 4 5 6 
#
# 1 52.3259 36.8423 34.3469 -5.4855 -23.0104 -1.6338
# 2 36.8423 134.3920 45.5421 9.9500 -13.8714 -9.3825
# 3 34.3469 45.5421 76.6924 6.1384 -14.9634 -0.1346
# 4 -5.4855 9.9500 6.1384 36.0674 5.0901 2.4107
# 5 -23.0104 -13.8714 -14.9634 5.0901 38.1721 3.8620
# 6 -1.6338 -9.3825 -0.1346 2.4107 3.8620 34.7311
#
#
#
# Elastic Compliance Matrix: (Units=1/GPa)
#
#
# Indices 1 2 3 4 5 6 
#
# 1 0.038071 -0.005700 -0.011171 0.007178 0.015749 -0.002042
# 2 -0.005700 0.010590 -0.003643 -0.003238 -0.000877 0.002901
# 3 -0.011171 -0.003643 0.020687 -0.004238 0.000740 -0.001217
# 4 0.007178 -0.003238 -0.004238 0.030932 -0.002390 -0.002435
# 5 0.015749 -0.000877 0.000740 -0.002390 0.036321 -0.003366
# 6 -0.002042 0.002901 -0.001217 -0.002435 -0.003366 0.030019
#
#
# Mechanical properties :
#
#
# Convention : Reuss Voigt Hill
#
# Bulk Modulus (GPa) = 35.31004 55.20811 45.25907
# Shear Modulus (GPa) = 23.03237 31.57271 27.30254
#
# Velocity S-wave (km/s) = 3.49924 4.09695 3.80983
# Velocity P-wave (km/s) = 5.92437 7.19237 6.58894
#
# Compressibility (1/GPa) = 0.02832056
#
# Stress axis : x y z
#
# Youngs Moduli (GPa) = 26.26672 94.43260 48.34064
#
# Poissons Ratio (x) = 0.53824 0.54001
# Poissons Ratio (y) = 0.14971 0.17609
# Poissons Ratio (z) = 0.29342 0.34398
#
# Static dielectric constant tensor:
#      x y z
#    x 1.673610 -0.034810 -0.047760 
#    y -0.034810 1.745920 0.063340 
#    z -0.047760 0.063340 1.754530 
# 
# From -- ./inp_files/96288.got.cif
#   From: 2010.05.17/outbox.cif.g08.bks.cpg/sg2_49_cif.got.tgz:96288.got - 2010.06.03 11:33:40.
