data_PCOD9045359
_publ_section_title
;
Structure prediction by ZEFSAII (Michael W. Deem and Ramdas Pophale) SiO2 
 PCOD9045359
Probable space group: P -1
;
_chemical_formula_sum "Si O2"
_cell_formula_units_Z 14
_cell_length_a 8.111186
_cell_length_b 15.949325
_cell_length_c 10.224017
_cell_angle_alpha 43.335854
_cell_angle_beta 43.377944
_cell_angle_gamma 46.042668
_cell_volume 583.744714
_symmetry_space_group_name_H-M "P -1"
_symmetry_group_IT_number 2
_symmetry_cell_setting 'triclinic'
loop_
_space_group_symop_operation_xyz
x,y,z
-x,-y,-z
loop_
_atom_site_type_symbol
_atom_site_label
_atom_site_fract_x
_atom_site_fract_y
_atom_site_fract_z
Si Si1 0.418694 0.719480 0.701886
Si Si2 0.072826 0.284396 0.503062
Si Si3 0.694967 0.512674 0.558475
Si Si4 0.183598 0.503551 0.771326
Si Si5 0.437257 0.957346 0.263718
Si Si6 0.063697 0.144692 0.060398
Si Si7 0.716422 0.011054 0.263764
O O1 0.644442 0.708539 0.686686
O O2 0.556149 0.610902 0.639836
O O3 0.354020 0.861840 0.512658
O O4 0.147619 0.724666 0.907986
O O5 0.095091 0.139247 0.684799
O O6 0.938835 0.381662 0.589910
O O7 0.914394 0.345935 0.395024
O O8 0.470303 0.460126 0.705544
O O9 0.788018 0.564337 0.312214
O O10 0.000000 0.500000 0.000000
O O11 0.559580 0.046090 0.178432
O O12 0.209512 0.041877 0.207034
O O13 0.684905 0.858208 0.158657
O O14 0.883064 0.090904 0.134210
O O15 0.500000 0.000000 0.500000
#
# Coordination Sequence:
#
# PCOD9045359 Si02
#       7
#     2   2   2   2   2   2   2
#     4  11  21  40  62  87 124 160 204 254 307 374
#     4   9  20  39  60  88 119 161 203 250 308 359
#     4   9  21  38  61  87 119 157 201 250 305 367
#     4   9  20  40  59  88 120 158 207 248 306 366
#     4  10  24  40  61  96 126 162 213 258 310 371
#     4  11  23  41  64  93 126 168 208 258 315 367
#     4  11  21  40  66  90 123 169 206 257 310 367
#
# _framework density 23.983086
#
# number of rings (size 3 to 8) (size 9 to 14) (size 15 to 20)
#    0.857    1.143    2.857    1.286    2.000    1.143 
#    5.143    3.571    0.000    0.000    0.000    0.000 
#    0.000    0.000    0.000    0.000    0.000    0.000 
#
# Total GULP energy -77979.921933 kJ/mol
# GULP energy per Si atom -5569.994424 kJ/mol
# Density = 2.392850 g / cm^3
# Si number density = 23.983086 Si / 1000 Ang^3
#
#
#
# Elastic Constant Matrix: (Units=GPa)
#
#
# Indices 1 2 3 4 5 6 
#
# 1 60.1632 38.6653 9.9718 4.3423 -7.2260 -7.9868
# 2 38.6653 130.5462 30.8032 44.4771 -8.8737 2.7631
# 3 9.9718 30.8032 73.9972 41.0240 -8.4423 -3.7926
# 4 4.3423 44.4771 41.0240 45.9242 -6.0506 -7.3821
# 5 -7.2260 -8.8737 -8.4423 -6.0506 26.2455 9.5344
# 6 -7.9868 2.7631 -3.7926 -7.3821 9.5344 40.7767
#
#
#
# Elastic Compliance Matrix: (Units=1/GPa)
#
#
# Indices 1 2 3 4 5 6 
#
# 1 0.025241 -0.011494 -0.007293 0.016727 0.001793 0.007653
# 2 -0.011494 0.017596 0.006844 -0.022959 0.002429 -0.007532
# 3 -0.007293 0.006844 0.030441 -0.033520 0.004626 -0.006211
# 4 0.016727 -0.022959 -0.033520 0.074585 -0.002484 0.015798
# 5 0.001793 0.002429 0.004626 -0.002484 0.044010 -0.010123
# 6 0.007653 -0.007532 -0.006211 0.015798 -0.010123 0.031183
#
#
# Mechanical properties :
#
#
# Convention : Reuss Voigt Hill
#
# Bulk Modulus (GPa) = 20.24641 47.06523 33.65582
# Shear Modulus (GPa) = 18.98204 34.94037 26.96121
#
# Velocity S-wave (km/s) = 2.81637 3.82104 3.35651
# Velocity P-wave (km/s) = 4.36305 6.25573 5.39307
#
# Compressibility (1/GPa) = 0.04939148
#
# Stress axis : x y z
#
# Youngs Moduli (GPa) = 39.61758 56.82991 32.85040
#
# Poissons Ratio (x) = 0.65320 0.23959
# Poissons Ratio (y) = 0.45537 -0.22482
# Poissons Ratio (z) = 0.28894 -0.38892
#
# Static dielectric constant tensor:
#      x y z
#    x 1.966480 0.096220 0.040620 
#    y 0.096220 1.987040 0.031130 
#    z 0.040620 0.031130 1.927880 
# 
# From -- ./inp_files/401763.got.cif
#   From: 2010.05.17/outbox.cif.g08.bks.cpg/sg2_201_cif.got.tgz:401763.got - 2010.06.03 11:33:40.
