data_PCOD9045824
_publ_section_title
;
Structure prediction by ZEFSAII (Michael W. Deem and Ramdas Pophale) SiO2 
 PCOD9045824
Probable space group: P -1
;
_chemical_formula_sum "Si O2"
_cell_formula_units_Z 16
_cell_length_a 11.212259
_cell_length_b 9.971655
_cell_length_c 10.009634
_cell_angle_alpha 86.309249
_cell_angle_beta 104.192809
_cell_angle_gamma 42.412528
_cell_volume 678.282488
_symmetry_space_group_name_H-M "P -1"
_symmetry_group_IT_number 2
_symmetry_cell_setting 'triclinic'
loop_
_space_group_symop_operation_xyz
x,y,z
-x,-y,-z
loop_
_atom_site_type_symbol
_atom_site_label
_atom_site_fract_x
_atom_site_fract_y
_atom_site_fract_z
Si Si1 0.216751 0.255403 0.567228
Si Si2 0.097243 0.280028 0.084923
Si Si3 0.023405 0.096594 0.886898
Si Si4 0.191536 0.047069 0.362245
Si Si5 0.512787 0.915528 0.867243
Si Si6 0.568809 0.659642 0.322306
Si Si7 0.262617 0.704881 0.448580
Si Si8 0.533578 0.313079 0.012778
O O1 0.249887 0.117999 0.470457
O O2 0.344550 0.280133 0.593288
O O3 0.000000 0.500000 0.500000
O O4 0.299677 0.112961 0.730809
O O5 0.040446 0.250819 0.208005
O O6 0.323798 0.138650 0.164743
O O7 0.049007 0.214708 0.962077
O O8 0.000000 0.500000 0.000000
O O9 0.853011 0.242714 0.719813
O O10 0.233376 0.895803 0.890037
O O11 0.000000 0.000000 0.000000
O O12 0.351638 0.847506 0.315960
O O13 0.166093 0.930818 0.445009
O O14 0.561608 0.716121 0.912016
O O15 0.500000 0.000000 0.000000
O O16 0.729011 0.410391 0.422596
O O17 0.530699 0.681343 0.152983
O O18 0.500000 0.500000 0.500000
O O19 0.500000 0.500000 0.000000
#
# Coordination Sequence:
#
# PCOD9045824 Si02
#       8
#     2   2   2   2   2   2   2   2
#     4  12  28  42  74 102 146 188 236 292 371 427
#     4  12  27  42  76 107 142 188 252 300 357 424
#     4  12  23  47  72 107 143 191 244 299 352 435
#     4  11  23  48  67 104 141 184 239 297 356 423
#     4  12  25  51  69 102 153 190 240 305 362 429
#     4  11  23  49  68 103 141 188 236 297 354 428
#     4  10  24  41  72 101 147 177 234 298 363 415
#     4  12  28  47  76 104 151 195 241 299 368 430
#
# _framework density 23.588992000000001
#
# number of rings (size 3 to 8) (size 9 to 14) (size 15 to 20)
#    0.000    0.500    6.250    1.125    8.750    2.000 
#    0.000    1.250    0.000    0.000    0.000    0.000 
#    0.000    0.000    0.000    0.000    0.000    0.000 
#
# Total GULP energy -89274.152765 kJ/mol
# GULP energy per Si atom -5579.634548 kJ/mol
# Density = 2.353530 g / cm^3
# Si number density = 23.588992 Si / 1000 Ang^3
#
#
#
# Elastic Constant Matrix: (Units=GPa)
#
#
# Indices 1 2 3 4 5 6 
#
# 1 72.3405 34.8298 19.8634 -11.9500 6.4270 31.1154
# 2 34.8298 127.0044 49.5073 -16.9079 2.2841 50.7331
# 3 19.8634 49.5073 167.1905 -26.8679 13.3179 10.2904
# 4 -11.9500 -16.9079 -26.8679 45.2936 12.1031 -2.8244
# 5 6.4270 2.2841 13.3179 12.1031 37.4348 -6.5983
# 6 31.1154 50.7331 10.2904 -2.8244 -6.5983 50.5017
#
#
#
# Elastic Compliance Matrix: (Units=1/GPa)
#
#
# Indices 1 2 3 4 5 6 
#
# 1 0.022030 0.001536 -0.000120 0.007768 -0.009138 -0.015851
# 2 0.001536 0.015960 -0.002679 0.005028 -0.004869 -0.016789
# 3 -0.000120 -0.002679 0.007804 0.004711 -0.003953 0.000922
# 4 0.007768 0.005028 0.004711 0.032308 -0.015708 -0.011042
# 5 -0.009138 -0.004869 -0.003953 -0.015708 0.037776 0.015384
# 6 -0.015851 -0.016789 0.000922 -0.011042 0.015384 0.047638
#
#
# Mechanical properties :
#
#
# Convention : Reuss Voigt Hill
#
# Bulk Modulus (GPa) = 23.11249 63.88182 43.49716
# Shear Modulus (GPa) = 27.70606 44.13502 35.92054
#
# Velocity S-wave (km/s) = 3.43086 4.33020 3.90650
# Velocity P-wave (km/s) = 5.05111 7.22086 6.23115
#
# Compressibility (1/GPa) = 0.04326665
#
# Stress axis : x y z
#
# Youngs Moduli (GPa) = 45.39235 62.65539 128.13822
#
# Poissons Ratio (x) = -0.09621 0.01540
# Poissons Ratio (y) = -0.06970 0.34333
# Poissons Ratio (z) = 0.00546 0.16788
#
# Static dielectric constant tensor:
#      x y z
#    x 2.112070 0.022060 -0.057350 
#    y 0.022060 1.898940 -0.082290 
#    z -0.057350 -0.082290 1.913280 
# 
# From -- ./inp_files/280222.got.cif
#   From: 2010.05.17/outbox.cif.g08.bks.cpg/sg2_141_cif.got.tgz:280222.got - 2010.06.03 11:33:40.
