data_PCOD9045270
_publ_section_title
;
Structure prediction by ZEFSAII (Michael W. Deem and Ramdas Pophale) SiO2 
 PCOD9045270
Probable space group: P -1
;
_chemical_formula_sum "Si O2"
_cell_formula_units_Z 14
_cell_length_a 12.057326
_cell_length_b 10.870834
_cell_length_c 10.182130
_cell_angle_alpha 80.356933
_cell_angle_beta 116.971361
_cell_angle_gamma 142.575042
_cell_volume 675.567478
_symmetry_space_group_name_H-M "P -1"
_symmetry_group_IT_number 2
_symmetry_cell_setting 'triclinic'
loop_
_space_group_symop_operation_xyz
x,y,z
-x,-y,-z
loop_
_atom_site_type_symbol
_atom_site_label
_atom_site_fract_x
_atom_site_fract_y
_atom_site_fract_z
Si Si1 0.046370 0.480800 0.220003
Si Si2 0.433151 0.249146 0.972200
Si Si3 0.550129 0.167687 0.273773
Si Si4 0.050842 0.355788 0.518034
Si Si5 0.365541 0.774142 0.114240
Si Si6 0.214614 0.882533 0.349052
Si Si7 0.832616 0.735506 0.201977
O O1 0.218776 0.587735 0.180500
O O2 0.119403 0.679605 0.268616
O O3 0.043624 0.384077 0.357809
O O4 0.810499 0.306695 0.062791
O O5 0.488289 0.201266 0.892344
O O6 0.230467 0.172441 0.852054
O O7 0.644899 0.509115 0.062629
O O8 0.420277 0.159525 0.114906
O O9 0.498096 0.995161 0.208983
O O10 0.450834 0.091595 0.380367
O O11 0.795460 0.414634 0.370301
O O12 0.824601 0.167738 0.508350
O O13 0.158502 0.314969 0.635770
O O14 0.059027 0.873143 0.238783
#
# Coordination Sequence:
#
# PCOD9045270 Si02
#       7
#     2   2   2   2   2   2   2
#     4  10  18  34  55  80 111 141 175 222 273 315
#     4  10  17  34  53  78 113 140 178 221 262 319
#     4  10  20  33  56  85 106 138 180 221 274 310
#     4   9  19  36  55  82 106 141 180 221 266 312
#     4  10  20  31  54  85 108 138 177 220 275 322
#     4   9  18  32  52  82 106 133 183 221 260 315
#     4   8  18  32  55  77 105 144 182 217 258 317
#
# _framework density 20.723320000000001
#
# number of rings (size 3 to 8) (size 9 to 14) (size 15 to 20)
#    0.857    1.714    1.429    0.857    0.000    2.857 
#    0.000    2.143    0.000    0.857    0.000    0.000 
#    0.000    0.000    0.000    0.000    0.000    0.000 
#
# Total GULP energy -78096.260265 kJ/mol
# GULP energy per Si atom -5578.304305 kJ/mol
# Density = 2.067615 g / cm^3
# Si number density = 20.723320 Si / 1000 Ang^3
#
#
#
# Elastic Constant Matrix: (Units=GPa)
#
#
# Indices 1 2 3 4 5 6 
#
# 1 77.7821 39.3646 45.4958 -25.0997 11.7643 13.0831
# 2 39.3646 64.0715 25.4625 -11.3696 1.7516 16.1188
# 3 45.4958 25.4625 113.1431 -20.6000 5.5637 -4.2988
# 4 -25.0997 -11.3696 -20.6000 26.2605 6.8576 -5.1628
# 5 11.7643 1.7516 5.5637 6.8576 23.7537 -10.0817
# 6 13.0831 16.1188 -4.2988 -5.1628 -10.0817 26.2073
#
#
#
# Elastic Compliance Matrix: (Units=1/GPa)
#
#
# Indices 1 2 3 4 5 6 
#
# 1 0.047187 -0.010513 -0.008165 0.040228 -0.043927 -0.027403
# 2 -0.010513 0.025341 -0.002510 -0.003296 0.000047 -0.011381
# 3 -0.008165 -0.002510 0.013242 0.002233 0.004753 0.010061
# 4 0.040228 -0.003296 0.002233 0.086832 -0.054401 -0.021511
# 5 -0.043927 0.000047 0.004753 -0.054401 0.099818 0.050362
# 6 -0.027403 -0.011381 0.010061 -0.021511 0.050362 0.075624
#
#
# Mechanical properties :
#
#
# Convention : Reuss Voigt Hill
#
# Bulk Modulus (GPa) = 23.04511 52.84919 37.94715
# Shear Modulus (GPa) = 12.34919 24.88921 18.61920
#
# Velocity S-wave (km/s) = 2.44377 3.46934 3.00069
# Velocity P-wave (km/s) = 4.37118 6.45028 5.50969
#
# Compressibility (1/GPa) = 0.04339316
#
# Stress axis : x y z
#
# Youngs Moduli (GPa) = 21.19219 39.46145 75.51886
#
# Poissons Ratio (x) = 0.41485 0.61663
# Poissons Ratio (y) = 0.22279 0.18958
# Poissons Ratio (z) = 0.17304 0.09907
#
# Static dielectric constant tensor:
#      x y z
#    x 1.747000 0.016140 0.011730 
#    y 0.016140 1.747170 -0.029160 
#    z 0.011730 -0.029160 1.783110 
# 
# From -- ./inp_files/302705.got.cif
#   From: 2010.05.17/outbox.cif.g08.bks.cpg/sg2_152_cif.got.tgz:302705.got - 2010.06.03 11:33:40.
