data_PCOD9045391
_publ_section_title
;
Structure prediction by ZEFSAII (Michael W. Deem and Ramdas Pophale) SiO2 
 PCOD9045391
Probable space group: P -1
;
_chemical_formula_sum "Si O2"
_cell_formula_units_Z 14
_cell_length_a 23.660057
_cell_length_b 9.936301
_cell_length_c 19.627353
_cell_angle_alpha 24.884447
_cell_angle_beta 20.369369
_cell_angle_gamma 34.387063
_cell_volume 665.754987
_symmetry_space_group_name_H-M "P -1"
_symmetry_group_IT_number 2
_symmetry_cell_setting 'triclinic'
loop_
_space_group_symop_operation_xyz
x,y,z
-x,-y,-z
loop_
_atom_site_type_symbol
_atom_site_label
_atom_site_fract_x
_atom_site_fract_y
_atom_site_fract_z
Si Si1 0.109418 0.938237 0.339861
Si Si2 0.083501 0.922430 0.637595
Si Si3 0.023819 0.143767 0.058020
Si Si4 0.588876 0.719079 0.100313
Si Si5 0.584681 0.674189 0.971449
Si Si6 0.741330 0.708189 0.501496
Si Si7 0.664080 0.847104 0.370978
O O1 0.171367 0.595938 0.436860
O O2 0.000000 0.000000 0.500000
O O3 0.018151 0.952947 0.365688
O O4 0.262678 0.237045 0.035187
O O5 0.007637 0.948339 0.785670
O O6 0.263892 0.145978 0.325869
O O7 0.073930 0.534811 0.814730
O O8 0.855295 0.011805 0.268558
O O9 0.178347 0.994140 0.922888
O O10 0.425580 0.477319 0.416104
O O11 0.537160 0.069478 0.995119
O O12 0.640993 0.624068 0.008859
O O13 0.456888 0.375594 0.220793
O O14 0.737650 0.760315 0.400236
O O15 0.500000 0.000000 0.500000
#
# Coordination Sequence:
#
# PCOD9045391 Si02
#       7
#     2   2   2   2   2   2   2
#     4  11  21  36  67  94 118 165 216 259 302 366
#     4  11  23  41  67  89 130 168 205 254 320 378
#     4  11  25  43  59  95 133 166 200 258 322 377
#     4   9  18  34  58  89 119 151 212 251 293 359
#     4   9  17  38  61  88 116 162 200 255 298 355
#     4  10  24  40  64  93 124 158 218 265 300 362
#     4  11  23  39  65  92 126 164 204 262 313 371
#
# _framework density 21.028756999999999
#
# number of rings (size 3 to 8) (size 9 to 14) (size 15 to 20)
#    0.000    1.714    2.857    2.143    4.000    1.143 
#    0.000    3.571    0.000    0.000    0.000    0.000 
#    0.000    0.000    0.000    0.000    0.000    0.000 
#
# Total GULP energy -78019.553074 kJ/mol
# GULP energy per Si atom -5572.825220 kJ/mol
# Density = 2.098089 g / cm^3
# Si number density = 21.028757 Si / 1000 Ang^3
#
#
#
# Elastic Constant Matrix: (Units=GPa)
#
#
# Indices 1 2 3 4 5 6 
#
# 1 99.7420 32.4939 71.1999 22.5560 -14.0100 -0.9269
# 2 32.4939 45.7857 32.8809 9.0730 5.2914 -4.2862
# 3 71.1999 32.8809 168.7966 13.1176 -18.2990 15.1691
# 4 22.5560 9.0730 13.1176 18.5963 4.4420 -5.6819
# 5 -14.0100 5.2914 -18.2990 4.4420 34.6383 -13.1866
# 6 -0.9269 -4.2862 15.1691 -5.6819 -13.1866 12.9734
#
#
#
# Elastic Compliance Matrix: (Units=1/GPa)
#
#
# Indices 1 2 3 4 5 6 
#
# 1 0.024627 -0.009356 -0.006463 -0.020467 0.015591 0.013109
# 2 -0.009356 0.032676 -0.004244 0.002776 -0.008427 0.007740
# 3 -0.006463 -0.004244 0.011127 -0.003120 -0.003050 -0.019341
# 4 -0.020467 0.002776 -0.003120 0.092053 -0.009177 0.034092
# 5 0.015591 -0.008427 -0.003050 -0.009177 0.057451 0.056272
# 6 0.013109 0.007740 -0.019341 0.034092 0.056272 0.175317
#
#
# Mechanical properties :
#
#
# Convention : Reuss Voigt Hill
#
# Bulk Modulus (GPa) = 35.32804 65.27486 50.30145
# Shear Modulus (GPa) = 11.29147 25.09157 18.19152
#
# Velocity S-wave (km/s) = 2.31974 3.45802 2.94441
# Velocity P-wave (km/s) = 4.90013 6.85945 5.96084
#
# Compressibility (1/GPa) = 0.02830613
#
# Stress axis : x y z
#
# Youngs Moduli (GPa) = 40.60517 30.60304 89.87129
#
# Poissons Ratio (x) = 0.28631 0.58084
# Poissons Ratio (y) = 0.37988 0.38140
# Poissons Ratio (z) = 0.26243 0.12988
#
# Static dielectric constant tensor:
#      x y z
#    x 1.729240 -0.020750 -0.023010 
#    y -0.020750 1.869620 -0.089680 
#    z -0.023010 -0.089680 1.845980 
# 
# From -- ./inp_files/262178.got.cif
#   From: 2010.05.17/outbox.cif.g08.bks.cpg/sg2_132_cif.got.tgz:262178.got - 2010.06.03 11:33:40.
