data_PCOD9045078
_publ_section_title
;
Structure prediction by ZEFSAII (Michael W. Deem and Ramdas Pophale) SiO2 
 PCOD9045078
Probable space group: P -1
;
_chemical_formula_sum "Si O2"
_cell_formula_units_Z 14
_cell_length_a 21.900628
_cell_length_b 20.198497
_cell_length_c 8.538218
_cell_angle_alpha 27.747267
_cell_angle_beta 32.284568
_cell_angle_gamma 18.774207
_cell_volume 565.232386
_symmetry_space_group_name_H-M "P -1"
_symmetry_group_IT_number 2
_symmetry_cell_setting 'triclinic'
loop_
_space_group_symop_operation_xyz
x,y,z
-x,-y,-z
loop_
_atom_site_type_symbol
_atom_site_label
_atom_site_fract_x
_atom_site_fract_y
_atom_site_fract_z
Si Si1 0.681062 0.090115 0.546087
Si Si2 0.045434 0.528537 0.176580
Si Si3 0.417039 0.360435 0.264745
Si Si4 0.766399 0.139608 0.822523
Si Si5 0.994509 0.699096 0.435220
Si Si6 0.515852 0.957817 0.740276
Si Si7 0.923853 0.976666 0.487135
O O1 0.847747 0.861593 0.553968
O O2 0.778739 0.126334 0.344116
O O3 0.505569 0.293657 0.384660
O O4 0.610789 0.047378 0.916414
O O5 0.270401 0.298996 0.147415
O O6 0.000000 0.500000 0.500000
O O7 0.962319 0.505366 0.274538
O O8 0.978591 0.756163 0.840230
O O9 0.190167 0.588440 0.269101
O O10 0.467687 0.149778 0.536046
O O11 0.547038 0.332554 0.931964
O O12 0.813761 0.131377 0.559720
O O13 0.877433 0.136666 0.703599
O O14 0.879233 0.881742 0.157095
O O15 0.500000 0.000000 0.500000
#
# Coordination Sequence:
#
# PCOD9045078 Si02
#       7
#     2   2   2   2   2   2   2
#     4  11  25  43  65 103 139 172 222 281 338 400
#     4  12  22  41  70 102 129 178 222 275 335 397
#     4  11  23  43  67  97 136 181 217 277 332 409
#     4  10  23  49  66  98 133 178 227 281 330 403
#     4  11  24  43  73  96 138 176 225 275 340 396
#     4  12  24  40  67 102 141 170 226 280 336 395
#     4  11  24  43  71  96 138 173 225 284 338 393
#
# _framework density 24.768574999999998
#
# number of rings (size 3 to 8) (size 9 to 14) (size 15 to 20)
#    0.000    0.857    4.286    3.857    2.000    3.429 
#    2.571    2.857    0.000    0.000    0.000    0.000 
#    0.000    0.000    0.000    0.000    0.000    0.000 
#
# Total GULP energy -78436.917622 kJ/mol
# GULP energy per Si atom -5602.636973 kJ/mol
# Density = 2.471220 g / cm^3
# Si number density = 24.768575 Si / 1000 Ang^3
#
#
#
# Elastic Constant Matrix: (Units=GPa)
#
#
# Indices 1 2 3 4 5 6 
#
# 1 121.4604 22.3561 8.0387 11.1230 -11.3430 -16.1393
# 2 22.3561 142.7778 29.6198 35.8381 -6.5598 -29.0831
# 3 8.0387 29.6198 68.5750 19.6428 -19.4704 1.3625
# 4 11.1230 35.8381 19.6428 45.6339 -5.9014 -3.7172
# 5 -11.3430 -6.5598 -19.4704 -5.9014 47.5709 8.7873
# 6 -16.1393 -29.0831 1.3625 -3.7172 8.7873 32.2999
#
#
#
# Elastic Compliance Matrix: (Units=1/GPa)
#
#
# Indices 1 2 3 4 5 6 
#
# 1 0.009042 -0.000105 -0.000357 -0.001505 0.001075 0.003973
# 2 -0.000105 0.011602 -0.004068 -0.006848 -0.002891 0.010564
# 3 -0.000357 -0.004068 0.020372 -0.005009 0.008471 -0.007582
# 4 -0.001505 -0.006848 -0.005009 0.029652 0.000983 -0.003562
# 5 0.001075 -0.002891 0.008471 0.000983 0.026212 -0.009442
# 6 0.003973 0.010564 -0.007582 -0.003562 -0.009442 0.044936
#
#
# Mechanical properties :
#
#
# Convention : Reuss Voigt Hill
#
# Bulk Modulus (GPa) = 31.29367 50.31583 40.80475
# Shear Modulus (GPa) = 30.95403 43.28752 37.12077
#
# Velocity S-wave (km/s) = 3.53899 4.18506 3.87551
# Velocity P-wave (km/s) = 5.41859 6.61146 6.04452
#
# Compressibility (1/GPa) = 0.03195534
#
# Stress axis : x y z
#
# Youngs Moduli (GPa) = 110.59207 86.18899 49.08604
#
# Poissons Ratio (x) = 0.00909 0.01753
# Poissons Ratio (y) = 0.01166 0.19970
# Poissons Ratio (z) = 0.03950 0.35064
#
# Static dielectric constant tensor:
#      x y z
#    x 1.991290 -0.016600 0.014070 
#    y -0.016600 1.937320 -0.016830 
#    z 0.014070 -0.016830 1.994050 
# 
# From -- ./inp_files/349652.got.cif
#   From: 2010.05.17/outbox.cif.g08.bks.cpg/sg2_175_cif.got.tgz:349652.got - 2010.06.03 11:33:40.
