data_PCOD9045353
_publ_section_title
;
Structure prediction by ZEFSAII (Michael W. Deem and Ramdas Pophale) SiO2 
 PCOD9045353
Probable space group: P -1
;
_chemical_formula_sum "Si O2"
_cell_formula_units_Z 13
_cell_length_a 9.515851
_cell_length_b 27.456732
_cell_length_c 26.203161
_cell_angle_alpha 169.540084
_cell_angle_beta 29.477103
_cell_angle_gamma 151.788446
_cell_volume 586.925579
_symmetry_space_group_name_H-M "P -1"
_symmetry_group_IT_number 2
_symmetry_cell_setting 'triclinic'
loop_
_space_group_symop_operation_xyz
x,y,z
-x,-y,-z
loop_
_atom_site_type_symbol
_atom_site_label
_atom_site_fract_x
_atom_site_fract_y
_atom_site_fract_z
Si Si1 0.830470 0.576933 0.505650
Si Si2 0.652278 0.425858 0.518951
Si Si3 0.704143 0.135449 0.896976
Si Si4 0.500000 0.000000 0.000000
Si Si5 0.353571 0.634330 0.030932
Si Si6 0.392187 0.250648 0.817039
Si Si7 0.514450 0.124744 0.404893
O O1 0.653192 0.475433 0.509519
O O2 0.693172 0.787557 0.735406
O O3 0.157317 0.772399 0.616923
O O4 0.805911 0.275495 0.177863
O O5 0.000000 0.500000 0.500000
O O6 0.502196 0.105234 0.250175
O O7 0.454254 0.615030 0.799649
O O8 0.036048 0.201508 0.881898
O O9 0.703500 0.011218 0.712350
O O10 0.461157 0.683276 0.105572
O O11 0.463267 0.912262 0.248967
O O12 0.475726 0.405698 0.729278
O O13 0.000000 0.500000 0.000000
O O14 0.500000 0.000000 0.500000
O O15 0.500000 0.500000 0.000000
#
# Coordination Sequence:
#
# PCOD9045353 Si02
#       7
#     2   2   2   1   2   2   2
#     4  11  24  43  67  97 141 186 233 291 346 414
#     4  12  25  43  70 102 145 187 250 288 347 417
#     4  12  26  44  73 106 143 195 239 298 361 420
#     4  10  24  40  60  92 134 178 222 284 350 404
#     4  12  26  46  73 104 140 181 233 298 364 428
#     4  12  26  49  75 104 144 181 238 301 364 430
#     4  12  25  43  72 100 140 181 240 281 360 423
#
# _framework density 22.149315000000001
#
# number of rings (size 3 to 8) (size 9 to 14) (size 15 to 20)
#    0.000    0.308    1.538    7.385    2.154    7.385 
#    0.000    0.000    0.000    0.000    0.000    0.000 
#    0.000    0.000    0.000    0.000    0.000    0.000 
#
# Total GULP energy -72450.830800 kJ/mol
# GULP energy per Si atom -5573.140831 kJ/mol
# Density = 2.209890 g / cm^3
# Si number density = 22.149315 Si / 1000 Ang^3
#
#
#
# Elastic Constant Matrix: (Units=GPa)
#
#
# Indices 1 2 3 4 5 6 
#
# 1 169.2829 33.7858 -2.3573 -11.1787 -23.4694 1.0299
# 2 33.7858 89.7105 -10.5767 12.9459 -18.0273 17.9151
# 3 -2.3573 -10.5767 41.0783 -15.8230 -85.0340 -4.5781
# 4 -11.1787 12.9459 -15.8230 40.5929 -26.7756 -3.2312
# 5 -23.4694 -18.0273 -85.0340 -26.7756 4.8182 8.1019
# 6 1.0299 17.9151 -4.5781 -3.2312 8.1019 55.7865
#
#
#
# Elastic Compliance Matrix: (Units=1/GPa)
#
#
# Indices 1 2 3 4 5 6 
#
# 1 0.006518 -0.003278 -0.001593 0.001699 -0.000914 0.001033
# 2 -0.003278 0.014086 -0.000574 -0.006332 -0.000502 -0.004804
# 3 -0.001593 -0.000574 0.001967 -0.005771 -0.009699 0.001449
# 4 0.001699 -0.006332 -0.005771 0.021094 -0.006169 0.003646
# 5 -0.000914 -0.000502 -0.009699 -0.006169 -0.003424 -0.000478
# 6 0.001033 -0.004804 0.001449 0.003646 -0.000478 0.019849
#
#
# Mechanical properties :
#
#
# Convention : Reuss Voigt Hill
#
# Bulk Modulus (GPa) = 85.59535 37.97501 61.78518
# Shear Modulus (GPa) = 66.77974 38.85418 52.81696
#
# Velocity S-wave (km/s) = 5.49684 4.19285 4.88852
# Velocity P-wave (km/s) = 8.88907 6.37356 7.73427
#
# Compressibility (1/GPa) = 0.01168288
#
# Stress axis : x y z
#
# Youngs Moduli (GPa) = 153.41062 70.99221 508.42032
#
# Poissons Ratio (x) = 0.23269 0.80969
# Poissons Ratio (y) = 0.50284 0.29180
# Poissons Ratio (z) = 0.24432 0.04075
#
# Static dielectric constant tensor:
#      x y z
#    x 1.829960 -0.103100 0.102200 
#    y -0.103100 1.477760 0.069120 
#    z 0.102200 0.069120 1.786910 
# 
# From -- ./inp_files/617643.got.cif
#   From: 2010.05.17/outbox.cif.g08.bks.cpg/sg2_309_cif.got.tgz:617643.got - 2010.06.03 11:33:40.
