data_PCOD9045720
_publ_section_title
;
Structure prediction by ZEFSAII (Michael W. Deem and Ramdas Pophale) SiO2 
 PCOD9045720
Probable space group: P -1
;
_chemical_formula_sum "Si O2"
_cell_formula_units_Z 8
_cell_length_a 9.926189
_cell_length_b 7.106216
_cell_length_c 5.134796
_cell_angle_alpha 79.899400
_cell_angle_beta 61.281192
_cell_angle_gamma 87.725477
_cell_volume 312.301859
_symmetry_space_group_name_H-M "P -1"
_symmetry_group_IT_number 2
_symmetry_cell_setting 'triclinic'
loop_
_space_group_symop_operation_xyz
x,y,z
-x,-y,-z
loop_
_atom_site_type_symbol
_atom_site_label
_atom_site_fract_x
_atom_site_fract_y
_atom_site_fract_z
Si Si1 0.139277 0.357043 0.879689
Si Si2 0.581458 0.091416 0.151939
Si Si3 0.262966 0.528945 0.225008
Si Si4 0.928619 0.116602 0.772516
O O1 0.400463 0.677924 0.965884
O O2 0.262569 0.432491 0.530026
O O3 0.222013 0.373795 0.077814
O O4 0.000000 0.500000 0.000000
O O5 0.500000 0.000000 0.500000
O O6 0.757790 0.036258 0.020992
O O7 0.500000 0.000000 0.000000
O O8 0.122952 0.675762 0.339163
O O9 0.045195 0.176496 0.882130
O O10 0.000000 0.000000 0.500000
#
# Coordination Sequence:
#
# PCOD9045720 Si02
#       4
#     2   2   2   2
#     4  10  17  34  54  84 101 140 184 227 256 320
#     4  10  21  35  55  79 111 147 179 212 270 337
#     4   9  20  33  58  78 105 143 185 217 262 325
#     4   9  20  34  59  85 109 135 183 238 269 299
#
# _framework density 25.616240999999999
#
# number of rings (size 3 to 8) (size 9 to 14) (size 15 to 20)
#    1.500    1.000    0.000    4.500    0.000    0.000 
#    0.000   20.000    0.000    9.000    0.000    0.000 
#    0.000    0.000    0.000    0.000    0.000    0.000 
#
# Total GULP energy -44708.882253 kJ/mol
# GULP energy per Si atom -5588.610282 kJ/mol
# Density = 2.555794 g / cm^3
# Si number density = 25.616241 Si / 1000 Ang^3
#
#
#
# Elastic Constant Matrix: (Units=GPa)
#
#
# Indices 1 2 3 4 5 6 
#
# 1 74.6236 22.7539 42.6414 1.3918 -1.3064 14.3895
# 2 22.7539 208.4188 83.5009 0.2494 -3.3685 27.7532
# 3 42.6414 83.5009 249.0195 -8.4207 -1.1819 31.8174
# 4 1.3918 0.2494 -8.4207 50.1498 17.8471 -3.6771
# 5 -1.3064 -3.3685 -1.1819 17.8471 38.0783 8.2602
# 6 14.3895 27.7532 31.8174 -3.6771 8.2602 31.8677
#
#
#
# Elastic Compliance Matrix: (Units=1/GPa)
#
#
# Indices 1 2 3 4 5 6 
#
# 1 0.015815 -0.000078 -0.001964 -0.002228 0.002844 -0.006107
# 2 -0.000078 0.006022 -0.001476 -0.001337 0.002072 -0.004427
# 3 -0.001964 -0.001476 0.005266 0.000588 0.000365 -0.003113
# 4 -0.002228 -0.001337 0.000588 0.025685 -0.013988 0.008173
# 5 0.002844 0.002072 0.000365 -0.013988 0.036247 -0.014462
# 6 -0.006107 -0.004427 -0.003113 0.008173 -0.014462 0.045793
#
#
# Mechanical properties :
#
#
# Convention : Reuss Voigt Hill
#
# Bulk Modulus (GPa) = 49.82765 92.20604 71.01684
# Shear Modulus (GPa) = 33.65805 49.56354 41.61080
#
# Velocity S-wave (km/s) = 3.62876 4.40346 4.03475
# Velocity P-wave (km/s) = 6.08695 7.86939 7.03485
#
# Compressibility (1/GPa) = 0.02006918
#
# Stress axis : x y z
#
# Youngs Moduli (GPa) = 63.22971 166.04522 189.89102
#
# Poissons Ratio (x) = 0.01297 0.37286
# Poissons Ratio (y) = 0.00494 0.28023
# Poissons Ratio (z) = 0.12415 0.24504
#
# Static dielectric constant tensor:
#      x y z
#    x 2.201280 -0.259190 0.037110 
#    y -0.259190 2.229830 -0.152510 
#    z 0.037110 -0.152510 2.025000 
# 
# From -- ./inp_files/57800.got.cif
#   From: 2010.05.17/outbox.cif.g08.bks.cpg/sg2_29_cif.got.tgz:57800.got - 2010.06.03 11:33:40.
