data_PCOD9045623
_publ_section_title
;
Structure prediction by ZEFSAII (Michael W. Deem and Ramdas Pophale) SiO2 
 PCOD9045623
Probable space group: P -1
;
_chemical_formula_sum "Si O2"
_cell_formula_units_Z 16
_cell_length_a 9.187440
_cell_length_b 15.702460
_cell_length_c 9.239646
_cell_angle_alpha 102.316456
_cell_angle_beta 59.567387
_cell_angle_gamma 135.517172
_cell_volume 780.756159
_symmetry_space_group_name_H-M "P -1"
_symmetry_group_IT_number 2
_symmetry_cell_setting 'triclinic'
loop_
_space_group_symop_operation_xyz
x,y,z
-x,-y,-z
loop_
_atom_site_type_symbol
_atom_site_label
_atom_site_fract_x
_atom_site_fract_y
_atom_site_fract_z
Si Si1 0.567824 0.629931 0.493235
Si Si2 0.285149 0.128989 0.410869
Si Si3 0.587330 0.008217 0.615091
Si Si4 0.108332 0.785941 0.249771
Si Si5 0.826125 0.069764 0.006428
Si Si6 0.522127 0.797130 0.986777
Si Si7 0.708057 0.690024 0.975091
Si Si8 0.422168 0.468162 0.269175
O O1 0.649325 0.759368 0.497032
O O2 0.377659 0.530415 0.429516
O O3 0.497316 0.576605 0.672725
O O4 0.818993 0.670575 0.348815
O O5 0.408057 0.182123 0.210222
O O6 0.387609 0.084840 0.425954
O O7 0.000000 0.000000 0.500000
O O8 0.822246 0.147298 0.605260
O O9 0.500000 0.000000 0.500000
O O10 0.388097 0.961320 0.814320
O O11 0.275815 0.763144 0.124627
O O12 0.164014 0.881634 0.138026
O O13 0.065577 0.179233 0.016086
O O14 0.740315 0.938328 0.991493
O O15 0.531347 0.704181 0.019158
O O16 0.758109 0.649829 0.791947
O O17 0.602805 0.583272 0.107814
#
# Coordination Sequence:
#
# PCOD9045623 Si02
#       8
#     2   2   2   2   2   2   2   2
#     4  11  22  42  69  89 124 172 211 261 312 366
#     4  12  22  38  68  97 128 162 210 253 320 381
#     4  11  24  37  60 101 137 158 197 259 325 379
#     4  11  21  43  62  92 133 169 195 255 328 383
#     4  11  21  40  66  92 133 166 196 256 328 379
#     4  11  22  40  65  97 128 160 209 258 314 391
#     4  11  23  41  66  94 121 170 219 259 301 376
#     4  10  24  41  64  88 125 167 224 259 301 361
#
# _framework density 20.492954000000001
#
# number of rings (size 3 to 8) (size 9 to 14) (size 15 to 20)
#    0.000    1.000    6.250    1.125    3.500    2.000 
#    0.000    1.250   11.000    0.000    0.000    0.000 
#    0.000    0.000    0.000    0.000    0.000    0.000 
#
# Total GULP energy -89141.948825 kJ/mol
# GULP energy per Si atom -5571.371802 kJ/mol
# Density = 2.044631 g / cm^3
# Si number density = 20.492954 Si / 1000 Ang^3
#
#
#
# Elastic Constant Matrix: (Units=GPa)
#
#
# Indices 1 2 3 4 5 6 
#
# 1 72.5433 22.5193 36.9927 5.7154 13.4053 -11.7447
# 2 22.5193 69.2063 41.7762 21.7814 2.6332 -17.4114
# 3 36.9927 41.7762 87.4316 12.1171 22.4538 -5.4919
# 4 5.7154 21.7814 12.1171 40.8496 2.1263 7.2457
# 5 13.4053 2.6332 22.4538 2.1263 33.3593 3.4260
# 6 -11.7447 -17.4114 -5.4919 7.2457 3.4260 23.5447
#
#
#
# Elastic Compliance Matrix: (Units=1/GPa)
#
#
# Indices 1 2 3 4 5 6 
#
# 1 0.019614 0.001862 -0.006891 -0.003463 -0.004325 0.011249
# 2 0.001862 0.037024 -0.014730 -0.021325 0.004441 0.030789
# 3 -0.006891 -0.014730 0.023116 0.004057 -0.011004 -0.008586
# 4 -0.003463 -0.021325 0.004057 0.040245 0.000762 -0.029047
# 5 -0.004325 0.004441 -0.011004 0.000762 0.039484 -0.007420
# 6 0.011249 0.030789 -0.008586 -0.029047 -0.007420 0.078868
#
#
# Mechanical properties :
#
#
# Convention : Reuss Voigt Hill
#
# Bulk Modulus (GPa) = 24.85311 47.97307 36.41309
# Shear Modulus (GPa) = 17.16558 28.07693 22.62126
#
# Velocity S-wave (km/s) = 2.89733 3.70547 3.32604
# Velocity P-wave (km/s) = 4.83184 6.46279 5.70589
#
# Compressibility (1/GPa) = 0.04023641
#
# Stress axis : x y z
#
# Youngs Moduli (GPa) = 50.98337 27.00955 43.26064
#
# Poissons Ratio (x) = -0.05030 0.29813
# Poissons Ratio (y) = -0.09495 0.63721
# Poissons Ratio (z) = 0.35135 0.39784
#
# Static dielectric constant tensor:
#      x y z
#    x 1.757930 0.048590 -0.024660 
#    y 0.048590 1.806330 0.019600 
#    z -0.024660 0.019600 1.785030 
# 
# From -- ./inp_files/207668.got.cif
#   From: 2010.05.17/outbox.cif.g08.bks.cpg/sg2_104_cif.got.tgz:207668.got - 2010.06.03 11:33:40.
