data_PCOD9045247
_publ_section_title
;
Structure prediction by ZEFSAII (Michael W. Deem and Ramdas Pophale) SiO2 
 PCOD9045247
Probable space group: P -1
;
_chemical_formula_sum "Si O2"
_cell_formula_units_Z 16
_cell_length_a 5.346214
_cell_length_b 12.624486
_cell_length_c 18.099519
_cell_angle_alpha 139.452657
_cell_angle_beta 86.555851
_cell_angle_gamma 112.296770
_cell_volume 679.805848
_symmetry_space_group_name_H-M "P -1"
_symmetry_group_IT_number 2
_symmetry_cell_setting 'triclinic'
loop_
_space_group_symop_operation_xyz
x,y,z
-x,-y,-z
loop_
_atom_site_type_symbol
_atom_site_label
_atom_site_fract_x
_atom_site_fract_y
_atom_site_fract_z
Si Si1 0.414191 0.721280 0.289802
Si Si2 0.806127 0.779463 0.902785
Si Si3 0.480219 0.525090 0.642945
Si Si4 0.201335 0.161492 0.524009
Si Si5 0.825356 0.359300 0.093973
Si Si6 0.667683 0.328409 0.411315
Si Si7 0.728090 0.568587 0.098055
Si Si8 0.675820 0.052477 0.707698
O O1 0.499176 0.761975 0.394948
O O2 0.582488 0.625479 0.197956
O O3 0.477602 0.892562 0.324945
O O4 0.068371 0.579836 0.220424
O O5 0.739247 0.649323 0.761816
O O6 0.481582 0.728384 0.905418
O O7 0.990935 0.737400 0.937159
O O8 0.000000 0.000000 0.000000
O O9 0.211737 0.354554 0.603186
O O10 0.538304 0.406541 0.517424
O O11 0.427381 0.664862 0.667404
O O12 0.179210 0.049477 0.391942
O O13 0.000000 0.000000 0.500000
O O14 0.749210 0.387517 0.027152
O O15 0.000000 0.500000 0.500000
O O16 0.558641 0.110592 0.320111
O O17 0.041379 0.749946 0.167458
O O18 0.500000 0.500000 0.000000
#
# Coordination Sequence:
#
# PCOD9045247 Si02
#       8
#     2   2   2   2   2   2   2   2
#     4  11  22  42  68 103 140 176 226 300 356 424
#     4  12  26  47  74 106 140 186 246 294 357 419
#     4  10  24  43  67  98 142 186 233 292 356 417
#     4  11  20  38  70 100 136 174 228 297 360 419
#     4  11  24  47  70 103 142 183 234 301 359 418
#     4  10  24  44  63  97 145 192 237 285 352 436
#     4  11  24  45  69  97 143 185 235 291 362 421
#     4  10  24  38  65 104 130 183 240 280 359 425
#
# _framework density 23.536131999999998
#
# number of rings (size 3 to 8) (size 9 to 14) (size 15 to 20)
#    0.000    1.250    3.750    0.750    5.250    4.000 
#    2.250    0.000    0.000    0.000    0.000    0.000 
#    0.000    0.000    0.000    0.000    0.000    0.000 
#
# Total GULP energy -89202.038264 kJ/mol
# GULP energy per Si atom -5575.127392 kJ/mol
# Density = 2.348256 g / cm^3
# Si number density = 23.536132 Si / 1000 Ang^3
#
#
#
# Elastic Constant Matrix: (Units=GPa)
#
#
# Indices 1 2 3 4 5 6 
#
# 1 91.8569 46.8842 24.6971 9.9040 9.0923 6.2751
# 2 46.8842 173.3397 50.6303 56.0285 5.5107 -5.7987
# 3 24.6971 50.6303 66.5673 3.0058 6.0015 -5.1371
# 4 9.9040 56.0285 3.0058 35.5636 -2.3514 -4.1154
# 5 9.0923 5.5107 6.0015 -2.3514 31.2144 0.0458
# 6 6.2751 -5.7987 -5.1371 -4.1154 0.0458 41.8261
#
#
#
# Elastic Compliance Matrix: (Units=1/GPa)
#
#
# Indices 1 2 3 4 5 6 
#
# 1 0.013594 -0.003305 -0.002536 0.001139 -0.002799 -0.002694
# 2 -0.003305 0.019987 -0.012506 -0.029809 -0.002405 -0.001199
# 3 -0.002536 -0.012506 0.024946 0.018681 -0.000448 0.003549
# 4 0.001139 -0.029809 0.018681 0.074255 0.006925 0.005289
# 5 -0.002799 -0.002405 -0.000448 0.006925 0.033883 0.000676
# 6 -0.002694 -0.001199 0.003549 0.005289 0.000676 0.025102
#
#
# Mechanical properties :
#
#
# Convention : Reuss Voigt Hill
#
# Bulk Modulus (GPa) = 45.80383 64.02078 54.91231
# Shear Modulus (GPa) = 21.20989 35.69099 28.45044
#
# Velocity S-wave (km/s) = 3.00519 3.89837 3.48055
# Velocity P-wave (km/s) = 5.61649 6.89370 6.28761
#
# Compressibility (1/GPa) = 0.02183223
#
# Stress axis : x y z
#
# Youngs Moduli (GPa) = 73.56327 50.03172 40.08704
#
# Poissons Ratio (x) = 0.16537 0.10168
# Poissons Ratio (y) = 0.24315 0.50131
# Poissons Ratio (z) = 0.18659 0.62567
#
# Static dielectric constant tensor:
#      x y z
#    x 2.075870 -0.017810 0.071670 
#    y -0.017810 2.036980 -0.015750 
#    z 0.071670 -0.015750 2.027110 
# 
# From -- ./inp_files/410516.got.cif
#   From: 2010.05.17/outbox.cif.g08.bks.cpg/sg2_206_cif.got.tgz:410516.got - 2010.06.03 11:33:40.
