data_PCOD9045928
_publ_section_title
;
Structure prediction by ZEFSAII (Michael W. Deem and Ramdas Pophale) SiO2 
 PCOD9045928
Probable space group: P -1
;
_chemical_formula_sum "Si O2"
_cell_formula_units_Z 13
_cell_length_a 23.796429
_cell_length_b 4.932603
_cell_length_c 23.796491
_cell_angle_alpha 106.368875
_cell_angle_beta 167.552277
_cell_angle_gamma 73.631386
_cell_volume 577.369554
_symmetry_space_group_name_H-M "P -1"
_symmetry_group_IT_number 2
_symmetry_cell_setting 'triclinic'
loop_
_space_group_symop_operation_xyz
x,y,z
-x,-y,-z
loop_
_atom_site_type_symbol
_atom_site_label
_atom_site_fract_x
_atom_site_fract_y
_atom_site_fract_z
Si Si1 0.150695 0.704430 0.849291
Si Si2 0.309659 0.402730 0.690341
Si Si3 0.467379 0.833729 0.532575
Si Si4 0.427731 0.442850 0.572127
Si Si5 0.000000 0.000000 0.000000
Si Si6 0.730564 0.987175 0.269429
Si Si7 0.110640 0.312752 0.889496
O O1 0.138988 0.429727 0.860949
O O2 0.920483 0.703169 0.579467
O O3 0.122320 0.975590 0.877664
O O4 0.420552 0.703161 0.079545
O O5 0.297825 0.740848 0.702175
O O6 0.281330 0.285555 0.718710
O O7 0.456834 0.552298 0.543191
O O8 0.750299 0.863121 0.782424
O O9 0.438316 0.104887 0.561676
O O10 0.217475 0.863092 0.249616
O O11 0.158114 0.566040 0.340431
O O12 0.659240 0.566156 0.841609
O O13 0.000000 0.000000 0.500000
O O14 0.500000 0.000000 0.000000
#
# Coordination Sequence:
#
# PCOD9045928 Si02
#       7
#     2   2   2   2   1   2   2
#     4  12  24  42  64  92 124 162 204 251 304 361
#     4  12  24  42  64  91 124 161 204 251 304 361
#     4  11  24  41  64  91 124 161 204 251 304 361
#     4  12  24  42  64  92 124 162 204 252 304 361
#     4  10  24  42  64  92 124 162 204 252 304 362
#     4  12  24  42  64  92 124 161 204 251 304 361
#     4  12  24  41  64  91 124 161 204 251 304 361
#
# _framework density 22.515908
#
# number of rings (size 3 to 8) (size 9 to 14) (size 15 to 20)
#    0.000    0.308    0.000   10.154    0.000    3.692 
#    0.000    0.000    0.000    0.000    0.000    0.000 
#    0.000    0.000    0.000    0.000    0.000    0.000 
#
# Total GULP energy -72635.194119 kJ/mol
# GULP energy per Si atom -5587.322625 kJ/mol
# Density = 2.246466 g / cm^3
# Si number density = 22.515908 Si / 1000 Ang^3
#
#
#
# Elastic Constant Matrix: (Units=GPa)
#
#
# Indices 1 2 3 4 5 6 
#
# 1 80.0159 -28.5240 52.6995 -4.5276 7.7541 15.5335
# 2 -28.5240 74.1825 -3.2829 3.3984 1.6250 -24.8451
# 3 52.6995 -3.2829 250.8049 -4.7783 7.0430 -17.3879
# 4 -4.5276 3.3984 -4.7783 20.0309 -3.1174 -2.9325
# 5 7.7541 1.6250 7.0430 -3.1174 54.5894 -3.2732
# 6 15.5335 -24.8451 -17.3879 -2.9325 -3.2732 51.3886
#
#
#
# Elastic Compliance Matrix: (Units=1/GPa)
#
#
# Indices 1 2 3 4 5 6 
#
# 1 0.018152 0.005354 -0.003952 0.001244 -0.002416 -0.004318
# 2 0.005354 0.017851 -0.000419 -0.001069 -0.000894 0.006752
# 3 -0.003952 -0.000419 0.005014 0.000797 0.000137 0.002743
# 4 0.001244 -0.001069 0.000797 0.051381 0.002836 0.002490
# 5 -0.002416 -0.000894 0.000137 0.002836 0.018935 0.001712
# 6 -0.004318 0.006752 0.002743 0.002490 0.001712 0.025209
#
#
# Mechanical properties :
#
#
# Convention : Reuss Voigt Hill
#
# Bulk Modulus (GPa) = 23.26457 49.64318 36.45387
# Shear Modulus (GPa) = 33.57941 50.80915 42.19428
#
# Velocity S-wave (km/s) = 3.86601 4.75551 4.33364
# Velocity P-wave (km/s) = 5.50299 7.22835 6.42386
#
# Compressibility (1/GPa) = 0.04298382
#
# Stress axis : x y z
#
# Youngs Moduli (GPa) = 55.09122 56.02064 199.46033
#
# Poissons Ratio (x) = -0.29996 0.78823
# Poissons Ratio (y) = -0.29498 0.08348
# Poissons Ratio (z) = 0.21771 0.02345
#
# Static dielectric constant tensor:
#      x y z
#    x 1.811460 -0.015980 -0.006070 
#    y -0.015980 1.806740 0.003270 
#    z -0.006070 0.003270 1.748500 
# 
# From -- ./inp_files/125141.got.cif
#   From: 2010.05.17/outbox.cif.g08.bks.cpg/sg2_63_cif.got.tgz:125141.got - 2010.06.03 11:33:40.
