data_PCOD9045862
_publ_section_title
;
Structure prediction by ZEFSAII (Michael W. Deem and Ramdas Pophale) SiO2 
 PCOD9045862
Probable space group: P -1
;
_chemical_formula_sum "Si O2"
_cell_formula_units_Z 14
_cell_length_a 9.491214
_cell_length_b 6.439568
_cell_length_c 16.184814
_cell_angle_alpha 122.563350
_cell_angle_beta 123.482506
_cell_angle_gamma 48.203324
_cell_volume 591.500217
_symmetry_space_group_name_H-M "P -1"
_symmetry_group_IT_number 2
_symmetry_cell_setting 'triclinic'
loop_
_space_group_symop_operation_xyz
x,y,z
-x,-y,-z
loop_
_atom_site_type_symbol
_atom_site_label
_atom_site_fract_x
_atom_site_fract_y
_atom_site_fract_z
Si Si1 0.910334 0.866392 0.850268
Si Si2 0.541984 0.701331 0.887714
Si Si3 0.201569 0.217858 0.781044
Si Si4 0.213948 0.297513 0.617296
Si Si5 0.762186 0.006328 0.013761
Si Si6 0.933105 0.951189 0.606026
Si Si7 0.376053 0.837939 0.311799
O O1 0.070930 0.530839 0.847710
O O2 0.768729 0.890714 0.735486
O O3 0.785474 0.017981 0.924952
O O4 0.040385 0.004188 0.893550
O O5 0.589150 0.428611 0.790740
O O6 0.380663 0.982807 0.843550
O O7 0.427227 0.733990 0.943338
O O8 0.729207 0.741407 0.964339
O O9 0.271038 0.260545 0.723596
O O10 0.062091 0.095081 0.686943
O O11 0.125055 0.110158 0.515307
O O12 0.414517 0.198929 0.611603
O O13 0.059310 0.632672 0.620031
O O14 0.737127 0.140062 0.637157
#
# Coordination Sequence:
#
# PCOD9045862 Si02
#       7
#     2   2   2   2   2   2   2
#     4  11  24  40  67  92 136 172 223 266 332 381
#     4  11  24  40  67  92 136 172 223 266 332 381
#     4  12  23  45  68 100 132 180 214 277 325 400
#     4  11  24  44  69 100 136 171 218 275 329 392
#     4  10  24  42  60 100 130 176 216 280 316 390
#     4  11  24  44  69 100 136 171 218 275 329 392
#     4  12  23  45  68 100 132 180 214 277 325 400
#
# _framework density 23.668631999999999
#
# number of rings (size 3 to 8) (size 9 to 14) (size 15 to 20)
#    0.000    0.857    2.857    4.286    0.000    6.857 
#    0.000    1.429    0.000    0.000    0.000    0.000 
#    0.000    0.000    0.000    0.000    0.000    0.000 
#
# Total GULP energy -78356.198134 kJ/mol
# GULP energy per Si atom -5596.871295 kJ/mol
# Density = 2.361476 g / cm^3
# Si number density = 23.668632 Si / 1000 Ang^3
#
#
#
# Elastic Constant Matrix: (Units=GPa)
#
#
# Indices 1 2 3 4 5 6 
#
# 1 136.3674 15.8279 33.7776 17.3099 2.7259 -11.5198
# 2 15.8279 80.9538 19.4935 4.0114 -2.6423 -9.8590
# 3 33.7776 19.4935 81.9572 7.6780 8.3338 1.4516
# 4 17.3099 4.0114 7.6780 23.8435 10.7002 2.7070
# 5 2.7259 -2.6423 8.3338 10.7002 48.4552 2.1752
# 6 -11.5198 -9.8590 1.4516 2.7070 2.1752 18.6900
#
#
#
# Elastic Compliance Matrix: (Units=1/GPa)
#
#
# Indices 1 2 3 4 5 6 
#
# 1 0.009739 0.000285 -0.003661 -0.007403 0.001402 0.007346
# 2 0.000285 0.014379 -0.003560 -0.003190 0.001712 0.008299
# 3 -0.003661 -0.003560 0.014876 0.000087 -0.002340 -0.005030
# 4 -0.007403 -0.003190 0.000087 0.054298 -0.011188 -0.012815
# 5 0.001402 0.001712 -0.002340 -0.011188 0.023488 0.000836
# 6 0.007346 0.008299 -0.005030 -0.012815 0.000836 0.064560
#
#
# Mechanical properties :
#
#
# Convention : Reuss Voigt Hill
#
# Bulk Modulus (GPa) = 39.80525 48.60849 44.20687
# Shear Modulus (GPa) = 24.55975 33.54304 29.05140
#
# Velocity S-wave (km/s) = 3.22475 3.76865 3.50726
# Velocity P-wave (km/s) = 5.54253 6.28638 5.92614
#
# Compressibility (1/GPa) = 0.02512231
#
# Stress axis : x y z
#
# Youngs Moduli (GPa) = 102.67912 69.54620 67.22376
#
# Poissons Ratio (x) = -0.01979 0.24609
# Poissons Ratio (y) = -0.02922 0.23929
# Poissons Ratio (z) = 0.37588 0.24755
#
# Static dielectric constant tensor:
#      x y z
#    x 1.871430 -0.004210 -0.006480 
#    y -0.004210 1.875740 -0.005310 
#    z -0.006480 -0.005310 1.885730 
# 
# From -- ./inp_files/137420.got.cif
#   From: 2010.05.17/outbox.cif.g08.bks.cpg/sg2_69_cif.got.tgz:137420.got - 2010.06.03 11:33:40.
