data_PCOD9045049
_publ_section_title
;
Structure prediction by ZEFSAII (Michael W. Deem and Ramdas Pophale) SiO2 
 PCOD9045049
Probable space group: P -1
;
_chemical_formula_sum "Si O2"
_cell_formula_units_Z 12
_cell_length_a 7.651061
_cell_length_b 17.834630
_cell_length_c 5.198977
_cell_angle_alpha 75.829273
_cell_angle_beta 64.046710
_cell_angle_gamma 47.213984
_cell_volume 466.652922
_symmetry_space_group_name_H-M "P -1"
_symmetry_group_IT_number 2
_symmetry_cell_setting 'triclinic'
loop_
_space_group_symop_operation_xyz
x,y,z
-x,-y,-z
loop_
_atom_site_type_symbol
_atom_site_label
_atom_site_fract_x
_atom_site_fract_y
_atom_site_fract_z
Si Si1 0.670832 0.967094 0.668635
Si Si2 0.770703 0.236948 0.420967
Si Si3 0.635929 0.743108 0.985793
Si Si4 0.819884 0.391715 0.061515
Si Si5 0.923687 0.441532 0.454129
Si Si6 0.245871 0.908900 0.764181
O O1 0.938387 0.849607 0.586659
O O2 0.500000 0.000000 0.500000
O O3 0.733630 0.042292 0.537344
O O4 0.500000 0.000000 0.000000
O O5 0.712822 0.338271 0.274721
O O6 0.768775 0.175872 0.241768
O O7 0.560370 0.262437 0.739144
O O8 0.797455 0.664160 0.714813
O O9 0.480759 0.851666 0.860300
O O10 0.867417 0.704500 0.060732
O O11 0.789448 0.466478 0.238297
O O12 0.766062 0.433028 0.772801
O O13 0.000000 0.500000 0.500000
O O14 0.000000 0.000000 0.000000
#
# Coordination Sequence:
#
# PCOD9045049 Si02
#       6
#     2   2   2   2   2   2
#     4  12  28  42  66  95 137 187 238 282 337 400
#     4  12  26  44  69 103 143 184 243 288 347 411
#     4  10  25  43  74 100 144 181 238 285 352 406
#     4  10  25  44  75 103 141 181 231 290 357 412
#     4  10  23  48  77 105 139 180 230 290 360 427
#     4  12  25  45  66 101 143 192 238 291 334 408
#
# _framework density 25.715043000000001
#
# number of rings (size 3 to 8) (size 9 to 14) (size 15 to 20)
#    1.000    0.000    1.667    4.000    9.333    0.000 
#    0.000    1.667    0.000    0.000    0.000    0.000 
#    0.000    0.000    0.000    0.000    0.000    0.000 
#
# Total GULP energy -67168.860972 kJ/mol
# GULP energy per Si atom -5597.405081 kJ/mol
# Density = 2.565651 g / cm^3
# Si number density = 25.715043 Si / 1000 Ang^3
#
#
#
# Elastic Constant Matrix: (Units=GPa)
#
#
# Indices 1 2 3 4 5 6 
#
# 1 83.7417 1.6731 25.4801 4.5597 13.3355 9.7905
# 2 1.6731 72.5352 33.6082 5.7731 2.4991 14.1576
# 3 25.4801 33.6082 220.9755 -3.7365 -3.0088 12.9036
# 4 4.5597 5.7731 -3.7365 45.7107 3.6662 -3.8763
# 5 13.3355 2.4991 -3.0088 3.6662 50.8598 1.1928
# 6 9.7905 14.1576 12.9036 -3.8763 1.1928 44.0619
#
#
#
# Elastic Compliance Matrix: (Units=1/GPa)
#
#
# Indices 1 2 3 4 5 6 
#
# 1 0.013404 0.001276 -0.001642 -0.001603 -0.003489 -0.002954
# 2 0.001276 0.016067 -0.002359 -0.002694 -0.000953 -0.004966
# 3 -0.001642 -0.002359 0.005117 0.000788 0.000800 -0.000328
# 4 -0.001603 -0.002694 0.000788 0.022787 -0.001114 0.003026
# 5 -0.003489 -0.000953 0.000800 -0.001114 0.020747 0.000188
# 6 -0.002954 -0.004966 -0.000328 0.003026 0.000188 0.025305
#
#
# Mechanical properties :
#
#
# Convention : Reuss Voigt Hill
#
# Bulk Modulus (GPa) = 34.32031 55.41946 44.86988
# Shear Modulus (GPa) = 42.16255 49.22591 45.69423
#
# Velocity S-wave (km/s) = 4.05360 4.38000 4.21996
# Velocity P-wave (km/s) = 5.94005 6.86858 6.42112
#
# Compressibility (1/GPa) = 0.02913727
#
# Stress axis : x y z
#
# Youngs Moduli (GPa) = 74.60534 62.24070 195.43170
#
# Poissons Ratio (x) = -0.07941 0.32085
# Poissons Ratio (y) = -0.09519 0.46107
# Poissons Ratio (z) = 0.12248 0.14684
#
# Static dielectric constant tensor:
#      x y z
#    x 2.265150 0.041350 -0.012440 
#    y 0.041350 2.049020 -0.037400 
#    z -0.012440 -0.037400 2.039840 
# 
# From -- ./inp_files/43474.got.cif
#   From: 2010.05.17/outbox.cif.g08.bks.cpg/sg2_22_cif.got.tgz:43474.got - 2010.06.03 11:33:40.
