data_PCOD9045974
_publ_section_title
;
Structure prediction by ZEFSAII (Michael W. Deem and Ramdas Pophale) SiO2 
 PCOD9045974
Probable space group: P -1
;
_chemical_formula_sum "Si O2"
_cell_formula_units_Z 16
_cell_length_a 16.770590
_cell_length_b 8.640890
_cell_length_c 7.303349
_cell_angle_alpha 138.116749
_cell_angle_beta 102.538548
_cell_angle_gamma 84.482040
_cell_volume 686.228463
_symmetry_space_group_name_H-M "P -1"
_symmetry_group_IT_number 2
_symmetry_cell_setting 'triclinic'
loop_
_space_group_symop_operation_xyz
x,y,z
-x,-y,-z
loop_
_atom_site_type_symbol
_atom_site_label
_atom_site_fract_x
_atom_site_fract_y
_atom_site_fract_z
Si Si1 0.472162 0.829229 0.162292
Si Si2 0.340075 0.492384 0.965925
Si Si3 0.759691 0.959951 0.312856
Si Si4 0.067083 0.211558 0.775112
Si Si5 0.792244 0.186128 0.897000
Si Si6 0.579733 0.576604 0.723895
Si Si7 0.676926 0.942663 0.893655
Si Si8 0.036551 0.578842 0.781583
O O1 0.500000 0.000000 0.500000
O O2 0.405559 0.958728 0.130851
O O3 0.421057 0.576899 0.962336
O O4 0.546000 0.768073 0.015126
O O5 0.299692 0.238337 0.784053
O O6 0.267255 0.609685 0.934601
O O7 0.376832 0.594021 0.269895
O O8 0.842256 0.854356 0.197644
O O9 0.790733 0.144686 0.643411
O O10 0.715491 0.053651 0.197199
O O11 0.071191 0.379310 0.747863
O O12 0.000000 0.000000 0.500000
O O13 0.031073 0.327094 0.037275
O O14 0.744450 0.976059 0.799977
O O15 0.884762 0.237241 0.051014
O O16 0.500000 0.500000 0.500000
O O17 0.648837 0.682023 0.712358
O O18 0.000000 0.500000 0.500000
#
# Coordination Sequence:
#
# PCOD9045974 Si02
#       8
#     2   2   2   2   2   2   2   2
#     4  11  24  43  69  97 138 181 229 285 345 403
#     4  10  24  42  65  95 133 180 220 282 341 404
#     4  11  24  45  70  97 140 177 231 279 344 404
#     4  11  24  46  69 102 137 184 223 279 338 407
#     4  11  24  45  68  97 141 177 221 291 340 399
#     4  11  24  41  65  99 136 173 233 283 335 409
#     4  10  26  40  66  99 129 180 225 278 342 405
#     4  11  26  45  70 104 141 179 227 277 342 409
#
# _framework density 23.315849
#
# number of rings (size 3 to 8) (size 9 to 14) (size 15 to 20)
#    0.000    1.250    2.500    1.500   12.250    1.500 
#    0.000    0.000    0.000    0.000    0.000    0.000 
#    0.000    0.000    0.000    0.000    0.000    0.000 
#
# Total GULP energy -89324.342263 kJ/mol
# GULP energy per Si atom -5582.771391 kJ/mol
# Density = 2.326278 g / cm^3
# Si number density = 23.315849 Si / 1000 Ang^3
#
#
#
# Elastic Constant Matrix: (Units=GPa)
#
#
# Indices 1 2 3 4 5 6 
#
# 1 130.7153 25.3134 39.5610 -15.4484 18.3229 6.8425
# 2 25.3134 57.1130 6.7068 -27.3016 -0.7697 12.0165
# 3 39.5610 6.7068 132.3788 -39.1869 16.2501 -14.0811
# 4 -15.4484 -27.3016 -39.1869 32.0100 -4.1283 4.1871
# 5 18.3229 -0.7697 16.2501 -4.1283 29.9854 -2.8791
# 6 6.8425 12.0165 -14.0811 4.1871 -2.8791 28.5569
#
#
#
# Elastic Compliance Matrix: (Units=1/GPa)
#
#
# Indices 1 2 3 4 5 6 
#
# 1 0.010298 -0.007217 -0.004218 -0.006890 -0.005240 -0.001029
# 2 -0.007217 0.056713 0.016674 0.068911 0.004050 -0.023609
# 3 -0.004218 0.016674 0.018222 0.034494 -0.002343 -0.002314
# 4 -0.006890 0.068911 0.034494 0.133145 0.002776 -0.029580
# 5 -0.005240 0.004050 -0.002343 0.002776 0.038487 0.001869
# 6 -0.001029 -0.023609 -0.002314 -0.029580 0.001869 0.048583
#
#
# Mechanical properties :
#
#
# Convention : Reuss Voigt Hill
#
# Bulk Modulus (GPa) = 10.44791 51.48551 30.96671
# Shear Modulus (GPa) = 15.29643 34.68551 24.99097
#
# Velocity S-wave (km/s) = 2.56413 3.86117 3.27746
# Velocity P-wave (km/s) = 3.64103 6.48135 5.25666
#
# Compressibility (1/GPa) = 0.09571289
#
# Stress axis : x y z
#
# Youngs Moduli (GPa) = 97.10333 17.63265 54.87814
#
# Poissons Ratio (x) = 0.12725 0.23146
# Poissons Ratio (y) = 0.70076 -0.91504
# Poissons Ratio (z) = 0.40955 -0.29401
#
# Static dielectric constant tensor:
#      x y z
#    x 1.864940 -0.019280 0.007920 
#    y -0.019280 1.939340 0.033370 
#    z 0.007920 0.033370 1.928730 
# 
# From -- ./inp_files/107834.got.cif
#   From: 2010.05.17/outbox.cif.g08.bks.cpg/sg2_54_cif.got.tgz:107834.got - 2010.06.03 11:33:40.
