data_PCOD9045402
_publ_section_title
;
Structure prediction by ZEFSAII (Michael W. Deem and Ramdas Pophale) SiO2 
 PCOD9045402
Probable space group: P -1
;
_chemical_formula_sum "Si O2"
_cell_formula_units_Z 11
_cell_length_a 15.331866
_cell_length_b 7.118458
_cell_length_c 12.511785
_cell_angle_alpha 122.408761
_cell_angle_beta 151.995446
_cell_angle_gamma 47.557741
_cell_volume 466.040526
_symmetry_space_group_name_H-M "P -1"
_symmetry_group_IT_number 2
_symmetry_cell_setting 'triclinic'
loop_
_space_group_symop_operation_xyz
x,y,z
-x,-y,-z
loop_
_atom_site_type_symbol
_atom_site_label
_atom_site_fract_x
_atom_site_fract_y
_atom_site_fract_z
Si Si1 0.109536 0.835958 0.407582
Si Si2 0.743823 0.386204 0.268137
Si Si3 0.500000 0.500000 0.500000
Si Si4 0.230689 0.241102 0.091546
Si Si5 0.690665 0.893708 0.415284
Si Si6 0.218704 0.004586 0.231274
O O1 0.260565 0.882805 0.503272
O O2 0.919643 0.129879 0.319128
O O3 0.231058 0.699182 0.606122
O O4 0.988894 0.699798 0.184549
O O5 0.787178 0.624324 0.377714
O O6 0.500000 0.500000 0.000000
O O7 0.289654 0.461724 0.235772
O O8 0.419448 0.720409 0.385787
O O9 0.236238 0.112348 0.170732
O O10 0.433198 0.028015 0.176460
O O11 0.770612 0.841653 0.607340
O O12 0.000000 0.000000 0.000000
#
# Coordination Sequence:
#
# PCOD9045402 Si02
#       6
#     2   2   1   2   2   2
#     4  11  25  45  71 100 134 179 231 276 345 401
#     4  11  25  48  69  98 135 176 231 291 334 399
#     4  10  24  40  64  98 140 180 212 276 326 394
#     4  11  24  46  68 106 141 176 229 274 337 414
#     4  11  23  44  71 100 134 184 220 283 336 401
#     4  11  24  44  68 101 140 177 224 272 337 410
#
# _framework density 23.603096000000001
#
# number of rings (size 3 to 8) (size 9 to 14) (size 15 to 20)
#    0.000    1.091    3.636    2.727    2.545    7.273 
#    3.273    0.000    0.000    0.000    0.000    0.000 
#    0.000    0.000    0.000    0.000    0.000    0.000 
#
# Total GULP energy -61323.898939 kJ/mol
# GULP energy per Si atom -5574.899904 kJ/mol
# Density = 2.354937 g / cm^3
# Si number density = 23.603096 Si / 1000 Ang^3
#
#
#
# Elastic Constant Matrix: (Units=GPa)
#
#
# Indices 1 2 3 4 5 6 
#
# 1 81.7944 15.5753 40.9666 1.0734 15.4720 27.4196
# 2 15.5753 121.1255 54.2001 9.9100 6.4724 15.8952
# 3 40.9666 54.2001 166.8444 -1.5798 3.9418 21.5852
# 4 1.0734 9.9100 -1.5798 46.2550 8.3963 6.8671
# 5 15.4720 6.4724 3.9418 8.3963 28.4607 1.1974
# 6 27.4196 15.8952 21.5852 6.8671 1.1974 38.0277
#
#
#
# Elastic Compliance Matrix: (Units=1/GPa)
#
#
# Indices 1 2 3 4 5 6 
#
# 1 0.020217 0.000938 -0.003247 0.003225 -0.011143 -0.013358
# 2 0.000938 0.010126 -0.003131 -0.001556 -0.001802 -0.002794
# 3 -0.003247 -0.003131 0.007927 0.000968 0.001138 -0.001061
# 4 0.003225 -0.001556 0.000968 0.024391 -0.008461 -0.006362
# 5 -0.011143 -0.001802 0.001138 -0.008461 0.043593 0.008297
# 6 -0.013358 -0.002794 -0.001061 -0.006362 0.008297 0.038586
#
#
# Mechanical properties :
#
#
# Convention : Reuss Voigt Hill
#
# Bulk Modulus (GPa) = 36.50787 65.69425 51.10106
# Shear Modulus (GPa) = 30.33059 39.81685 35.07372
#
# Velocity S-wave (km/s) = 3.58862 4.11169 3.85902
# Velocity P-wave (km/s) = 5.71593 7.10173 6.44618
#
# Compressibility (1/GPa) = 0.02739136
#
# Stress axis : x y z
#
# Youngs Moduli (GPa) = 49.46426 98.75129 126.14725
#
# Poissons Ratio (x) = -0.09260 0.40955
# Poissons Ratio (y) = -0.04638 0.39491
# Poissons Ratio (z) = 0.16059 0.30914
#
# Static dielectric constant tensor:
#      x y z
#    x 2.201630 -0.059030 -0.195770 
#    y -0.059030 1.909140 0.086240 
#    z -0.195770 0.086240 1.917800 
# 
# From -- ./inp_files/93469.got.cif
#   From: 2010.05.17/outbox.cif.g08.bks.cpg/sg2_47_cif.got.tgz:93469.got - 2010.06.03 11:33:40.
