data_PCOD9045008
_publ_section_title
;
Structure prediction by ZEFSAII (Michael W. Deem and Ramdas Pophale) SiO2 
 PCOD9045008
Probable space group: P -1
;
_chemical_formula_sum "Si O2"
_cell_formula_units_Z 12
_cell_length_a 14.532860
_cell_length_b 14.223616
_cell_length_c 8.179304
_cell_angle_alpha 105.798851
_cell_angle_beta 84.469046
_cell_angle_gamma 160.030177
_cell_volume 485.778598
_symmetry_space_group_name_H-M "P -1"
_symmetry_group_IT_number 2
_symmetry_cell_setting 'triclinic'
loop_
_space_group_symop_operation_xyz
x,y,z
-x,-y,-z
loop_
_atom_site_type_symbol
_atom_site_label
_atom_site_fract_x
_atom_site_fract_y
_atom_site_fract_z
Si Si1 0.308164 0.250274 0.550083
Si Si2 0.579037 0.025585 0.162052
Si Si3 0.570465 0.799343 0.972865
Si Si4 0.426561 0.166778 0.392588
Si Si5 0.195889 0.724045 0.323719
Si Si6 0.770158 0.604195 0.837654
O O1 0.500000 0.500000 0.500000
O O2 0.218620 0.051316 0.413182
O O3 0.549262 0.472318 0.761554
O O4 0.000000 0.000000 0.500000
O O5 0.885576 0.397895 0.321894
O O6 0.676600 0.013470 0.116863
O O7 0.254628 0.705516 0.160809
O O8 0.500000 0.000000 0.000000
O O9 0.329822 0.527744 0.025954
O O10 0.477953 0.722790 0.761617
O O11 0.861571 0.019793 0.041734
O O12 0.683352 0.442195 0.623222
O O13 0.255338 0.892430 0.324750
O O14 0.500000 0.000000 0.500000
#
# Coordination Sequence:
#
# PCOD9045008 Si02
#       6
#     2   2   2   2   2   2
#     4  10  23  48  72  98 138 176 223 298 354 405
#     4  12  25  40  64  95 149 175 233 282 334 401
#     4  12  23  45  66 104 138 188 225 280 347 412
#     4  10  26  43  76  96 144 181 234 279 358 401
#     4  12  25  44  65 103 136 191 234 282 337 420
#     4  10  26  43  71 100 137 175 229 290 340 415
#
# _framework density 24.702611999999998
#
# number of rings (size 3 to 8) (size 9 to 14) (size 15 to 20)
#    1.000    0.000    1.667    5.000    2.333    5.333 
#    0.000    5.000    0.000    0.000    0.000    0.000 
#    0.000    0.000    0.000    0.000    0.000    0.000 
#
# Total GULP energy -66875.545019 kJ/mol
# GULP energy per Si atom -5572.962085 kJ/mol
# Density = 2.464639 g / cm^3
# Si number density = 24.702612 Si / 1000 Ang^3
#
#
#
# Elastic Constant Matrix: (Units=GPa)
#
#
# Indices 1 2 3 4 5 6 
#
# 1 141.3949 29.4521 16.8829 1.4954 14.7559 4.5163
# 2 29.4521 124.8001 36.8919 -3.2824 7.5643 4.9926
# 3 16.8829 36.8919 106.1040 -11.2696 20.6072 -1.9306
# 4 1.4954 -3.2824 -11.2696 31.2780 0.6954 4.6401
# 5 14.7559 7.5643 20.6072 0.6954 29.6038 -2.1121
# 6 4.5163 4.9926 -1.9306 4.6401 -2.1121 21.0009
#
#
#
# Elastic Compliance Matrix: (Units=1/GPa)
#
#
# Indices 1 2 3 4 5 6 
#
# 1 0.007831 -0.001553 -0.000068 -0.000241 -0.003570 -0.001627
# 2 -0.001553 0.009366 -0.003094 0.000260 0.000372 -0.002197
# 3 -0.000068 -0.003094 0.012527 0.004349 -0.007988 0.000137
# 4 -0.000241 0.000260 0.004349 0.034822 -0.004344 -0.007741
# 5 -0.003570 0.000372 -0.007988 -0.004344 0.041489 0.005077
# 6 -0.001627 -0.002197 0.000137 -0.007741 0.005077 0.050723
#
#
# Mechanical properties :
#
#
# Convention : Reuss Voigt Hill
#
# Bulk Modulus (GPa) = 49.27460 59.86141 54.56800
# Shear Modulus (GPa) = 28.90966 35.64800 32.27883
#
# Velocity S-wave (km/s) = 3.42469 3.80292 3.61875
# Velocity P-wave (km/s) = 5.96895 6.60063 6.29272
#
# Compressibility (1/GPa) = 0.02029443
#
# Stress axis : x y z
#
# Youngs Moduli (GPa) = 127.69741 106.76796 79.82642
#
# Poissons Ratio (x) = 0.16580 0.00543
# Poissons Ratio (y) = 0.19830 0.24698
# Poissons Ratio (z) = 0.00869 0.33034
#
# Static dielectric constant tensor:
#      x y z
#    x 1.961120 -0.004910 -0.054650 
#    y -0.004910 1.745580 0.077590 
#    z -0.054650 0.077590 2.118520 
# 
# From -- ./inp_files/313564.got.cif
#   From: 2010.05.17/outbox.cif.g08.bks.cpg/sg2_157_cif.got.tgz:313564.got - 2010.06.03 11:33:40.
