data_PCOD9045526
_publ_section_title
;
Structure prediction by ZEFSAII (Michael W. Deem and Ramdas Pophale) SiO2 
 PCOD9045526
Probable space group: P -1
;
_chemical_formula_sum "Si O2"
_cell_formula_units_Z 16
_cell_length_a 15.303050
_cell_length_b 12.499003
_cell_length_c 8.460974
_cell_angle_alpha 72.789974
_cell_angle_beta 97.096164
_cell_angle_gamma 150.487391
_cell_volume 730.025680
_symmetry_space_group_name_H-M "P -1"
_symmetry_group_IT_number 2
_symmetry_cell_setting 'triclinic'
loop_
_space_group_symop_operation_xyz
x,y,z
-x,-y,-z
loop_
_atom_site_type_symbol
_atom_site_label
_atom_site_fract_x
_atom_site_fract_y
_atom_site_fract_z
Si Si1 0.905534 0.638390 0.182777
Si Si2 0.507765 0.259202 0.012612
Si Si3 0.204778 0.047108 0.853770
Si Si4 0.558706 0.112037 0.291981
Si Si5 0.357505 0.691888 0.283339
Si Si6 0.970562 0.339393 0.505615
Si Si7 0.358976 0.140980 0.532002
Si Si8 0.638314 0.542776 0.182112
O O1 0.772971 0.384497 0.230915
O O2 0.041675 0.752585 0.301580
O O3 0.778216 0.597850 0.231447
O O4 0.003002 0.790407 0.980868
O O5 0.470684 0.130324 0.202732
O O6 0.588434 0.460197 0.025450
O O7 0.331491 0.094599 0.943913
O O8 0.644160 0.354547 0.874952
O O9 0.248779 0.089197 0.660648
O O10 0.264499 0.232684 0.856432
O O11 0.500000 0.000000 0.500000
O O12 0.493753 0.950199 0.220305
O O13 0.158012 0.507063 0.385063
O O14 0.466108 0.722643 0.402279
O O15 0.000000 0.500000 0.500000
O O16 0.789272 0.113805 0.458226
O O17 0.451687 0.320008 0.339543
#
# Coordination Sequence:
#
# PCOD9045526 Si02
#       8
#     2   2   2   2   2   2   2   2
#     4  11  24  41  67  99 136 175 233 281 334 410
#     4  10  24  40  70  96 136 177 230 279 337 407
#     4  11  25  44  67 103 132 176 237 288 336 398
#     4  11  21  41  67  93 132 186 212 265 348 402
#     4  11  23  45  64 105 140 179 219 286 337 403
#     4  12  26  41  72  99 139 182 228 270 348 415
#     4  11  25  45  70 102 138 178 230 283 335 413
#     4  11  22  46  72  91 138 187 221 287 352 390
#
# _framework density 21.917034999999998
#
# number of rings (size 3 to 8) (size 9 to 14) (size 15 to 20)
#    0.000    1.000    2.500    3.750    8.750    0.000 
#    0.000    2.500    0.000    0.000    0.000    0.000 
#    0.000    0.000    0.000    0.000    0.000    0.000 
#
# Total GULP energy -89406.755197 kJ/mol
# GULP energy per Si atom -5587.922200 kJ/mol
# Density = 2.186715 g / cm^3
# Si number density = 21.917035 Si / 1000 Ang^3
#
#
#
# Elastic Constant Matrix: (Units=GPa)
#
#
# Indices 1 2 3 4 5 6 
#
# 1 51.5447 24.1366 45.9277 -3.6988 -24.7041 -3.8331
# 2 24.1366 111.5715 62.9870 -5.8658 -20.1233 -12.1863
# 3 45.9277 62.9870 122.1586 -9.3493 -38.4645 0.2501
# 4 -3.6988 -5.8658 -9.3493 38.3798 4.7119 2.9317
# 5 -24.7041 -20.1233 -38.4645 4.7119 40.2039 8.4899
# 6 -3.8331 -12.1863 0.2501 2.9317 8.4899 32.0351
#
#
#
# Elastic Compliance Matrix: (Units=1/GPa)
#
#
# Indices 1 2 3 4 5 6 
#
# 1 0.032772 -0.000007 -0.008673 -0.000462 0.011695 0.000929
# 2 -0.000007 0.013512 -0.007471 0.000009 -0.001576 0.005614
# 3 -0.008673 -0.007471 0.018583 0.001851 0.009935 -0.006827
# 4 -0.000462 0.000009 0.001851 0.026776 -0.001181 -0.002204
# 5 0.011695 -0.001576 0.009935 -0.001181 0.043154 -0.010606
# 6 0.000929 0.005614 -0.006827 -0.002204 -0.010606 0.036528
#
#
# Mechanical properties :
#
#
# Convention : Reuss Voigt Hill
#
# Bulk Modulus (GPa) = 30.70786 61.26418 45.98602
# Shear Modulus (GPa) = 23.31190 32.27198 27.79194
#
# Velocity S-wave (km/s) = 3.26489 3.84143 3.56484
# Velocity P-wave (km/s) = 5.31546 6.90571 6.16210
#
# Compressibility (1/GPa) = 0.03256495
#
# Stress axis : x y z
#
# Youngs Moduli (GPa) = 30.51348 74.01016 53.81288
#
# Poissons Ratio (x) = 0.00054 0.46670
# Poissons Ratio (y) = 0.00022 0.40204
# Poissons Ratio (z) = 0.26463 0.55294
#
# Static dielectric constant tensor:
#      x y z
#    x 1.840300 0.035800 -0.013120 
#    y 0.035800 1.811610 -0.000770 
#    z -0.013120 -0.000770 1.846680 
# 
# From -- ./inp_files/307369.got.cif
#   From: 2010.05.17/outbox.cif.g08.bks.cpg/sg2_154_cif.got.tgz:307369.got - 2010.06.03 11:33:40.
