data_PCOD9045531
_publ_section_title
;
Structure prediction by ZEFSAII (Michael W. Deem and Ramdas Pophale) SiO2 
 PCOD9045531
Probable space group: P -1
;
_chemical_formula_sum "Si O2"
_cell_formula_units_Z 16
_cell_length_a 5.309915
_cell_length_b 19.181190
_cell_length_c 21.831025
_cell_angle_alpha 18.916551
_cell_angle_beta 117.071985
_cell_angle_gamma 115.482751
_cell_volume 641.859556
_symmetry_space_group_name_H-M "P -1"
_symmetry_group_IT_number 2
_symmetry_cell_setting 'triclinic'
loop_
_space_group_symop_operation_xyz
x,y,z
-x,-y,-z
loop_
_atom_site_type_symbol
_atom_site_label
_atom_site_fract_x
_atom_site_fract_y
_atom_site_fract_z
Si Si1 0.556828 0.034984 0.260444
Si Si2 0.137859 0.397334 0.732117
Si Si3 0.395846 0.325104 0.518271
Si Si4 0.623089 0.876270 0.708407
Si Si5 0.016459 0.116584 0.065033
Si Si6 0.057074 0.754251 0.284414
Si Si7 0.127522 0.824436 0.613891
Si Si8 0.111363 0.634056 0.038940
O O1 0.725407 0.865229 0.379339
O O2 0.562663 0.012731 0.351404
O O3 0.242536 0.998170 0.231546
O O4 0.637822 0.276163 0.049882
O O5 0.863945 0.549104 0.585592
O O6 0.043002 0.227158 0.811543
O O7 0.408315 0.523281 0.630009
O O8 0.166732 0.274859 0.901388
O O9 0.611949 0.230857 0.671965
O O10 0.419637 0.756236 0.737801
O O11 0.840567 0.730317 0.891875
O O12 0.784853 0.054153 0.539010
O O13 0.855288 0.261456 0.976615
O O14 0.896436 0.924992 0.168500
O O15 0.000000 0.500000 0.500000
O O16 0.934685 0.618106 0.753824
O O17 0.000000 0.000000 0.500000
#
# Coordination Sequence:
#
# PCOD9045531 Si02
#       8
#     2   2   2   2   2   2   2   2
#     4  10  24  43  66  95 140 182 228 284 351 422
#     4  11  23  42  66 102 135 184 235 301 345 421
#     4  10  24  40  70  98 139 185 236 285 358 417
#     4  10  24  45  68 101 134 180 226 286 348 425
#     4  10  24  41  63  99 134 176 232 291 349 411
#     4   9  20  43  66  94 133 184 233 287 353 421
#     4  11  25  44  71 103 135 176 231 284 351 425
#     4  11  25  44  69  96 139 183 227 291 350 423
#
# _framework density 24.927574
#
# number of rings (size 3 to 8) (size 9 to 14) (size 15 to 20)
#    0.000    1.750    0.000    1.875   10.500    7.000 
#    2.250    3.125    0.000    0.000    0.000    0.000 
#    0.000    0.000    0.000    0.000    0.000    0.000 
#
# Total GULP energy -89439.351786 kJ/mol
# GULP energy per Si atom -5589.959487 kJ/mol
# Density = 2.487084 g / cm^3
# Si number density = 24.927574 Si / 1000 Ang^3
#
#
#
# Elastic Constant Matrix: (Units=GPa)
#
#
# Indices 1 2 3 4 5 6 
#
# 1 99.2936 46.8888 40.5401 -5.8979 -30.0661 -21.4844
# 2 46.8888 143.6940 55.2324 -2.8307 -15.2708 -25.7617
# 3 40.5401 55.2324 114.0443 -16.8850 -30.4850 -18.8323
# 4 -5.8979 -2.8307 -16.8850 50.1511 3.1017 5.1221
# 5 -30.0661 -15.2708 -30.4850 3.1017 41.1935 16.5372
# 6 -21.4844 -25.7617 -18.8323 5.1221 16.5372 35.6102
#
#
#
# Elastic Compliance Matrix: (Units=1/GPa)
#
#
# Indices 1 2 3 4 5 6 
#
# 1 0.014985 -0.003136 -0.001247 0.000434 0.007855 0.002402
# 2 -0.003136 0.010055 -0.004071 -0.001473 -0.003497 0.005065
# 3 -0.001247 -0.004071 0.013705 0.003821 0.007658 -0.000556
# 4 0.000434 -0.001473 0.003821 0.021353 0.002133 -0.002845
# 5 0.007855 -0.003497 0.007658 0.002133 0.039123 -0.012216
# 6 0.002402 0.005065 -0.000556 -0.002845 -0.012216 0.038983
#
#
# Mechanical properties :
#
#
# Convention : Reuss Voigt Hill
#
# Bulk Modulus (GPa) = 45.79873 71.37271 58.58572
# Shear Modulus (GPa) = 30.78958 39.68235 35.23596
#
# Velocity S-wave (km/s) = 3.51830 3.99420 3.76378
# Velocity P-wave (km/s) = 5.90908 7.06864 6.51471
#
# Compressibility (1/GPa) = 0.02183466
#
# Stress axis : x y z
#
# Youngs Moduli (GPa) = 66.73123 99.45384 72.96847
#
# Poissons Ratio (x) = 0.31193 0.09102
# Poissons Ratio (y) = 0.20930 0.29707
# Poissons Ratio (z) = 0.08324 0.40490
#
# Static dielectric constant tensor:
#      x y z
#    x 2.030240 0.018810 0.038890 
#    y 0.018810 1.971980 0.018100 
#    z 0.038890 0.018100 2.016640 
# 
# From -- ./inp_files/141473.got.cif
#   From: 2010.05.17/outbox.cif.g08.bks.cpg/sg2_71_cif.got.tgz:141473.got - 2010.06.03 11:33:40.
