data_PCOD9045949
_publ_section_title
;
Structure prediction by ZEFSAII (Michael W. Deem and Ramdas Pophale) SiO2 
 PCOD9045949
Probable space group: P -1
;
_chemical_formula_sum "Si O2"
_cell_formula_units_Z 16
_cell_length_a 13.057680
_cell_length_b 11.327877
_cell_length_c 9.974153
_cell_angle_alpha 112.578096
_cell_angle_beta 57.067525
_cell_angle_gamma 146.701919
_cell_volume 671.807902
_symmetry_space_group_name_H-M "P -1"
_symmetry_group_IT_number 2
_symmetry_cell_setting 'triclinic'
loop_
_space_group_symop_operation_xyz
x,y,z
-x,-y,-z
loop_
_atom_site_type_symbol
_atom_site_label
_atom_site_fract_x
_atom_site_fract_y
_atom_site_fract_z
Si Si1 0.849629 0.537132 0.832628
Si Si2 0.077499 0.477289 0.641382
Si Si3 0.741368 0.725005 0.397036
Si Si4 0.726636 0.968162 0.623465
Si Si5 0.471515 0.128253 0.563831
Si Si6 0.039409 0.343199 0.881176
Si Si7 0.887579 0.010611 0.174652
Si Si8 0.560649 0.913649 0.980305
O O1 0.995270 0.545223 0.683189
O O2 0.613345 0.288289 0.884755
O O3 0.928879 0.736610 0.799764
O O4 0.882591 0.581494 0.989932
O O5 0.293744 0.621593 0.484183
O O6 0.900725 0.223213 0.630261
O O7 0.097166 0.502140 0.801693
O O8 0.500000 0.500000 0.500000
O O9 0.772262 0.821465 0.277047
O O10 0.863978 0.698277 0.281150
O O11 0.814730 0.900361 0.519003
O O12 0.606126 0.905116 0.546508
O O13 0.579675 0.843778 0.802992
O O14 0.299536 0.046828 0.747573
O O15 0.500000 0.000000 0.500000
O O16 0.791146 0.118614 0.963660
O O17 0.000000 0.000000 0.000000
O O18 0.500000 0.000000 0.000000
#
# Coordination Sequence:
#
# PCOD9045949 Si02
#       8
#     2   2   2   2   2   2   2   2
#     4  12  22  42  67  95 144 173 220 291 339 406
#     4  11  23  40  66 103 128 177 227 287 341 398
#     4  11  23  46  72  97 133 187 228 283 340 415
#     4  10  24  42  64  98 139 165 233 284 334 405
#     4  11  23  42  68  93 128 186 227 279 345 407
#     4  11  23  40  69  97 133 180 233 268 347 408
#     4  11  24  45  66 100 139 177 230 279 351 410
#     4  11  23  39  63 104 136 175 221 282 340 400
#
# _framework density 23.816331000000002
#
# number of rings (size 3 to 8) (size 9 to 14) (size 15 to 20)
#    0.000    1.000    5.000    3.375    1.750    2.500 
#    2.250    0.625    0.000    0.000    0.000    0.000 
#    0.000    0.000    0.000    0.000    0.000    0.000 
#
# Total GULP energy -89412.713832 kJ/mol
# GULP energy per Si atom -5588.294615 kJ/mol
# Density = 2.376212 g / cm^3
# Si number density = 23.816331 Si / 1000 Ang^3
#
#
#
# Elastic Constant Matrix: (Units=GPa)
#
#
# Indices 1 2 3 4 5 6 
#
# 1 78.1250 30.2777 30.4689 -6.8649 -24.8094 -4.1741
# 2 30.2777 128.6340 35.0931 -33.2828 -25.1039 -6.4623
# 3 30.4689 35.0931 128.7568 -17.7443 -31.7497 5.2408
# 4 -6.8649 -33.2828 -17.7443 54.6004 -1.2333 -6.0644
# 5 -24.8094 -25.1039 -31.7497 -1.2333 46.2315 -3.1468
# 6 -4.1741 -6.4623 5.2408 -6.0644 -3.1468 40.7469
#
#
#
# Elastic Compliance Matrix: (Units=1/GPa)
#
#
# Indices 1 2 3 4 5 6 
#
# 1 0.016542 -0.001727 -0.001701 0.000887 0.006951 0.002308
# 2 -0.001727 0.011312 -0.000551 0.006965 0.005236 0.003129
# 3 -0.001701 -0.000551 0.010164 0.002806 0.005795 -0.000704
# 4 0.000887 0.006965 0.002806 0.024302 0.007175 0.005006
# 5 0.006951 0.005236 0.005795 0.007175 0.032674 0.004388
# 6 0.002308 0.003129 -0.000704 0.005006 0.004388 0.026449
#
#
# Mechanical properties :
#
#
# Convention : Reuss Voigt Hill
#
# Bulk Modulus (GPa) = 33.26785 58.57723 45.92254
# Shear Modulus (GPa) = 35.86289 44.29415 40.07852
#
# Velocity S-wave (km/s) = 3.88469 4.31724 4.10667
# Velocity P-wave (km/s) = 5.84122 7.03564 6.46607
#
# Compressibility (1/GPa) = 0.03005905
#
# Stress axis : x y z
#
# Youngs Moduli (GPa) = 60.45335 88.40156 98.39088
#
# Poissons Ratio (x) = 0.15269 0.16738
# Poissons Ratio (y) = 0.10442 0.05418
# Poissons Ratio (z) = 0.10284 0.04868
#
# Static dielectric constant tensor:
#      x y z
#    x -0.977730 1.133060 -0.255250 
#    y 1.133060 1.521440 0.102070 
#    z -0.255250 0.102070 2.006790 
# 
# From -- ./inp_files/451629.got.cif
#   From: 2010.05.17/outbox.cif.g08.bks.cpg/sg2_226_cif.got.tgz:451629.got - 2010.06.03 11:33:40.
