data_PCOD9045990
_publ_section_title
;
Structure prediction by ZEFSAII (Michael W. Deem and Ramdas Pophale) SiO2 
 PCOD9045990
Probable space group: P -1
;
_chemical_formula_sum "Si O2"
_cell_formula_units_Z 16
_cell_length_a 13.716670
_cell_length_b 6.527898
_cell_length_c 17.651415
_cell_angle_alpha 51.556239
_cell_angle_beta 35.164497
_cell_angle_gamma 65.257653
_cell_volume 698.685742
_symmetry_space_group_name_H-M "P -1"
_symmetry_group_IT_number 2
_symmetry_cell_setting 'triclinic'
loop_
_space_group_symop_operation_xyz
x,y,z
-x,-y,-z
loop_
_atom_site_type_symbol
_atom_site_label
_atom_site_fract_x
_atom_site_fract_y
_atom_site_fract_z
Si Si1 0.200588 0.004669 0.853332
Si Si2 0.658615 0.416365 0.576524
Si Si3 0.826568 0.298395 0.913607
Si Si4 0.789765 0.443318 0.336485
Si Si5 0.294698 0.976633 0.634909
Si Si6 0.404856 0.119687 0.919083
Si Si7 0.667879 0.789424 0.888542
Si Si8 0.066257 0.777053 0.447464
O O1 0.279414 0.318162 0.717236
O O2 0.222636 0.890007 0.783319
O O3 0.257450 0.830369 0.924321
O O4 0.000000 0.000000 0.000000
O O5 0.664030 0.301228 0.515024
O O6 0.484066 0.323907 0.756131
O O7 0.803056 0.326735 0.555991
O O8 0.716593 0.727613 0.451006
O O9 0.733161 0.523332 0.887454
O O10 0.024108 0.430363 0.774686
O O11 0.784485 0.043686 0.944108
O O12 0.804283 0.228459 0.314578
O O13 0.500000 0.000000 0.500000
O O14 0.530338 0.903336 0.898268
O O15 0.405915 0.247937 0.971205
O O16 0.836404 0.022110 0.723437
O O17 0.000000 0.500000 0.500000
O O18 0.000000 0.000000 0.500000
#
# Coordination Sequence:
#
# PCOD9045990 Si02
#       8
#     2   2   2   2   2   2   2   2
#     4   9  23  43  62 100 133 178 230 300 359 434
#     4  10  25  44  68 103 138 191 234 303 364 441
#     4  11  23  39  72  93 131 181 231 295 362 428
#     4  10  24  43  67  98 136 174 241 295 361 429
#     4  11  26  42  71  99 142 186 243 298 372 449
#     4  10  24  43  63  98 139 177 233 289 360 436
#     4  10  24  42  65  99 137 183 233 288 356 437
#     4  11  26  46  76 110 149 192 246 306 374 443
#
# _framework density 22.900137000000001
#
# number of rings (size 3 to 8) (size 9 to 14) (size 15 to 20)
#    0.000    1.750    0.000    1.125   12.250    5.000 
#    4.500    0.000    0.000    0.000    0.000    0.000 
#    0.000    0.000    0.000    0.000    0.000    0.000 
#
# Total GULP energy -89091.619533 kJ/mol
# GULP energy per Si atom -5568.226221 kJ/mol
# Density = 2.284801 g / cm^3
# Si number density = 22.900137 Si / 1000 Ang^3
#
#
#
# Elastic Constant Matrix: (Units=GPa)
#
#
# Indices 1 2 3 4 5 6 
#
# 1 39.8669 11.5594 15.9063 3.0096 -0.6984 8.0007
# 2 11.5594 59.6292 12.2399 1.0252 -7.2821 9.7359
# 3 15.9063 12.2399 98.4934 13.7016 17.2693 20.8948
# 4 3.0096 1.0252 13.7016 31.7890 4.2018 3.5611
# 5 -0.6984 -7.2821 17.2693 4.2018 47.1629 -1.6008
# 6 8.0007 9.7359 20.8948 3.5611 -1.6008 32.5194
#
#
#
# Elastic Compliance Matrix: (Units=1/GPa)
#
#
# Indices 1 2 3 4 5 6 
#
# 1 0.028403 -0.004112 -0.003406 -0.000835 0.000991 -0.003428
# 2 -0.004112 0.018854 -0.001565 0.000417 0.003267 -0.003513
# 3 -0.003406 -0.001565 0.013989 -0.004117 -0.005302 -0.007492
# 4 -0.000835 0.000417 -0.004117 0.033607 -0.001469 -0.001027
# 5 0.000991 0.003267 -0.005302 -0.001469 0.023914 0.003523
# 6 -0.003428 -0.003513 -0.007492 -0.001027 0.003523 0.037746
#
#
# Mechanical properties :
#
#
# Convention : Reuss Voigt Hill
#
# Bulk Modulus (GPa) = 23.21227 30.82230 27.01728
# Shear Modulus (GPa) = 26.44964 32.84650 29.64807
#
# Velocity S-wave (km/s) = 3.40221 3.79137 3.60205
# Velocity P-wave (km/s) = 5.05883 5.71443 5.39659
#
# Compressibility (1/GPa) = 0.04308067
#
# Stress axis : x y z
#
# Youngs Moduli (GPa) = 35.20736 53.03963 71.48355
#
# Poissons Ratio (x) = 0.21809 0.24350
# Poissons Ratio (y) = 0.14477 0.11184
# Poissons Ratio (z) = 0.11993 0.08299
#
# Static dielectric constant tensor:
#      x y z
#    x 1.863410 0.015730 -0.026810 
#    y 0.015730 1.974160 0.016070 
#    z -0.026810 0.016070 1.885610 
# 
# From -- ./inp_files/538907.got.cif
#   From: 2010.05.17/outbox.cif.g08.bks.cpg/sg2_270_cif.got.tgz:538907.got - 2010.06.03 11:33:40.
