data_PCOD9045908
_publ_section_title
;
Structure prediction by ZEFSAII (Michael W. Deem and Ramdas Pophale) SiO2 
 PCOD9045908
Probable space group: P -1
;
_chemical_formula_sum "Si O2"
_cell_formula_units_Z 15
_cell_length_a 11.725346
_cell_length_b 16.094760
_cell_length_c 6.802809
_cell_angle_alpha 44.002413
_cell_angle_beta 54.438534
_cell_angle_gamma 52.817822
_cell_volume 685.077471
_symmetry_space_group_name_H-M "P -1"
_symmetry_group_IT_number 2
_symmetry_cell_setting 'triclinic'
loop_
_space_group_symop_operation_xyz
x,y,z
-x,-y,-z
loop_
_atom_site_type_symbol
_atom_site_label
_atom_site_fract_x
_atom_site_fract_y
_atom_site_fract_z
Si Si1 0.884650 0.405657 0.948750
Si Si2 0.788760 0.617414 0.363231
Si Si3 0.783026 0.207133 0.158516
Si Si4 0.607013 0.893409 0.215649
Si Si5 0.248675 0.912885 0.196455
Si Si6 0.656898 0.523367 0.294436
Si Si7 0.476270 0.772918 0.876828
Si Si8 0.000000 0.000000 0.000000
O O1 0.831805 0.537475 0.656738
O O2 0.055730 0.374759 0.887993
O O3 0.863521 0.301761 0.997880
O O4 0.777188 0.420317 0.218279
O O5 0.674213 0.756762 0.280001
O O6 0.720232 0.541638 0.410391
O O7 0.741487 0.143114 0.502264
O O8 0.632310 0.274253 0.073957
O O9 0.885213 0.100769 0.094521
O O10 0.521491 0.873743 0.529124
O O11 0.500000 0.000000 0.000000
O O12 0.739221 0.946479 0.049128
O O13 0.097543 0.922888 0.222406
O O14 0.385102 0.832854 0.059990
O O15 0.500000 0.500000 0.500000
O O16 0.618236 0.658642 0.994112
#
# Coordination Sequence:
#
# PCOD9045908 Si02
#       8
#     2   2   2   2   2   2   2   1
#     4  11  25  47  70  99 146 186 232 293 349 423
#     4  11  26  46  68 104 140 188 236 287 361 413
#     4  11  23  44  69  98 139 183 238 288 352 417
#     4  12  23  44  71  98 143 187 233 295 352 419
#     4  11  23  42  65  98 138 182 235 288 353 415
#     4  12  25  43  73 105 137 184 237 292 349 424
#     4  11  24  41  66 104 136 179 240 289 351 416
#     4  10  24  42  64 100 132 180 234 284 348 420
#
# _framework density 21.895333000000001
#
# number of rings (size 3 to 8) (size 9 to 14) (size 15 to 20)
#    0.000    0.800    2.667    4.400    1.867    2.133 
#    2.400    0.000    0.000    0.000    0.000    0.000 
#    0.000    0.000    0.000    0.000    0.000    0.000 
#
# Total GULP energy -83664.777187 kJ/mol
# GULP energy per Si atom -5577.651812 kJ/mol
# Density = 2.184550 g / cm^3
# Si number density = 21.895333 Si / 1000 Ang^3
#
#
#
# Elastic Constant Matrix: (Units=GPa)
#
#
# Indices 1 2 3 4 5 6 
#
# 1 80.3582 25.5935 12.1528 10.5788 0.6710 5.7665
# 2 25.5935 97.1530 30.1541 20.4785 8.1250 -4.9890
# 3 12.1528 30.1541 64.7476 1.1323 -1.9695 4.0561
# 4 10.5788 20.4785 1.1323 30.9603 0.0522 4.6608
# 5 0.6710 8.1250 -1.9695 0.0522 38.4003 -2.4079
# 6 5.7665 -4.9890 4.0561 4.6608 -2.4079 32.0591
#
#
#
# Elastic Compliance Matrix: (Units=1/GPa)
#
#
# Indices 1 2 3 4 5 6 
#
# 1 0.014056 -0.003027 -0.001024 -0.002386 0.000188 -0.002509
# 2 -0.003027 0.015954 -0.007110 -0.010026 -0.003352 0.005133
# 3 -0.001024 -0.007110 0.019175 0.004934 0.002255 -0.003896
# 4 -0.002386 -0.010026 0.004934 0.040696 0.001889 -0.007530
# 5 0.000188 -0.003352 0.002255 0.001889 0.026917 0.000906
# 6 -0.002509 0.005133 -0.003896 -0.007530 0.000906 0.034098
#
#
# Mechanical properties :
#
#
# Convention : Reuss Voigt Hill
#
# Bulk Modulus (GPa) = 37.22623 42.00662 39.61642
# Shear Modulus (GPa) = 27.44656 31.90784 29.67720
#
# Velocity S-wave (km/s) = 3.54437 3.82159 3.68559
# Velocity P-wave (km/s) = 5.81282 6.22090 6.02032
#
# Compressibility (1/GPa) = 0.02686278
#
# Stress axis : x y z
#
# Youngs Moduli (GPa) = 71.14586 62.67861 52.15237
#
# Poissons Ratio (x) = 0.18970 0.05341
# Poissons Ratio (y) = 0.21532 0.37082
# Poissons Ratio (z) = 0.07286 0.44567
#
# Static dielectric constant tensor:
#      x y z
#    x 1.821040 0.022250 -0.041580 
#    y 0.022250 1.757680 -0.006060 
#    z -0.041580 -0.006060 1.799260 
# 
# From -- ./inp_files/69558.got.cif
#   From: 2010.05.17/outbox.cif.g08.bks.cpg/sg2_35_cif.got.tgz:69558.got - 2010.06.03 11:33:40.
