data_PCOD9045180
_publ_section_title
;
Structure prediction by ZEFSAII (Michael W. Deem and Ramdas Pophale) SiO2 
 PCOD9045180
Probable space group: P -1
;
_chemical_formula_sum "Si O2"
_cell_formula_units_Z 10
_cell_length_a 4.967745
_cell_length_b 9.774209
_cell_length_c 10.255737
_cell_angle_alpha 122.796507
_cell_angle_beta 73.078481
_cell_angle_gamma 97.908799
_cell_volume 400.349777
_symmetry_space_group_name_H-M "P -1"
_symmetry_group_IT_number 2
_symmetry_cell_setting 'triclinic'
loop_
_space_group_symop_operation_xyz
x,y,z
-x,-y,-z
loop_
_atom_site_type_symbol
_atom_site_label
_atom_site_fract_x
_atom_site_fract_y
_atom_site_fract_z
Si Si1 0.660742 0.305256 0.510330
Si Si2 0.735681 0.401487 0.250540
Si Si3 0.073988 0.896762 0.066354
Si Si4 0.782867 0.590620 0.980952
Si Si5 0.839229 0.903109 0.583317
O O1 0.703400 0.356619 0.381364
O O2 0.465047 0.148027 0.449050
O O3 0.961968 0.256107 0.500222
O O4 0.694787 0.241303 0.083540
O O5 0.534282 0.553871 0.325998
O O6 0.000000 0.500000 0.000000
O O7 0.061511 0.433584 0.191565
O O8 0.812813 0.785460 0.094007
O O9 0.170564 0.002647 0.228717
O O10 0.000000 0.000000 0.000000
O O11 0.500000 0.500000 0.000000
O O12 0.000000 0.000000 0.500000
#
# Coordination Sequence:
#
# PCOD9045180 Si02
#       5
#     2   2   2   2   2
#     4  11  25  49  73 109 153 199 250 311 381 463
#     4   9  24  47  76 108 147 202 258 306 379 460
#     4  10  23  51  76 112 146 205 255 313 373 461
#     4  10  24  44  73 108 143 192 252 309 366 446
#     4  12  27  47  74 111 157 195 247 322 388 441
#
# _framework density 24.978158000000001
#
# number of rings (size 3 to 8) (size 9 to 14) (size 15 to 20)
#    1.200    0.400    2.000    0.600    2.800   10.400 
#    0.000    1.000    0.000    0.000    0.000    0.000 
#    0.000    0.000    0.000    0.000    0.000    0.000 
#
# Total GULP energy -55941.324396 kJ/mol
# GULP energy per Si atom -5594.132440 kJ/mol
# Density = 2.492131 g / cm^3
# Si number density = 24.978158 Si / 1000 Ang^3
#
#
#
# Elastic Constant Matrix: (Units=GPa)
#
#
# Indices 1 2 3 4 5 6 
#
# 1 84.6626 17.8926 7.0121 9.9341 -7.8166 17.3524
# 2 17.8926 111.9582 34.9380 -5.7387 -3.8922 -2.5915
# 3 7.0121 34.9380 110.7566 15.0980 -16.8165 -7.2359
# 4 9.9341 -5.7387 15.0980 63.5804 -5.8566 -20.8521
# 5 -7.8166 -3.8922 -16.8165 -5.8566 39.2229 -0.9565
# 6 17.3524 -2.5915 -7.2359 -20.8521 -0.9565 45.1145
#
#
#
# Elastic Compliance Matrix: (Units=1/GPa)
#
#
# Indices 1 2 3 4 5 6 
#
# 1 0.014844 -0.002897 0.000434 -0.005188 0.001883 -0.008164
# 2 -0.002897 0.010689 -0.003513 0.003045 -0.000506 0.002562
# 3 0.000434 -0.003513 0.011103 -0.002533 0.004128 0.000329
# 4 -0.005188 0.003045 -0.002533 0.021403 0.001663 0.011692
# 5 0.001883 -0.000506 0.004128 0.001663 0.027869 0.001268
# 6 -0.008164 0.002562 0.000329 0.011692 0.001268 0.030937
#
#
# Mechanical properties :
#
#
# Convention : Reuss Voigt Hill
#
# Bulk Modulus (GPa) = 40.51295 47.45143 43.98219
# Shear Modulus (GPa) = 36.48972 46.08589 41.28781
#
# Velocity S-wave (km/s) = 3.82627 4.30006 4.07007
# Velocity P-wave (km/s) = 5.98122 6.61003 6.30347
#
# Compressibility (1/GPa) = 0.02468347
#
# Stress axis : x y z
#
# Youngs Moduli (GPa) = 67.36810 93.55451 90.06522
#
# Poissons Ratio (x) = 0.27103 -0.03907
# Poissons Ratio (y) = 0.19517 0.31639
# Poissons Ratio (z) = -0.02922 0.32865
#
# Static dielectric constant tensor:
#      x y z
#    x 1.964970 -0.008080 0.014160 
#    y -0.008080 2.002910 0.071910 
#    z 0.014160 0.071910 1.982240 
# 
# From -- ./inp_files/59056.got.cif
#   From: 2010.05.17/outbox.cif.g08.bks.cpg/sg2_30_cif.got.tgz:59056.got - 2010.06.03 11:33:40.
