data_PCOD9045488
_publ_section_title
;
Structure prediction by ZEFSAII (Michael W. Deem and Ramdas Pophale) SiO2 
 PCOD9045488
Probable space group: P -1
;
_chemical_formula_sum "Si O2"
_cell_formula_units_Z 10
_cell_length_a 9.836328
_cell_length_b 8.946642
_cell_length_c 9.214475
_cell_angle_alpha 74.069893
_cell_angle_beta 135.494215
_cell_angle_gamma 75.254576
_cell_volume 406.756920
_symmetry_space_group_name_H-M "P -1"
_symmetry_group_IT_number 2
_symmetry_cell_setting 'triclinic'
loop_
_space_group_symop_operation_xyz
x,y,z
-x,-y,-z
loop_
_atom_site_type_symbol
_atom_site_label
_atom_site_fract_x
_atom_site_fract_y
_atom_site_fract_z
Si Si1 0.907946 0.243778 0.439893
Si Si2 0.832207 0.208575 0.713918
Si Si3 0.730519 0.586016 0.705171
Si Si4 0.443548 0.279156 0.964218
Si Si5 0.419107 0.078517 0.721794
O O1 0.954815 0.156928 0.661161
O O2 0.689383 0.254301 0.196604
O O3 0.151789 0.136432 0.549382
O O4 0.791214 0.478405 0.301081
O O5 0.802837 0.392749 0.718975
O O6 0.528557 0.321843 0.426165
O O7 0.000000 0.000000 0.000000
O O8 0.622099 0.791851 0.479534
O O9 0.000000 0.500000 0.000000
O O10 0.390434 0.171619 0.070498
O O11 0.481864 0.162630 0.877347
#
# Coordination Sequence:
#
# PCOD9045488 Si02
#       5
#     2   2   2   2   2
#     4  11  24  42  69  96 129 173 223 271 325 394
#     4  11  28  46  67  99 140 176 220 276 336 396
#     4  11  28  46  67  99 140 176 220 276 336 396
#     4  10  24  40  68  96 134 162 226 272 334 372
#     4  11  24  42  69  96 129 173 223 271 325 394
#
# _framework density 24.584706000000001
#
# number of rings (size 3 to 8) (size 9 to 14) (size 15 to 20)
#    0.000    1.200    2.000    1.200   14.000    0.800 
#    0.000    0.000    0.000    0.000    0.000    0.000 
#    0.000    0.000    0.000    0.000    0.000    0.000 
#
# Total GULP energy -55957.286925 kJ/mol
# GULP energy per Si atom -5595.728693 kJ/mol
# Density = 2.452875 g / cm^3
# Si number density = 24.584706 Si / 1000 Ang^3
#
#
#
# Elastic Constant Matrix: (Units=GPa)
#
#
# Indices 1 2 3 4 5 6 
#
# 1 86.7605 22.2007 12.6957 -12.7859 13.8501 14.9389
# 2 22.2007 104.4223 34.4838 -12.4184 -4.5173 35.6588
# 3 12.6957 34.4838 84.4220 -4.8826 4.9766 26.2353
# 4 -12.7859 -12.4184 -4.8826 49.3056 17.4517 -0.6958
# 5 13.8501 -4.5173 4.9766 17.4517 47.0711 -10.7406
# 6 14.9389 35.6588 26.2353 -0.6958 -10.7406 31.5459
#
#
#
# Elastic Compliance Matrix: (Units=1/GPa)
#
#
# Indices 1 2 3 4 5 6 
#
# 1 0.016764 0.001478 0.003150 0.009121 -0.012198 -0.016182
# 2 0.001478 0.017461 0.000589 0.006857 -0.006619 -0.023030
# 3 0.003150 0.000589 0.018494 0.005961 -0.009766 -0.020732
# 4 0.009121 0.006857 0.005961 0.031582 -0.019615 -0.023010
# 5 -0.012198 -0.006619 -0.009766 -0.019615 0.040423 0.034711
# 6 -0.016182 -0.023030 -0.020732 -0.023010 0.034711 0.093948
#
#
# Mechanical properties :
#
#
# Convention : Reuss Voigt Hill
#
# Bulk Modulus (GPa) = 15.83405 46.04057 30.93731
# Shear Modulus (GPa) = 21.80642 39.33282 30.56962
#
# Velocity S-wave (km/s) = 2.98147 4.00420 3.53007
# Velocity P-wave (km/s) = 4.27865 6.33610 5.40615
#
# Compressibility (1/GPa) = 0.06315504
#
# Stress axis : x y z
#
# Youngs Moduli (GPa) = 59.65060 57.26938 54.07105
#
# Poissons Ratio (x) = -0.08466 -0.17034
# Poissons Ratio (y) = -0.08818 -0.03184
# Poissons Ratio (z) = -0.18792 -0.03373
#
# Static dielectric constant tensor:
#      x y z
#    x 1.954980 0.001210 -0.005690 
#    y 0.001210 1.971330 -0.061000 
#    z -0.005690 -0.061000 2.077060 
# 
# From -- ./inp_files/144144.got.cif
#   From: 2010.05.17/outbox.cif.g08.bks.cpg/sg2_73_cif.got.tgz:144144.got - 2010.06.03 11:33:40.
