data_PCOD9045564
_publ_section_title
;
Structure prediction by ZEFSAII (Michael W. Deem and Ramdas Pophale) SiO2 
 PCOD9045564
Probable space group: P -1
;
_chemical_formula_sum "Si O2"
_cell_formula_units_Z 14
_cell_length_a 9.701500
_cell_length_b 9.034582
_cell_length_c 9.642751
_cell_angle_alpha 83.808346
_cell_angle_beta 118.584941
_cell_angle_gamma 70.590824
_cell_volume 662.650168
_symmetry_space_group_name_H-M "P -1"
_symmetry_group_IT_number 2
_symmetry_cell_setting 'triclinic'
loop_
_space_group_symop_operation_xyz
x,y,z
-x,-y,-z
loop_
_atom_site_type_symbol
_atom_site_label
_atom_site_fract_x
_atom_site_fract_y
_atom_site_fract_z
Si Si1 0.181020 0.842277 0.126208
Si Si2 0.514719 0.131214 0.887213
Si Si3 0.937565 0.684749 0.996862
Si Si4 0.449520 0.091126 0.321185
Si Si5 0.229262 0.878296 0.474266
Si Si6 0.009347 0.247247 0.452056
Si Si7 0.832879 0.612784 0.244403
O O1 0.309825 0.856420 0.071987
O O2 0.233997 0.843752 0.313711
O O3 0.115152 0.705515 0.075823
O O4 0.000000 0.000000 0.000000
O O5 0.374633 0.309908 0.849299
O O6 0.476939 0.058978 0.735684
O O7 0.500000 0.000000 0.000000
O O8 0.757962 0.804804 0.817655
O O9 0.879326 0.694266 0.127237
O O10 0.000000 0.500000 0.000000
O O11 0.573069 0.184891 0.366254
O O12 0.500000 0.000000 0.500000
O O13 0.127326 0.792072 0.517634
O O14 0.123856 0.076828 0.440366
O O15 0.917645 0.413731 0.298482
O O16 0.110021 0.311665 0.603436
#
# Coordination Sequence:
#
# PCOD9045564 Si02
#       7
#     2   2   2   2   2   2   2
#     4  12  24  45  74 101 137 190 246 287 352 431
#     4  12  24  43  72 103 144 184 237 296 358 419
#     4  12  28  48  72 105 144 187 242 301 358 425
#     4  12  24  44  71 105 142 185 236 293 356 422
#     4  11  23  44  71 107 136 190 241 290 351 440
#     4  10  24  40  73 102 146 183 238 293 363 420
#     4  11  23  45  67 104 144 187 232 301 362 415
#
# _framework density 21.127286000000002
#
# number of rings (size 3 to 8) (size 9 to 14) (size 15 to 20)
#    0.000    0.571    7.143    0.000    4.000    1.143 
#    0.000    2.857    0.000    0.000    0.000    0.000 
#    0.000    0.000    0.000    0.000    0.000    0.000 
#
# Total GULP energy -78047.179396 kJ/mol
# GULP energy per Si atom -5574.798528 kJ/mol
# Density = 2.107920 g / cm^3
# Si number density = 21.127286 Si / 1000 Ang^3
#
#
#
# Elastic Constant Matrix: (Units=GPa)
#
#
# Indices 1 2 3 4 5 6 
#
# 1 169.7599 29.7690 40.2285 -4.7850 10.4214 24.1788
# 2 29.7690 94.9335 29.0222 6.2875 8.6060 20.6103
# 3 40.2285 29.0222 85.8577 -9.3689 -3.4984 3.5026
# 4 -4.7850 6.2875 -9.3689 28.7565 5.6525 1.6005
# 5 10.4214 8.6060 -3.4984 5.6525 37.1217 1.6849
# 6 24.1788 20.6103 3.5026 1.6005 1.6849 30.6589
#
#
#
# Elastic Compliance Matrix: (Units=1/GPa)
#
#
# Indices 1 2 3 4 5 6 
#
# 1 0.007649 -0.000021 -0.003341 0.000960 -0.002351 -0.005557
# 2 -0.000021 0.014509 -0.005064 -0.003773 -0.002861 -0.008804
# 3 -0.003341 -0.005064 0.015401 0.004832 0.002651 0.003882
# 4 0.000960 -0.003773 0.004832 0.038295 -0.004748 -0.000511
# 5 -0.002351 -0.002861 0.002651 -0.004748 0.029138 0.002121
# 6 -0.005557 -0.008804 0.003882 -0.000511 0.002121 0.042385
#
#
# Mechanical properties :
#
#
# Convention : Reuss Voigt Hill
#
# Bulk Modulus (GPa) = 48.29155 60.95449 54.62302
# Shear Modulus (GPa) = 29.21716 36.07619 32.64667
#
# Velocity S-wave (km/s) = 3.72279 4.13675 3.93522
# Velocity P-wave (km/s) = 6.43319 7.19240 6.82336
#
# Compressibility (1/GPa) = 0.02070755
#
# Stress axis : x y z
#
# Youngs Moduli (GPa) = 130.73469 68.92275 64.92980
#
# Poissons Ratio (x) = 0.00145 0.21694
# Poissons Ratio (y) = 0.00276 0.32878
# Poissons Ratio (z) = 0.43680 0.34900
#
# Static dielectric constant tensor:
#      x y z
#    x 1.791260 -0.036740 0.010980 
#    y -0.036740 1.679880 0.001300 
#    z 0.010980 0.001300 1.855310 
# 
# From -- ./inp_files/158927.got.cif
#   From: 2010.05.17/outbox.cif.g08.bks.cpg/sg2_80_cif.got.tgz:158927.got - 2010.06.03 11:33:40.
