data_PCOD9045122
_publ_section_title
;
Structure prediction by ZEFSAII (Michael W. Deem and Ramdas Pophale) SiO2 
 PCOD9045122
Probable space group: P -1
;
_chemical_formula_sum "Si O2"
_cell_formula_units_Z 16
_cell_length_a 11.268683
_cell_length_b 11.869636
_cell_length_c 15.254813
_cell_angle_alpha 152.473420
_cell_angle_beta 52.608668
_cell_angle_gamma 110.260649
_cell_volume 638.355110
_symmetry_space_group_name_H-M "P -1"
_symmetry_group_IT_number 2
_symmetry_cell_setting 'triclinic'
loop_
_space_group_symop_operation_xyz
x,y,z
-x,-y,-z
loop_
_atom_site_type_symbol
_atom_site_label
_atom_site_fract_x
_atom_site_fract_y
_atom_site_fract_z
Si Si1 0.273460 0.243351 0.462488
Si Si2 0.843948 0.764684 0.803567
Si Si3 0.612714 0.381669 0.956902
Si Si4 0.816783 0.530825 0.075450
Si Si5 0.366708 0.866979 0.700394
Si Si6 0.908980 0.193453 0.964502
Si Si7 0.319884 0.900638 0.549299
Si Si8 0.342098 0.317517 0.297641
O O1 0.460805 0.216467 0.378860
O O2 0.126825 0.529225 0.773612
O O3 0.233809 0.291660 0.409793
O O4 0.307196 0.951346 0.287881
O O5 0.711127 0.666047 0.768319
O O6 0.000000 0.500000 0.500000
O O7 0.803257 0.878084 0.998297
O O8 0.832414 0.032418 0.941890
O O9 0.776943 0.426008 0.929909
O O10 0.468098 0.590185 0.236813
O O11 0.500000 0.500000 0.000000
O O12 0.801249 0.337214 0.023154
O O13 0.691574 0.871347 0.359021
O O14 0.000000 0.500000 0.000000
O O15 0.371486 0.953084 0.658470
O O16 0.356830 0.584036 0.500518
O O17 0.116581 0.984453 0.708536
O O18 0.500000 0.000000 0.000000
#
# Coordination Sequence:
#
# PCOD9045122 Si02
#       8
#     2   2   2   2   2   2   2   2
#     4  12  24  42  70 104 144 190 245 308 368 440
#     4  12  27  43  70 103 149 194 251 303 376 444
#     4  12  25  46  77 114 145 192 257 309 375 457
#     4  10  23  49  74 103 143 193 243 306 374 443
#     4  12  25  45  69 105 150 194 249 309 370 448
#     4  11  24  46  70 104 145 195 243 308 371 441
#     4  11  25  45  75 103 148 194 239 309 384 440
#     4  12  23  42  66  98 138 192 249 296 365 440
#
# _framework density 25.064418
#
# number of rings (size 3 to 8) (size 9 to 14) (size 15 to 20)
#    0.000    0.500    2.500    6.000    3.500    1.000 
#    0.000    8.750    0.000    0.000    0.000    0.000 
#    0.000    0.000    0.000    0.000    0.000    0.000 
#
# Total GULP energy -89256.193369 kJ/mol
# GULP energy per Si atom -5578.512086 kJ/mol
# Density = 2.500737 g / cm^3
# Si number density = 25.064418 Si / 1000 Ang^3
#
#
#
# Elastic Constant Matrix: (Units=GPa)
#
#
# Indices 1 2 3 4 5 6 
#
# 1 106.8837 36.2475 45.0684 1.1287 19.9072 -2.3934
# 2 36.2475 120.3198 36.8894 9.2647 9.7621 -14.7861
# 3 45.0684 36.8894 182.3019 2.9242 16.1304 -6.2796
# 4 1.1287 9.2647 2.9242 48.3769 -0.3767 10.6839
# 5 19.9072 9.7621 16.1304 -0.3767 39.0265 -0.0252
# 6 -2.3934 -14.7861 -6.2796 10.6839 -0.0252 35.8050
#
#
#
# Elastic Compliance Matrix: (Units=1/GPa)
#
#
# Indices 1 2 3 4 5 6 
#
# 1 0.011977 -0.002759 -0.002036 0.000525 -0.004573 -0.000856
# 2 -0.002759 0.010360 -0.001138 -0.002908 -0.000739 0.004762
# 3 -0.002036 -0.001138 0.006359 -0.000258 -0.001307 0.000585
# 4 0.000525 -0.002908 -0.000258 0.023022 0.000783 -0.008080
# 5 -0.004573 -0.000739 -0.001307 0.000783 0.028688 -0.001054
# 6 -0.000856 0.004762 0.000585 -0.008080 -0.001054 0.032351
#
#
# Mechanical properties :
#
#
# Convention : Reuss Voigt Hill
#
# Bulk Modulus (GPa) = 59.41583 71.76847 65.59215
# Shear Modulus (GPa) = 38.39244 44.06169 41.22707
#
# Velocity S-wave (km/s) = 3.91800 4.19733 4.06007
# Velocity P-wave (km/s) = 6.65014 7.22398 6.94299
#
# Compressibility (1/GPa) = 0.01683053
#
# Stress axis : x y z
#
# Youngs Moduli (GPa) = 83.49306 96.52235 157.25588
#
# Poissons Ratio (x) = 0.26626 0.32017
# Poissons Ratio (y) = 0.23032 0.17903
# Poissons Ratio (z) = 0.16999 0.10988
#
# Static dielectric constant tensor:
#      x y z
#    x 2.231860 0.096720 -0.156520 
#    y 0.096720 2.016300 0.001410 
#    z -0.156520 0.001410 1.861410 
# 
# From -- ./inp_files/519944.got.cif
#   From: 2010.05.17/outbox.cif.g08.bks.cpg/sg2_260_cif.got.tgz:519944.got - 2010.06.03 11:33:40.
