data_PCOD9045069
_publ_section_title
;
Structure prediction by ZEFSAII (Michael W. Deem and Ramdas Pophale) SiO2 
 PCOD9045069
Probable space group: P -1
;
_chemical_formula_sum "Si O2"
_cell_formula_units_Z 16
_cell_length_a 20.800613
_cell_length_b 5.440174
_cell_length_c 7.577802
_cell_angle_alpha 111.247275
_cell_angle_beta 128.634137
_cell_angle_gamma 78.196873
_cell_volume 624.022576
_symmetry_space_group_name_H-M "P -1"
_symmetry_group_IT_number 2
_symmetry_cell_setting 'triclinic'
loop_
_space_group_symop_operation_xyz
x,y,z
-x,-y,-z
loop_
_atom_site_type_symbol
_atom_site_label
_atom_site_fract_x
_atom_site_fract_y
_atom_site_fract_z
Si Si1 0.847499 0.443411 0.988143
Si Si2 0.462067 0.199740 0.345178
Si Si3 0.904430 0.935275 0.357949
Si Si4 0.837542 0.391371 0.568109
Si Si5 0.977269 0.745663 0.779085
Si Si6 0.408961 0.912094 0.712010
Si Si7 0.657081 0.504543 0.219137
Si Si8 0.329024 0.563808 0.175008
O O1 0.866044 0.759090 0.090880
O O2 0.936042 0.344555 0.173647
O O3 0.827619 0.304451 0.732134
O O4 0.768773 0.426920 0.972131
O O5 0.500000 0.500000 0.500000
O O6 0.495343 0.100834 0.188319
O O7 0.366180 0.274899 0.213493
O O8 0.500000 0.000000 0.500000
O O9 0.913902 0.783947 0.521072
O O10 0.848475 0.171589 0.381506
O O11 0.000000 0.000000 0.500000
O O12 0.926294 0.540356 0.758408
O O13 0.754953 0.542051 0.427107
O O14 0.000000 0.000000 0.000000
O O15 0.380083 0.708602 0.762445
O O16 0.363503 0.780719 0.427032
O O17 0.381403 0.211072 0.753412
O O18 0.644194 0.398033 0.971210
#
# Coordination Sequence:
#
# PCOD9045069 Si02
#       8
#     2   2   2   2   2   2   2   2
#     4  12  25  46  72 101 144 196 246 315 386 438
#     4  10  23  48  81 113 154 200 251 310 386 464
#     4  12  26  45  68  99 140 191 255 306 378 452
#     4  12  27  47  67 103 148 193 254 316 375 456
#     4  12  25  44  70  99 140 194 248 309 381 447
#     4  11  26  52  76 111 158 202 247 321 386 457
#     4  12  29  46  79 114 155 202 260 313 383 459
#     4  11  27  47  77 115 150 199 256 317 383 462
#
# _framework density 25.640097999999998
#
# number of rings (size 3 to 8) (size 9 to 14) (size 15 to 20)
#    0.000    0.500    3.750    3.750    7.000    5.000 
#    0.000    0.000    0.000    0.000    0.000    0.000 
#    0.000    0.000    0.000    0.000    0.000    0.000 
#
# Total GULP energy -89549.194734 kJ/mol
# GULP energy per Si atom -5596.824671 kJ/mol
# Density = 2.558174 g / cm^3
# Si number density = 25.640098 Si / 1000 Ang^3
#
#
#
# Elastic Constant Matrix: (Units=GPa)
#
#
# Indices 1 2 3 4 5 6 
#
# 1 173.8428 82.5024 36.6257 -1.6010 -7.1854 -21.2581
# 2 82.5024 153.5696 45.4767 -2.8739 -2.4388 -24.1150
# 3 36.6257 45.4767 90.5735 -3.0916 -3.2882 -5.4840
# 4 -1.6010 -2.8739 -3.0916 50.1945 -7.2880 -3.3859
# 5 -7.1854 -2.4388 -3.2882 -7.2880 51.8631 -11.6103
# 6 -21.2581 -24.1150 -5.4840 -3.3859 -11.6103 52.5759
#
#
#
# Elastic Compliance Matrix: (Units=1/GPa)
#
#
# Indices 1 2 3 4 5 6 
#
# 1 0.008009 -0.003632 -0.001253 0.000275 0.001288 0.001744
# 2 -0.003632 0.009907 -0.003297 0.000509 0.000467 0.002867
# 3 -0.001253 -0.003297 0.013212 0.000622 0.000486 -0.000494
# 4 0.000275 0.000509 0.000622 0.020689 0.003576 0.002532
# 5 0.001288 0.000467 0.000486 0.003576 0.021295 0.005719
# 6 0.001744 0.002867 -0.000494 0.002532 0.005719 0.022415
#
#
# Mechanical properties :
#
#
# Convention : Reuss Voigt Hill
#
# Bulk Modulus (GPa) = 67.73999 83.02172 75.38086
# Shear Modulus (GPa) = 42.80330 47.81878 45.31104
#
# Velocity S-wave (km/s) = 4.09025 4.32325 4.20836
# Velocity P-wave (km/s) = 6.98454 7.57434 7.28541
#
# Compressibility (1/GPa) = 0.01476233
#
# Stress axis : x y z
#
# Youngs Moduli (GPa) = 124.85700 100.94184 75.68791
#
# Poissons Ratio (x) = 0.36664 0.09486
# Poissons Ratio (y) = 0.45350 0.24957
# Poissons Ratio (z) = 0.15648 0.33285
#
# Static dielectric constant tensor:
#      x y z
#    x 2.069830 0.055610 0.008240 
#    y 0.055610 2.095550 -0.009830 
#    z 0.008240 -0.009830 2.103470 
# 
# From -- ./inp_files/350856.got.cif
#   From: 2010.05.17/outbox.cif.g08.bks.cpg/sg2_176_cif.got.tgz:350856.got - 2010.06.03 11:33:40.
