data_PCOD9045860
_publ_section_title
;
Structure prediction by ZEFSAII (Michael W. Deem and Ramdas Pophale) SiO2 
 PCOD9045860
Probable space group: P -1
;
_chemical_formula_sum "Si O2"
_cell_formula_units_Z 12
_cell_length_a 7.937987
_cell_length_b 20.285365
_cell_length_c 9.336520
_cell_angle_alpha 26.610942
_cell_angle_beta 131.221483
_cell_angle_gamma 131.205238
_cell_volume 495.604148
_symmetry_space_group_name_H-M "P -1"
_symmetry_group_IT_number 2
_symmetry_cell_setting 'triclinic'
loop_
_space_group_symop_operation_xyz
x,y,z
-x,-y,-z
loop_
_atom_site_type_symbol
_atom_site_label
_atom_site_fract_x
_atom_site_fract_y
_atom_site_fract_z
Si Si1 0.112284 0.673578 0.212898
Si Si2 0.445490 0.355367 0.351096
Si Si3 0.476564 0.271713 0.827607
Si Si4 0.975589 0.904938 0.397070
Si Si5 0.294289 0.934048 0.260221
Si Si6 0.277951 0.166493 0.218034
O O1 0.321118 0.708128 0.377402
O O2 0.248319 0.696099 0.094365
O O3 0.000000 0.500000 0.500000
O O4 0.919418 0.764859 0.956545
O O5 0.406124 0.379120 0.455305
O O6 0.225598 0.236078 0.408003
O O7 0.500000 0.500000 0.000000
O O8 0.375267 0.265685 0.940163
O O9 0.389751 0.102335 0.048730
O O10 0.113185 0.862805 0.418169
O O11 0.158149 0.998189 0.427244
O O12 0.841374 0.034750 0.015956
O O13 0.503864 0.850637 0.531956
#
# Coordination Sequence:
#
# PCOD9045860 Si02
#       6
#     2   2   2   2   2   2
#     4  10  24  42  58  91 130 163 215 262 303 388
#     4   9  20  41  61  86 130 173 198 261 321 353
#     4   8  19  39  59  91 126 156 212 250 308 386
#     4   9  18  37  64  96 131 153 215 261 299 394
#     4   9  18  36  65  99 124 161 201 265 322 364
#     4  11  21  39  69  94 121 171 206 259 330 359
#
# _framework density 24.212869999999999
#
# number of rings (size 3 to 8) (size 9 to 14) (size 15 to 20)
#    1.000    1.667    0.000    3.000    0.000    4.667 
#    3.000    0.833    0.000    0.000    0.000    0.000 
#    0.000    0.000    0.000    0.000    0.000    0.000 
#
# Total GULP energy -67011.208422 kJ/mol
# GULP energy per Si atom -5584.267368 kJ/mol
# Density = 2.415776 g / cm^3
# Si number density = 24.212870 Si / 1000 Ang^3
#
#
#
# Elastic Constant Matrix: (Units=GPa)
#
#
# Indices 1 2 3 4 5 6 
#
# 1 128.0646 54.4825 56.7768 -2.3849 -26.6194 43.1332
# 2 54.4825 96.4692 34.4431 7.8446 -1.3057 38.2347
# 3 56.7768 34.4431 106.4893 13.6638 -27.9326 21.9845
# 4 -2.3849 7.8446 13.6638 47.6883 14.9663 -3.8766
# 5 -26.6194 -1.3057 -27.9326 14.9663 44.5561 1.6871
# 6 43.1332 38.2347 21.9845 -3.8766 1.6871 40.1480
#
#
#
# Elastic Compliance Matrix: (Units=1/GPa)
#
#
# Indices 1 2 3 4 5 6 
#
# 1 0.017123 -0.002336 -0.002053 -0.002709 0.010380 -0.015744
# 2 -0.002336 0.018215 -0.000913 -0.004223 0.000543 -0.014768
# 3 -0.002053 -0.000913 0.016940 -0.009455 0.012832 -0.007653
# 4 -0.002709 -0.004223 -0.009455 0.031445 -0.018835 0.015937
# 5 0.010380 0.000543 0.012832 -0.018835 0.043879 -0.022359
# 6 -0.015744 -0.014768 -0.007653 0.015937 -0.022359 0.062556
#
#
# Mechanical properties :
#
#
# Convention : Reuss Voigt Hill
#
# Bulk Modulus (GPa) = 23.99605 69.15868 46.57736
# Shear Modulus (GPa) = 23.29342 38.83320 31.06331
#
# Velocity S-wave (km/s) = 3.10502 4.00912 3.58568
# Velocity P-wave (km/s) = 4.77356 7.07499 6.03500
#
# Compressibility (1/GPa) = 0.04167353
#
# Stress axis : x y z
#
# Youngs Moduli (GPa) = 58.40183 54.89906 59.03344
#
# Poissons Ratio (x) = 0.12827 0.12118
# Poissons Ratio (y) = 0.13645 0.05388
# Poissons Ratio (z) = 0.11989 0.05011
#
# Static dielectric constant tensor:
#      x y z
#    x 2.001290 -0.033660 -0.074060 
#    y -0.033660 1.936050 0.084570 
#    z -0.074060 0.084570 2.020320 
# 
# From -- ./inp_files/406950.got.cif
#   From: 2010.05.17/outbox.cif.g08.bks.cpg/sg2_204_cif.got.tgz:406950.got - 2010.06.03 11:33:40.
