data_PCOD9045362
_publ_section_title
;
Structure prediction by ZEFSAII (Michael W. Deem and Ramdas Pophale) SiO2 
 PCOD9045362
Probable space group: P -1
;
_chemical_formula_sum "Si O2"
_cell_formula_units_Z 13
_cell_length_a 11.320454
_cell_length_b 11.590407
_cell_length_c 9.172813
_cell_angle_alpha 56.736375
_cell_angle_beta 98.319016
_cell_angle_gamma 54.117810
_cell_volume 591.651552
_symmetry_space_group_name_H-M "P -1"
_symmetry_group_IT_number 2
_symmetry_cell_setting 'triclinic'
loop_
_space_group_symop_operation_xyz
x,y,z
-x,-y,-z
loop_
_atom_site_type_symbol
_atom_site_label
_atom_site_fract_x
_atom_site_fract_y
_atom_site_fract_z
Si Si1 0.708562 0.612197 0.548976
Si Si2 0.008979 0.211462 0.363945
Si Si3 0.270210 0.712459 0.270999
Si Si4 0.957349 0.051757 0.210265
Si Si5 0.500000 0.000000 0.000000
Si Si6 0.376375 0.980502 0.441754
Si Si7 0.880085 0.634401 0.113278
O O1 0.793327 0.388759 0.662940
O O2 0.544301 0.734049 0.561374
O O3 0.895616 0.526015 0.699297
O O4 0.587131 0.811270 0.270202
O O5 0.930742 0.200265 0.216839
O O6 0.892168 0.462152 0.192153
O O7 0.993475 0.126276 0.559223
O O8 0.245909 0.025200 0.509505
O O9 0.500000 0.500000 0.500000
O O10 0.223406 0.805449 0.034393
O O11 0.140477 0.913310 0.228445
O O12 0.274365 0.204084 0.894316
O O13 0.500000 0.000000 0.500000
O O14 0.207707 0.195087 0.153135
#
# Coordination Sequence:
#
# PCOD9045362 Si02
#       7
#     2   2   2   2   1   2   2
#     4  11  23  41  68  95 131 175 215 275 334 392
#     4  11  22  45  68  99 138 169 223 281 333 388
#     4  11  24  46  66  93 132 183 226 266 328 397
#     4  10  25  44  67  97 131 180 224 274 323 396
#     4  10  24  40  62 102 130 168 222 266 330 408
#     4  11  23  39  63 102 129 169 214 267 338 399
#     4  11  23  41  67  97 134 170 212 277 342 391
#
# _framework density 21.972393
#
# number of rings (size 3 to 8) (size 9 to 14) (size 15 to 20)
#    0.000    1.231    1.538    3.692    2.154    4.923 
#    2.769    2.308    0.000    0.000    0.000    0.000 
#    0.000    0.000    0.000    0.000    0.000    0.000 
#
# Total GULP energy -72456.411762 kJ/mol
# GULP energy per Si atom -5573.570136 kJ/mol
# Density = 2.192238 g / cm^3
# Si number density = 21.972393 Si / 1000 Ang^3
#
#
#
# Elastic Constant Matrix: (Units=GPa)
#
#
# Indices 1 2 3 4 5 6 
#
# 1 50.7352 24.3437 15.5579 3.6816 -3.6775 0.5390
# 2 24.3437 59.3662 47.0308 2.2142 1.1020 -1.9358
# 3 15.5579 47.0308 108.9610 -2.2882 1.7739 -0.4592
# 4 3.6816 2.2142 -2.2882 33.9200 -4.1686 0.3093
# 5 -3.6775 1.1020 1.7739 -4.1686 21.3409 -6.3835
# 6 0.5390 -1.9358 -0.4592 0.3093 -6.3835 35.3649
#
#
#
# Elastic Compliance Matrix: (Units=1/GPa)
#
#
# Indices 1 2 3 4 5 6 
#
# 1 0.025201 -0.011306 0.001179 -0.001361 0.004515 -0.000161
# 2 -0.011306 0.030934 -0.011731 -0.001910 -0.002565 0.001267
# 3 0.001179 -0.011731 0.014107 0.001568 -0.000216 -0.000530
# 4 -0.001361 -0.001910 0.001568 0.030581 0.005928 0.000739
# 5 0.004515 -0.002565 -0.000216 0.005928 0.051655 0.009060
# 6 -0.000161 0.001267 -0.000530 0.000739 0.009060 0.029970
#
#
# Mechanical properties :
#
#
# Convention : Reuss Voigt Hill
#
# Bulk Modulus (GPa) = 37.69853 43.65857 40.67855
# Shear Modulus (GPa) = 21.27591 26.93382 24.10486
#
# Velocity S-wave (km/s) = 3.11513 3.50494 3.31577
# Velocity P-wave (km/s) = 5.48937 6.02432 5.76305
#
# Compressibility (1/GPa) = 0.02652623
#
# Stress axis : x y z
#
# Youngs Moduli (GPa) = 39.68041 32.32647 70.88759
#
# Poissons Ratio (x) = 0.36550 -0.08358
# Poissons Ratio (y) = 0.44864 0.83157
# Poissons Ratio (z) = -0.04679 0.37922
#
# Static dielectric constant tensor:
#      x y z
#    x 1.810850 0.034420 0.014840 
#    y 0.034420 1.874180 0.036000 
#    z 0.014840 0.036000 1.760450 
# 
# From -- ./inp_files/59422.got.cif
#   From: 2010.05.17/outbox.cif.g08.bks.cpg/sg2_30_cif.got.tgz:59422.got - 2010.06.03 11:33:40.
