data_PCOD9045123
_publ_section_title
;
Structure prediction by ZEFSAII (Michael W. Deem and Ramdas Pophale) SiO2 
 PCOD9045123
Probable space group: P -1
;
_chemical_formula_sum "Si O2"
_cell_formula_units_Z 10
_cell_length_a 13.531318
_cell_length_b 7.722349
_cell_length_c 7.402103
_cell_angle_alpha 56.018660
_cell_angle_beta 63.787655
_cell_angle_gamma 33.551716
_cell_volume 353.992531
_symmetry_space_group_name_H-M "P -1"
_symmetry_group_IT_number 2
_symmetry_cell_setting 'triclinic'
loop_
_space_group_symop_operation_xyz
x,y,z
-x,-y,-z
loop_
_atom_site_type_symbol
_atom_site_label
_atom_site_fract_x
_atom_site_fract_y
_atom_site_fract_z
Si Si1 0.184065 0.082791 0.463275
Si Si2 0.029156 0.201443 0.864177
Si Si3 0.449776 0.811148 0.816711
Si Si4 0.509514 0.814970 0.343906
Si Si5 0.121654 0.563720 0.757750
O O1 0.112577 0.430118 0.330315
O O2 0.193659 0.984171 0.716284
O O3 0.031073 0.190473 0.413534
O O4 0.373661 0.849746 0.349170
O O5 0.984477 0.309170 0.047313
O O6 0.000000 0.000000 0.000000
O O7 0.498135 0.787572 0.583839
O O8 0.545711 0.857176 0.827125
O O9 0.246165 0.182705 0.814940
O O10 0.500000 0.500000 0.000000
O O11 0.720248 0.500499 0.312257
#
# Coordination Sequence:
#
# PCOD9045123 Si02
#       5
#     2   2   2   2   2
#     4  11  24  48  72 102 151 183 240 311 348 427
#     4  11  26  46  71 110 146 190 243 293 364 434
#     4   9  19  41  71 105 146 188 237 300 357 426
#     4   9  22  43  69 108 146 183 242 301 351 430
#     4  10  23  49  74 103 147 191 236 298 367 421
#
# _framework density 28.249182999999999
#
# number of rings (size 3 to 8) (size 9 to 14) (size 15 to 20)
#    1.200    0.800    0.000    3.000    0.000    4.800 
#    7.200    3.000    0.000    3.600    0.000    0.000 
#    0.000    0.000    0.000    0.000    0.000    0.000 
#
# Total GULP energy -55826.882923 kJ/mol
# GULP energy per Si atom -5582.688292 kJ/mol
# Density = 2.818489 g / cm^3
# Si number density = 28.249183 Si / 1000 Ang^3
#
#
#
# Elastic Constant Matrix: (Units=GPa)
#
#
# Indices 1 2 3 4 5 6 
#
# 1 123.0560 55.9499 29.4160 43.2812 6.4911 -32.5809
# 2 55.9499 141.0248 35.8611 7.3115 -0.8772 -2.6864
# 3 29.4160 35.8611 122.4327 32.3578 6.6665 -10.2549
# 4 43.2812 7.3115 32.3578 67.4378 -3.8612 -21.6355
# 5 6.4911 -0.8772 6.6665 -3.8612 45.4528 20.4879
# 6 -32.5809 -2.6864 -10.2549 -21.6355 20.4879 76.0076
#
#
#
# Elastic Compliance Matrix: (Units=1/GPa)
#
#
# Indices 1 2 3 4 5 6 
#
# 1 0.015147 -0.005763 0.000962 -0.008071 -0.005645 0.005643
# 2 -0.005763 0.009872 -0.002736 0.003370 0.002722 -0.002265
# 3 0.000962 -0.002736 0.010307 -0.005111 -0.002560 0.000942
# 4 -0.008071 0.003370 -0.005111 0.022790 0.003182 0.001599
# 5 -0.005645 0.002722 -0.002560 0.003182 0.027661 -0.009219
# 6 0.005643 -0.002265 0.000942 0.001599 -0.009219 0.018563
#
#
# Mechanical properties :
#
#
# Convention : Reuss Voigt Hill
#
# Bulk Modulus (GPa) = 49.37676 69.88527 59.63102
# Shear Modulus (GPa) = 39.63043 55.46542 47.54792
#
# Velocity S-wave (km/s) = 3.74958 4.43587 4.10709
# Velocity P-wave (km/s) = 6.02185 7.14343 6.60648
#
# Compressibility (1/GPa) = 0.02025244
#
# Stress axis : x y z
#
# Youngs Moduli (GPa) = 66.01756 101.29489 97.02238
#
# Poissons Ratio (x) = 0.58380 -0.09332
# Poissons Ratio (y) = 0.38048 0.26541
# Poissons Ratio (z) = -0.06350 0.27710
#
# Static dielectric constant tensor:
#      x y z
#    x 2.540030 -0.001470 -0.011080 
#    y -0.001470 2.257500 0.001130 
#    z -0.011080 0.001130 2.233880 
# 
# From -- ./inp_files/297577.got.cif
#   From: 2010.05.17/outbox.cif.g08.bks.cpg/sg2_149_cif.got.tgz:297577.got - 2010.06.03 11:33:40.
