data_PCOD9045053
_publ_section_title
;
Structure prediction by ZEFSAII (Michael W. Deem and Ramdas Pophale) SiO2 
 PCOD9045053
Probable space group: P -1
;
_chemical_formula_sum "Si O2"
_cell_formula_units_Z 16
_cell_length_a 7.793787
_cell_length_b 16.505328
_cell_length_c 5.269612
_cell_angle_alpha 70.342672
_cell_angle_beta 99.968897
_cell_angle_gamma 85.015612
_cell_volume 620.990193
_symmetry_space_group_name_H-M "P -1"
_symmetry_group_IT_number 2
_symmetry_cell_setting 'triclinic'
loop_
_space_group_symop_operation_xyz
x,y,z
-x,-y,-z
loop_
_atom_site_type_symbol
_atom_site_label
_atom_site_fract_x
_atom_site_fract_y
_atom_site_fract_z
Si Si1 0.599636 0.431613 0.402411
Si Si2 0.020798 0.305307 0.215245
Si Si3 0.509278 0.127426 0.761880
Si Si4 0.283562 0.000867 0.649550
Si Si5 0.274057 0.415871 0.971603
Si Si6 0.771026 0.745763 0.157864
Si Si7 0.254431 0.744548 0.469087
Si Si8 0.937461 0.077017 0.713585
O O1 0.731917 0.487627 0.239047
O O2 0.318493 0.338402 0.857359
O O3 0.712072 0.340300 0.609060
O O4 0.442887 0.407157 0.210180
O O5 0.120849 0.282808 0.530289
O O6 0.822860 0.290699 0.252673
O O7 0.088295 0.395711 0.057501
O O8 0.109673 0.245656 0.069529
O O9 0.426730 0.064690 0.615691
O O10 0.364004 0.169593 0.886996
O O11 0.571873 0.209485 0.551946
O O12 0.654379 0.065890 0.033343
O O13 0.104060 0.068405 0.581164
O O14 0.227956 0.943924 0.466845
O O15 0.500000 0.500000 0.500000
O O16 0.111795 0.828812 0.278359
O O17 0.000000 0.000000 0.000000
#
# Coordination Sequence:
#
# PCOD9045053 Si02
#       8
#     2   2   2   2   2   2   2   2
#     4  11  23  45  73 117 155 198 261 333 388 472
#     4  10  24  47  72 114 154 212 251 321 392 478
#     4  11  23  46  76 120 146 212 273 324 403 469
#     4  10  25  47  75 104 161 203 263 340 396 472
#     4   9  22  44  75 104 158 198 246 322 391 465
#     4  10  23  48  77 108 159 204 263 315 392 477
#     4  12  26  44  79 111 156 207 265 320 402 474
#     4  11  24  50  70 109 156 209 262 333 398 469
#
# _framework density 25.765304
#
# number of rings (size 3 to 8) (size 9 to 14) (size 15 to 20)
#    0.750    0.750    1.250    3.000    1.750    2.000 
#   13.500    1.250    0.000    0.000    0.000    0.000 
#    0.000    0.000    0.000    0.000    0.000    0.000 
#
# Total GULP energy -89358.754712 kJ/mol
# GULP energy per Si atom -5584.922169 kJ/mol
# Density = 2.570666 g / cm^3
# Si number density = 25.765304 Si / 1000 Ang^3
#
#
#
# Elastic Constant Matrix: (Units=GPa)
#
#
# Indices 1 2 3 4 5 6 
#
# 1 125.5305 63.7452 54.9802 1.7122 -33.9896 21.5797
# 2 63.7452 197.7794 69.7377 -14.5570 7.0895 4.0334
# 3 54.9802 69.7377 112.7990 -8.8614 -17.4740 22.7544
# 4 1.7122 -14.5570 -8.8614 55.3521 12.2728 -1.7325
# 5 -33.9896 7.0895 -17.4740 12.2728 54.6613 -2.5392
# 6 21.5797 4.0334 22.7544 -1.7325 -2.5392 60.2084
#
#
#
# Elastic Compliance Matrix: (Units=1/GPa)
#
#
# Indices 1 2 3 4 5 6 
#
# 1 0.014604 -0.004417 -0.002478 -0.004265 0.009647 -0.003718
# 2 -0.004417 0.008309 -0.004122 0.003003 -0.005703 0.002430
# 3 -0.002478 -0.004122 0.013944 0.000396 0.003178 -0.003960
# 4 -0.004265 0.003003 0.000396 0.020762 -0.007509 0.001459
# 5 0.009647 -0.005703 0.003178 -0.007509 0.027580 -0.003330
# 6 -0.003718 0.002430 -0.003960 0.001459 -0.003330 0.019177
#
#
# Mechanical properties :
#
#
# Convention : Reuss Voigt Hill
#
# Bulk Modulus (GPa) = 67.46440 90.33725 78.90082
# Shear Modulus (GPa) = 38.06615 50.55407 44.31011
#
# Velocity S-wave (km/s) = 3.84789 4.43436 4.15150
# Velocity P-wave (km/s) = 6.78106 7.83300 7.32593
#
# Compressibility (1/GPa) = 0.01482263
#
# Stress axis : x y z
#
# Youngs Moduli (GPa) = 68.47522 120.35073 71.71585
#
# Poissons Ratio (x) = 0.53159 0.17772
# Poissons Ratio (y) = 0.30246 0.29561
# Poissons Ratio (z) = 0.16969 0.49608
#
# Static dielectric constant tensor:
#      x y z
#    x 2.178200 -0.051170 -0.072800 
#    y -0.051170 2.006140 -0.000530 
#    z -0.072800 -0.000530 2.055290 
# 
# From -- ./inp_files/52215.got.cif
#   From: 2010.05.17/outbox.cif.g08.bks.cpg/sg2_27_cif.got.tgz:52215.got - 2010.06.03 11:33:40.
