data_PCOD9045498
_publ_section_title
;
Structure prediction by ZEFSAII (Michael W. Deem and Ramdas Pophale) SiO2 
 PCOD9045498
Probable space group: P -1
;
_chemical_formula_sum "Si O2"
_cell_formula_units_Z 15
_cell_length_a 17.509141
_cell_length_b 6.985746
_cell_length_c 10.562156
_cell_angle_alpha 102.279741
_cell_angle_beta 53.746402
_cell_angle_gamma 134.771123
_cell_volume 691.151998
_symmetry_space_group_name_H-M "P -1"
_symmetry_group_IT_number 2
_symmetry_cell_setting 'triclinic'
loop_
_space_group_symop_operation_xyz
x,y,z
-x,-y,-z
loop_
_atom_site_type_symbol
_atom_site_label
_atom_site_fract_x
_atom_site_fract_y
_atom_site_fract_z
Si Si1 0.027858 0.935611 0.333212
Si Si2 0.279952 0.044747 0.654960
Si Si3 0.451421 0.488099 0.907077
Si Si4 0.569068 0.429895 0.570149
Si Si5 0.000000 0.500000 0.000000
Si Si6 0.729311 0.352927 0.543500
Si Si7 0.724064 0.417498 0.860697
Si Si8 0.806229 0.173886 0.905757
O O1 0.101242 0.838071 0.268179
O O2 0.875974 0.662327 0.388267
O O3 0.137214 0.241180 0.198377
O O4 0.000000 0.000000 0.500000
O O5 0.268504 0.868922 0.528558
O O6 0.140248 0.812634 0.839976
O O7 0.420471 0.195855 0.613720
O O8 0.316086 0.315383 0.605046
O O9 0.559054 0.581616 0.709956
O O10 0.500000 0.500000 0.000000
O O11 0.405280 0.643860 0.977976
O O12 0.316100 0.148919 0.966402
O O13 0.610080 0.292682 0.579986
O O14 0.906166 0.401306 0.949943
O O15 0.719935 0.375452 0.706890
O O16 0.739157 0.240893 0.896759
#
# Coordination Sequence:
#
# PCOD9045498 Si02
#       8
#     2   2   2   2   1   2   2   2
#     4   9  21  39  61  99 138 168 224 284 342 407
#     4  11  26  46  69  97 136 187 233 281 348 405
#     4  11  23  45  69 102 145 175 230 290 345 421
#     4  11  25  46  68 101 142 179 227 287 345 415
#     4  12  24  50  70  98 136 188 238 288 334 412
#     4  11  22  41  69 100 136 177 228 281 347 413
#     4  10  24  40  69 106 131 183 226 282 356 408
#     4  11  24  44  69  98 139 182 233 288 342 410
#
# _framework density 21.702895999999999
#
# number of rings (size 3 to 8) (size 9 to 14) (size 15 to 20)
#    0.000    1.333    4.000    0.400    3.733    3.733 
#    4.800    3.333    0.000    0.000    0.000    0.000 
#    0.000    0.000    0.000    0.000    0.000    0.000 
#
# Total GULP energy -83505.083235 kJ/mol
# GULP energy per Si atom -5567.005549 kJ/mol
# Density = 2.165350 g / cm^3
# Si number density = 21.702896 Si / 1000 Ang^3
#
#
#
# Elastic Constant Matrix: (Units=GPa)
#
#
# Indices 1 2 3 4 5 6 
#
# 1 95.3082 22.0998 3.4380 -5.6654 5.6520 -7.4530
# 2 22.0998 55.7811 8.0555 -12.5007 6.5895 7.2508
# 3 3.4380 8.0555 66.3918 -21.6856 -1.0262 -9.1486
# 4 -5.6654 -12.5007 -21.6856 31.6553 -0.2760 -10.5492
# 5 5.6520 6.5895 -1.0262 -0.2760 17.8175 2.2734
# 6 -7.4530 7.2508 -9.1486 -10.5492 2.2734 41.5013
#
#
#
# Elastic Compliance Matrix: (Units=1/GPa)
#
#
# Indices 1 2 3 4 5 6 
#
# 1 0.012145 -0.004655 0.001291 0.002553 -0.002536 0.004067
# 2 -0.004655 0.022476 -0.000923 0.006355 -0.006408 -0.003000
# 3 0.001291 -0.000923 0.022632 0.018751 0.000233 0.010136
# 4 0.002553 0.006355 0.018751 0.053092 -0.003448 0.017166
# 5 -0.002536 -0.006408 0.000233 -0.003448 0.059697 -0.003431
# 6 0.004067 -0.003000 0.010136 0.017166 -0.003431 0.032136
#
#
# Mechanical properties :
#
#
# Convention : Reuss Voigt Hill
#
# Bulk Modulus (GPa) = 20.54269 31.62975 26.08622
# Shear Modulus (GPa) = 22.02855 30.45401 26.24128
#
# Velocity S-wave (km/s) = 3.18937 3.75003 3.48100
# Velocity P-wave (km/s) = 4.80091 5.77545 5.31058
#
# Compressibility (1/GPa) = 0.04867912
#
# Stress axis : x y z
#
# Youngs Moduli (GPa) = 82.33638 44.49220 44.18532
#
# Poissons Ratio (x) = 0.20712 -0.05704
# Poissons Ratio (y) = 0.38329 0.04077
# Poissons Ratio (z) = -0.10629 0.04105
#
# Static dielectric constant tensor:
#      x y z
#    x 1.761980 0.021240 -0.019470 
#    y 0.021240 1.836150 -0.003510 
#    z -0.019470 -0.003510 1.841650 
# 
# From -- ./inp_files/80489.got.cif
#   From: 2010.05.17/outbox.cif.g08.bks.cpg/sg2_41_cif.got.tgz:80489.got - 2010.06.03 11:33:40.
