data_PCOD9045064
_publ_section_title
;
Structure prediction by ZEFSAII (Michael W. Deem and Ramdas Pophale) SiO2 
 PCOD9045064
Probable space group: P -1
;
_chemical_formula_sum "Si O2"
_cell_formula_units_Z 16
_cell_length_a 9.354113
_cell_length_b 5.234844
_cell_length_c 30.315268
_cell_angle_alpha 108.157795
_cell_angle_beta 150.640603
_cell_angle_gamma 79.506511
_cell_volume 678.687848
_symmetry_space_group_name_H-M "P -1"
_symmetry_group_IT_number 2
_symmetry_cell_setting 'triclinic'
loop_
_space_group_symop_operation_xyz
x,y,z
-x,-y,-z
loop_
_atom_site_type_symbol
_atom_site_label
_atom_site_fract_x
_atom_site_fract_y
_atom_site_fract_z
Si Si1 0.643771 0.289113 0.304170
Si Si2 0.057251 0.442020 0.794863
Si Si3 0.275095 0.968979 0.043354
Si Si4 0.377504 0.257953 0.999493
Si Si5 0.356091 0.175956 0.788082
Si Si6 0.157145 0.540241 0.133801
Si Si7 0.092511 0.712708 0.496868
Si Si8 0.680174 0.899791 0.703313
O O1 0.370683 0.407185 0.215394
O O2 0.520194 0.130920 0.307481
O O3 0.903095 0.551354 0.397501
O O4 0.746839 0.068571 0.287452
O O5 0.924363 0.714733 0.767614
O O6 0.331932 0.497338 0.907291
O O7 0.140906 0.349865 0.763191
O O8 0.816000 0.200920 0.738582
O O9 0.534891 0.957567 0.146011
O O10 0.344964 0.208089 0.040552
O O11 0.138627 0.687188 0.967244
O O12 0.000000 0.000000 0.000000
O O13 0.033118 0.233282 0.890796
O O14 0.500000 0.000000 0.000000
O O15 0.639891 0.357199 0.848687
O O16 0.448303 0.767896 0.595487
O O17 0.000000 0.500000 0.500000
O O18 0.000000 0.000000 0.500000
#
# Coordination Sequence:
#
# PCOD9045064 Si02
#       8
#     2   2   2   2   2   2   2   2
#     4  11  27  44  82 110 138 189 257 303 364 445
#     4  12  28  48  74 105 156 197 240 300 382 432
#     4  12  22  44  65  98 145 195 242 299 358 423
#     4  12  29  44  67 106 149 197 251 302 364 436
#     4  12  26  45  72 107 146 201 245 299 363 448
#     4  12  25  43  71 102 148 189 255 297 358 427
#     4  10  23  48  79 111 144 186 246 311 375 434
#     4  11  27  51  75 110 148 193 244 314 374 433
#
# _framework density 23.574904
#
# number of rings (size 3 to 8) (size 9 to 14) (size 15 to 20)
#    0.000    0.500    3.750    3.375   10.500    1.500 
#    0.000    1.875    0.000    0.000    0.000    0.000 
#    0.000    0.000    0.000    0.000    0.000    0.000 
#
# Total GULP energy -89429.716815 kJ/mol
# GULP energy per Si atom -5589.357301 kJ/mol
# Density = 2.352125 g / cm^3
# Si number density = 23.574904 Si / 1000 Ang^3
#
#
#
# Elastic Constant Matrix: (Units=GPa)
#
#
# Indices 1 2 3 4 5 6 
#
# 1 107.5375 16.9863 4.9579 8.3666 -7.1415 -3.2914
# 2 16.9863 76.8245 10.3519 10.6986 -5.5351 -0.1248
# 3 4.9579 10.3519 122.4731 25.5390 -10.1268 -6.5257
# 4 8.3666 10.6986 25.5390 49.3521 -2.0508 1.6684
# 5 -7.1415 -5.5351 -10.1268 -2.0508 26.0489 9.9405
# 6 -3.2914 -0.1248 -6.5257 1.6684 9.9405 59.4419
#
#
#
# Elastic Compliance Matrix: (Units=1/GPa)
#
#
# Indices 1 2 3 4 5 6 
#
# 1 0.009837 -0.001866 0.000224 -0.001296 0.002196 0.000234
# 2 -0.001866 0.013983 -0.000447 -0.002375 0.002265 -0.000435
# 3 0.000224 -0.000447 0.009467 -0.004738 0.003014 0.000680
# 4 -0.001296 -0.002375 -0.004738 0.023472 -0.000400 -0.001189
# 5 0.002196 0.002265 0.003014 -0.000400 0.043190 -0.006754
# 6 0.000234 -0.000435 0.000680 -0.001189 -0.006754 0.018073
#
#
# Mechanical properties :
#
#
# Convention : Reuss Voigt Hill
#
# Bulk Modulus (GPa) = 34.35453 41.26969 37.81211
# Shear Modulus (GPa) = 37.90618 45.27119 41.58869
#
# Velocity S-wave (km/s) = 4.01422 4.38689 4.20469
# Velocity P-wave (km/s) = 6.00745 6.57294 6.29654
#
# Compressibility (1/GPa) = 0.02910825
#
# Stress axis : x y z
#
# Youngs Moduli (GPa) = 101.65332 71.51685 105.62747
#
# Poissons Ratio (x) = 0.13347 -0.02363
# Poissons Ratio (y) = 0.18971 0.04722
# Poissons Ratio (z) = -0.02274 0.03197
#
# Static dielectric constant tensor:
#      x y z
#    x 1.905530 -0.096760 -0.046110 
#    y -0.096760 0.995410 -0.377260 
#    z -0.046110 -0.377260 1.810250 
# 
# From -- ./inp_files/622242.got.cif
#   From: 2010.05.17/outbox.cif.g08.bks.cpg/sg2_312_cif.got.tgz:622242.got - 2010.06.03 11:33:40.
