data_PCOD9045012
_publ_section_title
;
Structure prediction by ZEFSAII (Michael W. Deem and Ramdas Pophale) SiO2 
 PCOD9045012
Probable space group: P -1
;
_chemical_formula_sum "Si O2"
_cell_formula_units_Z 16
_cell_length_a 5.617978
_cell_length_b 19.397816
_cell_length_c 8.791941
_cell_angle_alpha 46.462942
_cell_angle_beta 79.041713
_cell_angle_gamma 80.709456
_cell_volume 681.274101
_symmetry_space_group_name_H-M "P -1"
_symmetry_group_IT_number 2
_symmetry_cell_setting 'triclinic'
loop_
_space_group_symop_operation_xyz
x,y,z
-x,-y,-z
loop_
_atom_site_type_symbol
_atom_site_label
_atom_site_fract_x
_atom_site_fract_y
_atom_site_fract_z
Si Si1 0.343687 0.220562 0.515480
Si Si2 0.035807 0.574105 0.561194
Si Si3 0.436748 0.017487 0.661138
Si Si4 0.952173 0.944158 0.749583
Si Si5 0.627404 0.588264 0.271680
Si Si6 0.346011 0.537078 0.103865
Si Si7 0.839303 0.749255 0.169950
Si Si8 0.152453 0.670519 0.696799
O O1 0.263133 0.209165 0.720235
O O2 0.603593 0.270549 0.409379
O O3 0.104752 0.273693 0.387997
O O4 0.388702 0.124843 0.558303
O O5 0.758916 0.557449 0.665912
O O6 0.042828 0.667602 0.315908
O O7 0.111347 0.466789 0.671104
O O8 0.178269 0.600297 0.655606
O O9 0.679653 0.979109 0.775879
O O10 0.181586 0.967379 0.791036
O O11 0.500000 0.000000 0.500000
O O12 0.936776 0.830254 0.926041
O O13 0.000000 0.000000 0.500000
O O14 0.500000 0.500000 0.500000
O O15 0.504245 0.594805 0.113610
O O16 0.641169 0.688074 0.200801
O O17 0.500000 0.500000 0.000000
O O18 0.143494 0.606991 0.944773
#
# Coordination Sequence:
#
# PCOD9045012 Si02
#       8
#     2   2   2   2   2   2   2   2
#     4  11  25  46  73 110 146 192 251 303 375 457
#     4  11  24  45  67 101 154 195 250 298 362 444
#     4  10  23  48  73 101 144 180 237 316 380 444
#     4  10  24  47  74 105 142 182 246 311 380 450
#     4  12  25  44  69 102 156 199 255 300 364 439
#     4  12  24  43  69 101 145 203 252 305 358 422
#     4  11  25  45  72 107 146 202 244 307 374 442
#     4  11  24  42  72 110 149 192 250 300 360 437
#
# _framework density 23.485405
#
# number of rings (size 3 to 8) (size 9 to 14) (size 15 to 20)
#    0.000    1.000    2.500    3.750    1.750    6.000 
#    4.500    0.000    0.000    0.000    0.000    0.000 
#    0.000    0.000    0.000    0.000    0.000    0.000 
#
# Total GULP energy -89274.010520 kJ/mol
# GULP energy per Si atom -5579.625658 kJ/mol
# Density = 2.343195 g / cm^3
# Si number density = 23.485405 Si / 1000 Ang^3
#
#
#
# Elastic Constant Matrix: (Units=GPa)
#
#
# Indices 1 2 3 4 5 6 
#
# 1 168.5877 39.0811 40.6617 -11.5965 5.6236 15.4311
# 2 39.0811 143.0815 38.9384 -12.4583 4.0111 21.0536
# 3 40.6617 38.9384 135.8289 -12.8957 2.2052 11.1431
# 4 -11.5965 -12.4583 -12.8957 28.3088 8.0895 1.0403
# 5 5.6236 4.0111 2.2052 8.0895 43.2553 -5.7169
# 6 15.4311 21.0536 11.1431 1.0403 -5.7169 38.6591
#
#
#
# Elastic Compliance Matrix: (Units=1/GPa)
#
#
# Indices 1 2 3 4 5 6 
#
# 1 0.006881 -0.000959 -0.001375 0.002258 -0.001435 -0.002101
# 2 -0.000959 0.008626 -0.001486 0.003395 -0.001795 -0.004243
# 3 -0.001375 -0.001486 0.008608 0.002998 -0.000859 -0.001331
# 4 0.002258 0.003395 0.002998 0.042031 -0.009433 -0.006140
# 5 -0.001435 -0.001795 -0.000859 -0.009433 0.026060 0.005906
# 6 -0.002101 -0.004243 -0.001331 -0.006140 0.005906 0.030439
#
#
# Mechanical properties :
#
#
# Convention : Reuss Voigt Hill
#
# Bulk Modulus (GPa) = 60.70222 76.09560 68.39891
# Shear Modulus (GPa) = 36.82547 43.96579 40.39563
#
# Velocity S-wave (km/s) = 3.96411 4.33141 4.15183
# Velocity P-wave (km/s) = 6.84508 7.58198 7.22293
#
# Compressibility (1/GPa) = 0.01647386
#
# Stress axis : x y z
#
# Youngs Moduli (GPa) = 145.32532 115.93195 116.17712
#
# Poissons Ratio (x) = 0.11122 0.15973
# Poissons Ratio (y) = 0.13942 0.17264
# Poissons Ratio (z) = 0.19981 0.17227
#
# Static dielectric constant tensor:
#      x y z
#    x -0.234880 1.305040 0.483000 
#    y 1.305040 1.097190 -0.263170 
#    z 0.483000 -0.263170 1.823210 
# 
# From -- ./inp_files/138517.got.cif
#   From: 2010.05.17/outbox.cif.g08.bks.cpg/sg2_70_cif.got.tgz:138517.got - 2010.06.03 11:33:40.
