data_PCOD9045276
_publ_section_title
;
Structure prediction by ZEFSAII (Michael W. Deem and Ramdas Pophale) SiO2 
 PCOD9045276
Probable space group: P -1
;
_chemical_formula_sum "Si O2"
_cell_formula_units_Z 16
_cell_length_a 9.466112
_cell_length_b 9.467768
_cell_length_c 8.926975
_cell_angle_alpha 84.428770
_cell_angle_beta 99.163896
_cell_angle_gamma 97.917852
_cell_volume 780.007037
_symmetry_space_group_name_H-M "P -1"
_symmetry_group_IT_number 2
_symmetry_cell_setting 'triclinic'
loop_
_space_group_symop_operation_xyz
x,y,z
-x,-y,-z
loop_
_atom_site_type_symbol
_atom_site_label
_atom_site_fract_x
_atom_site_fract_y
_atom_site_fract_z
Si Si1 0.912566 0.860736 0.073800
Si Si2 0.058818 0.844729 0.397558
Si Si3 0.689796 0.376400 0.990453
Si Si4 0.841884 0.434272 0.698684
Si Si5 0.986557 0.308149 0.127045
Si Si6 0.636469 0.676035 0.096963
Si Si7 0.641799 0.604789 0.460694
Si Si8 0.170454 0.151641 0.386635
O O1 0.742643 0.813714 0.047841
O O2 0.945991 0.883624 0.251245
O O3 0.985002 0.723617 0.039548
O O4 0.000000 0.000000 0.000000
O O5 0.112901 0.702072 0.363382
O O6 0.964888 0.824843 0.531882
O O7 0.178363 0.982771 0.409819
O O8 0.812581 0.297653 0.102185
O O9 0.686797 0.536199 0.039141
O O10 0.729897 0.389906 0.819589
O O11 0.525560 0.307186 0.980634
O O12 0.772056 0.520596 0.546389
O O13 0.959594 0.545624 0.793371
O O14 0.102650 0.205828 0.217642
O O15 0.641110 0.642957 0.280270
O O16 0.500000 0.500000 0.500000
O O17 0.684472 0.752506 0.545654
#
# Coordination Sequence:
#
# PCOD9045276 Si02
#       8
#     2   2   2   2   2   2   2   2
#     4  12  22  40  68  92 129 174 213 263 323 386
#     4  11  22  40  62  94 127 166 215 271 318 375
#     4  11  22  38  64  96 131 161 210 275 321 375
#     4  11  22  37  66  97 128 164 220 269 317 376
#     4  11  22  38  64  98 124 166 223 268 311 378
#     4  11  24  41  63  96 133 168 211 264 330 378
#     4  11  23  41  65  93 130 170 212 261 320 386
#     4  10  24  39  63  92 129 167 217 262 321 384
#
# _framework density 20.512637000000002
#
# number of rings (size 3 to 8) (size 9 to 14) (size 15 to 20)
#    0.000    1.000    6.250    1.125    1.750    1.000 
#    0.000    1.250    0.000    0.000    0.000    0.000 
#    0.000    0.000    0.000    0.000    0.000    0.000 
#
# Total GULP energy -89096.699702 kJ/mol
# GULP energy per Si atom -5568.543731 kJ/mol
# Density = 2.046595 g / cm^3
# Si number density = 20.512637 Si / 1000 Ang^3
#
#
#
# Elastic Constant Matrix: (Units=GPa)
#
#
# Indices 1 2 3 4 5 6 
#
# 1 114.2048 44.4903 13.4412 5.0642 6.4634 34.7706
# 2 44.4903 110.8269 20.8582 17.0319 5.7006 29.7714
# 3 13.4412 20.8582 51.5759 7.9058 -4.4996 4.8199
# 4 5.0642 17.0319 7.9058 32.6443 4.4782 -3.2586
# 5 6.4634 5.7006 -4.4996 4.4782 20.9604 4.2331
# 6 34.7706 29.7714 4.8199 -3.2586 4.2331 35.2667
#
#
#
# Elastic Compliance Matrix: (Units=1/GPa)
#
#
# Indices 1 2 3 4 5 6 
#
# 1 0.013205 -0.001575 -0.001562 -0.001822 -0.001269 -0.011493
# 2 -0.001575 0.014318 -0.003263 -0.007459 -0.000347 -0.010736
# 3 -0.001562 -0.003263 0.022429 -0.004471 0.007148 -0.000041
# 4 -0.001822 -0.007459 -0.004471 0.038502 -0.009297 0.013378
# 5 -0.001269 -0.000347 0.007148 -0.009297 0.053061 -0.006661
# 6 -0.011493 -0.010736 -0.000041 0.013378 -0.006661 0.050791
#
#
# Mechanical properties :
#
#
# Convention : Reuss Voigt Hill
#
# Bulk Modulus (GPa) = 26.91703 48.24300 37.58001
# Shear Modulus (GPa) = 22.98978 30.96212 26.97595
#
# Velocity S-wave (km/s) = 3.35141 3.88934 3.63035
# Velocity P-wave (km/s) = 5.30345 6.61355 5.99440
#
# Compressibility (1/GPa) = 0.03715121
#
# Stress axis : x y z
#
# Youngs Moduli (GPa) = 75.72841 69.84449 44.58580
#
# Poissons Ratio (x) = 0.10997 0.06964
# Poissons Ratio (y) = 0.11924 0.14551
# Poissons Ratio (z) = 0.11829 0.22794
#
# Static dielectric constant tensor:
#      x y z
#    x 1.734190 0.034620 0.002110 
#    y 0.034620 1.814710 -0.033070 
#    z 0.002110 -0.033070 1.763550 
# 
# From -- ./inp_files/158718.got.cif
#   From: 2010.05.17/outbox.cif.g08.bks.cpg/sg2_80_cif.got.tgz:158718.got - 2010.06.03 11:33:40.
