data_PCOD9045602
_publ_section_title
;
Structure prediction by ZEFSAII (Michael W. Deem and Ramdas Pophale) SiO2 
 PCOD9045602
Probable space group: P -1
;
_chemical_formula_sum "Si O2"
_cell_formula_units_Z 16
_cell_length_a 18.010844
_cell_length_b 9.752156
_cell_length_c 6.639499
_cell_angle_alpha 45.742679
_cell_angle_beta 68.578136
_cell_angle_gamma 62.206839
_cell_volume 737.424330
_symmetry_space_group_name_H-M "P -1"
_symmetry_group_IT_number 2
_symmetry_cell_setting 'triclinic'
loop_
_space_group_symop_operation_xyz
x,y,z
-x,-y,-z
loop_
_atom_site_type_symbol
_atom_site_label
_atom_site_fract_x
_atom_site_fract_y
_atom_site_fract_z
Si Si1 0.476898 0.327526 0.082339
Si Si2 0.646323 0.384324 0.405293
Si Si3 0.344408 0.355522 0.498064
Si Si4 0.090342 0.507840 0.472416
Si Si5 0.780539 0.342936 0.987745
Si Si6 0.584198 0.037456 0.969609
Si Si7 0.016267 0.884233 0.393858
Si Si8 0.872638 0.929261 0.186256
O O1 0.422481 0.256983 0.372537
O O2 0.500000 0.500000 0.000000
O O3 0.419661 0.442656 0.836180
O O4 0.553746 0.160117 0.080021
O O5 0.644646 0.474306 0.536384
O O6 0.618349 0.184060 0.646762
O O7 0.734535 0.350816 0.237172
O O8 0.272517 0.480326 0.289653
O O9 0.344493 0.172208 0.832481
O O10 0.129168 0.621119 0.149711
O O11 0.074594 0.649998 0.540857
O O12 0.143070 0.271830 0.671219
O O13 0.000000 0.500000 0.500000
O O14 0.792674 0.124484 0.101724
O O15 0.500000 0.000000 0.000000
O O16 0.926763 0.891858 0.377855
O O17 0.000000 0.000000 0.500000
O O18 0.065244 0.007221 0.090756
#
# Coordination Sequence:
#
# PCOD9045602 Si02
#       8
#     2   2   2   2   2   2   2   2
#     4  11  21  42  68  92 128 168 212 271 324 381
#     4  11  24  42  61  94 134 167 211 272 327 380
#     4  11  24  41  61  96 131 171 216 267 327 388
#     4   9  19  40  66  93 124 162 216 264 312 378
#     4  10  24  41  62  90 134 176 209 265 331 389
#     4  12  23  41  70  96 126 169 222 269 319 381
#     4   9  18  34  62  96 121 158 205 261 318 374
#     4   9  19  38  59  86 126 164 205 259 315 379
#
# _framework density 21.697139
#
# number of rings (size 3 to 8) (size 9 to 14) (size 15 to 20)
#    0.000    1.750    2.500    2.250    0.000    4.500 
#    0.000    2.500    0.000    0.000    0.000    0.000 
#    0.000    0.000    0.000    0.000    0.000    0.000 
#
# Total GULP energy -89228.430944 kJ/mol
# GULP energy per Si atom -5576.776934 kJ/mol
# Density = 2.164776 g / cm^3
# Si number density = 21.697139 Si / 1000 Ang^3
#
#
#
# Elastic Constant Matrix: (Units=GPa)
#
#
# Indices 1 2 3 4 5 6 
#
# 1 40.4249 30.0578 26.2120 10.0704 -16.6115 4.3688
# 2 30.0578 150.3349 44.4140 -12.8463 -9.7030 10.2370
# 3 26.2120 44.4140 94.2471 -10.9395 -18.4346 2.9615
# 4 10.0704 -12.8463 -10.9395 44.0596 6.0692 2.9776
# 5 -16.6115 -9.7030 -18.4346 6.0692 26.3738 -1.3836
# 6 4.3688 10.2370 2.9615 2.9776 -1.3836 31.0526
#
#
#
# Elastic Compliance Matrix: (Units=1/GPa)
#
#
# Indices 1 2 3 4 5 6 
#
# 1 0.053092 -0.008191 -0.007402 -0.020429 0.029913 -0.000771
# 2 -0.008191 0.009256 -0.002360 0.004780 -0.004626 -0.002338
# 3 -0.007402 -0.002360 0.015050 0.004173 0.004038 0.000164
# 4 -0.020429 0.004780 0.004173 0.032159 -0.015744 -0.002885
# 5 0.029913 -0.004626 0.004038 -0.015744 0.061562 0.001184
# 6 -0.000771 -0.002338 0.000164 -0.002885 0.001184 0.033397
#
#
# Mechanical properties :
#
#
# Convention : Reuss Voigt Hill
#
# Bulk Modulus (GPa) = 24.10130 54.04162 39.07146
# Shear Modulus (GPa) = 19.66544 32.58540 26.12542
#
# Velocity S-wave (km/s) = 3.01385 3.87955 3.47377
# Velocity P-wave (km/s) = 4.82112 6.71038 5.84262
#
# Compressibility (1/GPa) = 0.04149154
#
# Stress axis : x y z
#
# Youngs Moduli (GPa) = 18.83536 108.03891 66.44358
#
# Poissons Ratio (x) = 0.88492 0.49182
# Poissons Ratio (y) = 0.15428 0.15683
# Poissons Ratio (z) = 0.13942 0.25501
#
# Static dielectric constant tensor:
#      x y z
#    x 1.858910 -0.025140 0.047210 
#    y -0.025140 1.834120 0.017130 
#    z 0.047210 0.017130 1.945030 
# 
# From -- ./inp_files/116518.got.cif
#   From: 2010.05.17/outbox.cif.g08.bks.cpg/sg2_59_cif.got.tgz:116518.got - 2010.06.03 11:33:40.
