data_PCOD9045052
_publ_section_title
;
Structure prediction by ZEFSAII (Michael W. Deem and Ramdas Pophale) SiO2 
 PCOD9045052
Probable space group: P -1
;
_chemical_formula_sum "Si O2"
_cell_formula_units_Z 14
_cell_length_a 20.876203
_cell_length_b 5.169431
_cell_length_c 7.977335
_cell_angle_alpha 93.117142
_cell_angle_beta 43.576930
_cell_angle_gamma 112.731024
_cell_volume 511.746767
_symmetry_space_group_name_H-M "P -1"
_symmetry_group_IT_number 2
_symmetry_cell_setting 'triclinic'
loop_
_space_group_symop_operation_xyz
x,y,z
-x,-y,-z
loop_
_atom_site_type_symbol
_atom_site_label
_atom_site_fract_x
_atom_site_fract_y
_atom_site_fract_z
Si Si1 0.769594 0.809920 0.097642
Si Si2 0.074702 0.294370 0.980467
Si Si3 0.811805 0.409652 0.533173
Si Si4 0.587488 0.348139 0.853337
Si Si5 0.592708 0.710517 0.635290
Si Si6 0.439937 0.673923 0.682481
Si Si7 0.889611 0.052003 0.562189
O O1 0.826719 0.726310 0.129335
O O2 0.692131 0.916174 0.337324
O O3 0.685015 0.535112 0.127549
O O4 0.864644 0.038038 0.804880
O O5 0.123239 0.558266 0.761153
O O6 0.003451 0.288353 0.271866
O O7 0.000000 0.000000 0.000000
O O8 0.698575 0.374953 0.699552
O O9 0.808765 0.144784 0.635676
O O10 0.870595 0.726695 0.532914
O O11 0.591223 0.395768 0.630434
O O12 0.396168 0.306423 0.187011
O O13 0.500000 0.000000 0.000000
O O14 0.476020 0.677567 0.811878
O O15 0.500000 0.500000 0.500000
O O16 0.500000 0.000000 0.500000
#
# Coordination Sequence:
#
# PCOD9045052 Si02
#       7
#     2   2   2   2   2   2   2
#     4  11  23  46  74 109 146 196 238 304 371 428
#     4  10  23  48  77 108 145 193 249 308 364 431
#     4  11  25  48  72 106 145 194 238 299 365 431
#     4  11  25  39  69 102 144 189 243 289 359 441
#     4  10  24  42  64 103 144 185 238 290 354 435
#     4  10  24  42  66 100 145 184 232 283 354 430
#     4  11  26  47  74 106 143 188 248 304 360 430
#
# _framework density 27.357277
#
# number of rings (size 3 to 8) (size 9 to 14) (size 15 to 20)
#    0.000    1.429    1.429    1.714   10.000    3.429 
#    0.000   15.000    0.000    0.000    0.000    0.000 
#    0.000    0.000    0.000    0.000    0.000    0.000 
#
# Total GULP energy -77993.884071 kJ/mol
# GULP energy per Si atom -5570.991719 kJ/mol
# Density = 2.729501 g / cm^3
# Si number density = 27.357277 Si / 1000 Ang^3
#
#
#
# Elastic Constant Matrix: (Units=GPa)
#
#
# Indices 1 2 3 4 5 6 
#
# 1 143.0343 44.1099 15.2029 -6.3408 -9.9444 -12.3865
# 2 44.1099 102.5849 12.9321 -1.3938 5.0233 0.3405
# 3 15.2029 12.9321 174.8351 25.3678 17.0747 4.8371
# 4 -6.3408 -1.3938 25.3678 27.7383 -9.1337 -1.2094
# 5 -9.9444 5.0233 17.0747 -9.1337 58.5008 -4.3339
# 6 -12.3865 0.3405 4.8371 -1.2094 -4.3339 44.4932
#
#
#
# Elastic Compliance Matrix: (Units=1/GPa)
#
#
# Indices 1 2 3 4 5 6 
#
# 1 0.009026 -0.003793 -0.001564 0.004512 0.003255 0.003152
# 2 -0.003793 0.011486 -0.000199 -0.000754 -0.001788 -0.001317
# 3 -0.001564 -0.000199 0.007566 -0.008669 -0.003950 -0.001877
# 4 0.004512 -0.000754 -0.008669 0.048910 0.011342 0.004639
# 5 0.003255 -0.001788 -0.003950 0.011342 0.020998 0.003703
# 6 0.003152 -0.001317 -0.001877 0.004639 0.003703 0.024054
#
#
# Mechanical properties :
#
#
# Convention : Reuss Voigt Hill
#
# Bulk Modulus (GPa) = 58.94209 62.77156 60.85682
# Shear Modulus (GPa) = 36.02105 49.36042 42.69073
#
# Velocity S-wave (km/s) = 3.63256 4.25230 3.95459
# Velocity P-wave (km/s) = 6.25988 6.86326 6.56850
#
# Compressibility (1/GPa) = 0.01696581
#
# Stress axis : x y z
#
# Youngs Moduli (GPa) = 110.78635 87.06570 132.17079
#
# Poissons Ratio (x) = 0.33020 0.20673
# Poissons Ratio (y) = 0.42016 0.02635
# Poissons Ratio (z) = 0.17328 0.01736
#
# Static dielectric constant tensor:
#      x y z
#    x 4.371070 2.517210 2.533240 
#    y 2.517210 4.874540 3.051610 
#    z 2.533240 3.051610 5.554270 
# 
# From -- ./inp_files/340306.got.cif
#   From: 2010.05.17/outbox.cif.g08.bks.cpg/sg2_171_cif.got.tgz:340306.got - 2010.06.03 11:33:40.
