data_PCOD9045154
_publ_section_title
;
Structure prediction by ZEFSAII (Michael W. Deem and Ramdas Pophale) SiO2 
 PCOD9045154
Probable space group: P -1
;
_chemical_formula_sum "Si O2"
_cell_formula_units_Z 14
_cell_length_a 10.611151
_cell_length_b 21.893069
_cell_length_c 7.312788
_cell_angle_alpha 36.452202
_cell_angle_beta 42.745189
_cell_angle_gamma 30.358668
_cell_volume 505.526649
_symmetry_space_group_name_H-M "P -1"
_symmetry_group_IT_number 2
_symmetry_cell_setting 'triclinic'
loop_
_space_group_symop_operation_xyz
x,y,z
-x,-y,-z
loop_
_atom_site_type_symbol
_atom_site_label
_atom_site_fract_x
_atom_site_fract_y
_atom_site_fract_z
Si Si1 0.293842 0.774890 0.296666
Si Si2 0.269126 0.945835 0.403579
Si Si3 0.440590 0.666631 0.810161
Si Si4 0.980402 0.393532 0.861575
Si Si5 0.915224 0.781485 0.176947
Si Si6 0.260287 0.019042 0.660781
Si Si7 0.777661 0.659510 0.898956
O O1 0.375900 0.694422 0.594656
O O2 0.201893 0.711890 0.064697
O O3 0.260236 0.911224 0.031745
O O4 0.521374 0.690084 0.113956
O O5 0.459507 0.781063 0.562019
O O6 0.268213 0.979396 0.535465
O O7 0.000000 0.000000 0.500000
O O8 0.268626 0.052091 0.036469
O O9 0.688160 0.506168 0.962946
O O10 0.000000 0.500000 0.500000
O O11 0.058125 0.283329 0.892049
O O12 0.169018 0.318725 0.008093
O O13 0.813247 0.739959 0.530925
O O14 0.026027 0.831892 0.375974
O O15 0.500000 0.000000 0.500000
O O16 0.000000 0.500000 0.000000
#
# Coordination Sequence:
#
# PCOD9045154 Si02
#       7
#     2   2   2   2   2   2   2
#     4  11  25  49  80 116 170 215 278 352 428 492
#     4  10  23  49  82 120 168 219 281 357 427 504
#     4  11  24  51  82 116 170 223 275 357 422 507
#     4  12  25  47  82 113 168 222 280 350 424 501
#     4  11  25  50  80 122 160 221 287 338 432 519
#     4  11  26  49  82 121 163 224 283 350 430 510
#     4  12  27  49  80 122 166 224 282 350 419 513
#
# _framework density 27.693892999999999
#
# number of rings (size 3 to 8) (size 9 to 14) (size 15 to 20)
#    0.000    0.857    5.714    0.429    4.000    1.714 
#    7.714    2.143    0.000    0.000    0.000    0.000 
#    0.000    0.000    0.000    0.000    0.000    0.000 
#
# Total GULP energy -78595.727566 kJ/mol
# GULP energy per Si atom -5613.980540 kJ/mol
# Density = 2.763086 g / cm^3
# Si number density = 27.693893 Si / 1000 Ang^3
#
#
#
# Elastic Constant Matrix: (Units=GPa)
#
#
# Indices 1 2 3 4 5 6 
#
# 1 218.6752 64.0742 53.6488 14.5165 -18.6093 -21.4294
# 2 64.0742 156.5088 26.0346 2.3571 -13.7281 -5.6133
# 3 53.6488 26.0346 141.3476 17.8280 -15.8979 4.9415
# 4 14.5165 2.3571 17.8280 47.1583 0.5547 -11.0856
# 5 -18.6093 -13.7281 -15.8979 0.5547 43.1310 9.8005
# 6 -21.4294 -5.6133 4.9415 -11.0856 9.8005 70.0291
#
#
#
# Elastic Compliance Matrix: (Units=1/GPa)
#
#
# Indices 1 2 3 4 5 6 
#
# 1 0.005842 -0.001960 -0.001715 -0.000708 0.000931 0.001509
# 2 -0.001960 0.007385 -0.000512 0.000389 0.001333 -0.000097
# 3 -0.001715 -0.000512 0.008612 -0.003222 0.002784 -0.002073
# 4 -0.000708 0.000389 -0.003222 0.023628 -0.002616 0.004148
# 5 0.000931 0.001333 0.002784 -0.002616 0.025946 -0.003850
# 6 0.001509 -0.000097 -0.002073 0.004148 -0.003850 0.016076
#
#
# Mechanical properties :
#
#
# Convention : Reuss Voigt Hill
#
# Bulk Modulus (GPa) = 74.26970 89.33852 81.80411
# Shear Modulus (GPa) = 49.82525 56.91526 53.37026
#
# Velocity S-wave (km/s) = 4.24623 4.53830 4.39469
# Velocity P-wave (km/s) = 7.13561 7.73246 7.44002
#
# Compressibility (1/GPa) = 0.01346444
#
# Stress axis : x y z
#
# Youngs Moduli (GPa) = 171.16762 135.41666 116.11570
#
# Poissons Ratio (x) = 0.26542 0.19916
# Poissons Ratio (y) = 0.33549 0.05946
# Poissons Ratio (z) = 0.29358 0.06934
#
# Static dielectric constant tensor:
#      x y z
#    x 2.245110 -0.004280 -0.003940 
#    y -0.004280 2.205610 -0.017330 
#    z -0.003940 -0.017330 2.140680 
# 
# From -- ./inp_files/81070.got.cif
#   From: 2010.05.17/outbox.cif.g08.bks.cpg/sg2_41_cif.got.tgz:81070.got - 2010.06.03 11:33:40.
