data_PCOD9045493
_publ_section_title
;
Structure prediction by ZEFSAII (Michael W. Deem and Ramdas Pophale) SiO2 
 PCOD9045493
Probable space group: P -1
;
_chemical_formula_sum "Si O2"
_cell_formula_units_Z 10
_cell_length_a 9.412242
_cell_length_b 6.852617
_cell_length_c 12.174591
_cell_angle_alpha 90.884392
_cell_angle_beta 29.244722
_cell_angle_gamma 93.551997
_cell_volume 381.683185
_symmetry_space_group_name_H-M "P -1"
_symmetry_group_IT_number 2
_symmetry_cell_setting 'triclinic'
loop_
_space_group_symop_operation_xyz
x,y,z
-x,-y,-z
loop_
_atom_site_type_symbol
_atom_site_label
_atom_site_fract_x
_atom_site_fract_y
_atom_site_fract_z
Si Si1 0.781115 0.594138 0.954696
Si Si2 0.961142 0.744228 0.146238
Si Si3 0.970397 0.100613 0.654485
Si Si4 0.210349 0.299007 0.292819
Si Si5 0.591152 0.931417 0.240816
O O1 0.492917 0.439383 0.138057
O O2 0.687423 0.786909 0.078863
O O3 0.890954 0.630869 0.756700
O O4 0.011807 0.486233 0.868792
O O5 0.036189 0.812677 0.220229
O O6 0.662659 0.816851 0.302906
O O7 0.202708 0.865375 0.908329
O O8 0.004805 0.266824 0.538212
O O9 0.266320 0.989965 0.454180
O O10 0.731363 0.925673 0.777769
#
# Coordination Sequence:
#
# PCOD9045493 Si02
#       5
#     2   2   2   2   2
#     4  11  23  44  68  98 127 175 210 270 320 385
#     4  11  24  44  67  95 133 171 214 267 322 380
#     4  11  23  44  68  98 127 175 210 270 320 385
#     4  10  24  40  68  98 132 166 218 262 326 382
#     4  11  24  44  67  95 133 171 214 267 322 380
#
# _framework density 26.199741
#
# number of rings (size 3 to 8) (size 9 to 14) (size 15 to 20)
#    0.000    1.200    4.000    1.200    0.000   11.200 
#    0.000    2.000    0.000    0.000    0.000    0.000 
#    0.000    0.000    0.000    0.000    0.000    0.000 
#
# Total GULP energy -55995.384013 kJ/mol
# GULP energy per Si atom -5599.538401 kJ/mol
# Density = 2.614011 g / cm^3
# Si number density = 26.199741 Si / 1000 Ang^3
#
#
#
# Elastic Constant Matrix: (Units=GPa)
#
#
# Indices 1 2 3 4 5 6 
#
# 1 119.6326 35.8662 27.6056 -4.3765 25.1287 -14.9768
# 2 35.8662 132.5979 45.0076 4.2330 2.7222 -18.9362
# 3 27.6056 45.0076 41.8151 -10.1455 9.8932 -10.2943
# 4 -4.3765 4.2330 -10.1455 55.2720 -9.5865 5.2124
# 5 25.1287 2.7222 9.8932 -9.5865 44.3949 -1.1668
# 6 -14.9768 -18.9362 -10.2943 5.2124 -1.1668 60.7088
#
#
#
# Elastic Compliance Matrix: (Units=1/GPa)
#
#
# Indices 1 2 3 4 5 6 
#
# 1 0.011041 -0.000976 -0.004842 -0.001006 -0.005286 0.001583
# 2 -0.000976 0.012948 -0.014234 -0.003457 0.002229 0.001724
# 3 -0.004842 -0.014234 0.045885 0.008167 -0.004813 0.001353
# 4 -0.001006 -0.003457 0.008167 0.020512 0.003348 -0.001639
# 5 -0.005286 0.002229 -0.004813 0.003348 0.027145 -0.001191
# 6 0.001583 0.001724 0.001353 -0.001639 -0.001191 0.017748
#
#
# Mechanical properties :
#
#
# Convention : Reuss Voigt Hill
#
# Bulk Modulus (GPa) = 33.59106 56.77828 45.18467
# Shear Modulus (GPa) = 26.98274 44.44621 35.71448
#
# Velocity S-wave (km/s) = 3.21266 4.12325 3.69611
# Velocity P-wave (km/s) = 5.15855 6.66233 5.95807
#
# Compressibility (1/GPa) = 0.02976983
#
# Stress axis : x y z
#
# Youngs Moduli (GPa) = 90.57529 77.23316 21.79367
#
# Poissons Ratio (x) = 0.07540 0.10552
# Poissons Ratio (y) = 0.08842 0.31021
# Poissons Ratio (z) = 0.43854 1.09932
#
# Static dielectric constant tensor:
#      x y z
#    x 2.074960 -0.001420 0.001860 
#    y -0.001420 2.081680 0.007630 
#    z 0.001860 0.007630 2.046870 
# 
# From -- ./inp_files/17949.got.cif
#   From: 2010.05.17/outbox.cif.g08.bks.cpg/sg2_9_cif.got.tgz:17949.got - 2010.06.03 11:33:40.
