data_PCOD9045831
_publ_section_title
;
Structure prediction by ZEFSAII (Michael W. Deem and Ramdas Pophale) SiO2 
 PCOD9045831
Probable space group: P -1
;
_chemical_formula_sum "Si O2"
_cell_formula_units_Z 16
_cell_length_a 11.189015
_cell_length_b 17.206713
_cell_length_c 20.452135
_cell_angle_alpha 20.205706
_cell_angle_beta 37.338011
_cell_angle_gamma 27.800715
_cell_volume 619.092492
_symmetry_space_group_name_H-M "P -1"
_symmetry_group_IT_number 2
_symmetry_cell_setting 'triclinic'
loop_
_space_group_symop_operation_xyz
x,y,z
-x,-y,-z
loop_
_atom_site_type_symbol
_atom_site_label
_atom_site_fract_x
_atom_site_fract_y
_atom_site_fract_z
Si Si1 0.673450 0.244386 0.424060
Si Si2 0.857352 0.424868 0.031150
Si Si3 0.537601 0.437096 0.610428
Si Si4 0.134575 0.910966 0.810017
Si Si5 0.020408 0.642160 0.681485
Si Si6 0.209223 0.350850 0.468078
Si Si7 0.383114 0.204120 0.033179
Si Si8 0.998571 0.346514 0.817226
O O1 0.570104 0.291712 0.506277
O O2 0.455960 0.293018 0.435006
O O3 0.677050 0.507015 0.201101
O O4 0.931436 0.939279 0.520153
O O5 0.665003 0.694998 0.950302
O O6 0.756335 0.275962 0.157833
O O7 0.894274 0.552583 0.852040
O O8 0.150018 0.209784 0.106872
O O9 0.500000 0.500000 0.500000
O O10 0.829407 0.175019 0.713997
O O11 0.334412 0.387469 0.748895
O O12 0.260580 0.053051 0.661164
O O13 0.120270 0.757724 0.001148
O O14 0.943525 0.630843 0.650942
O O15 0.000000 0.500000 0.500000
O O16 0.104666 0.562159 0.283327
O O17 0.684281 0.918451 0.114331
#
# Coordination Sequence:
#
# PCOD9045831 Si02
#       8
#     2   2   2   2   2   2   2   2
#     4  12  27  47  71 112 150 193 247 309 366 448
#     4  10  24  41  72 108 151 186 240 314 376 442
#     4  12  24  42  77 109 148 190 239 306 374 443
#     4  11  24  49  72 113 146 195 251 306 369 444
#     4  11  25  44  71 112 146 183 248 305 381 432
#     4  12  27  48  76 104 149 202 259 297 365 449
#     4  11  23  45  73 106 151 192 243 306 384 435
#     4  11  25  49  75 105 144 202 248 308 364 438
#
# _framework density 25.844280999999999
#
# number of rings (size 3 to 8) (size 9 to 14) (size 15 to 20)
#    0.000    0.750    3.750    1.875    5.250    5.500 
#    0.000    1.250    0.000    0.000    0.000    0.000 
#    0.000    0.000    0.000    0.000    0.000    0.000 
#
# Total GULP energy -89525.178196 kJ/mol
# GULP energy per Si atom -5595.323637 kJ/mol
# Density = 2.578546 g / cm^3
# Si number density = 25.844281 Si / 1000 Ang^3
#
#
#
# Elastic Constant Matrix: (Units=GPa)
#
#
# Indices 1 2 3 4 5 6 
#
# 1 140.9168 18.4058 35.0262 -8.5246 6.1966 31.3967
# 2 18.4058 58.3446 12.8239 -16.0293 16.7530 17.5616
# 3 35.0262 12.8239 83.7260 1.3265 5.1892 15.9054
# 4 -8.5246 -16.0293 1.3265 30.5209 8.5292 -3.8892
# 5 6.1966 16.7530 5.1892 8.5292 39.3257 3.4285
# 6 31.3967 17.5616 15.9054 -3.8892 3.4285 42.5726
#
#
#
# Elastic Compliance Matrix: (Units=1/GPa)
#
#
# Indices 1 2 3 4 5 6 
#
# 1 0.009196 0.000526 -0.002821 0.002642 -0.001387 -0.005592
# 2 0.000526 0.030110 -0.002471 0.019423 -0.016027 -0.008821
# 3 -0.002821 -0.002471 0.013985 -0.003161 0.000551 -0.002458
# 4 0.002642 0.019423 -0.003161 0.048672 -0.018582 -0.002837
# 5 -0.001387 -0.016027 0.000551 -0.018582 0.036187 0.002816
# 6 -0.005592 -0.008821 -0.002458 -0.002837 0.002816 0.031684
#
#
# Mechanical properties :
#
#
# Convention : Reuss Voigt Hill
#
# Bulk Modulus (GPa) = 22.85219 46.16659 34.50939
# Shear Modulus (GPa) = 25.77970 36.93260 31.35615
#
# Velocity S-wave (km/s) = 3.16175 3.78437 3.48698
# Velocity P-wave (km/s) = 4.71066 6.08255 5.44003
#
# Compressibility (1/GPa) = 0.04375948
#
# Stress axis : x y z
#
# Youngs Moduli (GPa) = 108.74855 33.21187 71.50374
#
# Poissons Ratio (x) = -0.01748 0.20173
# Poissons Ratio (y) = -0.05724 0.17666
# Poissons Ratio (z) = 0.30680 0.08206
#
# Static dielectric constant tensor:
#      x y z
#    x 2.161700 0.118480 0.010090 
#    y 0.118480 2.197440 -0.038240 
#    z 0.010090 -0.038240 2.116510 
# 
# From -- ./inp_files/595934.got.cif
#   From: 2010.05.17/outbox.cif.g08.bks.cpg/sg2_298_cif.got.tgz:595934.got - 2010.06.03 11:33:40.
