data_PCOD9045674
_publ_section_title
;
Structure prediction by ZEFSAII (Michael W. Deem and Ramdas Pophale) SiO2 
 PCOD9045674
Probable space group: P -1
;
_chemical_formula_sum "Si O2"
_cell_formula_units_Z 14
_cell_length_a 4.951872
_cell_length_b 26.780465
_cell_length_c 4.926880
_cell_angle_alpha 56.298038
_cell_angle_beta 71.591429
_cell_angle_gamma 68.951708
_cell_volume 501.550670
_symmetry_space_group_name_H-M "P -1"
_symmetry_group_IT_number 2
_symmetry_cell_setting 'triclinic'
loop_
_space_group_symop_operation_xyz
x,y,z
-x,-y,-z
loop_
_atom_site_type_symbol
_atom_site_label
_atom_site_fract_x
_atom_site_fract_y
_atom_site_fract_z
Si Si1 0.179986 0.190725 0.880025
Si Si2 0.467702 0.936042 0.565544
Si Si3 0.960856 0.937906 0.055094
Si Si4 0.977761 0.294534 0.016845
Si Si5 0.274128 0.457115 0.188120
Si Si6 0.370800 0.374107 0.905535
Si Si7 0.302348 0.811283 0.603329
O O1 0.356849 0.193772 0.538596
O O2 0.353949 0.126504 0.157678
O O3 0.189430 0.252323 0.859163
O O4 0.839416 0.190636 0.047390
O O5 0.623774 0.936133 0.223163
O O6 0.500000 0.000000 0.500000
O O7 0.126773 0.936817 0.718369
O O8 0.136676 0.875790 0.331155
O O9 0.000000 0.000000 0.000000
O O10 0.711344 0.344976 0.814698
O O11 0.797554 0.245829 0.335829
O O12 0.165355 0.327112 0.054677
O O13 0.369082 0.397744 0.141277
O O14 0.500000 0.500000 0.000000
O O15 0.000000 0.500000 0.000000
O O16 0.756325 0.568801 0.425726
#
# Coordination Sequence:
#
# PCOD9045674 Si02
#       7
#     2   2   2   2   2   2   2
#     4   8  16  31  52  84 133 184 240 306 376 440
#     4   8  12  20  39  71 114 164 234 298 370 436
#     4   8  12  20  39  71 114 164 234 298 370 436
#     4  10  24  41  66 104 151 192 254 300 380 454
#     4  12  26  50  80 112 155 194 249 304 371 438
#     4  12  26  47  76 118 150 206 247 310 369 460
#     4   8  16  31  52  84 133 184 240 306 376 440
#
# _framework density 27.913433000000001
#
# number of rings (size 3 to 8) (size 9 to 14) (size 15 to 20)
#    0.857    1.714    0.000    2.571    2.000    0.000 
#    0.000    0.000    0.000    0.000    0.000    2.000 
#    0.000    0.000    0.000    0.571    0.571    0.000 
#
# Total GULP energy -78322.492363 kJ/mol
# GULP energy per Si atom -5594.463740 kJ/mol
# Density = 2.784990 g / cm^3
# Si number density = 27.913433 Si / 1000 Ang^3
#
#
#
# Elastic Constant Matrix: (Units=GPa)
#
#
# Indices 1 2 3 4 5 6 
#
# 1 155.3963 52.5363 63.3143 10.7476 -28.3718 -5.3196
# 2 52.5363 157.2526 15.7429 -5.1627 -14.1832 29.2376
# 3 63.3143 15.7429 177.0584 25.0638 -45.7311 -14.1756
# 4 10.7476 -5.1627 25.0638 55.7266 -21.9748 -6.8691
# 5 -28.3718 -14.1832 -45.7311 -21.9748 59.4277 -6.5820
# 6 -5.3196 29.2376 -14.1756 -6.8691 -6.5820 72.9203
#
#
#
# Elastic Compliance Matrix: (Units=1/GPa)
#
#
# Indices 1 2 3 4 5 6 
#
# 1 0.008693 -0.002781 -0.002246 0.000021 0.001930 0.001489
# 2 -0.002781 0.007982 0.000039 0.001122 0.000664 -0.003230
# 3 -0.002246 0.000039 0.007996 -0.001012 0.004906 0.001722
# 4 0.000021 0.001122 -0.001012 0.021840 0.007809 0.002117
# 5 0.001930 0.000664 0.004906 0.007809 0.024994 0.003820
# 6 0.001489 -0.003230 0.001722 0.002117 0.003820 0.015996
#
#
# Mechanical properties :
#
#
# Convention : Reuss Voigt Hill
#
# Bulk Modulus (GPa) = 68.05774 83.65491 75.85633
# Shear Modulus (GPa) = 48.83969 61.48918 55.16444
#
# Velocity S-wave (km/s) = 4.18746 4.69855 4.45035
# Velocity P-wave (km/s) = 6.91480 7.71165 7.32407
#
# Compressibility (1/GPa) = 0.01469341
#
# Stress axis : x y z
#
# Youngs Moduli (GPa) = 115.04012 125.28538 125.06067
#
# Poissons Ratio (x) = 0.34845 0.28092
# Poissons Ratio (y) = 0.31996 -0.00488
# Poissons Ratio (z) = 0.25842 -0.00489
#
# Static dielectric constant tensor:
#      x y z
#    x 2.116020 -0.047540 0.005490 
#    y -0.047540 2.172880 -0.006840 
#    z 0.005490 -0.006840 2.150560 
# 
# From -- ./inp_files/11931.got.cif
#   From: 2010.05.17/outbox.cif.g08.bks.cpg/sg2_6_cif.got.tgz:11931.got - 2010.06.03 11:33:40.
