data_PCOD9045934
_publ_section_title
;
Structure prediction by ZEFSAII (Michael W. Deem and Ramdas Pophale) SiO2 
 PCOD9045934
Probable space group: P -1
;
_chemical_formula_sum "Si O2"
_cell_formula_units_Z 14
_cell_length_a 8.434042
_cell_length_b 11.328443
_cell_length_c 11.689493
_cell_angle_alpha 83.757964
_cell_angle_beta 112.651572
_cell_angle_gamma 42.855797
_cell_volume 548.374091
_symmetry_space_group_name_H-M "P -1"
_symmetry_group_IT_number 2
_symmetry_cell_setting 'triclinic'
loop_
_space_group_symop_operation_xyz
x,y,z
-x,-y,-z
loop_
_atom_site_type_symbol
_atom_site_label
_atom_site_fract_x
_atom_site_fract_y
_atom_site_fract_z
Si Si1 0.274894 0.988608 0.681606
Si Si2 0.232238 0.200138 0.991275
Si Si3 0.038941 0.723131 0.755719
Si Si4 0.685107 0.491054 0.477561
Si Si5 0.726042 0.340207 0.937499
Si Si6 0.067727 0.969668 0.224492
Si Si7 0.236898 0.365924 0.318131
O O1 0.003248 0.242162 0.545582
O O2 0.121469 0.998562 0.738967
O O3 0.426749 0.825249 0.637486
O O4 0.577560 0.880781 0.831921
O O5 0.972497 0.247086 0.924774
O O6 0.038408 0.425051 0.866009
O O7 0.500000 0.000000 0.000000
O O8 0.353180 0.565730 0.784305
O O9 0.844812 0.722010 0.666863
O O10 0.203858 0.611703 0.939521
O O11 0.842363 0.958419 0.694979
O O12 0.500000 0.500000 0.500000
O O13 0.397712 0.718047 0.300881
O O14 0.782896 0.536652 0.589257
O O15 0.165539 0.848902 0.959661
#
# Coordination Sequence:
#
# PCOD9045934 Si02
#       7
#     2   2   2   2   2   2   2
#     4  11  21  41  66  96 131 168 223 266 322 388
#     4  12  23  39  67 100 131 163 218 275 323 391
#     4   9  19  37  64  98 127 166 217 257 335 383
#     4  10  24  42  64  95 132 171 229 266 313 386
#     4   9  19  39  62  97 130 168 207 269 331 382
#     4   9  19  39  64  87 137 169 212 273 314 385
#     4  12  23  39  70  95 129 176 215 270 324 385
#
# _framework density 25.530017999999998
#
# number of rings (size 3 to 8) (size 9 to 14) (size 15 to 20)
#    0.857    0.857    2.857    2.143    0.000    2.857 
#    0.000    5.714    6.286    0.000    0.000    0.000 
#    0.000    0.000    0.000    0.000    0.000    0.000 
#
# Total GULP energy -78371.113946 kJ/mol
# GULP energy per Si atom -5597.936710 kJ/mol
# Density = 2.547191 g / cm^3
# Si number density = 25.530018 Si / 1000 Ang^3
#
#
#
# Elastic Constant Matrix: (Units=GPa)
#
#
# Indices 1 2 3 4 5 6 
#
# 1 119.5394 33.7130 5.9479 -3.7017 13.0101 3.3313
# 2 33.7130 165.8825 19.5898 -32.4514 -7.9172 -3.5341
# 3 5.9479 19.5898 98.3708 -15.5086 3.7015 12.6055
# 4 -3.7017 -32.4514 -15.5086 46.5339 5.7035 -0.3748
# 5 13.0101 -7.9172 3.7015 5.7035 27.8519 2.4005
# 6 3.3313 -3.5341 12.6055 -0.3748 2.4005 41.0760
#
#
#
# Elastic Compliance Matrix: (Units=1/GPa)
#
#
# Indices 1 2 3 4 5 6 
#
# 1 0.009553 -0.002241 0.000125 -0.000151 -0.005024 -0.000714
# 2 -0.002241 0.007612 -0.000877 0.004563 0.002305 0.001013
# 3 0.000125 -0.000877 0.011398 0.003443 -0.002233 -0.003422
# 4 -0.000151 0.004563 0.003443 0.026354 -0.004474 -0.000150
# 5 -0.005024 0.002305 -0.002233 -0.004474 0.040214 -0.001100
# 6 -0.000714 0.001013 -0.003422 -0.000150 -0.001100 0.025603
#
#
# Mechanical properties :
#
#
# Convention : Reuss Voigt Hill
#
# Bulk Modulus (GPa) = 44.29309 55.81045 50.05177
# Shear Modulus (GPa) = 37.24510 44.72849 40.98680
#
# Velocity S-wave (km/s) = 3.82367 4.19023 4.01114
# Velocity P-wave (km/s) = 6.07297 6.73193 6.41092
#
# Compressibility (1/GPa) = 0.02257688
#
# Stress axis : x y z
#
# Youngs Moduli (GPa) = 104.67761 131.37715 87.73448
#
# Poissons Ratio (x) = 0.29440 -0.01099
# Poissons Ratio (y) = 0.23457 0.07698
# Poissons Ratio (z) = -0.01312 0.11528
#
# Static dielectric constant tensor:
#      x y z
#    x 1.963560 -0.025010 -0.029430 
#    y -0.025010 2.088540 0.106310 
#    z -0.029430 0.106310 2.126770 
# 
# From -- ./inp_files/390236.got.cif
#   From: 2010.05.17/outbox.cif.g08.bks.cpg/sg2_196_cif.got.tgz:390236.got - 2010.06.03 11:33:40.
