data_PCOD9045150
_publ_section_title
;
Structure prediction by ZEFSAII (Michael W. Deem and Ramdas Pophale) SiO2 
 PCOD9045150
Probable space group: P -1
;
_chemical_formula_sum "Si O2"
_cell_formula_units_Z 16
_cell_length_a 7.858247
_cell_length_b 18.549067
_cell_length_c 9.329926
_cell_angle_alpha 49.557570
_cell_angle_beta 68.695531
_cell_angle_gamma 37.732571
_cell_volume 599.789222
_symmetry_space_group_name_H-M "P -1"
_symmetry_group_IT_number 2
_symmetry_cell_setting 'triclinic'
loop_
_space_group_symop_operation_xyz
x,y,z
-x,-y,-z
loop_
_atom_site_type_symbol
_atom_site_label
_atom_site_fract_x
_atom_site_fract_y
_atom_site_fract_z
Si Si1 0.621902 0.250382 0.855635
Si Si2 0.970927 0.572182 0.559952
Si Si3 0.991803 0.389274 0.144044
Si Si4 0.689065 0.377781 0.467478
Si Si5 0.573067 0.904091 0.239252
Si Si6 0.579987 0.865828 0.871362
Si Si7 0.525994 0.615678 0.766823
Si Si8 0.031960 0.830523 0.862783
O O1 0.763015 0.230754 0.985199
O O2 0.776552 0.242736 0.688373
O O3 0.279535 0.418228 0.736027
O O4 0.599328 0.146298 0.985168
O O5 0.847838 0.725759 0.357695
O O6 0.706680 0.637235 0.650051
O O7 0.000000 0.500000 0.500000
O O8 0.912474 0.360912 0.345876
O O9 0.294774 0.227521 0.193315
O O10 0.000000 0.500000 0.000000
O O11 0.500000 0.500000 0.500000
O O12 0.500224 0.424297 0.326909
O O13 0.611114 0.961707 0.285773
O O14 0.256856 0.985934 0.266687
O O15 0.500000 0.000000 0.000000
O O16 0.876060 0.789713 0.953246
O O17 0.219411 0.763351 0.747706
O O18 0.275314 0.519766 0.003162
#
# Coordination Sequence:
#
# PCOD9045150 Si02
#       8
#     2   2   2   2   2   2   2   2
#     4  12  25  48  84 122 160 200 290 339 395 492
#     4  12  26  45  82 124 162 214 278 352 408 479
#     4  12  25  45  72 117 159 218 265 340 408 490
#     4  12  26  39  68 117 157 198 270 339 396 473
#     4  10  25  49  79 109 169 221 260 334 431 493
#     4  10  23  49  81 109 163 219 264 323 428 482
#     4  12  25  44  76 111 163 210 272 337 406 489
#     4  10  26  49  82 116 160 223 270 324 428 497
#
# _framework density 26.676037000000001
#
# number of rings (size 3 to 8) (size 9 to 14) (size 15 to 20)
#    0.750    0.000    3.750    3.375    1.750    2.500 
#    2.250    2.500    5.500    3.000    3.250    0.000 
#    0.000    0.000    0.000    0.000    0.000    0.000 
#
# Total GULP energy -89369.033510 kJ/mol
# GULP energy per Si atom -5585.564594 kJ/mol
# Density = 2.661532 g / cm^3
# Si number density = 26.676037 Si / 1000 Ang^3
#
#
#
# Elastic Constant Matrix: (Units=GPa)
#
#
# Indices 1 2 3 4 5 6 
#
# 1 163.6304 41.0129 62.2810 2.3957 -5.9001 -1.1275
# 2 41.0129 180.7098 67.0852 -6.0094 2.7719 -8.4373
# 3 62.2810 67.0852 145.1346 12.0040 -15.0544 4.5913
# 4 2.3957 -6.0094 12.0040 61.4280 -7.2742 -9.6006
# 5 -5.9001 2.7719 -15.0544 -7.2742 53.9287 8.0838
# 6 -1.1275 -8.4373 4.5913 -9.6006 8.0838 48.8399
#
#
#
# Elastic Compliance Matrix: (Units=1/GPa)
#
#
# Indices 1 2 3 4 5 6 
#
# 1 0.007369 -0.000549 -0.002947 0.000298 -0.000010 0.000413
# 2 -0.000549 0.007085 -0.003384 0.001525 -0.001474 0.002073
# 3 -0.002947 -0.003384 0.010278 -0.002290 0.002791 -0.002531
# 4 0.000298 0.001525 -0.002290 0.017584 0.001124 0.003756
# 5 -0.000010 -0.001474 0.002791 0.001124 0.020091 -0.003622
# 6 0.000413 0.002073 -0.002531 0.003756 -0.003622 0.022418
#
#
# Mechanical properties :
#
#
# Convention : Reuss Voigt Hill
#
# Bulk Modulus (GPa) = 91.14462 92.24811 91.69637
# Shear Modulus (GPa) = 48.90353 54.11237 51.50795
#
# Velocity S-wave (km/s) = 4.28628 4.50877 4.39893
# Velocity P-wave (km/s) = 7.66405 7.85884 7.76206
#
# Compressibility (1/GPa) = 0.01097157
#
# Stress axis : x y z
#
# Youngs Moduli (GPa) = 135.70759 141.15161 97.29693
#
# Poissons Ratio (x) = 0.07749 0.28675
# Poissons Ratio (y) = 0.07450 0.32922
# Poissons Ratio (z) = 0.39995 0.47761
#
# Static dielectric constant tensor:
#      x y z
#    x 2.395350 0.069380 -0.084940 
#    y 0.069380 2.184380 -0.008890 
#    z -0.084940 -0.008890 2.140400 
# 
# From -- ./inp_files/438985.got.cif
#   From: 2010.05.17/outbox.cif.g08.bks.cpg/sg2_220_cif.got.tgz:438985.got - 2010.06.03 11:33:40.
