data_PCOD9045727
_publ_section_title
;
Structure prediction by ZEFSAII (Michael W. Deem and Ramdas Pophale) SiO2 
 PCOD9045727
Probable space group: P -1
;
_chemical_formula_sum "Si O2"
_cell_formula_units_Z 16
_cell_length_a 7.955349
_cell_length_b 11.519423
_cell_length_c 10.455047
_cell_angle_alpha 91.870877
_cell_angle_beta 115.932548
_cell_angle_gamma 54.543351
_cell_volume 669.139626
_symmetry_space_group_name_H-M "P -1"
_symmetry_group_IT_number 2
_symmetry_cell_setting 'triclinic'
loop_
_space_group_symop_operation_xyz
x,y,z
-x,-y,-z
loop_
_atom_site_type_symbol
_atom_site_label
_atom_site_fract_x
_atom_site_fract_y
_atom_site_fract_z
Si Si1 0.989918 0.817398 0.423431
Si Si2 0.775938 0.519176 0.842107
Si Si3 0.329782 0.847570 0.709050
Si Si4 0.856838 0.641833 0.275297
Si Si5 0.372113 0.829857 0.197732
Si Si6 0.767473 0.446541 0.115719
Si Si7 0.924632 0.141946 0.131837
Si Si8 0.383852 0.624006 0.354641
O O1 0.956319 0.690742 0.419582
O O2 0.169028 0.816701 0.576000
O O3 0.126679 0.768450 0.329865
O O4 0.751274 0.991000 0.350978
O O5 0.603217 0.698345 0.776442
O O6 0.613985 0.466616 0.764262
O O7 0.961680 0.421717 0.785905
O O8 0.852291 0.476059 0.012911
O O9 0.243589 0.862586 0.826459
O O10 0.585117 0.796983 0.180686
O O11 0.800779 0.526133 0.242249
O O12 0.490514 0.703737 0.343440
O O13 0.200515 0.820823 0.047470
O O14 0.192799 0.990403 0.206296
O O15 0.926814 0.272262 0.183300
O O16 0.500000 0.500000 0.000000
O O17 0.500000 0.500000 0.500000
#
# Coordination Sequence:
#
# PCOD9045727 Si02
#       8
#     2   2   2   2   2   2   2   2
#     4  10  24  41  67  97 134 173 227 271 329 401
#     4  11  22  38  67  96 133 171 225 272 331 398
#     4  11  21  43  69  96 128 182 225 266 335 402
#     4  11  25  41  63 100 138 170 217 287 328 392
#     4  11  23  43  64 102 134 170 229 264 347 392
#     4  12  21  41  66  96 131 174 224 270 334 399
#     4  11  23  39  73  96 127 183 219 278 322 408
#     4  11  20  40  69  96 129 179 222 267 322 408
#
# _framework density 23.911303
#
# number of rings (size 3 to 8) (size 9 to 14) (size 15 to 20)
#    0.000    1.000    6.250    0.375    0.000    1.000 
#    0.000    9.375    0.000    0.000    0.000    0.000 
#    0.000    0.000    0.000    0.000    0.000    0.000 
#
# Total GULP energy -89125.806550 kJ/mol
# GULP energy per Si atom -5570.362909 kJ/mol
# Density = 2.385688 g / cm^3
# Si number density = 23.911303 Si / 1000 Ang^3
#
#
#
# Elastic Constant Matrix: (Units=GPa)
#
#
# Indices 1 2 3 4 5 6 
#
# 1 74.3171 54.5841 5.1775 -11.3040 5.3448 -21.5503
# 2 54.5841 186.3177 50.9945 6.8859 7.7272 -8.5537
# 3 5.1775 50.9945 70.1021 9.0654 -1.6940 11.5208
# 4 -11.3040 6.8859 9.0654 39.8042 8.6141 11.2834
# 5 5.3448 7.7272 -1.6940 8.6141 24.6579 11.2602
# 6 -21.5503 -8.5537 11.5208 11.2834 11.2602 46.3070
#
#
#
# Elastic Compliance Matrix: (Units=1/GPa)
#
#
# Indices 1 2 3 4 5 6 
#
# 1 0.022532 -0.005920 -0.000154 0.006735 -0.010067 0.010238
# 2 -0.005920 0.008990 -0.006137 -0.001799 -0.001940 0.001343
# 3 -0.000154 -0.006137 0.020580 -0.003269 0.007916 -0.007454
# 4 0.006735 -0.001799 -0.003269 0.030879 -0.011387 -0.001140
# 5 -0.010067 -0.001940 0.007916 -0.011387 0.056024 -0.017861
# 6 0.010238 0.001343 -0.007454 -0.001140 -0.017861 0.033083
#
#
# Mechanical properties :
#
#
# Convention : Reuss Voigt Hill
#
# Bulk Modulus (GPa) = 36.12923 61.36102 48.74512
# Shear Modulus (GPa) = 24.30299 36.81921 30.56110
#
# Velocity S-wave (km/s) = 3.19153 3.92832 3.57893
# Velocity P-wave (km/s) = 5.35945 6.80391 6.12441
#
# Compressibility (1/GPa) = 0.02767842
#
# Stress axis : x y z
#
# Youngs Moduli (GPa) = 44.38150 111.23643 48.59159
#
# Poissons Ratio (x) = 0.65854 0.00750
# Poissons Ratio (y) = 0.26275 0.29821
# Poissons Ratio (z) = 0.00685 0.68267
#
# Static dielectric constant tensor:
#      x y z
#    x 2.129000 -0.000690 0.056970 
#    y -0.000690 1.901960 -0.005920 
#    z 0.056970 -0.005920 1.978040 
# 
# From -- ./inp_files/392694.got.cif
#   From: 2010.05.17/outbox.cif.g08.bks.cpg/sg2_197_cif.got.tgz:392694.got - 2010.06.03 11:33:40.
