data_PCOD9045573
_publ_section_title
;
Structure prediction by ZEFSAII (Michael W. Deem and Ramdas Pophale) SiO2 
 PCOD9045573
Probable space group: P -1
;
_chemical_formula_sum "Si O2"
_cell_formula_units_Z 15
_cell_length_a 8.649048
_cell_length_b 16.642643
_cell_length_c 6.117226
_cell_angle_alpha 89.676904
_cell_angle_beta 123.699290
_cell_angle_gamma 112.550755
_cell_volume 651.506499
_symmetry_space_group_name_H-M "P -1"
_symmetry_group_IT_number 2
_symmetry_cell_setting 'triclinic'
loop_
_space_group_symop_operation_xyz
x,y,z
-x,-y,-z
loop_
_atom_site_type_symbol
_atom_site_label
_atom_site_fract_x
_atom_site_fract_y
_atom_site_fract_z
Si Si1 0.273451 0.950362 0.211431
Si Si2 0.954034 0.630808 0.174295
Si Si3 0.319096 0.531253 0.348393
Si Si4 0.920637 0.793657 0.230086
Si Si5 0.637017 0.862106 0.820212
Si Si6 0.740318 0.179262 0.175424
Si Si7 0.000000 0.500000 0.500000
Si Si8 0.615756 0.278444 0.719012
O O1 0.098526 0.871223 0.219767
O O2 0.500000 0.000000 0.500000
O O3 0.223408 0.032744 0.117872
O O4 0.297085 0.901542 0.015635
O O5 0.960574 0.586481 0.408394
O O6 0.836381 0.692265 0.073096
O O7 0.186364 0.698373 0.283161
O O8 0.856637 0.546096 0.937115
O O9 0.500000 0.500000 0.500000
O O10 0.400627 0.628354 0.289382
O O11 0.202448 0.535852 0.479152
O O12 0.031646 0.789679 0.542192
O O13 0.738191 0.822116 0.076292
O O14 0.426803 0.854076 0.762639
O O15 0.578519 0.802455 0.553315
O O16 0.691020 0.250428 0.999704
#
# Coordination Sequence:
#
# PCOD9045573 Si02
#       8
#     2   2   2   2   2   2   1   2
#     4  12  23  48  70  96 143 186 230 296 350 418
#     4  11  23  45  69 103 140 186 232 288 361 424
#     4  11  26  44  70 109 143 186 247 300 358 434
#     4  12  27  43  70 104 142 182 235 292 355 424
#     4  12  26  44  70 105 135 184 240 289 352 426
#     4  12  24  44  71  99 141 185 232 285 362 421
#     4  10  24  40  74  92 136 192 230 286 362 414
#     4  11  23  45  72  98 145 183 230 294 359 418
#
# _framework density 23.023558000000001
#
# number of rings (size 3 to 8) (size 9 to 14) (size 15 to 20)
#    0.000    0.533    5.333    3.200    3.733    3.200 
#    0.000    0.000    0.000    0.000    0.000    0.000 
#    0.000    0.000    0.000    0.000    0.000    0.000 
#
# Total GULP energy -83563.875414 kJ/mol
# GULP energy per Si atom -5570.925028 kJ/mol
# Density = 2.297116 g / cm^3
# Si number density = 23.023558 Si / 1000 Ang^3
#
#
#
# Elastic Constant Matrix: (Units=GPa)
#
#
# Indices 1 2 3 4 5 6 
#
# 1 58.4505 29.8890 25.9110 0.1640 14.6677 -16.4269
# 2 29.8890 185.1836 41.2329 -25.9581 -3.2340 -25.2439
# 3 25.9110 41.2329 88.7455 -4.6306 5.1105 -19.1164
# 4 0.1640 -25.9581 -4.6306 50.7069 -10.8333 -1.0173
# 5 14.6677 -3.2340 5.1105 -10.8333 24.2259 -12.9487
# 6 -16.4269 -25.2439 -19.1164 -1.0173 -12.9487 39.1739
#
#
#
# Elastic Compliance Matrix: (Units=1/GPa)
#
#
# Indices 1 2 3 4 5 6 
#
# 1 0.026173 -0.004524 -0.004985 -0.006915 -0.018922 -0.000807
# 2 -0.004524 0.008458 -0.001472 0.006609 0.010617 0.006516
# 3 -0.004985 -0.001472 0.014384 0.001334 0.003072 0.005031
# 4 -0.006915 0.006609 0.001334 0.028372 0.023008 0.010352
# 5 -0.018922 0.010617 0.003072 0.023008 0.078133 0.026830
# 6 -0.000807 0.006516 0.005031 0.010352 0.026830 0.040980
#
#
# Mechanical properties :
#
#
# Convention : Reuss Voigt Hill
#
# Bulk Modulus (GPa) = 36.96415 58.49394 47.72905
# Shear Modulus (GPa) = 21.98012 38.51114 30.24563
#
# Velocity S-wave (km/s) = 3.09314 4.09428 3.62841
# Velocity P-wave (km/s) = 5.37089 6.91463 6.19107
#
# Compressibility (1/GPa) = 0.02705324
#
# Stress axis : x y z
#
# Youngs Moduli (GPa) = 38.20791 118.23013 69.52356
#
# Poissons Ratio (x) = 0.53489 0.34654
# Poissons Ratio (y) = 0.17286 0.10232
# Poissons Ratio (z) = 0.19045 0.17401
#
# Static dielectric constant tensor:
#      x y z
#    x 1.857270 -0.026250 0.005950 
#    y -0.026250 1.882160 -0.011090 
#    z 0.005950 -0.011090 1.927970 
# 
# From -- ./inp_files/39109.got.cif
#   From: 2010.05.17/outbox.cif.g08.bks.cpg/sg2_20_cif.got.tgz:39109.got - 2010.06.03 11:33:40.
