data_PCOD9045524
_publ_section_title
;
Structure prediction by ZEFSAII (Michael W. Deem and Ramdas Pophale) SiO2 
 PCOD9045524
Probable space group: P -1
;
_chemical_formula_sum "Si O2"
_cell_formula_units_Z 13
_cell_length_a 28.380609
_cell_length_b 28.434651
_cell_length_c 10.944743
_cell_angle_alpha 25.424295
_cell_angle_beta 23.667200
_cell_angle_gamma 10.091492
_cell_volume 621.116659
_symmetry_space_group_name_H-M "P -1"
_symmetry_group_IT_number 2
_symmetry_cell_setting 'triclinic'
loop_
_space_group_symop_operation_xyz
x,y,z
-x,-y,-z
loop_
_atom_site_type_symbol
_atom_site_label
_atom_site_fract_x
_atom_site_fract_y
_atom_site_fract_z
Si Si1 0.191727 0.516316 0.727205
Si Si2 0.088861 0.453594 0.760405
Si Si3 0.593376 0.537653 0.441903
Si Si4 0.796443 0.021204 0.340978
Si Si5 0.744352 0.963027 0.339260
Si Si6 0.500000 0.500000 0.000000
Si Si7 0.103091 0.014414 0.299694
O O1 0.277494 0.471317 0.766265
O O2 0.488850 0.230623 0.623771
O O3 0.062180 0.740272 0.447829
O O4 0.963083 0.615245 0.025944
O O5 0.884385 0.724562 0.567346
O O6 0.405756 0.231592 0.522535
O O7 0.000000 0.500000 0.000000
O O8 0.374950 0.757091 0.341365
O O9 0.453223 0.584998 0.770940
O O10 0.852976 0.257931 0.415118
O O11 0.720059 0.212256 0.099466
O O12 0.841338 0.948040 0.265381
O O13 0.827405 0.952726 0.042301
O O14 0.000000 0.000000 0.500000
#
# Coordination Sequence:
#
# PCOD9045524 Si02
#       7
#     2   2   2   2   2   1   2
#     4  11  23  40  67  97 139 168 216 295 336 388
#     4  12  22  42  69 107 138 173 230 284 338 393
#     4  11  25  45  65  97 133 176 227 279 343 391
#     4  11  21  38  62 100 132 171 219 281 343 391
#     4  12  24  41  70 102 136 182 230 270 344 405
#     4  10  24  40  70  96 128 172 226 282 342 394
#     4  12  27  47  68  94 140 182 226 275 331 417
#
# _framework density 20.930046000000001
#
# number of rings (size 3 to 8) (size 9 to 14) (size 15 to 20)
#    0.000    0.615    3.077    5.538    0.000    9.231 
#    0.000    4.615    0.000    0.000    0.000    0.000 
#    0.000    0.000    0.000    0.000    0.000    0.000 
#
# Total GULP energy -72490.846041 kJ/mol
# GULP energy per Si atom -5576.218926 kJ/mol
# Density = 2.088241 g / cm^3
# Si number density = 20.930046 Si / 1000 Ang^3
#
#
#
# Elastic Constant Matrix: (Units=GPa)
#
#
# Indices 1 2 3 4 5 6 
#
# 1 178.4835 42.3912 62.6335 -31.0548 21.5653 -0.7082
# 2 42.3912 115.7821 35.9288 -40.3298 16.7254 -5.9445
# 3 62.6335 35.9288 147.9562 -33.6624 21.1581 -1.1102
# 4 -31.0548 -40.3298 -33.6624 47.8860 -1.1920 9.2168
# 5 21.5653 16.7254 21.1581 -1.1920 40.5081 1.3276
# 6 -0.7082 -5.9445 -1.1102 9.2168 1.3276 44.3588
#
#
#
# Elastic Compliance Matrix: (Units=1/GPa)
#
#
# Indices 1 2 3 4 5 6 
#
# 1 0.007223 -0.000778 -0.001903 0.002733 -0.002432 -0.000532
# 2 -0.000778 0.013298 0.000257 0.010817 -0.004882 -0.000325
# 3 -0.001903 0.000257 0.009305 0.005585 -0.003762 -0.000811
# 4 0.002733 0.010817 0.005585 0.036609 -0.007573 -0.005747
# 5 -0.002432 -0.004882 -0.003762 -0.007573 0.029742 -0.000104
# 6 -0.000532 -0.000325 -0.000811 -0.005747 -0.000104 0.023668
#
#
# Mechanical properties :
#
#
# Convention : Reuss Voigt Hill
#
# Bulk Modulus (GPa) = 40.03653 80.45874 60.24763
# Shear Modulus (GPa) = 37.58839 46.63513 42.11176
#
# Velocity S-wave (km/s) = 4.24241 4.72544 4.49043
# Velocity P-wave (km/s) = 6.57021 8.26428 7.46545
#
# Compressibility (1/GPa) = 0.02497719
#
# Stress axis : x y z
#
# Youngs Moduli (GPa) = 138.45501 75.19700 107.47289
#
# Poissons Ratio (x) = 0.05850 0.20452
# Poissons Ratio (y) = 0.10771 -0.02759
# Poissons Ratio (z) = 0.26348 -0.01931
#
# Static dielectric constant tensor:
#      x y z
#    x 1.678960 0.020350 0.021870 
#    y 0.020350 1.701500 -0.036310 
#    z 0.021870 -0.036310 1.659580 
# 
# From -- ./inp_files/357905.got.cif
#   From: 2010.05.17/outbox.cif.g08.bks.cpg/sg2_179_cif.got.tgz:357905.got - 2010.06.03 11:33:40.
