data_PCOD9045291
_publ_section_title
;
Structure prediction by ZEFSAII (Michael W. Deem and Ramdas Pophale) SiO2 
 PCOD9045291
Probable space group: P -1
;
_chemical_formula_sum "Si O2"
_cell_formula_units_Z 16
_cell_length_a 11.744309
_cell_length_b 14.177274
_cell_length_c 9.040914
_cell_angle_alpha 68.165690
_cell_angle_beta 143.834880
_cell_angle_gamma 89.496586
_cell_volume 680.826859
_symmetry_space_group_name_H-M "P -1"
_symmetry_group_IT_number 2
_symmetry_cell_setting 'triclinic'
loop_
_space_group_symop_operation_xyz
x,y,z
-x,-y,-z
loop_
_atom_site_type_symbol
_atom_site_label
_atom_site_fract_x
_atom_site_fract_y
_atom_site_fract_z
Si Si1 0.101000 0.282586 0.454258
Si Si2 0.581434 0.859777 0.657936
Si Si3 0.831952 0.046207 0.652105
Si Si4 0.552085 0.648585 0.293318
Si Si5 0.968555 0.780326 0.905142
Si Si6 0.386147 0.511963 0.032356
Si Si7 0.957037 0.120491 0.459836
Si Si8 0.507963 0.306472 0.474484
O O1 0.289251 0.315834 0.643087
O O2 0.056597 0.281637 0.230599
O O3 0.151092 0.150507 0.629278
O O4 0.878450 0.375950 0.269734
O O5 0.440533 0.856279 0.650374
O O6 0.849228 0.777073 0.934665
O O7 0.476697 0.819857 0.441205
O O8 0.500000 0.000000 0.500000
O O9 0.914583 0.108406 0.592933
O O10 0.855288 0.926352 0.677391
O O11 0.000000 0.000000 0.000000
O O12 0.544797 0.537931 0.287040
O O13 0.619224 0.624170 0.549800
O O14 0.283999 0.767073 0.930498
O O15 0.235878 0.724915 0.239179
O O16 0.392281 0.393481 0.160944
O O17 0.500000 0.500000 0.000000
O O18 0.000000 0.000000 0.500000
#
# Coordination Sequence:
#
# PCOD9045291 Si02
#       8
#     2   2   2   2   2   2   2   2
#     4  11  24  45  68  97 137 173 232 285 336 409
#     4  10  24  39  65 105 142 170 227 277 328 408
#     4  11  22  41  65  96 142 181 220 273 335 400
#     4  11  25  45  70 101 131 177 233 280 338 408
#     4  11  21  41  66 101 132 177 226 273 332 413
#     4  11  28  47  69  98 136 174 230 294 346 399
#     4  11  23  43  66  98 143 180 224 276 337 408
#     4  12  22  44  75  95 134 187 224 277 347 402
#
# _framework density 23.500834000000001
#
# number of rings (size 3 to 8) (size 9 to 14) (size 15 to 20)
#    0.000    1.000    6.250    0.375    3.500    2.500 
#    9.000    0.000    0.000    0.000    0.000    0.000 
#    0.000    0.000    0.000    0.000    0.000    0.000 
#
# Total GULP energy -89235.550472 kJ/mol
# GULP energy per Si atom -5577.221904 kJ/mol
# Density = 2.344735 g / cm^3
# Si number density = 23.500834 Si / 1000 Ang^3
#
#
#
# Elastic Constant Matrix: (Units=GPa)
#
#
# Indices 1 2 3 4 5 6 
#
# 1 159.2448 29.5447 18.7743 -3.7728 9.7515 6.0683
# 2 29.5447 120.4609 11.7141 -0.0722 5.8450 0.2543
# 3 18.7743 11.7141 14.6098 -2.5267 -2.0465 2.6987
# 4 -3.7728 -0.0722 -2.5267 23.1351 6.0341 6.0546
# 5 9.7515 5.8450 -2.0465 6.0341 38.1650 8.8582
# 6 6.0683 0.2543 2.6987 6.0546 8.8582 45.7981
#
#
#
# Elastic Compliance Matrix: (Units=1/GPa)
#
#
# Indices 1 2 3 4 5 6 
#
# 1 0.007724 -0.000859 -0.009407 0.000900 -0.002464 -0.000107
# 2 -0.000859 0.009254 -0.006822 -0.000651 -0.001663 0.000872
# 3 -0.009407 -0.006822 0.089787 0.007762 0.008589 -0.006694
# 4 0.000900 -0.000651 0.007762 0.047233 -0.005863 -0.005683
# 5 -0.002464 -0.001663 0.008589 -0.005863 0.029665 -0.005133
# 6 -0.000107 0.000872 -0.006694 -0.005683 -0.005133 0.023983
#
#
# Mechanical properties :
#
#
# Convention : Reuss Voigt Hill
#
# Bulk Modulus (GPa) = 13.77618 46.04243 29.90930
# Shear Modulus (GPa) = 18.79554 37.03845 27.91699
#
# Velocity S-wave (km/s) = 2.83111 3.97425 3.45035
# Velocity P-wave (km/s) = 4.06960 6.37918 5.35049
#
# Compressibility (1/GPa) = 0.07258908
#
# Stress axis : x y z
#
# Youngs Moduli (GPa) = 129.45976 108.06018 11.13743
#
# Poissons Ratio (x) = 0.09287 0.10477
# Poissons Ratio (y) = 0.11126 0.07598
# Poissons Ratio (z) = 1.21781 0.73720
#
# Static dielectric constant tensor:
#      x y z
#    x 1.960140 -0.004260 -0.036860 
#    y -0.004260 1.921220 -0.014500 
#    z -0.036860 -0.014500 1.959680 
# 
# From -- ./inp_files/272722.got.cif
#   From: 2010.05.17/outbox.cif.g08.bks.cpg/sg2_137_cif.got.tgz:272722.got - 2010.06.03 11:33:40.
