data_PCOD9045559
_publ_section_title
;
Structure prediction by ZEFSAII (Michael W. Deem and Ramdas Pophale) SiO2 
 PCOD9045559
Probable space group: P -1
;
_chemical_formula_sum "Si O2"
_cell_formula_units_Z 13
_cell_length_a 9.321194
_cell_length_b 15.663351
_cell_length_c 8.511279
_cell_angle_alpha 39.169930
_cell_angle_beta 57.181650
_cell_angle_gamma 57.536911
_cell_volume 643.512454
_symmetry_space_group_name_H-M "P -1"
_symmetry_group_IT_number 2
_symmetry_cell_setting 'triclinic'
loop_
_space_group_symop_operation_xyz
x,y,z
-x,-y,-z
loop_
_atom_site_type_symbol
_atom_site_label
_atom_site_fract_x
_atom_site_fract_y
_atom_site_fract_z
Si Si1 0.500000 0.500000 0.000000
Si Si2 0.300472 0.808657 0.706959
Si Si3 0.899121 0.528594 0.683494
Si Si4 0.730971 0.118317 0.019998
Si Si5 0.053520 0.246049 0.140486
Si Si6 0.930703 0.811595 0.420199
Si Si7 0.407734 0.067562 0.115290
O O1 0.564634 0.330458 0.223638
O O2 0.297135 0.493660 0.177079
O O3 0.279522 0.812246 0.902265
O O4 0.112372 0.812027 0.735720
O O5 0.366359 0.943560 0.421803
O O6 0.899269 0.680070 0.531943
O O7 0.000000 0.500000 0.500000
O O8 0.002064 0.410318 0.909353
O O9 0.542406 0.141369 0.019911
O O10 0.803859 0.953685 0.236402
O O11 0.872301 0.171431 0.754806
O O12 0.092050 0.210222 0.350557
O O13 0.224511 0.174383 0.043620
O O14 0.500000 0.000000 0.000000
#
# Coordination Sequence:
#
# PCOD9045559 Si02
#       7
#     1   2   2   2   2   2   2
#     4  10  24  40  72  94 132 174 230 264 340 398
#     4  11  23  45  67  97 134 177 227 276 337 405
#     4  11  25  46  70  99 136 184 226 284 339 409
#     4  11  25  41  70  98 131 179 225 277 338 409
#     4  11  25  43  68  98 135 178 222 283 341 396
#     4  11  23  44  68  95 137 175 227 276 342 399
#     4  12  26  40  66 101 137 174 226 282 335 401
#
# _framework density 20.201629000000001
#
# number of rings (size 3 to 8) (size 9 to 14) (size 15 to 20)
#    0.000    0.923    1.538    5.077   10.769    0.000 
#    0.000    0.769    0.000    0.000    0.000    0.000 
#    0.000    0.000    0.000    0.000    0.000    0.000 
#
# Total GULP energy -72483.225786 kJ/mol
# GULP energy per Si atom -5575.632753 kJ/mol
# Density = 2.015565 g / cm^3
# Si number density = 20.201629 Si / 1000 Ang^3
#
#
#
# Elastic Constant Matrix: (Units=GPa)
#
#
# Indices 1 2 3 4 5 6 
#
# 1 50.8330 39.3157 10.4292 10.9261 -16.5522 -3.9186
# 2 39.3157 103.0362 22.8777 11.7107 -3.3913 -20.9680
# 3 10.4292 22.8777 72.9719 1.7878 -9.5044 -6.7683
# 4 10.9261 11.7107 1.7878 31.4555 6.5834 0.4802
# 5 -16.5522 -3.3913 -9.5044 6.5834 22.4312 6.1689
# 6 -3.9186 -20.9680 -6.7683 0.4802 6.1689 45.9136
#
#
#
# Elastic Compliance Matrix: (Units=1/GPa)
#
#
# Indices 1 2 3 4 5 6 
#
# 1 0.052215 -0.018887 0.004096 -0.020853 0.046156 -0.009549
# 2 -0.018887 0.018759 -0.004597 0.003117 -0.016283 0.008432
# 3 0.004096 -0.004597 0.015866 -0.002704 0.010045 -0.000732
# 4 -0.020853 0.003117 -0.002704 0.044223 -0.029808 0.002788
# 5 0.046156 -0.016283 0.010045 -0.029808 0.093091 -0.014212
# 6 -0.009549 0.008432 -0.000732 0.002788 -0.014212 0.026588
#
#
# Mechanical properties :
#
#
# Convention : Reuss Voigt Hill
#
# Bulk Modulus (GPa) = 20.80569 41.34290 31.07430
# Shear Modulus (GPa) = 16.36443 30.24129 23.30286
#
# Velocity S-wave (km/s) = 2.84923 3.87327 3.40003
# Velocity P-wave (km/s) = 4.59843 6.36495 5.55239
#
# Compressibility (1/GPa) = 0.04806378
#
# Stress axis : x y z
#
# Youngs Moduli (GPa) = 19.15147 53.30901 63.02637
#
# Poissons Ratio (x) = 1.00686 -0.25814
# Poissons Ratio (y) = 0.36172 0.28971
# Poissons Ratio (z) = -0.07844 0.24505
#
# Static dielectric constant tensor:
#      x y z
#    x 1.695570 0.001470 0.001620 
#    y 0.001470 1.704260 -0.008990 
#    z 0.001620 -0.008990 1.704330 
# 
# From -- ./inp_files/155721.got.cif
#   From: 2010.05.17/outbox.cif.g08.bks.cpg/sg2_78_cif.got.tgz:155721.got - 2010.06.03 11:33:40.
