data_PCOD9045828
_publ_section_title
;
Structure prediction by ZEFSAII (Michael W. Deem and Ramdas Pophale) SiO2 
 PCOD9045828
Probable space group: P -1
;
_chemical_formula_sum "Si O2"
_cell_formula_units_Z 12
_cell_length_a 15.496542
_cell_length_b 11.529058
_cell_length_c 4.808451
_cell_angle_alpha 86.202970
_cell_angle_beta 93.938601
_cell_angle_gamma 34.779547
_cell_volume 477.392179
_symmetry_space_group_name_H-M "P -1"
_symmetry_group_IT_number 2
_symmetry_cell_setting 'triclinic'
loop_
_space_group_symop_operation_xyz
x,y,z
-x,-y,-z
loop_
_atom_site_type_symbol
_atom_site_label
_atom_site_fract_x
_atom_site_fract_y
_atom_site_fract_z
Si Si1 0.004464 0.683853 0.399984
Si Si2 0.712256 0.610788 0.147870
Si Si3 0.763807 0.758653 0.517756
Si Si4 0.490532 0.218467 0.445108
Si Si5 0.645118 0.283200 0.403219
Si Si6 0.862849 0.060868 0.001050
O O1 0.111146 0.613639 0.687059
O O2 0.119150 0.467470 0.290387
O O3 0.872421 0.745406 0.468223
O O4 0.935470 0.864282 0.180724
O O5 0.702893 0.754203 0.236954
O O6 0.607154 0.648368 0.322448
O O7 0.635465 0.680418 0.823925
O O8 0.614142 0.981057 0.586954
O O9 0.583963 0.221900 0.340431
O O10 0.500000 0.500000 0.500000
O O11 0.783261 0.124691 0.680846
O O12 0.722230 0.253390 0.150773
O O13 0.000000 0.000000 0.000000
#
# Coordination Sequence:
#
# PCOD9045828 Si02
#       6
#     2   2   2   2   2   2
#     4   9  22  46  72 111 145 193 240 311 368 442
#     4  10  24  41  72 108 145 191 242 290 375 444
#     4   9  20  45  71 108 150 192 240 298 373 441
#     4  12  23  46  72 105 152 191 240 306 366 446
#     4  12  29  52  77 110 147 201 254 315 374 438
#     4  12  27  54  80 107 149 196 259 312 374 441
#
# _framework density 25.136566999999999
#
# number of rings (size 3 to 8) (size 9 to 14) (size 15 to 20)
#    1.000    0.333    1.667    3.000    2.333    1.333 
#    0.000    2.500    0.000    0.000    0.000    0.000 
#    0.000    0.000    0.000    0.000    0.000    0.000 
#
# Total GULP energy -67120.085350 kJ/mol
# GULP energy per Si atom -5593.340446 kJ/mol
# Density = 2.507936 g / cm^3
# Si number density = 25.136567 Si / 1000 Ang^3
#
#
#
# Elastic Constant Matrix: (Units=GPa)
#
#
# Indices 1 2 3 4 5 6 
#
# 1 154.1334 30.8247 14.7090 -8.5111 16.9489 -45.5347
# 2 30.8247 73.4899 -1.5714 2.5748 0.5068 -11.8848
# 3 14.7090 -1.5714 77.3957 -4.4654 6.9852 -11.0852
# 4 -8.5111 2.5748 -4.4654 32.2249 -8.0590 -8.4831
# 5 16.9489 0.5068 6.9852 -8.0590 31.3072 -0.3812
# 6 -45.5347 -11.8848 -11.0852 -8.4831 -0.3812 41.2429
#
#
#
# Elastic Compliance Matrix: (Units=1/GPa)
#
#
# Indices 1 2 3 4 5 6 
#
# 1 0.011886 -0.002960 0.000386 0.005783 -0.004820 0.013518
# 2 -0.002960 0.015077 0.000862 -0.001391 0.000821 0.001029
# 3 0.000386 0.000862 0.013958 0.002617 -0.002603 0.004940
# 4 0.005783 -0.001391 0.002617 0.038492 0.006395 0.014663
# 5 -0.004820 0.000821 -0.002603 0.006395 0.036714 -0.004130
# 6 0.013518 0.001029 0.004940 0.014663 -0.004130 0.043774
#
#
# Mechanical properties :
#
#
# Convention : Reuss Voigt Hill
#
# Bulk Modulus (GPa) = 26.66963 43.66041 35.16502
# Shear Modulus (GPa) = 28.43714 38.35879 33.39796
#
# Velocity S-wave (km/s) = 3.36714 3.91066 3.64903
# Velocity P-wave (km/s) = 5.07442 6.14801 5.63683
#
# Compressibility (1/GPa) = 0.03749583
#
# Stress axis : x y z
#
# Youngs Moduli (GPa) = 84.13176 66.32622 71.64201
#
# Poissons Ratio (x) = 0.19635 -0.02764
# Poissons Ratio (y) = 0.24907 -0.06174
# Poissons Ratio (z) = -0.03246 -0.05716
#
# Static dielectric constant tensor:
#      x y z
#    x 1.961440 -0.003610 -0.036680 
#    y -0.003610 2.089760 0.031330 
#    z -0.036680 0.031330 1.920820 
# 
# From -- ./inp_files/93523.got.cif
#   From: 2010.05.17/outbox.cif.g08.bks.cpg/sg2_47_cif.got.tgz:93523.got - 2010.06.03 11:33:40.
