data_PCOD9045209
_publ_section_title
;
Structure prediction by ZEFSAII (Michael W. Deem and Ramdas Pophale) SiO2 
 PCOD9045209
Probable space group: P -1
;
_chemical_formula_sum "Si O2"
_cell_formula_units_Z 13
_cell_length_a 10.199653
_cell_length_b 7.701932
_cell_length_c 8.361690
_cell_angle_alpha 101.629703
_cell_angle_beta 127.705084
_cell_angle_gamma 68.507119
_cell_volume 483.331221
_symmetry_space_group_name_H-M "P -1"
_symmetry_group_IT_number 2
_symmetry_cell_setting 'triclinic'
loop_
_space_group_symop_operation_xyz
x,y,z
-x,-y,-z
loop_
_atom_site_type_symbol
_atom_site_label
_atom_site_fract_x
_atom_site_fract_y
_atom_site_fract_z
Si Si1 0.127344 0.902802 0.440576
Si Si2 0.535226 0.110853 0.398903
Si Si3 0.999562 0.412638 0.256122
Si Si4 0.194160 0.319144 0.070224
Si Si5 0.728126 0.476027 0.332175
Si Si6 0.000000 0.000000 0.000000
Si Si7 0.645141 0.340642 0.780471
O O1 0.284160 0.991366 0.565524
O O2 0.226089 0.697608 0.545416
O O3 0.000000 0.000000 0.500000
O O4 0.033311 0.946495 0.207669
O O5 0.374664 0.159404 0.168056
O O6 0.560345 0.287939 0.545906
O O7 0.500000 0.000000 0.500000
O O8 0.830820 0.405994 0.228543
O O9 0.089624 0.283047 0.144463
O O10 0.158639 0.399768 0.488621
O O11 0.933201 0.618051 0.161763
O O12 0.259460 0.504109 0.161872
O O13 0.520683 0.579072 0.208585
O O14 0.796826 0.152253 0.909755
#
# Coordination Sequence:
#
# PCOD9045209 Si02
#       7
#     2   2   2   2   2   1   2
#     4  11  26  44  69 103 145 186 236 293 360 422
#     4  11  24  40  68 102 143 186 231 295 357 413
#     4  10  24  36  70 103 134 171 237 294 338 417
#     4  11  22  43  70  99 136 185 240 280 349 436
#     4  11  23  46  69 100 141 188 232 292 356 427
#     4  10  26  42  70 106 138 180 236 300 346 414
#     4  11  23  45  73  99 139 191 239 285 358 429
#
# _framework density 26.896668999999999
#
# number of rings (size 3 to 8) (size 9 to 14) (size 15 to 20)
#    0.000    1.231    3.077    2.308    4.308    8.000 
#    0.000    0.000    0.000   10.154    0.000    0.000 
#    0.000    0.000    0.000    0.000    0.000    0.000 
#
# Total GULP energy -72471.931861 kJ/mol
# GULP energy per Si atom -5574.763989 kJ/mol
# Density = 2.683545 g / cm^3
# Si number density = 26.896669 Si / 1000 Ang^3
#
#
#
# Elastic Constant Matrix: (Units=GPa)
#
#
# Indices 1 2 3 4 5 6 
#
# 1 265.9827 62.6705 66.7273 -16.0678 -1.0127 -34.4534
# 2 62.6705 93.2720 45.4599 -42.6460 5.0876 -16.7671
# 3 66.7273 45.4599 138.8190 -38.8366 1.9216 -27.3362
# 4 -16.0678 -42.6460 -38.8366 56.0570 -6.7060 -1.6974
# 5 -1.0127 5.0876 1.9216 -6.7060 62.6136 -6.8695
# 6 -34.4534 -16.7671 -27.3362 -1.6974 -6.8695 48.5287
#
#
#
# Elastic Compliance Matrix: (Units=1/GPa)
#
#
# Indices 1 2 3 4 5 6 
#
# 1 0.005009 -0.003289 -0.001638 -0.002117 0.000333 0.001470
# 2 -0.003289 0.020774 0.000091 0.015148 0.000481 0.005491
# 3 -0.001638 0.000091 0.011185 0.007644 0.001054 0.005586
# 4 -0.002117 0.015148 0.007644 0.034739 0.003287 0.009717
# 5 0.000333 0.000481 0.001054 0.003287 0.016637 0.003467
# 6 0.001470 0.005491 0.005586 0.009717 0.003467 0.027525
#
#
# Mechanical properties :
#
#
# Convention : Reuss Voigt Hill
#
# Bulk Modulus (GPa) = 36.63654 94.19879 65.41766
# Shear Modulus (GPa) = 37.13559 54.98760 46.06159
#
# Velocity S-wave (km/s) = 3.71978 4.52641 4.14277
# Velocity P-wave (km/s) = 5.66567 7.90040 6.87445
#
# Compressibility (1/GPa) = 0.02729516
#
# Stress axis : x y z
#
# Youngs Moduli (GPa) = 199.62236 48.13674 89.40458
#
# Poissons Ratio (x) = 0.15834 0.14645
# Poissons Ratio (y) = 0.65662 -0.00810
# Poissons Ratio (z) = 0.32700 -0.00436
#
# Static dielectric constant tensor:
#      x y z
#    x 1.952120 -0.359960 -0.045500 
#    y -0.359960 1.267970 -0.137430 
#    z -0.045500 -0.137430 2.055450 
# 
# From -- ./inp_files/155073.got.cif
#   From: 2010.05.17/outbox.cif.g08.bks.cpg/sg2_78_cif.got.tgz:155073.got - 2010.06.03 11:33:40.
