data_PCOD9045307
_publ_section_title
;
Structure prediction by ZEFSAII (Michael W. Deem and Ramdas Pophale) SiO2 
 PCOD9045307
Probable space group: P -1
;
_chemical_formula_sum "Si O2"
_cell_formula_units_Z 12
_cell_length_a 5.175141
_cell_length_b 23.869221
_cell_length_c 5.263386
_cell_angle_alpha 108.302273
_cell_angle_beta 118.852563
_cell_angle_gamma 68.460628
_cell_volume 522.163289
_symmetry_space_group_name_H-M "P -1"
_symmetry_group_IT_number 2
_symmetry_cell_setting 'triclinic'
loop_
_space_group_symop_operation_xyz
x,y,z
-x,-y,-z
loop_
_atom_site_type_symbol
_atom_site_label
_atom_site_fract_x
_atom_site_fract_y
_atom_site_fract_z
Si Si1 0.698488 0.476528 0.809322
Si Si2 0.112686 0.741206 0.439099
Si Si3 0.337830 0.070993 0.069514
Si Si4 0.254445 0.329743 0.518022
Si Si5 0.216602 0.637672 0.020809
Si Si6 0.054490 0.883529 0.557040
O O1 0.500000 0.500000 0.500000
O O2 0.779375 0.403710 0.790226
O O3 0.500000 0.500000 0.000000
O O4 0.000000 0.500000 0.000000
O O5 0.467046 0.703625 0.584588
O O6 0.055865 0.708959 0.103411
O O7 0.889115 0.720707 0.497502
O O8 0.077810 0.812144 0.507419
O O9 0.140759 0.081065 0.248812
O O10 0.880697 0.904649 0.239804
O O11 0.610391 0.104645 0.268570
O O12 0.500000 0.000000 0.000000
O O13 0.434855 0.361067 0.852616
O O14 0.990416 0.378717 0.317512
#
# Coordination Sequence:
#
# PCOD9045307 Si02
#       6
#     2   2   2   2   2   2
#     4  12  28  46  72 100 136 179 234 279 335 406
#     4  10  26  40  68  97 136 168 223 272 343 393
#     4  12  26  48  70 101 139 183 227 279 335 397
#     4  10  24  39  67  92 135 169 220 262 352 392
#     4  10  26  42  69  93 137 171 220 275 343 390
#     4  12  26  43  74 102 137 178 231 279 335 406
#
# _framework density 22.981314999999999
#
# number of rings (size 3 to 8) (size 9 to 14) (size 15 to 20)
#    1.000    0.000    0.000    5.000   11.667    0.000 
#    0.000    0.000    0.000    0.000    0.000    0.000 
#    0.000    0.000    0.000    0.000    0.000    0.000 
#
# Total GULP energy -67042.187402 kJ/mol
# GULP energy per Si atom -5586.848950 kJ/mol
# Density = 2.292901 g / cm^3
# Si number density = 22.981315 Si / 1000 Ang^3
#
#
#
# Elastic Constant Matrix: (Units=GPa)
#
#
# Indices 1 2 3 4 5 6 
#
# 1 97.4884 -14.2493 50.5492 -5.9372 19.6384 11.7171
# 2 -14.2493 77.5661 14.9501 3.5021 10.2750 7.7220
# 3 50.5492 14.9501 173.9855 -39.3514 21.1583 10.5596
# 4 -5.9372 3.5021 -39.3514 35.2423 0.8733 -2.4866
# 5 19.6384 10.2750 21.1583 0.8733 37.8568 9.6430
# 6 11.7171 7.7220 10.5596 -2.4866 9.6430 40.0082
#
#
#
# Elastic Compliance Matrix: (Units=1/GPa)
#
#
# Indices 1 2 3 4 5 6 
#
# 1 0.014528 0.004684 -0.004478 -0.003082 -0.005510 -0.002840
# 2 0.004684 0.015332 -0.002932 -0.004105 -0.004141 -0.002814
# 3 -0.004478 -0.002932 0.010089 0.010917 -0.002924 0.000598
# 4 -0.003082 -0.004105 0.010917 0.040757 -0.004978 0.002546
# 5 -0.005510 -0.004141 -0.002924 -0.004978 0.033469 -0.005192
# 6 -0.002840 -0.002814 0.000598 0.002546 -0.005192 0.027622
#
#
# Mechanical properties :
#
#
# Convention : Reuss Voigt Hill
#
# Bulk Modulus (GPa) = 28.98895 50.17113 39.58004
# Shear Modulus (GPa) = 31.49658 42.47412 36.98535
#
# Velocity S-wave (km/s) = 3.70608 4.30374 4.01604
# Velocity P-wave (km/s) = 5.56372 6.82458 6.22615
#
# Compressibility (1/GPa) = 0.03449590
#
# Stress axis : x y z
#
# Youngs Moduli (GPa) = 68.83374 65.22392 99.11744
#
# Poissons Ratio (x) = -0.30549 0.44383
# Poissons Ratio (y) = -0.32240 0.29063
# Poissons Ratio (z) = 0.30823 0.19125
#
# Static dielectric constant tensor:
#      x y z
#    x 1.879950 -0.069460 -0.000180 
#    y -0.069460 1.899290 0.020380 
#    z -0.000180 0.020380 1.944240 
# 
# From -- ./inp_files/13646.got.cif
#   From: 2010.05.17/outbox.cif.g08.bks.cpg/sg2_7_cif.got.tgz:13646.got - 2010.06.03 11:33:40.
