data_PCOD9045301
_publ_section_title
;
Structure prediction by ZEFSAII (Michael W. Deem and Ramdas Pophale) SiO2 
 PCOD9045301
Probable space group: P -1
;
_chemical_formula_sum "Si O2"
_cell_formula_units_Z 16
_cell_length_a 15.183865
_cell_length_b 9.756259
_cell_length_c 11.281908
_cell_angle_alpha 77.869394
_cell_angle_beta 97.796974
_cell_angle_gamma 150.642716
_cell_volume 797.112949
_symmetry_space_group_name_H-M "P -1"
_symmetry_group_IT_number 2
_symmetry_cell_setting 'triclinic'
loop_
_space_group_symop_operation_xyz
x,y,z
-x,-y,-z
loop_
_atom_site_type_symbol
_atom_site_label
_atom_site_fract_x
_atom_site_fract_y
_atom_site_fract_z
Si Si1 0.748027 0.888317 0.935921
Si Si2 0.153159 0.433677 0.904974
Si Si3 0.269522 0.420023 0.136028
Si Si4 0.074167 0.206091 0.375361
Si Si5 0.478306 0.710301 0.787538
Si Si6 0.614721 0.989220 0.194518
Si Si7 0.733880 0.837961 0.226152
Si Si8 0.404000 0.852379 0.384131
O O1 0.950854 0.176480 0.868634
O O2 0.677766 0.651132 0.903890
O O3 0.611056 0.822357 0.887383
O O4 0.761693 0.889218 0.079436
O O5 0.298290 0.541349 0.836420
O O6 0.234003 0.699840 0.884288
O O7 0.137804 0.323421 0.042933
O O8 0.188326 0.287670 0.275871
O O9 0.444453 0.756950 0.118218
O O10 0.211662 0.509151 0.402486
O O11 0.000000 0.000000 0.500000
O O12 0.907473 0.043298 0.301197
O O13 0.404417 0.483265 0.732062
O O14 0.597280 0.993059 0.696631
O O15 0.665244 0.897361 0.238013
O O16 0.540528 0.951177 0.309283
O O17 0.500000 0.000000 0.500000
#
# Coordination Sequence:
#
# PCOD9045301 Si02
#       8
#     2   2   2   2   2   2   2   2
#     4  12  23  38  67 105 140 175 220 264 338 408
#     4  11  22  39  64  95 141 175 213 266 336 395
#     4  11  20  43  63  98 132 180 217 266 333 410
#     4  11  25  43  69  95 130 177 226 279 331 388
#     4  11  23  41  69  98 138 178 215 273 333 396
#     4  10  24  39  66  98 133 170 216 279 334 393
#     4  12  22  42  65 100 139 168 221 273 332 399
#     4  10  24  49  68  90 130 181 229 270 337 394
#
# _framework density 20.072438999999999
#
# number of rings (size 3 to 8) (size 9 to 14) (size 15 to 20)
#    0.000    1.000    3.750    3.375    1.750    3.500 
#    2.250    2.500    0.000    0.000    0.000    0.000 
#    0.000    0.000    0.000    0.000    0.000    0.000 
#
# Total GULP energy -89293.751814 kJ/mol
# GULP energy per Si atom -5580.859488 kJ/mol
# Density = 2.002675 g / cm^3
# Si number density = 20.072439 Si / 1000 Ang^3
#
#
#
# Elastic Constant Matrix: (Units=GPa)
#
#
# Indices 1 2 3 4 5 6 
#
# 1 100.7621 51.1234 38.3437 1.9916 18.7080 -14.0329
# 2 51.1234 116.4616 65.2008 -6.1284 16.9453 -6.6546
# 3 38.3437 65.2008 94.2746 2.4952 14.1725 -11.9395
# 4 1.9916 -6.1284 2.4952 38.7591 -2.7006 6.2602
# 5 18.7080 16.9453 14.1725 -2.7006 15.7640 6.4771
# 6 -14.0329 -6.6546 -11.9395 6.2602 6.4771 39.7187
#
#
#
# Elastic Compliance Matrix: (Units=1/GPa)
#
#
# Indices 1 2 3 4 5 6 
#
# 1 0.017378 -0.004621 0.000649 -0.004704 -0.021044 0.009734
# 2 -0.004621 0.016257 -0.009382 0.003576 -0.002145 -0.001943
# 3 0.000649 -0.009382 0.019737 -0.004831 -0.012279 0.007354
# 4 -0.004704 0.003576 -0.004831 0.029526 0.015096 -0.009630
# 5 -0.021044 -0.002145 -0.012279 0.015096 0.117941 -0.033098
# 6 0.009734 -0.001943 0.007354 -0.009630 -0.033098 0.037416
#
#
# Mechanical properties :
#
#
# Convention : Reuss Voigt Hill
#
# Bulk Modulus (GPa) = 37.50469 68.98157 53.24313
# Shear Modulus (GPa) = 18.25812 29.30372 23.78092
#
# Velocity S-wave (km/s) = 3.01925 3.82501 3.44576
# Velocity P-wave (km/s) = 5.55695 7.34496 6.51261
#
# Compressibility (1/GPa) = 0.02666333
#
# Stress axis : x y z
#
# Youngs Moduli (GPa) = 57.54493 61.51264 50.66571
#
# Poissons Ratio (x) = 0.28425 -0.03287
# Poissons Ratio (y) = 0.26591 0.47535
# Poissons Ratio (z) = -0.03733 0.57712
#
# Static dielectric constant tensor:
#      x y z
#    x 1.721830 0.026910 -0.009940 
#    y 0.026910 1.753610 -0.004180 
#    z -0.009940 -0.004180 1.716180 
# 
# From -- ./inp_files/307222.got.cif
#   From: 2010.05.17/outbox.cif.g08.bks.cpg/sg2_154_cif.got.tgz:307222.got - 2010.06.03 11:33:40.
