data_PCOD9045773
_publ_section_title
;
Structure prediction by ZEFSAII (Michael W. Deem and Ramdas Pophale) SiO2 
 PCOD9045773
Probable space group: P -1
;
_chemical_formula_sum "Si O2"
_cell_formula_units_Z 14
_cell_length_a 8.130663
_cell_length_b 11.855887
_cell_length_c 7.784523
_cell_angle_alpha 97.967621
_cell_angle_beta 136.178716
_cell_angle_gamma 72.843894
_cell_volume 493.332080
_symmetry_space_group_name_H-M "P -1"
_symmetry_group_IT_number 2
_symmetry_cell_setting 'triclinic'
loop_
_space_group_symop_operation_xyz
x,y,z
-x,-y,-z
loop_
_atom_site_type_symbol
_atom_site_label
_atom_site_fract_x
_atom_site_fract_y
_atom_site_fract_z
Si Si1 0.225068 0.576993 0.344639
Si Si2 0.856985 0.454626 0.111021
Si Si3 0.843193 0.164547 0.493600
Si Si4 0.632562 0.861980 0.102717
Si Si5 0.665726 0.121646 0.697545
Si Si6 0.808968 0.854268 0.850857
Si Si7 0.559824 0.312765 0.048952
O O1 0.500000 0.500000 0.500000
O O2 0.219630 0.698300 0.458500
O O3 0.092688 0.498759 0.342425
O O4 0.107683 0.592215 0.067964
O O5 0.770714 0.362876 0.144556
O O6 0.630587 0.576273 0.980135
O O7 0.788967 0.091070 0.593769
O O8 0.648092 0.187391 0.196445
O O9 0.111661 0.122955 0.613509
O O10 0.764312 0.813392 0.001630
O O11 0.593836 0.757906 0.190385
O O12 0.500000 0.000000 0.000000
O O13 0.381280 0.185277 0.430359
O O14 0.694943 0.998116 0.788937
O O15 0.892013 0.169214 0.958785
#
# Coordination Sequence:
#
# PCOD9045773 Si02
#       7
#     2   2   2   2   2   2   2
#     4  11  22  41  67  99 128 173 223 280 340 412
#     4  10  24  41  68  99 136 171 224 283 345 416
#     4  11  22  39  68  95 131 176 224 280 348 407
#     4  11  24  41  65  91 134 179 228 277 341 415
#     4   9  18  34  61  86 123 165 217 274 332 399
#     4   9  18  36  57  88 120 169 221 271 328 394
#     4  11  22  43  66  99 135 177 221 283 349 409
#
# _framework density 28.378449
#
# number of rings (size 3 to 8) (size 9 to 14) (size 15 to 20)
#    0.000    1.714    4.286    0.000    0.000    3.429 
#    0.000    0.000    0.000    0.000    0.000    0.000 
#    0.000    0.000    0.000    0.000    0.000    0.000 
#
# Total GULP energy -78097.029235 kJ/mol
# GULP energy per Si atom -5578.359231 kJ/mol
# Density = 2.831386 g / cm^3
# Si number density = 28.378449 Si / 1000 Ang^3
#
#
#
# Elastic Constant Matrix: (Units=GPa)
#
#
# Indices 1 2 3 4 5 6 
#
# 1 115.6521 59.8364 54.0675 22.1165 44.4164 41.5346
# 2 59.8364 165.5983 32.2185 25.4593 5.8275 9.7546
# 3 54.0675 32.2185 136.0195 8.9614 27.6413 -6.3890
# 4 22.1165 25.4593 8.9614 42.6991 -3.4225 1.6447
# 5 44.4164 5.8275 27.6413 -3.4225 58.7559 8.1723
# 6 41.5346 9.7546 -6.3890 1.6447 8.1723 64.5236
#
#
#
# Elastic Compliance Matrix: (Units=1/GPa)
#
#
# Indices 1 2 3 4 5 6 
#
# 1 0.029298 -0.006038 -0.006872 -0.010845 -0.016689 -0.016237
# 2 -0.006038 0.008217 -0.000016 -0.001587 0.003351 0.002259
# 3 -0.006872 -0.000016 0.010341 0.001160 -0.000361 0.005466
# 4 -0.010845 -0.001587 0.001160 0.030236 0.008814 0.005449
# 5 -0.016689 0.003351 -0.000361 0.008814 0.029112 0.006289
# 6 -0.016237 0.002259 0.005466 0.005449 0.006289 0.025215
#
#
# Mechanical properties :
#
#
# Convention : Reuss Voigt Hill
#
# Bulk Modulus (GPa) = 45.44992 78.83497 62.14245
# Shear Modulus (GPa) = 30.19187 51.27221 40.73204
#
# Velocity S-wave (km/s) = 3.26529 4.25518 3.79267
# Velocity P-wave (km/s) = 5.50151 7.20987 6.41283
#
# Compressibility (1/GPa) = 0.02200224
#
# Stress axis : x y z
#
# Youngs Moduli (GPa) = 34.13146 121.70365 96.70018
#
# Poissons Ratio (x) = 0.73489 0.66456
# Poissons Ratio (y) = 0.20610 0.00158
# Poissons Ratio (z) = 0.23457 0.00198
#
# Static dielectric constant tensor:
#      x y z
#    x 2.351200 -0.088390 -0.170010 
#    y -0.088390 2.199950 0.031980 
#    z -0.170010 0.031980 2.725640 
# 
# From -- ./inp_files/188954.got.cif
#   From: 2010.05.17/outbox.cif.g08.bks.cpg/sg2_95_cif.got.tgz:188954.got - 2010.06.03 11:33:40.
