data_PCOD9045100
_publ_section_title
;
Structure prediction by ZEFSAII (Michael W. Deem and Ramdas Pophale) SiO2 
 PCOD9045100
Probable space group: P -1
;
_chemical_formula_sum "Si O2"
_cell_formula_units_Z 16
_cell_length_a 7.791121
_cell_length_b 11.874510
_cell_length_c 11.707758
_cell_angle_alpha 37.075065
_cell_angle_beta 87.800292
_cell_angle_gamma 96.909905
_cell_volume 631.697037
_symmetry_space_group_name_H-M "P -1"
_symmetry_group_IT_number 2
_symmetry_cell_setting 'triclinic'
loop_
_space_group_symop_operation_xyz
x,y,z
-x,-y,-z
loop_
_atom_site_type_symbol
_atom_site_label
_atom_site_fract_x
_atom_site_fract_y
_atom_site_fract_z
Si Si1 0.125391 0.154785 0.951052
Si Si2 0.518758 0.895578 0.737335
Si Si3 0.861048 0.811978 0.693757
Si Si4 0.788258 0.497105 0.501721
Si Si5 0.587110 0.057735 0.829605
Si Si6 0.362606 0.671362 0.712150
Si Si7 0.685200 0.547468 0.725119
Si Si8 0.993373 0.392219 0.946875
O O1 0.222720 0.334005 0.722908
O O2 0.017558 0.229205 0.990614
O O3 0.250349 0.039229 0.099534
O O4 0.000000 0.000000 0.000000
O O5 0.704701 0.839384 0.757908
O O6 0.390055 0.733278 0.794464
O O7 0.462755 0.937350 0.832170
O O8 0.564266 0.117069 0.513327
O O9 0.768155 0.746548 0.627564
O O10 0.960519 0.677620 0.872176
O O11 0.000000 0.000000 0.500000
O O12 0.667192 0.288605 0.632639
O O13 0.720355 0.536386 0.598588
O O14 0.000000 0.500000 0.500000
O O15 0.500000 0.000000 0.000000
O O16 0.479946 0.525365 0.784516
O O17 0.159558 0.575147 0.765956
O O18 0.809385 0.431629 0.879919
#
# Coordination Sequence:
#
# PCOD9045100 Si02
#       8
#     2   2   2   2   2   2   2   2
#     4  12  26  47  75 107 148 208 249 312 388 450
#     4  10  23  49  71 106 154 187 249 317 376 449
#     4  11  25  42  73 105 142 196 244 306 372 443
#     4  12  26  47  74 109 155 198 254 321 376 458
#     4  12  28  47  77 111 150 205 255 313 387 463
#     4  10  25  46  79 109 145 198 243 318 381 446
#     4  11  26  45  72 114 142 195 250 302 381 458
#     4  12  24  47  76 105 153 193 248 313 379 452
#
# _framework density 25.328598
#
# number of rings (size 3 to 8) (size 9 to 14) (size 15 to 20)
#    0.000    0.750    3.750    1.875    7.000    3.500 
#    0.000    3.750    0.000    0.000    0.000    0.000 
#    0.000    0.000    0.000    0.000    0.000    0.000 
#
# Total GULP energy -89492.013531 kJ/mol
# GULP energy per Si atom -5593.250846 kJ/mol
# Density = 2.527095 g / cm^3
# Si number density = 25.328598 Si / 1000 Ang^3
#
#
#
# Elastic Constant Matrix: (Units=GPa)
#
#
# Indices 1 2 3 4 5 6 
#
# 1 68.0641 27.6702 21.5006 -20.0927 -2.1875 -3.5754
# 2 27.6702 165.8267 7.3428 5.3672 -17.5588 6.2359
# 3 21.5006 7.3428 84.4094 -19.7027 -3.6211 6.5096
# 4 -20.0927 5.3672 -19.7027 42.5063 -0.0016 -0.2785
# 5 -2.1875 -17.5588 -3.6211 -0.0016 37.3663 -5.6650
# 6 -3.5754 6.2359 6.5096 -0.2785 -5.6650 41.0490
#
#
#
# Elastic Compliance Matrix: (Units=1/GPa)
#
#
# Indices 1 2 3 4 5 6 
#
# 1 0.019693 -0.003571 -0.002973 0.008400 -0.000399 0.002731
# 2 -0.003571 0.007066 -0.000120 -0.002642 0.002952 -0.000976
# 3 -0.002973 -0.000120 0.014015 0.005091 0.000776 -0.002322
# 4 0.008400 -0.002642 0.005091 0.030193 -0.000179 0.000506
# 5 -0.000399 0.002952 0.000776 -0.000179 0.028710 0.003355
# 6 0.002731 -0.000976 -0.002322 0.000506 0.003355 0.025582
#
#
# Mechanical properties :
#
#
# Convention : Reuss Voigt Hill
#
# Bulk Modulus (GPa) = 36.43328 47.92529 42.17929
# Shear Modulus (GPa) = 33.84408 41.63676 37.74042
#
# Velocity S-wave (km/s) = 3.65937 4.05886 3.86428
# Velocity P-wave (km/s) = 5.68068 6.39752 6.04973
#
# Compressibility (1/GPa) = 0.02744743
#
# Stress axis : x y z
#
# Youngs Moduli (GPa) = 50.77909 141.51512 71.35037
#
# Poissons Ratio (x) = 0.50538 0.21210
# Poissons Ratio (y) = 0.18134 0.00855
# Poissons Ratio (z) = 0.15095 0.01697
#
# Static dielectric constant tensor:
#      x y z
#    x 1.488330 0.003560 -0.032230 
#    y 0.003560 2.018470 0.040160 
#    z -0.032230 0.040160 2.025220 
# 
# From -- ./inp_files/386510.got.cif
#   From: 2010.05.17/outbox.cif.g08.bks.cpg/sg2_194_cif.got.tgz:386510.got - 2010.06.03 11:33:40.
