data_PCOD9045998
_publ_section_title
;
Structure prediction by ZEFSAII (Michael W. Deem and Ramdas Pophale) SiO2 
 PCOD9045998
Probable space group: P -1
;
_chemical_formula_sum "Si O2"
_cell_formula_units_Z 16
_cell_length_a 9.414427
_cell_length_b 5.206637
_cell_length_c 15.828726
_cell_angle_alpha 97.461112
_cell_angle_beta 94.339815
_cell_angle_gamma 50.309258
_cell_volume 591.963534
_symmetry_space_group_name_H-M "P -1"
_symmetry_group_IT_number 2
_symmetry_cell_setting 'triclinic'
loop_
_space_group_symop_operation_xyz
x,y,z
-x,-y,-z
loop_
_atom_site_type_symbol
_atom_site_label
_atom_site_fract_x
_atom_site_fract_y
_atom_site_fract_z
Si Si1 0.164691 0.486990 0.115961
Si Si2 0.323855 0.361917 0.867430
Si Si3 0.695662 0.998082 0.521675
Si Si4 0.016100 0.370449 0.255079
Si Si5 0.406821 0.625842 0.633808
Si Si6 0.615248 0.346892 0.790537
Si Si7 0.780440 0.991445 0.034191
Si Si8 0.921460 0.320720 0.421592
O O1 0.086043 0.526097 0.207756
O O2 0.323016 0.513870 0.132251
O O3 0.994533 0.772695 0.062356
O O4 0.223626 0.146475 0.061804
O O5 0.499755 0.235412 0.814256
O O6 0.306534 0.120753 0.910419
O O7 0.150029 0.556852 0.804135
O O8 0.305908 0.628962 0.940459
O O9 0.792082 0.610196 0.497060
O O10 0.876379 0.969075 0.544940
O O11 0.547927 0.231455 0.596759
O O12 0.594279 0.180409 0.436988
O O13 0.954069 0.485656 0.352783
O O14 0.191501 0.978498 0.251150
O O15 0.484498 0.630523 0.726157
O O16 0.199406 0.759150 0.631529
#
# Coordination Sequence:
#
# PCOD9045998 Si02
#       8
#     2   2   2   2   2   2   2   2
#     4  10  25  43  71  99 140 183 238 291 361 426
#     4  11  25  45  74 102 145 188 244 294 368 426
#     4  10  24  42  66 101 133 180 235 288 357 427
#     4  11  24  44  65 100 142 184 233 293 360 429
#     4  11  23  43  67  99 139 177 233 296 355 424
#     4  12  25  42  68 101 139 185 236 293 360 431
#     4  10  24  47  74 104 142 194 236 305 356 432
#     4  11  22  44  69  96 136 184 233 288 358 427
#
# _framework density 27.028694000000002
#
# number of rings (size 3 to 8) (size 9 to 14) (size 15 to 20)
#    0.000    1.250    3.750    0.750    3.500    6.500 
#    9.000    0.000    0.000    0.000    0.000    0.000 
#    0.000    0.000    0.000    0.000    0.000    0.000 
#
# Total GULP energy -89688.614143 kJ/mol
# GULP energy per Si atom -5605.538384 kJ/mol
# Density = 2.696718 g / cm^3
# Si number density = 27.028694 Si / 1000 Ang^3
#
#
#
# Elastic Constant Matrix: (Units=GPa)
#
#
# Indices 1 2 3 4 5 6 
#
# 1 167.8592 42.5162 50.6976 -9.8807 29.4328 -17.4638
# 2 42.5162 88.8098 27.9072 3.1844 13.8317 -11.5028
# 3 50.6976 27.9072 111.0726 -20.6555 9.1272 -2.9705
# 4 -9.8807 3.1844 -20.6555 43.4617 -11.6472 1.8704
# 5 29.4328 13.8317 9.1272 -11.6472 36.8692 -7.4549
# 6 -17.4638 -11.5028 -2.9705 1.8704 -7.4549 42.0109
#
#
#
# Elastic Compliance Matrix: (Units=1/GPa)
#
#
# Indices 1 2 3 4 5 6 
#
# 1 0.008420 -0.002017 -0.003020 -0.000820 -0.005100 0.001866
# 2 -0.002017 0.014217 -0.003032 -0.004055 -0.003779 0.002350
# 3 -0.003020 -0.003032 0.012028 0.005891 0.002209 -0.001106
# 4 -0.000820 -0.004055 0.005891 0.028519 0.009606 -0.000600
# 5 -0.005100 -0.003779 0.002209 0.009606 0.035687 0.002907
# 6 0.001866 0.002350 -0.001106 -0.000600 0.002907 0.025687
#
#
# Mechanical properties :
#
#
# Convention : Reuss Voigt Hill
#
# Bulk Modulus (GPa) = 53.97602 67.77598 60.87600
# Shear Modulus (GPa) = 34.04324 40.90972 37.47648
#
# Velocity S-wave (km/s) = 3.55282 3.89468 3.72767
# Velocity P-wave (km/s) = 6.06987 6.73459 6.41085
#
# Compressibility (1/GPa) = 0.01852675
#
# Stress axis : x y z
#
# Youngs Moduli (GPa) = 118.75902 70.34056 83.13904
#
# Poissons Ratio (x) = 0.14186 0.25110
# Poissons Ratio (y) = 0.23950 0.25209
# Poissons Ratio (z) = 0.35868 0.21328
#
# Static dielectric constant tensor:
#      x y z
#    x 2.094270 0.015410 -0.022700 
#    y 0.015410 2.161290 0.020560 
#    z -0.022700 0.020560 2.090780 
# 
# From -- ./inp_files/142579.got.cif
#   From: 2010.05.17/outbox.cif.g08.bks.cpg/sg2_72_cif.got.tgz:142579.got - 2010.06.03 11:33:40.
