data_PCOD9045170
_publ_section_title
;
Structure prediction by ZEFSAII (Michael W. Deem and Ramdas Pophale) SiO2 
 PCOD9045170
Probable space group: P -1
;
_chemical_formula_sum "Si O2"
_cell_formula_units_Z 14
_cell_length_a 8.753167
_cell_length_b 16.356419
_cell_length_c 5.678304
_cell_angle_alpha 56.341014
_cell_angle_beta 120.948150
_cell_angle_gamma 122.579319
_cell_volume 542.531132
_symmetry_space_group_name_H-M "P -1"
_symmetry_group_IT_number 2
_symmetry_cell_setting 'triclinic'
loop_
_space_group_symop_operation_xyz
x,y,z
-x,-y,-z
loop_
_atom_site_type_symbol
_atom_site_label
_atom_site_fract_x
_atom_site_fract_y
_atom_site_fract_z
Si Si1 0.829478 0.910646 0.207775
Si Si2 0.269994 0.741895 0.668875
Si Si3 0.228991 0.949279 0.433673
Si Si4 0.670660 0.713885 0.098037
Si Si5 0.849365 0.573359 0.670472
Si Si6 0.272682 0.451138 0.878342
Si Si7 0.500352 0.107088 0.716482
O O1 0.802124 0.827525 0.108075
O O2 0.650706 0.859147 0.314963
O O3 0.034805 0.932237 0.445993
O O4 0.817096 0.017212 0.916294
O O5 0.270691 0.842751 0.660465
O O6 0.314009 0.795522 0.357783
O O7 0.064202 0.654816 0.679600
O O8 0.453723 0.708781 0.911775
O O9 0.395888 0.053711 0.479011
O O10 0.696969 0.633574 0.441471
O O11 0.756476 0.670928 0.011445
O O12 0.796417 0.509425 0.482656
O O13 0.821937 0.531045 0.983048
O O14 0.500000 0.500000 0.000000
O O15 0.500000 0.000000 0.000000
#
# Coordination Sequence:
#
# PCOD9045170 Si02
#       7
#     2   2   2   2   2   2   2
#     4  11  22  40  59  88 129 177 233 275 332 379
#     4  12  23  43  61  98 137 179 232 279 338 394
#     4  11  22  40  56  86 131 181 234 274 323 383
#     4  10  24  41  68  97 135 174 225 282 342 398
#     4  10  25  45  71 106 135 177 218 279 341 413
#     4  10  23  50  78 101 137 174 214 277 352 419
#     4  12  24  36  59  87 128 188 231 284 320 384
#
# _framework density 25.804973
#
# number of rings (size 3 to 8) (size 9 to 14) (size 15 to 20)
#    0.857    0.286    4.286    2.143    2.000    2.286 
#    7.714    1.429    0.000    0.000    0.000    0.000 
#    0.000    0.000    0.000    0.000    0.000    0.000 
#
# Total GULP energy -78107.906848 kJ/mol
# GULP energy per Si atom -5579.136203 kJ/mol
# Density = 2.574624 g / cm^3
# Si number density = 25.804973 Si / 1000 Ang^3
#
#
#
# Elastic Constant Matrix: (Units=GPa)
#
#
# Indices 1 2 3 4 5 6 
#
# 1 138.0163 35.7808 53.5674 5.4570 -26.0122 22.5727
# 2 35.7808 82.7639 21.4906 6.7546 -12.0253 1.3109
# 3 53.5674 21.4906 86.1249 7.0380 2.7282 -16.4052
# 4 5.4570 6.7546 7.0380 31.7141 -13.5886 14.0708
# 5 -26.0122 -12.0253 2.7282 -13.5886 51.5611 -6.3891
# 6 22.5727 1.3109 -16.4052 14.0708 -6.3891 41.9502
#
#
#
# Elastic Compliance Matrix: (Units=1/GPa)
#
#
# Indices 1 2 3 4 5 6 
#
# 1 0.019380 -0.003312 -0.016617 0.014803 0.011298 -0.020067
# 2 -0.003312 0.014106 -0.000892 -0.002623 0.001230 0.002060
# 3 -0.016617 -0.000892 0.028937 -0.019715 -0.012216 0.025038
# 4 0.014803 -0.002623 -0.019715 0.055919 0.018734 -0.031496
# 5 0.011298 0.001230 -0.012216 0.018734 0.029391 -0.012702
# 6 -0.020067 0.002060 0.025038 -0.031496 -0.012702 0.052992
#
#
# Mechanical properties :
#
#
# Convention : Reuss Voigt Hill
#
# Bulk Modulus (GPa) = 48.12437 58.73143 53.42790
# Shear Modulus (GPa) = 20.05653 38.11617 29.08635
#
# Velocity S-wave (km/s) = 2.79092 3.84746 3.36096
# Velocity P-wave (km/s) = 5.39216 6.52276 5.98422
#
# Compressibility (1/GPa) = 0.02077949
#
# Stress axis : x y z
#
# Youngs Moduli (GPa) = 51.59958 70.89018 34.55842
#
# Poissons Ratio (x) = 0.23480 0.57427
# Poissons Ratio (y) = 0.17091 0.03083
# Poissons Ratio (z) = 0.85745 0.06324
#
# Static dielectric constant tensor:
#      x y z
#    x 2.093380 -0.057380 0.013750 
#    y -0.057380 2.014440 0.032970 
#    z 0.013750 0.032970 2.294530 
# 
# From -- ./inp_files/34813.got.cif
#   From: 2010.05.17/outbox.cif.g08.bks.cpg/sg2_18_cif.got.tgz:34813.got - 2010.06.03 11:33:40.
