data_PCOD9045555
_publ_section_title
;
Structure prediction by ZEFSAII (Michael W. Deem and Ramdas Pophale) SiO2 
 PCOD9045555
Probable space group: P -1
;
_chemical_formula_sum "Si O2"
_cell_formula_units_Z 15
_cell_length_a 16.243537
_cell_length_b 9.292082
_cell_length_c 8.132189
_cell_angle_alpha 32.279876
_cell_angle_beta 99.008818
_cell_angle_gamma 110.465930
_cell_volume 589.962095
_symmetry_space_group_name_H-M "P -1"
_symmetry_group_IT_number 2
_symmetry_cell_setting 'triclinic'
loop_
_space_group_symop_operation_xyz
x,y,z
-x,-y,-z
loop_
_atom_site_type_symbol
_atom_site_label
_atom_site_fract_x
_atom_site_fract_y
_atom_site_fract_z
Si Si1 0.152579 0.438187 0.289637
Si Si2 0.038212 0.579434 0.668503
Si Si3 0.247632 0.373225 0.688268
Si Si4 0.295225 0.950367 0.316153
Si Si5 0.797045 0.045546 0.404022
Si Si6 0.436525 0.662259 0.268187
Si Si7 0.000000 0.000000 0.000000
Si Si8 0.499141 0.239659 0.141452
O O1 0.163947 0.345844 0.570861
O O2 0.053283 0.438594 0.251052
O O3 0.174273 0.208377 0.407263
O O4 0.217277 0.770763 0.931346
O O5 0.122733 0.726890 0.675636
O O6 0.045556 0.808104 0.303711
O O7 0.027157 0.261007 0.905845
O O8 0.339171 0.523994 0.461113
O O9 0.258421 0.601054 0.618140
O O10 0.244920 0.075647 0.050307
O O11 0.401165 0.096697 0.160517
O O12 0.285747 0.050941 0.399718
O O13 0.500000 0.500000 0.500000
O O14 0.424117 0.649693 0.080086
O O15 0.500000 0.000000 0.000000
O O16 0.500000 0.000000 0.500000
O O17 0.500000 0.500000 0.000000
#
# Coordination Sequence:
#
# PCOD9045555 Si02
#       8
#     2   2   2   2   2   2   1   2
#     4  12  27  46  72 105 138 187 237 290 355 419
#     4  11  24  45  74  99 146 181 242 281 358 408
#     4  12  26  46  70 101 143 182 233 293 342 429
#     4  12  27  47  67 105 142 184 228 289 361 406
#     4  12  27  46  71 103 145 182 231 299 357 413
#     4  12  23  46  70  98 132 185 231 276 348 411
#     4  10  24  40  72 110 128 180 236 292 336 420
#     4  12  26  43  72  99 138 181 231 285 343 421
#
# _framework density 25.425363000000001
#
# number of rings (size 3 to 8) (size 9 to 14) (size 15 to 20)
#    0.000    0.267    2.667    5.600    9.333    0.000 
#    0.000    0.000    0.000    0.000    0.000    0.000 
#    0.000    0.000    0.000    0.000    0.000    0.000 
#
# Total GULP energy -83885.313816 kJ/mol
# GULP energy per Si atom -5592.354254 kJ/mol
# Density = 2.536749 g / cm^3
# Si number density = 25.425363 Si / 1000 Ang^3
#
#
#
# Elastic Constant Matrix: (Units=GPa)
#
#
# Indices 1 2 3 4 5 6 
#
# 1 93.9699 9.8151 14.7003 -10.4791 5.0913 -16.5326
# 2 9.8151 90.2155 11.6555 -17.3543 11.8377 -28.9232
# 3 14.7003 11.6555 125.0118 -2.9319 40.2984 -16.3835
# 4 -10.4791 -17.3543 -2.9319 63.1229 -11.9896 6.3187
# 5 5.0913 11.8377 40.2984 -11.9896 36.9501 3.1099
# 6 -16.5326 -28.9232 -16.3835 6.3187 3.1099 52.7377
#
#
#
# Elastic Compliance Matrix: (Units=1/GPa)
#
#
# Indices 1 2 3 4 5 6 
#
# 1 0.011525 0.000331 -0.000633 0.001472 -0.000818 0.003469
# 2 0.000331 0.015088 0.002211 0.001966 -0.007433 0.009268
# 3 -0.000633 0.002211 0.014499 -0.002930 -0.017968 0.006929
# 4 0.001472 0.001966 -0.002930 0.018308 0.008477 -0.002064
# 5 -0.000818 -0.007433 -0.017968 0.008477 0.053088 -0.014061
# 6 0.003469 0.009268 0.006929 -0.002064 -0.014061 0.028361
#
#
# Mechanical properties :
#
#
# Convention : Reuss Voigt Hill
#
# Bulk Modulus (GPa) = 22.25740 42.39322 32.32531
# Shear Modulus (GPa) = 32.88875 48.76391 40.82633
#
# Velocity S-wave (km/s) = 3.60048 4.38416 4.01151
# Velocity P-wave (km/s) = 5.10467 6.50674 5.84788
#
# Compressibility (1/GPa) = 0.04492888
#
# Stress axis : x y z
#
# Youngs Moduli (GPa) = 86.76722 66.27890 68.97025
#
# Poissons Ratio (x) = -0.02192 0.04368
# Poissons Ratio (y) = -0.02869 -0.15250
# Poissons Ratio (z) = 0.05495 -0.14655
#
# Static dielectric constant tensor:
#      x y z
#    x 2.153670 0.142450 0.216100 
#    y 0.142450 2.104880 0.191620 
#    z 0.216100 0.191620 1.866000 
# 
# From -- ./inp_files/325476.got.cif
#   From: 2010.05.17/outbox.cif.g08.bks.cpg/sg2_163_cif.got.tgz:325476.got - 2010.06.03 11:33:40.
