data_PCOD9045206
_publ_section_title
;
Structure prediction by ZEFSAII (Michael W. Deem and Ramdas Pophale) SiO2 
 PCOD9045206
Probable space group: P -1
;
_chemical_formula_sum "Si O2"
_cell_formula_units_Z 14
_cell_length_a 5.108222
_cell_length_b 11.248310
_cell_length_c 16.737358
_cell_angle_alpha 50.709882
_cell_angle_beta 53.169511
_cell_angle_gamma 75.731920
_cell_volume 581.836304
_symmetry_space_group_name_H-M "P -1"
_symmetry_group_IT_number 2
_symmetry_cell_setting 'triclinic'
loop_
_space_group_symop_operation_xyz
x,y,z
-x,-y,-z
loop_
_atom_site_type_symbol
_atom_site_label
_atom_site_fract_x
_atom_site_fract_y
_atom_site_fract_z
Si Si1 0.333828 0.678278 0.849040
Si Si2 0.722767 0.834039 0.448572
Si Si3 0.091424 0.803477 0.683370
Si Si4 0.438977 0.614947 0.109292
Si Si5 0.560498 0.204980 0.660425
Si Si6 0.297794 0.869796 0.932561
Si Si7 0.737872 0.658554 0.201863
O O1 0.122147 0.711961 0.798339
O O2 0.360790 0.497535 0.923713
O O3 0.242617 0.751698 0.916851
O O4 0.725753 0.764647 0.727491
O O5 0.382866 0.773127 0.585179
O O6 0.630687 0.819986 0.377919
O O7 0.039815 0.757231 0.439904
O O8 0.836234 0.014433 0.380188
O O9 0.491312 0.601656 0.199163
O O10 0.040671 0.568015 0.187436
O O11 0.528677 0.793300 0.983333
O O12 0.433312 0.328357 0.688311
O O13 0.461918 0.039620 0.797617
O O14 0.945949 0.831494 0.060386
#
# Coordination Sequence:
#
# PCOD9045206 Si02
#       7
#     2   2   2   2   2   2   2
#     4  12  22  40  65  89 127 158 197 251 304 356
#     4  11  23  40  63  93 120 152 202 257 310 355
#     4  11  23  40  63  93 120 152 202 257 310 355
#     4  10  24  39  59  88 130 162 204 236 290 361
#     4  12  22  40  65  89 127 158 197 251 304 356
#     4  10  24  36  61  96 121 162 196 246 298 366
#     4  10  24  39  59  88 130 162 204 236 290 361
#
# _framework density 24.061748000000001
#
# number of rings (size 3 to 8) (size 9 to 14) (size 15 to 20)
#    0.857    0.286    2.857    3.429    4.000    3.429 
#    0.000    0.000    0.000   17.143    0.000    0.000 
#    0.000    0.000    0.000    0.000    0.000    0.000 
#
# Total GULP energy -78326.127470 kJ/mol
# GULP energy per Si atom -5594.723391 kJ/mol
# Density = 2.400698 g / cm^3
# Si number density = 24.061748 Si / 1000 Ang^3
#
#
#
# Elastic Constant Matrix: (Units=GPa)
#
#
# Indices 1 2 3 4 5 6 
#
# 1 59.4129 -1.7842 -12.5412 1.9551 -0.5139 2.6117
# 2 -1.7842 47.4949 12.0195 20.5046 0.5255 -2.6157
# 3 -12.5412 12.0195 63.5386 20.1945 -13.9152 5.8405
# 4 1.9551 20.5046 20.1945 42.0293 -3.0649 -3.4377
# 5 -0.5139 0.5255 -13.9152 -3.0649 27.9608 0.7565
# 6 2.6117 -2.6157 5.8405 -3.4377 0.7565 21.0996
#
#
#
# Elastic Compliance Matrix: (Units=1/GPa)
#
#
# Indices 1 2 3 4 5 6 
#
# 1 0.018470 0.000733 0.005917 -0.004224 0.002933 -0.004627
# 2 0.000733 0.027028 -0.001809 -0.012405 -0.002804 0.001840
# 3 0.005917 -0.001809 0.024081 -0.010950 0.011192 -0.009808
# 4 -0.004224 -0.012405 -0.010950 0.035834 -0.001580 0.007911
# 5 0.002933 -0.002804 0.011192 -0.001580 0.041418 -0.005551
# 6 -0.004627 0.001840 -0.009808 0.007911 -0.005551 0.052398
#
#
# Mechanical properties :
#
#
# Convention : Reuss Voigt Hill
#
# Bulk Modulus (GPa) = 12.61637 18.42608 15.52123
# Shear Modulus (GPa) = 23.15158 29.73478 26.44318
#
# Velocity S-wave (km/s) = 3.10526 3.51917 3.31867
# Velocity P-wave (km/s) = 4.25577 4.91804 4.59884
#
# Compressibility (1/GPa) = 0.07926209
#
# Stress axis : x y z
#
# Youngs Moduli (GPa) = 54.14138 36.99868 41.52583
#
# Poissons Ratio (x) = -0.02712 -0.24572
# Poissons Ratio (y) = -0.03968 0.07511
# Poissons Ratio (z) = -0.32036 0.06692
#
# Static dielectric constant tensor:
#      x y z
#    x 1.899270 -0.006010 -0.057230 
#    y -0.006010 1.938380 -0.061470 
#    z -0.057230 -0.061470 1.942790 
# 
# From -- ./inp_files/82803.got.cif
#   From: 2010.05.17/outbox.cif.g08.bks.cpg/sg2_42_cif.got.tgz:82803.got - 2010.06.03 11:33:40.
