data_PCOD9045815
_publ_section_title
;
Structure prediction by ZEFSAII (Michael W. Deem and Ramdas Pophale) SiO2 
 PCOD9045815
Probable space group: P -1
;
_chemical_formula_sum "Si O2"
_cell_formula_units_Z 16
_cell_length_a 17.030561
_cell_length_b 5.683811
_cell_length_c 8.142917
_cell_angle_alpha 118.962981
_cell_angle_beta 85.522968
_cell_angle_gamma 101.228891
_cell_volume 676.318486
_symmetry_space_group_name_H-M "P -1"
_symmetry_group_IT_number 2
_symmetry_cell_setting 'triclinic'
loop_
_space_group_symop_operation_xyz
x,y,z
-x,-y,-z
loop_
_atom_site_type_symbol
_atom_site_label
_atom_site_fract_x
_atom_site_fract_y
_atom_site_fract_z
Si Si1 0.169579 0.163017 0.908882
Si Si2 0.410808 0.013914 0.570158
Si Si3 0.306465 0.959452 0.239624
Si Si4 0.001233 0.701044 0.333384
Si Si5 0.297200 0.517334 0.518745
Si Si6 0.674069 0.554635 0.145094
Si Si7 0.867229 0.231830 0.904504
Si Si8 0.126066 0.641957 0.550418
O O1 0.265954 0.241699 0.912453
O O2 0.137602 0.960291 0.698231
O O3 0.141658 0.450031 0.981541
O O4 0.146285 0.979421 0.012433
O O5 0.353372 0.944850 0.396900
O O6 0.370232 0.768835 0.609945
O O7 0.500000 0.000000 0.500000
O O8 0.401061 0.302439 0.750263
O O9 0.209376 0.887102 0.239959
O O10 0.323446 0.285881 0.321489
O O11 0.333319 0.745600 0.034670
O O12 0.042957 0.755205 0.169543
O O13 0.067518 0.572170 0.383123
O O14 0.918429 0.516083 0.338386
O O15 0.000000 0.000000 0.500000
O O16 0.280957 0.430914 0.681676
O O17 0.213635 0.578232 0.488130
#
# Coordination Sequence:
#
# PCOD9045815 Si02
#       8
#     2   2   2   2   2   2   2   2
#     4  11  25  44  72 101 136 187 239 300 351 424
#     4  11  25  44  71 107 143 182 233 293 362 434
#     4  10  24  41  71 103 137 189 234 291 352 427
#     4  11  27  42  64  97 142 184 233 295 356 425
#     4  11  23  44  75  96 137 188 240 293 355 437
#     4  10  24  45  70 107 137 185 239 292 357 429
#     4  11  26  44  70 104 139 181 247 292 356 419
#     4  11  24  43  69  97 132 189 236 287 360 418
#
# _framework density 23.657492999999999
#
# number of rings (size 3 to 8) (size 9 to 14) (size 15 to 20)
#    0.000    1.250    1.250    3.000   14.000    3.500 
#    0.000    1.250    0.000    0.000    0.000    0.000 
#    0.000    0.000    0.000    0.000    0.000    0.000 
#
# Total GULP energy -89359.602639 kJ/mol
# GULP energy per Si atom -5584.975165 kJ/mol
# Density = 2.360365 g / cm^3
# Si number density = 23.657493 Si / 1000 Ang^3
#
#
#
# Elastic Constant Matrix: (Units=GPa)
#
#
# Indices 1 2 3 4 5 6 
#
# 1 80.8464 35.2534 22.8323 -6.6633 -26.9869 16.7646
# 2 35.2534 119.5705 37.0567 4.7870 -13.2239 -0.9942
# 3 22.8323 37.0567 105.4538 19.8520 -14.9990 -5.3633
# 4 -6.6633 4.7870 19.8520 55.3113 -7.3491 -2.2592
# 5 -26.9869 -13.2239 -14.9990 -7.3491 43.4221 -0.7827
# 6 16.7646 -0.9942 -5.3633 -2.2592 -0.7827 14.6469
#
#
#
# Elastic Compliance Matrix: (Units=1/GPa)
#
#
# Indices 1 2 3 4 5 6 
#
# 1 0.028652 -0.005809 -0.004939 0.006337 0.014806 -0.033229
# 2 -0.005809 0.010719 -0.002206 -0.000723 -0.001115 0.006398
# 3 -0.004939 -0.002206 0.012671 -0.004562 0.000033 0.009442
# 4 0.006337 -0.000723 -0.004562 0.021067 0.005611 -0.005424
# 5 0.014806 -0.001115 0.000033 0.005611 0.032593 -0.014403
# 6 -0.033229 0.006398 0.009442 -0.005424 -0.014403 0.108593
#
#
# Mechanical properties :
#
#
# Convention : Reuss Voigt Hill
#
# Bulk Modulus (GPa) = 38.26622 55.12839 46.69730
# Shear Modulus (GPa) = 20.08718 36.72462 28.40590
#
# Velocity S-wave (km/s) = 2.91706 3.94426 3.46889
# Velocity P-wave (km/s) = 5.24937 6.64050 5.98549
#
# Compressibility (1/GPa) = 0.02613271
#
# Stress axis : x y z
#
# Youngs Moduli (GPa) = 34.90108 93.29659 78.91947
#
# Poissons Ratio (x) = 0.54200 0.38981
# Poissons Ratio (y) = 0.20276 0.17409
# Poissons Ratio (z) = 0.17239 0.20580
#
# Static dielectric constant tensor:
#      x y z
#    x 1.896060 -0.044650 0.024710 
#    y -0.044650 1.992970 -0.055050 
#    z 0.024710 -0.055050 1.984580 
# 
# From -- ./inp_files/323014.got.cif
#   From: 2010.05.17/outbox.cif.g08.bks.cpg/sg2_162_cif.got.tgz:323014.got - 2010.06.03 11:33:40.
