data_PCOD9045484
_publ_section_title
;
Structure prediction by ZEFSAII (Michael W. Deem and Ramdas Pophale) SiO2 
 PCOD9045484
Probable space group: P -1
;
_chemical_formula_sum "Si O2"
_cell_formula_units_Z 11
_cell_length_a 6.667496
_cell_length_b 12.487063
_cell_length_c 14.591521
_cell_angle_alpha 148.450989
_cell_angle_beta 106.273699
_cell_angle_gamma 87.283498
_cell_volume 564.129340
_symmetry_space_group_name_H-M "P -1"
_symmetry_group_IT_number 2
_symmetry_cell_setting 'triclinic'
loop_
_space_group_symop_operation_xyz
x,y,z
-x,-y,-z
loop_
_atom_site_type_symbol
_atom_site_label
_atom_site_fract_x
_atom_site_fract_y
_atom_site_fract_z
Si Si1 0.106417 0.564247 0.660523
Si Si2 0.000000 0.000000 0.000000
Si Si3 0.797218 0.286236 0.577648
Si Si4 0.436139 0.202208 0.862700
Si Si5 0.384617 0.325397 0.152350
Si Si6 0.126289 0.416782 0.877943
O O1 0.365471 0.592185 0.713573
O O2 0.000000 0.500000 0.500000
O O3 0.964101 0.379023 0.580399
O O4 0.086014 0.792013 0.853492
O O5 0.206054 0.148583 0.065626
O O6 0.686592 0.464440 0.714667
O O7 0.946337 0.278867 0.678825
O O8 0.613195 0.047612 0.354982
O O9 0.262454 0.282196 0.843324
O O10 0.394091 0.222711 0.979460
O O11 0.687450 0.370362 0.992420
O O12 0.000000 0.500000 0.000000
#
# Coordination Sequence:
#
# PCOD9045484 Si02
#       6
#     2   1   2   2   2   2
#     4  11  24  43  65  95 131 171 222 269 327 389
#     4  10  24  40  68  92 128 170 214 272 324 382
#     4  11  24  42  67 100 129 174 219 266 327 390
#     4  11  24  42  69  93 137 174 210 274 323 383
#     4  11  23  44  65  98 133 170 222 268 326 393
#     4  11  23  44  66  99 133 170 222 264 324 390
#
# _framework density 19.499072999999999
#
# number of rings (size 3 to 8) (size 9 to 14) (size 15 to 20)
#    0.000    1.091    3.636    2.182    0.000    6.545 
#    0.000    0.000    0.000    0.000    0.000    0.000 
#    0.000    0.000    0.000    0.000    0.000    0.000 
#
# Total GULP energy -61253.374657 kJ/mol
# GULP energy per Si atom -5568.488605 kJ/mol
# Density = 1.945469 g / cm^3
# Si number density = 19.499073 Si / 1000 Ang^3
#
#
#
# Elastic Constant Matrix: (Units=GPa)
#
#
# Indices 1 2 3 4 5 6 
#
# 1 88.3519 19.7283 4.7671 -14.5463 7.9813 10.2368
# 2 19.7283 51.3818 13.0444 -22.4210 13.3861 -3.7775
# 3 4.7671 13.0444 71.0275 -3.7442 11.3631 2.2163
# 4 -14.5463 -22.4210 -3.7442 41.7145 -3.8128 3.2195
# 5 7.9813 13.3861 11.3631 -3.8128 17.4247 -7.2076
# 6 10.2368 -3.7775 2.2163 3.2195 -7.2076 23.1902
#
#
#
# Elastic Compliance Matrix: (Units=1/GPa)
#
#
# Indices 1 2 3 4 5 6 
#
# 1 0.014448 -0.002758 0.001472 0.003666 -0.008894 -0.010241
# 2 -0.002758 0.032422 -0.001760 0.014604 -0.019947 -0.001560
# 3 0.001472 -0.001760 0.016567 0.000394 -0.012743 -0.006535
# 4 0.003666 0.014604 0.000394 0.032847 -0.008670 -0.006532
# 5 -0.008894 -0.019947 -0.012743 -0.008670 0.096945 0.033229
# 6 -0.010241 -0.001560 -0.006535 -0.006532 0.033229 0.059247
#
#
# Mechanical properties :
#
#
# Convention : Reuss Voigt Hill
#
# Bulk Modulus (GPa) = 17.43765 31.76010 24.59888
# Shear Modulus (GPa) = 18.00618 28.01397 23.01007
#
# Velocity S-wave (km/s) = 3.04211 3.79447 3.43893
# Velocity P-wave (km/s) = 4.61535 5.95993 5.33020
#
# Compressibility (1/GPa) = 0.05734717
#
# Stress axis : x y z
#
# Youngs Moduli (GPa) = 69.21306 30.84308 60.36174
#
# Poissons Ratio (x) = 0.08505 -0.08887
# Poissons Ratio (y) = 0.19086 0.10622
# Poissons Ratio (z) = -0.10190 0.05428
#
# Static dielectric constant tensor:
#      x y z
#    x 1.655230 -0.022020 0.007660 
#    y -0.022020 1.687960 -0.009600 
#    z 0.007660 -0.009600 1.656660 
# 
# From -- ./inp_files/2217.got.cif
#   From: 2010.05.17/outbox.cif.g08.bks.cpg/sg2_2_cif.got.tgz:2217.got - 2010.06.03 11:33:40.
