data_PCOD9045857
_publ_section_title
;
Structure prediction by ZEFSAII (Michael W. Deem and Ramdas Pophale) SiO2 
 PCOD9045857
Probable space group: P -1
;
_chemical_formula_sum "Si O2"
_cell_formula_units_Z 14
_cell_length_a 20.932149
_cell_length_b 9.067645
_cell_length_c 19.584733
_cell_angle_alpha 154.352576
_cell_angle_beta 158.751767
_cell_angle_gamma 36.269596
_cell_volume 569.282114
_symmetry_space_group_name_H-M "P -1"
_symmetry_group_IT_number 2
_symmetry_cell_setting 'triclinic'
loop_
_space_group_symop_operation_xyz
x,y,z
-x,-y,-z
loop_
_atom_site_type_symbol
_atom_site_label
_atom_site_fract_x
_atom_site_fract_y
_atom_site_fract_z
Si Si1 0.291364 0.876985 0.004162
Si Si2 0.198780 0.510610 0.266449
Si Si3 0.312226 0.098498 0.875797
Si Si4 0.645836 0.979642 0.476867
Si Si5 0.943395 0.643664 0.369316
Si Si6 0.551119 0.599729 0.730942
Si Si7 0.048010 0.050968 0.147083
O O1 0.246201 0.211567 0.139060
O O2 0.461922 0.786740 0.177159
O O3 0.355978 0.036803 0.062189
O O4 0.129176 0.543559 0.710725
O O5 0.228858 0.853161 0.392902
O O6 0.339282 0.569624 0.493583
O O7 0.008441 0.333229 0.034955
O O8 0.200839 0.153824 0.720419
O O9 0.383241 0.410165 0.130778
O O10 0.146415 0.859949 0.654432
O O11 0.500000 0.000000 0.000000
O O12 0.595916 0.287819 0.600822
O O13 0.753679 0.795439 0.561022
O O14 0.931540 0.313816 0.169161
O O15 0.000000 0.000000 0.000000
#
# Coordination Sequence:
#
# PCOD9045857 Si02
#       7
#     2   2   2   2   2   2   2
#     4   8  17  36  62  85 114 143 191 248 282 335
#     4   8  17  33  54  87 119 144 183 234 289 347
#     4  11  25  42  61  76 117 165 191 237 287 338
#     4   9  17  33  61  87 117 150 176 236 304 334
#     4  10  24  42  56  85 117 148 201 240 281 337
#     4   9  18  37  61  87 112 153 193 228 288 347
#     4  11  21  31  56  90 120 147 188 235 286 351
#
# _framework density 24.592375000000001
#
# number of rings (size 3 to 8) (size 9 to 14) (size 15 to 20)
#    0.000    2.571    0.000    3.000    4.000    0.571 
#    0.000    5.000    0.000    0.000    0.000    0.000 
#    0.000    0.000    0.000    0.000    0.000    0.000 
#
# Total GULP energy -78068.036825 kJ/mol
# GULP energy per Si atom -5576.288345 kJ/mol
# Density = 2.453640 g / cm^3
# Si number density = 24.592375 Si / 1000 Ang^3
#
#
#
# Elastic Constant Matrix: (Units=GPa)
#
#
# Indices 1 2 3 4 5 6 
#
# 1 25.6812 3.2015 34.8911 -19.9337 2.1355 0.5877
# 2 3.2015 56.1779 39.7166 -37.5301 6.9574 -4.4322
# 3 34.8911 39.7166 96.4224 -17.9642 20.3676 16.2750
# 4 -19.9337 -37.5301 -17.9642 36.6747 10.7971 -1.2968
# 5 2.1355 6.9574 20.3676 10.7971 40.8289 -4.7502
# 6 0.5877 -4.4322 16.2750 -1.2968 -4.7502 12.6884
#
#
#
# Elastic Compliance Matrix: (Units=1/GPa)
#
#
# Indices 1 2 3 4 5 6 
#
# 1 -0.003912 -0.037347 0.014931 -0.035580 0.004581 -0.033938
# 2 -0.037347 -0.006738 0.018933 -0.017443 -0.005056 -0.028584
# 3 0.014931 0.018933 0.010742 0.038492 -0.020912 -0.011751
# 4 -0.035580 -0.017443 0.038492 0.014199 -0.025319 -0.061846
# 5 0.004581 -0.005056 -0.020912 -0.025319 0.046873 0.039806
# 6 -0.033938 -0.028584 -0.011751 -0.061846 0.039806 0.094054
#
#
# Mechanical properties :
#
#
# Convention : Reuss Voigt Hill
#
# Bulk Modulus (GPa) = -145.43634 37.10000 -54.16817
# Shear Modulus (GPa) = 31.27086 24.73655 28.00371
#
# Velocity S-wave (km/s) = 3.56977 3.17497 3.37815
# Velocity P-wave (km/s) = 6.50201 5.34409 2.61885
#
# Compressibility (1/GPa) = -0.00687586
#
# Stress axis : x y z
#
# Youngs Moduli (GPa) = -255.61024 -148.40704 93.09215
#
# Poissons Ratio (x) = -5.54261 -1.38996
# Poissons Ratio (y) = -9.54636 -1.76247
# Poissons Ratio (z) = 3.81652 2.80973
#
# Static dielectric constant tensor:
#      x y z
#    x 1.940290 0.025020 0.064280 
#    y 0.025020 2.011250 0.031210 
#    z 0.064280 0.031210 1.978590 
# 
# From -- ./inp_files/194700.got.cif
#   From: 2010.05.17/outbox.cif.g08.bks.cpg/sg2_98_cif.got.tgz:194700.got - 2010.06.03 11:33:40.
