data_PCOD9045212
_publ_section_title
;
Structure prediction by ZEFSAII (Michael W. Deem and Ramdas Pophale) SiO2 
 PCOD9045212
Probable space group: P -1
;
_chemical_formula_sum "Si O2"
_cell_formula_units_Z 16
_cell_length_a 14.417680
_cell_length_b 9.517405
_cell_length_c 9.125298
_cell_angle_alpha 96.491395
_cell_angle_beta 55.039747
_cell_angle_gamma 130.996702
_cell_volume 701.120490
_symmetry_space_group_name_H-M "P -1"
_symmetry_group_IT_number 2
_symmetry_cell_setting 'triclinic'
loop_
_space_group_symop_operation_xyz
x,y,z
-x,-y,-z
loop_
_atom_site_type_symbol
_atom_site_label
_atom_site_fract_x
_atom_site_fract_y
_atom_site_fract_z
Si Si1 0.608212 0.846756 0.739227
Si Si2 0.028835 0.630400 0.353941
Si Si3 0.038965 0.824069 0.612393
Si Si4 0.766659 0.391651 0.982942
Si Si5 0.410588 0.298494 0.959415
Si Si6 0.876713 0.574563 0.217249
Si Si7 0.599811 0.536830 0.554678
Si Si8 0.061852 0.007601 0.105682
O O1 0.617839 0.697665 0.647232
O O2 0.771745 0.062439 0.541511
O O3 0.425197 0.740724 0.864835
O O4 0.627658 0.850058 0.897899
O O5 0.004661 0.762771 0.464332
O O6 0.195483 0.722522 0.142290
O O7 0.000000 0.500000 0.500000
O O8 0.894942 0.493319 0.331680
O O9 0.893936 0.616003 0.812017
O O10 0.035250 0.981483 0.689485
O O11 0.829639 0.451446 0.099467
O O12 0.523322 0.362537 0.726315
O O13 0.500000 0.500000 0.000000
O O14 0.248048 0.205136 0.012023
O O15 0.749143 0.585470 0.358778
O O16 0.042237 0.819962 0.096015
O O17 0.500000 0.500000 0.500000
O O18 0.000000 0.000000 0.000000
#
# Coordination Sequence:
#
# PCOD9045212 Si02
#       8
#     2   2   2   2   2   2   2   2
#     4  11  23  40  65 101 134 178 219 287 349 411
#     4  10  26  44  68  93 131 191 245 280 327 408
#     4  11  23  42  68  99 134 178 228 281 346 411
#     4  11  24  45  69  94 142 184 231 282 338 411
#     4  10  24  37  58  95 144 178 217 269 348 426
#     4  12  23  40  72 100 136 183 224 284 362 407
#     4  11  21  37  61 102 138 168 217 280 358 420
#     4  12  23  39  68 104 144 174 217 294 359 419
#
# _framework density 22.820615
#
# number of rings (size 3 to 8) (size 9 to 14) (size 15 to 20)
#    0.000    1.000    3.750    3.375    7.000    1.500 
#    0.000    0.000    0.000    3.750    0.000    0.000 
#    0.000    0.000    0.000    0.000    0.000    0.000 
#
# Total GULP energy -89126.349310 kJ/mol
# GULP energy per Si atom -5570.396832 kJ/mol
# Density = 2.276867 g / cm^3
# Si number density = 22.820615 Si / 1000 Ang^3
#
#
#
# Elastic Constant Matrix: (Units=GPa)
#
#
# Indices 1 2 3 4 5 6 
#
# 1 76.8843 32.8962 14.9715 -0.7154 7.6452 18.0745
# 2 32.8962 97.5096 46.0573 7.9441 8.2824 14.0845
# 3 14.9715 46.0573 102.1847 12.8200 -5.6007 14.1056
# 4 -0.7154 7.9441 12.8200 49.2370 8.5008 -5.5078
# 5 7.6452 8.2824 -5.6007 8.5008 39.9950 4.0109
# 6 18.0745 14.0845 14.1056 -5.5078 4.0109 37.8639
#
#
#
# Elastic Compliance Matrix: (Units=1/GPa)
#
#
# Indices 1 2 3 4 5 6 
#
# 1 0.016571 -0.004826 0.000427 0.000512 -0.001613 -0.006029
# 2 -0.004826 0.015178 -0.006111 -0.000524 -0.002881 -0.000837
# 3 0.000427 -0.006111 0.013751 -0.003789 0.004322 -0.004062
# 4 0.000512 -0.000524 -0.003789 0.023012 -0.005947 0.005339
# 5 -0.001613 -0.002881 0.004322 -0.005947 0.028140 -0.003614
# 6 -0.006029 -0.000837 -0.004062 0.005339 -0.003614 0.032272
#
#
# Mechanical properties :
#
#
# Convention : Reuss Voigt Hill
#
# Bulk Modulus (GPa) = 40.84948 51.60317 46.22632
# Shear Modulus (GPa) = 31.62477 37.59608 34.61043
#
# Velocity S-wave (km/s) = 3.72667 4.06330 3.89862
# Velocity P-wave (km/s) = 6.03792 6.68397 6.36914
#
# Compressibility (1/GPa) = 0.02448012
#
# Stress axis : x y z
#
# Youngs Moduli (GPa) = 60.34762 65.88437 72.72214
#
# Poissons Ratio (x) = 0.31795 -0.03104
# Poissons Ratio (y) = 0.29123 0.44439
# Poissons Ratio (z) = -0.02576 0.40260
#
# Static dielectric constant tensor:
#      x y z
#    x 1.876880 -0.061500 0.016630 
#    y -0.061500 2.052770 -0.126510 
#    z 0.016630 -0.126510 1.925080 
# 
# From -- ./inp_files/307808.got.cif
#   From: 2010.05.17/outbox.cif.g08.bks.cpg/sg2_154_cif.got.tgz:307808.got - 2010.06.03 11:33:40.
