data_PCOD9045253
_publ_section_title
;
Structure prediction by ZEFSAII (Michael W. Deem and Ramdas Pophale) SiO2 
 PCOD9045253
Probable space group: P -1
;
_chemical_formula_sum "Si O2"
_cell_formula_units_Z 14
_cell_length_a 14.758545
_cell_length_b 9.742459
_cell_length_c 5.191992
_cell_angle_alpha 68.552306
_cell_angle_beta 99.507106
_cell_angle_gamma 84.785858
_cell_volume 675.919943
_symmetry_space_group_name_H-M "P -1"
_symmetry_group_IT_number 2
_symmetry_cell_setting 'triclinic'
loop_
_space_group_symop_operation_xyz
x,y,z
-x,-y,-z
loop_
_atom_site_type_symbol
_atom_site_label
_atom_site_fract_x
_atom_site_fract_y
_atom_site_fract_z
Si Si1 0.581893 0.502778 0.832233
Si Si2 0.911398 0.920580 0.965458
Si Si3 0.789008 0.902861 0.430619
Si Si4 0.471934 0.768253 0.268829
Si Si5 0.748282 0.655769 0.918319
Si Si6 0.047924 0.423582 0.823592
Si Si7 0.625708 0.926369 0.979160
O O1 0.543757 0.649080 0.543674
O O2 0.591403 0.342988 0.807127
O O3 0.678337 0.539054 0.952235
O O4 0.500000 0.500000 0.000000
O O5 0.853358 0.920571 0.202983
O O6 0.956157 0.750839 0.043430
O O7 0.839015 0.965948 0.660020
O O8 0.000000 0.000000 0.000000
O O9 0.781372 0.730606 0.621162
O O10 0.683714 0.961535 0.237642
O O11 0.537469 0.845313 0.055301
O O12 0.411803 0.912666 0.276170
O O13 0.842251 0.575351 0.143989
O O14 0.694893 0.803703 0.935948
O O15 0.000000 0.500000 0.500000
O O16 0.000000 0.500000 0.000000
#
# Coordination Sequence:
#
# PCOD9045253 Si02
#       7
#     2   2   2   2   2   2   2
#     4  11  22  42  61  99 143 175 217 280 344 394
#     4  11  24  45  70  95 132 170 219 288 350 393
#     4  11  21  41  70  96 128 175 227 267 338 411
#     4  10  24  38  66  98 137 176 226 277 330 408
#     4  11  23  41  70  92 136 183 222 280 341 404
#     4  11  24  44  69  98 129 176 229 276 341 415
#     4  11  21  42  67  98 129 184 231 271 332 410
#
# _framework density 20.712512
#
# number of rings (size 3 to 8) (size 9 to 14) (size 15 to 20)
#    0.000    1.143    5.714    2.143    0.000    1.714 
#    5.143    0.000    0.000    0.000    0.000    0.000 
#    0.000    0.000    0.000    0.000    0.000    0.000 
#
# Total GULP energy -78053.666544 kJ/mol
# GULP energy per Si atom -5575.261896 kJ/mol
# Density = 2.066537 g / cm^3
# Si number density = 20.712512 Si / 1000 Ang^3
#
#
#
# Elastic Constant Matrix: (Units=GPa)
#
#
# Indices 1 2 3 4 5 6 
#
# 1 154.3121 75.9501 35.1142 6.9946 14.1178 28.6779
# 2 75.9501 112.1235 50.4300 -2.0585 20.0388 9.3055
# 3 35.1142 50.4300 74.9336 5.8740 0.5903 0.3464
# 4 6.9946 -2.0585 5.8740 31.9432 -5.5830 -0.4191
# 5 14.1178 20.0388 0.5903 -5.5830 31.0428 3.9152
# 6 28.6779 9.3055 0.3464 -0.4191 3.9152 44.1402
#
#
#
# Elastic Compliance Matrix: (Units=1/GPa)
#
#
# Indices 1 2 3 4 5 6 
#
# 1 0.011237 -0.006972 -0.000308 -0.003001 -0.000410 -0.005821
# 2 -0.006972 0.019817 -0.010249 0.003128 -0.009023 0.001263
# 3 -0.000308 -0.010249 0.020602 -0.003391 0.005543 0.001675
# 4 -0.003001 0.003128 -0.003391 0.033735 0.005330 0.001165
# 5 -0.000410 -0.009023 0.005543 0.005330 0.039242 -0.001305
# 6 -0.005821 0.001263 0.001675 0.001165 -0.001305 0.026284
#
#
# Mechanical properties :
#
#
# Convention : Reuss Voigt Hill
#
# Bulk Modulus (GPa) = 60.25433 73.81755 67.03594
# Shear Modulus (GPa) = 26.10850 33.41689 29.76270
#
# Velocity S-wave (km/s) = 3.55423 4.02103 3.79482
# Velocity P-wave (km/s) = 6.78213 7.56801 7.18582
#
# Compressibility (1/GPa) = 0.01659632
#
# Stress axis : x y z
#
# Youngs Moduli (GPa) = 88.98879 50.46280 48.53968
#
# Poissons Ratio (x) = 0.35183 0.01496
# Poissons Ratio (y) = 0.62044 0.49750
# Poissons Ratio (z) = 0.02743 0.51721
#
# Static dielectric constant tensor:
#      x y z
#    x 1.587520 0.034550 -0.095720 
#    y 0.034550 1.680320 0.187140 
#    z -0.095720 0.187140 1.590340 
# 
# From -- ./inp_files/89916.got.cif
#   From: 2010.05.17/outbox.cif.g08.bks.cpg/sg2_45_cif.got.tgz:89916.got - 2010.06.03 11:33:40.
