data_PCOD9045058
_publ_section_title
;
Structure prediction by ZEFSAII (Michael W. Deem and Ramdas Pophale) SiO2 
 PCOD9045058
Probable space group: P -1
;
_chemical_formula_sum "Si O2"
_cell_formula_units_Z 12
_cell_length_a 5.816940
_cell_length_b 8.645417
_cell_length_c 14.427952
_cell_angle_alpha 58.176874
_cell_angle_beta 130.952935
_cell_angle_gamma 118.078258
_cell_volume 456.690345
_symmetry_space_group_name_H-M "P -1"
_symmetry_group_IT_number 2
_symmetry_cell_setting 'triclinic'
loop_
_space_group_symop_operation_xyz
x,y,z
-x,-y,-z
loop_
_atom_site_type_symbol
_atom_site_label
_atom_site_fract_x
_atom_site_fract_y
_atom_site_fract_z
Si Si1 0.507795 0.551819 0.593947
Si Si2 0.336706 0.141691 0.699442
Si Si3 0.757822 0.209578 0.434850
Si Si4 0.833582 0.400328 0.200491
Si Si5 0.171607 0.026208 0.240778
Si Si6 0.194871 0.206038 0.018771
O O1 0.500000 0.500000 0.500000
O O2 0.441904 0.354137 0.686693
O O3 0.262881 0.676546 0.512903
O O4 0.829100 0.651047 0.693842
O O5 0.631277 0.078820 0.747549
O O6 0.070040 0.131095 0.553485
O O7 0.150061 0.055554 0.768347
O O8 0.762780 0.355002 0.304837
O O9 0.439631 0.071571 0.373551
O O10 0.573795 0.267167 0.112500
O O11 0.862980 0.615032 0.110440
O O12 0.105018 0.197349 0.106482
O O13 0.000000 0.000000 0.000000
#
# Coordination Sequence:
#
# PCOD9045058 Si02
#       6
#     2   2   2   2   2   2
#     4  12  25  43  74 110 152 195 248 313 387 457
#     4  12  25  44  74 110 151 200 252 308 385 456
#     4  11  25  43  73 107 154 195 252 312 386 454
#     4  10  24  47  72 111 148 198 261 311 382 453
#     4  11  27  46  73 109 150 200 254 317 376 451
#     4  10  23  48  78 102 152 202 260 316 376 450
#
# _framework density 26.276012000000001
#
# number of rings (size 3 to 8) (size 9 to 14) (size 15 to 20)
#    0.000    1.000    1.667    3.500    9.333    0.000 
#    3.000    4.167    0.000    0.000    0.000    0.000 
#    0.000    0.000    0.000    0.000    0.000    0.000 
#
# Total GULP energy -66868.586147 kJ/mol
# GULP energy per Si atom -5572.382179 kJ/mol
# Density = 2.621621 g / cm^3
# Si number density = 26.276012 Si / 1000 Ang^3
#
#
#
# Elastic Constant Matrix: (Units=GPa)
#
#
# Indices 1 2 3 4 5 6 
#
# 1 153.4776 57.2232 40.5014 -17.8955 -1.4027 3.1216
# 2 57.2232 133.4820 25.2165 -0.2485 7.6596 26.3599
# 3 40.5014 25.2165 133.5223 1.8457 -2.9252 16.7125
# 4 -17.8955 -0.2485 1.8457 58.1151 25.1482 -4.1462
# 5 -1.4027 7.6596 -2.9252 25.1482 36.0331 -12.4969
# 6 3.1216 26.3599 16.7125 -4.1462 -12.4969 43.8210
#
#
#
# Elastic Compliance Matrix: (Units=1/GPa)
#
#
# Indices 1 2 3 4 5 6 
#
# 1 0.008900 -0.003921 -0.002365 0.003074 -0.000162 0.002871
# 2 -0.003921 0.011090 -0.000047 0.000797 -0.005831 -0.007961
# 3 -0.002365 -0.000047 0.008633 -0.001474 0.000583 -0.003069
# 4 0.003074 0.000797 -0.001474 0.026556 -0.019842 -0.003282
# 5 -0.000162 -0.005831 0.000583 -0.019842 0.048134 0.015146
# 6 0.002871 -0.007961 -0.003069 -0.003282 0.015146 0.032583
#
#
# Mechanical properties :
#
#
# Convention : Reuss Voigt Hill
#
# Bulk Modulus (GPa) = 62.66807 74.04047 68.35427
# Shear Modulus (GPa) = 32.49300 47.42988 39.96144
#
# Velocity S-wave (km/s) = 3.52035 4.25321 3.90402
# Velocity P-wave (km/s) = 6.35811 7.23595 6.81118
#
# Compressibility (1/GPa) = 0.01595709
#
# Stress axis : x y z
#
# Youngs Moduli (GPa) = 112.36100 90.17498 115.83713
#
# Poissons Ratio (x) = 0.35354 0.27390
# Poissons Ratio (y) = 0.44052 0.00549
# Poissons Ratio (z) = 0.26568 0.00428
#
# Static dielectric constant tensor:
#      x y z
#    x 2.152960 0.030400 -0.008160 
#    y 0.030400 2.153520 -0.042920 
#    z -0.008160 -0.042920 2.124990 
# 
# From -- ./inp_files/229999.got.cif
#   From: 2010.05.17/outbox.cif.g08.bks.cpg/sg2_115_cif.got.tgz:229999.got - 2010.06.03 11:33:40.
