data_PCOD9045802
_publ_section_title
;
Structure prediction by ZEFSAII (Michael W. Deem and Ramdas Pophale) SiO2 
 PCOD9045802
Probable space group: P -1
;
_chemical_formula_sum "Si O2"
_cell_formula_units_Z 16
_cell_length_a 18.743450
_cell_length_b 11.179195
_cell_length_c 5.395572
_cell_angle_alpha 57.540987
_cell_angle_beta 50.142598
_cell_angle_gamma 50.568178
_cell_volume 654.110023
_symmetry_space_group_name_H-M "P -1"
_symmetry_group_IT_number 2
_symmetry_cell_setting 'triclinic'
loop_
_space_group_symop_operation_xyz
x,y,z
-x,-y,-z
loop_
_atom_site_type_symbol
_atom_site_label
_atom_site_fract_x
_atom_site_fract_y
_atom_site_fract_z
Si Si1 0.328240 0.540382 0.887365
Si Si2 0.986593 0.837386 0.735926
Si Si3 0.213752 0.561964 0.603005
Si Si4 0.312747 0.929692 0.294555
Si Si5 0.911967 0.938710 0.288173
Si Si6 0.472098 0.635186 0.121124
Si Si7 0.664885 0.792855 0.281801
Si Si8 0.546858 0.075075 0.608444
O O1 0.256504 0.543564 0.812048
O O2 0.399524 0.606764 0.516634
O O3 0.422497 0.380819 0.968932
O O4 0.265092 0.616689 0.197379
O O5 0.945257 0.821296 0.577618
O O6 0.094544 0.688702 0.723654
O O7 0.909999 0.867180 0.104211
O O8 0.000000 0.000000 0.500000
O O9 0.246364 0.379702 0.660610
O O10 0.392473 0.816503 0.033717
O O11 0.374819 0.879481 0.468188
O O12 0.202953 0.925702 0.546058
O O13 0.291856 0.110989 0.096761
O O14 0.000000 0.000000 0.000000
O O15 0.500000 0.500000 0.000000
O O16 0.561813 0.785183 0.408145
O O17 0.612737 0.921499 0.467595
O O18 0.500000 0.000000 0.000000
#
# Coordination Sequence:
#
# PCOD9045802 Si02
#       8
#     2   2   2   2   2   2   2   2
#     4  11  26  41  67 102 143 185 230 282 357 427
#     4  10  24  44  70  98 130 175 242 296 351 406
#     4  12  25  44  73  99 139 187 236 297 352 422
#     4  11  25  42  73 101 145 188 236 292 355 425
#     4  10  24  46  71 101 132 183 238 296 354 412
#     4  11  25  43  63 105 150 184 230 287 352 433
#     4  10  24  41  70 103 143 188 235 281 358 425
#     4   9  21  41  66 101 140 189 232 278 337 431
#
# _framework density 24.460719000000001
#
# number of rings (size 3 to 8) (size 9 to 14) (size 15 to 20)
#    0.000    1.500    1.250    1.500   17.500    2.000 
#    0.000    1.250    0.000    0.000    0.000    0.000 
#    0.000    0.000    0.000    0.000    0.000    0.000 
#
# Total GULP energy -89280.793122 kJ/mol
# GULP energy per Si atom -5580.049570 kJ/mol
# Density = 2.440504 g / cm^3
# Si number density = 24.460719 Si / 1000 Ang^3
#
#
#
# Elastic Constant Matrix: (Units=GPa)
#
#
# Indices 1 2 3 4 5 6 
#
# 1 120.4261 46.4040 35.9307 10.2154 19.5581 -17.1378
# 2 46.4040 162.5193 25.6622 7.2179 2.6756 -22.4641
# 3 35.9307 25.6622 72.2907 17.9941 25.7604 -4.0978
# 4 10.2154 7.2179 17.9941 41.2999 -4.7861 -5.9484
# 5 19.5581 2.6756 25.7604 -4.7861 50.7247 4.5594
# 6 -17.1378 -22.4641 -4.0978 -5.9484 4.5594 35.5334
#
#
#
# Elastic Compliance Matrix: (Units=1/GPa)
#
#
# Indices 1 2 3 4 5 6 
#
# 1 0.011202 -0.002030 -0.003416 -0.000690 -0.002900 0.003982
# 2 -0.002030 0.007487 -0.002056 0.000729 0.001187 0.003487
# 3 -0.003416 -0.002056 0.022620 -0.010008 -0.010951 -0.000609
# 4 -0.000690 0.000729 -0.010008 0.029958 0.007869 0.002979
# 5 -0.002900 0.001187 -0.010951 0.007869 0.027444 -0.004115
# 6 0.003982 0.003487 -0.000609 0.002979 -0.004115 0.033224
#
#
# Mechanical properties :
#
#
# Convention : Reuss Voigt Hill
#
# Bulk Modulus (GPa) = 38.01551 63.47000 50.74276
# Shear Modulus (GPa) = 32.11175 41.99420 37.05298
#
# Velocity S-wave (km/s) = 3.62717 4.14793 3.89626
# Velocity P-wave (km/s) = 5.75474 6.99603 6.40552
#
# Compressibility (1/GPa) = 0.02630505
#
# Stress axis : x y z
#
# Youngs Moduli (GPa) = 89.27366 133.55636 44.20937
#
# Poissons Ratio (x) = 0.27115 0.15101
# Poissons Ratio (y) = 0.18125 0.09088
# Poissons Ratio (z) = 0.30494 0.27456
#
# Static dielectric constant tensor:
#      x y z
#    x 1.964810 -0.101620 0.076320 
#    y -0.101620 1.958990 -0.118290 
#    z 0.076320 -0.118290 2.116800 
# 
# From -- ./inp_files/109569.got.cif
#   From: 2010.05.17/outbox.cif.g08.bks.cpg/sg2_55_cif.got.tgz:109569.got - 2010.06.03 11:33:40.
