data_PCOD9045479
_publ_section_title
;
Structure prediction by ZEFSAII (Michael W. Deem and Ramdas Pophale) SiO2 
 PCOD9045479
Probable space group: P -1
;
_chemical_formula_sum "Si O2"
_cell_formula_units_Z 15
_cell_length_a 7.211283
_cell_length_b 22.887553
_cell_length_c 8.380221
_cell_angle_alpha 31.439779
_cell_angle_beta 105.592992
_cell_angle_gamma 109.847823
_cell_volume 677.980402
_symmetry_space_group_name_H-M "P -1"
_symmetry_group_IT_number 2
_symmetry_cell_setting 'triclinic'
loop_
_space_group_symop_operation_xyz
x,y,z
-x,-y,-z
loop_
_atom_site_type_symbol
_atom_site_label
_atom_site_fract_x
_atom_site_fract_y
_atom_site_fract_z
Si Si1 0.372153 0.767154 0.485172
Si Si2 0.590720 0.837097 0.817758
Si Si3 0.192456 0.193885 0.345784
Si Si4 0.434050 0.042340 0.139409
Si Si5 0.696758 0.464774 0.185753
Si Si6 0.354141 0.575389 0.359825
Si Si7 0.000000 0.000000 0.000000
Si Si8 0.042471 0.645812 0.916039
O O1 0.583474 0.769309 0.615062
O O2 0.313924 0.657992 0.609308
O O3 0.193891 0.742969 0.626077
O O4 0.407074 0.881614 0.120324
O O5 0.785512 0.827723 0.786245
O O6 0.605367 0.877981 0.907830
O O7 0.504155 0.933184 0.479639
O O8 0.456028 0.710244 0.073413
O O9 0.077133 0.292342 0.132358
O O10 0.075977 0.082123 0.669047
O O11 0.229799 0.007420 0.083744
O O12 0.699090 0.458141 0.392952
O O13 0.500000 0.500000 0.000000
O O14 0.884585 0.565277 0.953134
O O15 0.500000 0.500000 0.500000
O O16 0.169291 0.568323 0.216852
#
# Coordination Sequence:
#
# PCOD9045479 Si02
#       8
#     2   2   2   2   2   2   1   2
#     4  11  23  44  71 106 146 190 241 303 362 424
#     4  11  23  46  75 102 147 191 244 299 359 433
#     4  11  24  43  72 104 147 187 243 297 360 435
#     4  10  24  46  75 107 144 196 239 304 360 431
#     4  12  24  45  70 104 145 188 248 302 358 438
#     4  12  25  46  75 108 144 195 242 304 368 433
#     4  10  24  40  68 108 138 186 238 292 364 424
#     4  12  25  45  74 106 143 198 243 297 373 429
#
# _framework density 22.124535000000002
#
# number of rings (size 3 to 8) (size 9 to 14) (size 15 to 20)
#    0.000    0.800    4.000    3.200    1.867    1.600 
#    0.000    2.667    0.000    0.000    0.000    0.000 
#    0.000    0.000    0.000    0.000    0.000    0.000 
#
# Total GULP energy -83688.966088 kJ/mol
# GULP energy per Si atom -5579.264406 kJ/mol
# Density = 2.207418 g / cm^3
# Si number density = 22.124535 Si / 1000 Ang^3
#
#
#
# Elastic Constant Matrix: (Units=GPa)
#
#
# Indices 1 2 3 4 5 6 
#
# 1 114.4852 48.7903 45.7221 -9.2320 -18.6879 -6.8068
# 2 48.7903 88.2905 30.9684 -12.7665 2.7652 -19.7814
# 3 45.7221 30.9684 98.6158 -1.8577 -16.2985 4.3228
# 4 -9.2320 -12.7665 -1.8577 34.7759 -2.1890 1.0113
# 5 -18.6879 2.7652 -16.2985 -2.1890 42.9669 -4.9281
# 6 -6.8068 -19.7814 4.3228 1.0113 -4.9281 35.2638
#
#
#
# Elastic Compliance Matrix: (Units=1/GPa)
#
#
# Indices 1 2 3 4 5 6 
#
# 1 0.013808 -0.006267 -0.003564 0.001492 0.005163 0.000266
# 2 -0.006267 0.019111 -0.004114 0.004597 -0.004216 0.009294
# 3 -0.003564 -0.004114 0.013804 -0.001383 0.003402 -0.004173
# 4 0.001492 0.004597 -0.001383 0.030801 0.001671 0.002386
# 5 0.005163 -0.004216 0.003402 0.001671 0.027395 0.001995
# 6 0.000266 0.009294 -0.004173 0.002386 0.001995 0.034345
#
#
# Mechanical properties :
#
#
# Convention : Reuss Voigt Hill
#
# Bulk Modulus (GPa) = 53.09562 61.37258 57.23410
# Shear Modulus (GPa) = 28.83008 34.32869 31.57939
#
# Velocity S-wave (km/s) = 3.61374 3.94332 3.78212
# Velocity P-wave (km/s) = 6.43916 6.96656 6.70804
#
# Compressibility (1/GPa) = 0.01883395
#
# Stress axis : x y z
#
# Youngs Moduli (GPa) = 72.42314 52.32522 72.44463
#
# Poissons Ratio (x) = 0.32791 0.25820
# Poissons Ratio (y) = 0.45385 0.29801
# Poissons Ratio (z) = 0.25812 0.21525
#
# Static dielectric constant tensor:
#      x y z
#    x 1.809020 -0.017290 -0.034330 
#    y -0.017290 1.828000 -0.029140 
#    z -0.034330 -0.029140 1.832460 
# 
# From -- ./inp_files/106821.got.cif
#   From: 2010.05.17/outbox.cif.g08.bks.cpg/sg2_54_cif.got.tgz:106821.got - 2010.06.03 11:33:40.
