data_PCOD9045439
_publ_section_title
;
Structure prediction by ZEFSAII (Michael W. Deem and Ramdas Pophale) SiO2 
 PCOD9045439
Probable space group: P -1
;
_chemical_formula_sum "Si O2"
_cell_formula_units_Z 13
_cell_length_a 9.725809
_cell_length_b 9.803942
_cell_length_c 14.288692
_cell_angle_alpha 59.496114
_cell_angle_beta 117.564024
_cell_angle_gamma 150.673465
_cell_volume 574.289288
_symmetry_space_group_name_H-M "P -1"
_symmetry_group_IT_number 2
_symmetry_cell_setting 'triclinic'
loop_
_space_group_symop_operation_xyz
x,y,z
-x,-y,-z
loop_
_atom_site_type_symbol
_atom_site_label
_atom_site_fract_x
_atom_site_fract_y
_atom_site_fract_z
Si Si1 0.000000 0.000000 0.000000
Si Si2 0.878268 0.922612 0.589912
Si Si3 0.840423 0.384101 0.211316
Si Si4 0.569295 0.138779 0.873667
Si Si5 0.596158 0.651577 0.274028
Si Si6 0.798603 0.227520 0.466418
Si Si7 0.489394 0.576869 0.860676
O O1 0.692382 0.724258 0.050536
O O2 0.817937 0.858833 0.892319
O O3 0.593221 0.580751 0.622737
O O4 0.847765 0.083065 0.537849
O O5 0.000000 0.000000 0.500000
O O6 0.095150 0.051571 0.693561
O O7 0.845376 0.322528 0.340297
O O8 0.679622 0.415107 0.156420
O O9 0.136081 0.657349 0.154734
O O10 0.662465 0.115140 0.184827
O O11 0.545797 0.307047 0.819552
O O12 0.500000 0.000000 0.000000
O O13 0.563646 0.487806 0.243143
O O14 0.000000 0.500000 0.500000
O O15 0.500000 0.000000 0.500000
#
# Coordination Sequence:
#
# PCOD9045439 Si02
#       7
#     1   2   2   2   2   2   2
#     4  10  24  40  66  98 130 178 226 282 346 398
#     4  12  25  45  72 103 143 186 233 287 355 420
#     4  12  26  47  71 106 144 187 240 294 359 431
#     4  12  28  47  71 101 147 194 242 292 357 419
#     4  12  26  46  71 104 140 185 240 290 346 430
#     4  12  25  45  76 109 143 183 233 298 367 425
#     4  11  24  43  72  96 139 176 240 282 352 405
#
# _framework density 22.636673999999999
#
# number of rings (size 3 to 8) (size 9 to 14) (size 15 to 20)
#    0.000    0.308    0.000    9.231    6.462    0.000 
#    0.000    0.000    0.000    0.000    0.000    0.000 
#    0.000    0.000    0.000    0.000    0.000    0.000 
#
# Total GULP energy -72474.529820 kJ/mol
# GULP energy per Si atom -5574.963832 kJ/mol
# Density = 2.258515 g / cm^3
# Si number density = 22.636674 Si / 1000 Ang^3
#
#
#
# Elastic Constant Matrix: (Units=GPa)
#
#
# Indices 1 2 3 4 5 6 
#
# 1 131.4995 43.2055 47.1779 -10.0864 12.3328 0.9783
# 2 43.2055 147.7978 37.1135 14.8303 -12.2241 19.5417
# 3 47.1779 37.1135 113.4823 -7.7628 -5.7910 7.1462
# 4 -10.0864 14.8303 -7.7628 38.6041 12.1590 -0.6478
# 5 12.3328 -12.2241 -5.7910 12.1590 23.7266 -11.3259
# 6 0.9783 19.5417 7.1462 -0.6478 -11.3259 35.5441
#
#
#
# Elastic Compliance Matrix: (Units=1/GPa)
#
#
# Indices 1 2 3 4 5 6 
#
# 1 0.012700 -0.004745 -0.003778 0.009250 -0.015552 -0.001769
# 2 -0.004745 0.010643 -0.001435 -0.009238 0.011393 -0.001970
# 3 -0.003778 -0.001435 0.011090 0.000698 0.003469 -0.000219
# 4 0.009250 -0.009238 0.000698 0.042543 -0.033722 -0.005286
# 5 -0.015552 0.011393 0.003469 -0.033722 0.083520 0.019465
# 6 -0.001769 -0.001970 -0.000219 -0.005286 0.019465 0.035416
#
#
# Mechanical properties :
#
#
# Convention : Reuss Voigt Hill
#
# Bulk Modulus (GPa) = 68.87347 71.97484 70.42416
# Shear Modulus (GPa) = 22.65864 37.26048 29.95956
#
# Velocity S-wave (km/s) = 3.16724 4.06152 3.64194
# Velocity P-wave (km/s) = 6.62321 7.33889 6.99022
#
# Compressibility (1/GPa) = 0.01451938
#
# Stress axis : x y z
#
# Youngs Moduli (GPa) = 78.73998 93.95757 90.16997
#
# Poissons Ratio (x) = 0.44579 0.34062
# Poissons Ratio (y) = 0.37359 0.12937
# Poissons Ratio (z) = 0.29745 0.13480
#
# Static dielectric constant tensor:
#      x y z
#    x 0.921490 -1.335610 -0.418230 
#    y -1.335610 -0.635360 -0.736170 
#    z -0.418230 -0.736170 1.744610 
# 
# From -- ./inp_files/208098.got.cif
#   From: 2010.05.17/outbox.cif.g08.bks.cpg/sg2_105_cif.got.tgz:208098.got - 2010.06.03 11:33:40.
