data_PCOD9045906
_publ_section_title
;
Structure prediction by ZEFSAII (Michael W. Deem and Ramdas Pophale) SiO2 
 PCOD9045906
Probable space group: P -1
;
_chemical_formula_sum "Si O2"
_cell_formula_units_Z 14
_cell_length_a 14.775092
_cell_length_b 9.877924
_cell_length_c 7.406426
_cell_angle_alpha 134.578808
_cell_angle_beta 75.439633
_cell_angle_gamma 122.593465
_cell_volume 634.067808
_symmetry_space_group_name_H-M "P -1"
_symmetry_group_IT_number 2
_symmetry_cell_setting 'triclinic'
loop_
_space_group_symop_operation_xyz
x,y,z
-x,-y,-z
loop_
_atom_site_type_symbol
_atom_site_label
_atom_site_fract_x
_atom_site_fract_y
_atom_site_fract_z
Si Si1 0.240587 0.774924 0.092129
Si Si2 0.375907 0.802115 0.379379
Si Si3 0.762051 0.651950 0.829239
Si Si4 0.797488 0.284202 0.359383
Si Si5 0.831529 0.930302 0.420211
Si Si6 0.954935 0.703989 0.229277
Si Si7 0.073086 0.924447 0.998982
O O1 0.322731 0.746266 0.153808
O O2 0.117449 0.560574 0.982872
O O3 0.254344 0.766248 0.862948
O O4 0.240594 0.992151 0.365770
O O5 0.353760 0.578352 0.286723
O O6 0.500000 0.000000 0.500000
O O7 0.298706 0.865651 0.590485
O O8 0.805658 0.843606 0.836059
O O9 0.786203 0.794336 0.132014
O O10 0.830448 0.530136 0.640040
O O11 0.895278 0.240393 0.263735
O O12 0.866891 0.779150 0.369417
O O13 0.949078 0.162123 0.549468
O O14 0.014047 0.807617 0.105514
O O15 0.000000 0.000000 0.000000
#
# Coordination Sequence:
#
# PCOD9045906 Si02
#       7
#     2   2   2   2   2   2   2
#     4  12  23  44  69  96 141 175 230 275 325 408
#     4  10  24  48  73  95 128 174 229 295 353 380
#     4  10  24  42  63  98 136 175 223 282 325 400
#     4  10  26  42  68  98 133 178 230 272 337 396
#     4  11  22  38  61  96 136 180 217 261 324 391
#     4  11  24  37  63  99 140 186 214 257 331 406
#     4  12  22  40  62  97 142 179 220 261 325 405
#
# _framework density 22.079654999999999
#
# number of rings (size 3 to 8) (size 9 to 14) (size 15 to 20)
#    0.857    0.286    4.286    1.286    4.000    1.143 
#    0.000    2.857    0.000    1.714    0.000    0.000 
#    0.000    0.000    0.000    0.000    0.000    0.000 
#
# Total GULP energy -78015.587134 kJ/mol
# GULP energy per Si atom -5572.541938 kJ/mol
# Density = 2.202940 g / cm^3
# Si number density = 22.079655 Si / 1000 Ang^3
#
#
#
# Elastic Constant Matrix: (Units=GPa)
#
#
# Indices 1 2 3 4 5 6 
#
# 1 35.9787 20.2246 32.9735 2.6033 0.7633 -1.3133
# 2 20.2246 106.8303 53.4139 0.8602 16.3359 -1.5895
# 3 32.9735 53.4139 147.5347 -2.5149 -17.1705 5.9648
# 4 2.6033 0.8602 -2.5149 45.9173 -6.4400 6.9665
# 5 0.7633 16.3359 -17.1705 -6.4400 45.8371 5.5621
# 6 -1.3133 -1.5895 5.9648 6.9665 5.5621 27.5929
#
#
#
# Elastic Compliance Matrix: (Units=1/GPa)
#
#
# Indices 1 2 3 4 5 6 
#
# 1 0.037160 -0.002147 -0.008289 -0.003899 -0.004144 0.005257
# 2 -0.002147 0.013864 -0.005649 -0.002156 -0.007814 0.004037
# 3 -0.008289 -0.005649 0.011856 0.003163 0.007721 -0.005638
# 4 -0.003899 -0.002156 0.003163 0.024404 0.006474 -0.008460
# 5 -0.004144 -0.007814 0.007721 0.006474 0.029677 -0.009933
# 6 0.005257 0.004037 -0.005638 -0.008460 -0.009933 0.042081
#
#
# Mechanical properties :
#
#
# Convention : Reuss Voigt Hill
#
# Bulk Modulus (GPa) = 32.56286 55.95196 44.25741
# Shear Modulus (GPa) = 24.82022 36.11826 30.46924
#
# Velocity S-wave (km/s) = 3.35643 4.04891 3.71882
# Velocity P-wave (km/s) = 5.45901 6.87417 6.20705
#
# Compressibility (1/GPa) = 0.03070983
#
# Stress axis : x y z
#
# Youngs Moduli (GPa) = 26.91082 72.13073 84.34416
#
# Poissons Ratio (x) = 0.15488 0.69913
# Poissons Ratio (y) = 0.05778 0.47644
# Poissons Ratio (z) = 0.22306 0.40745
#
# Static dielectric constant tensor:
#      x y z
#    x 1.893140 -0.038650 -0.014870 
#    y -0.038650 1.868770 -0.014240 
#    z -0.014870 -0.014240 1.873850 
# 
# From -- ./inp_files/305988.got.cif
#   From: 2010.05.17/outbox.cif.g08.bks.cpg/sg2_153_cif.got.tgz:305988.got - 2010.06.03 11:33:40.
