data_PCOD9045938
_publ_section_title
;
Structure prediction by ZEFSAII (Michael W. Deem and Ramdas Pophale) SiO2 
 PCOD9045938
Probable space group: P -1
;
_chemical_formula_sum "Si O2"
_cell_formula_units_Z 14
_cell_length_a 12.329753
_cell_length_b 10.506657
_cell_length_c 7.485278
_cell_angle_alpha 124.829056
_cell_angle_beta 102.980302
_cell_angle_gamma 114.623318
_cell_volume 567.787032
_symmetry_space_group_name_H-M "P -1"
_symmetry_group_IT_number 2
_symmetry_cell_setting 'triclinic'
loop_
_space_group_symop_operation_xyz
x,y,z
-x,-y,-z
loop_
_atom_site_type_symbol
_atom_site_label
_atom_site_fract_x
_atom_site_fract_y
_atom_site_fract_z
Si Si1 0.347345 0.043428 0.389648
Si Si2 0.040859 0.256211 0.458896
Si Si3 0.540789 0.990749 0.227817
Si Si4 0.320007 0.327069 0.773701
Si Si5 0.718179 0.394766 0.414901
Si Si6 0.826365 0.774491 0.983559
Si Si7 0.955082 0.283875 0.826722
O O1 0.439906 0.048874 0.275937
O O2 0.181538 0.821890 0.170945
O O3 0.427953 0.069440 0.626109
O O4 0.312861 0.190272 0.507919
O O5 0.199554 0.339095 0.669046
O O6 0.118924 0.447802 0.500950
O O7 0.944656 0.221814 0.565897
O O8 0.932027 0.016708 0.147473
O O9 0.692272 0.217981 0.389549
O O10 0.431743 0.775165 0.900279
O O11 0.500000 0.500000 0.000000
O O12 0.262586 0.246627 0.891691
O O13 0.719910 0.565674 0.650063
O O14 0.939436 0.748431 0.077448
O O15 0.000000 0.500000 0.000000
#
# Coordination Sequence:
#
# PCOD9045938 Si02
#       7
#     2   2   2   2   2   2   2
#     4  11  20  43  66  90 122 165 226 265 310 366
#     4  11  22  43  64  98 133 172 211 265 331 387
#     4  10  24  42  64  96 130 172 214 278 314 378
#     4  11  21  38  70  95 121 167 226 268 308 373
#     4  11  23  42  62  90 141 175 202 258 342 395
#     4  11  22  43  64  98 133 172 211 265 331 387
#     4  11  21  38  70  95 121 167 226 268 308 373
#
# _framework density 24.657136000000001
#
# number of rings (size 3 to 8) (size 9 to 14) (size 15 to 20)
#    0.000    1.143    2.857    4.714    0.000    4.571 
#    0.000   15.714    0.000    0.000    0.000    0.000 
#    0.000    0.000    0.000    0.000    0.000    0.000 
#
# Total GULP energy -77940.801018 kJ/mol
# GULP energy per Si atom -5567.200073 kJ/mol
# Density = 2.460101 g / cm^3
# Si number density = 24.657136 Si / 1000 Ang^3
#
#
#
# Elastic Constant Matrix: (Units=GPa)
#
#
# Indices 1 2 3 4 5 6 
#
# 1 115.6765 20.2041 23.0810 -0.6448 -3.4883 29.0363
# 2 20.2041 83.7476 54.4173 13.4626 5.0024 30.9401
# 3 23.0810 54.4173 149.3244 32.2560 -7.6110 15.9412
# 4 -0.6448 13.4626 32.2560 32.7409 8.7639 6.2238
# 5 -3.4883 5.0024 -7.6110 8.7639 32.1544 5.2600
# 6 29.0363 30.9401 15.9412 6.2238 5.2600 33.8867
#
#
#
# Elastic Compliance Matrix: (Units=1/GPa)
#
#
# Indices 1 2 3 4 5 6 
#
# 1 0.011716 0.002292 -0.001943 0.003064 0.001587 -0.012027
# 2 0.002292 0.023227 -0.007281 0.002070 -0.002422 -0.019751
# 3 -0.001943 -0.007281 0.011991 -0.011236 0.006206 0.003773
# 4 0.003064 0.002070 -0.011236 0.045653 -0.014208 -0.005410
# 5 0.001587 -0.002422 0.006206 -0.014208 0.037863 -0.005336
# 6 -0.012027 -0.019751 0.003773 -0.005410 -0.005336 0.057896
#
#
# Mechanical properties :
#
#
# Convention : Reuss Voigt Hill
#
# Bulk Modulus (GPa) = 30.23876 60.46150 45.35013
# Shear Modulus (GPa) = 23.44834 36.49280 29.97057
#
# Velocity S-wave (km/s) = 3.08714 3.85126 3.49017
# Velocity P-wave (km/s) = 4.99975 6.65961 5.88846
#
# Compressibility (1/GPa) = 0.03307014
#
# Stress axis : x y z
#
# Youngs Moduli (GPa) = 85.35339 43.05261 83.39326
#
# Poissons Ratio (x) = -0.09868 0.16207
# Poissons Ratio (y) = -0.19564 0.60719
# Poissons Ratio (z) = 0.16587 0.31347
#
# Static dielectric constant tensor:
#      x y z
#    x 1.865390 -0.023090 -0.017140 
#    y -0.023090 2.031830 -0.052320 
#    z -0.017140 -0.052320 2.021900 
# 
# From -- ./inp_files/261061.got.cif
#   From: 2010.05.17/outbox.cif.g08.bks.cpg/sg2_131_cif.got.tgz:261061.got - 2010.06.03 11:33:40.
