data_PCOD9045183
_publ_section_title
;
Structure prediction by ZEFSAII (Michael W. Deem and Ramdas Pophale) SiO2 
 PCOD9045183
Probable space group: P -1
;
_chemical_formula_sum "Si O2"
_cell_formula_units_Z 14
_cell_length_a 16.672992
_cell_length_b 6.214802
_cell_length_c 16.004673
_cell_angle_alpha 115.389034
_cell_angle_beta 156.583590
_cell_angle_gamma 69.047510
_cell_volume 592.432630
_symmetry_space_group_name_H-M "P -1"
_symmetry_group_IT_number 2
_symmetry_cell_setting 'triclinic'
loop_
_space_group_symop_operation_xyz
x,y,z
-x,-y,-z
loop_
_atom_site_type_symbol
_atom_site_label
_atom_site_fract_x
_atom_site_fract_y
_atom_site_fract_z
Si Si1 0.829474 0.064284 0.607851
Si Si2 0.506328 0.101292 0.928465
Si Si3 0.112939 0.086301 0.039371
Si Si4 0.529995 0.232712 0.707475
Si Si5 0.805906 0.584893 0.284251
Si Si6 0.787735 0.718266 0.095716
Si Si7 0.669238 0.536822 0.599129
O O1 0.722390 0.301990 0.564352
O O2 0.002952 0.151447 0.719755
O O3 0.640419 0.853220 0.399100
O O4 0.972735 0.021743 0.816238
O O5 0.285555 0.192998 0.719566
O O6 0.650814 0.345984 0.099014
O O7 0.500000 0.000000 0.000000
O O8 0.611828 0.898413 0.946794
O O9 0.155532 0.358706 0.153529
O O10 0.323708 0.972603 0.206214
O O11 0.000000 0.000000 0.000000
O O12 0.405162 0.290502 0.514975
O O13 0.684563 0.467231 0.917459
O O14 0.831327 0.664636 0.225714
O O15 0.000000 0.500000 0.500000
O O16 0.500000 0.500000 0.500000
#
# Coordination Sequence:
#
# PCOD9045183 Si02
#       7
#     2   2   2   2   2   2   2
#     4  12  27  47  70 107 147 196 244 303 377 413
#     4   9  22  49  74 108 144 183 230 288 362 438
#     4  12  23  45  73  97 146 192 256 306 350 434
#     4  12  27  47  68 108 150 188 247 305 368 423
#     4  10  23  51  81 108 139 188 240 284 359 445
#     4  11  27  48  72 109 154 184 237 305 362 437
#     4  12  23  45  71  99 140 199 250 301 359 424
#
# _framework density 23.63138
#
# number of rings (size 3 to 8) (size 9 to 14) (size 15 to 20)
#    0.000    0.857    2.857    3.429    2.000    2.286 
#   20.571    0.000    0.000    0.000    0.000    0.000 
#    0.000    0.000    0.000    0.000    0.000    0.000 
#
# Total GULP energy -78130.438905 kJ/mol
# GULP energy per Si atom -5580.745636 kJ/mol
# Density = 2.357759 g / cm^3
# Si number density = 23.631380 Si / 1000 Ang^3
#
#
#
# Elastic Constant Matrix: (Units=GPa)
#
#
# Indices 1 2 3 4 5 6 
#
# 1 161.3939 56.2843 53.1370 -0.9753 31.2386 28.1628
# 2 56.2843 142.7970 48.3536 -22.0258 20.7091 -18.4058
# 3 53.1370 48.3536 128.9640 -5.5752 14.1933 13.0214
# 4 -0.9753 -22.0258 -5.5752 60.9812 8.6905 2.6690
# 5 31.2386 20.7091 14.1933 8.6905 39.2177 -0.6022
# 6 28.1628 -18.4058 13.0214 2.6690 -0.6022 58.7117
#
#
#
# Elastic Compliance Matrix: (Units=1/GPa)
#
#
# Indices 1 2 3 4 5 6 
#
# 1 0.009931 -0.003239 -0.001712 -0.000126 -0.005636 -0.005451
# 2 -0.003239 0.010952 -0.002829 0.003828 -0.002945 0.005410
# 3 -0.001712 -0.002829 0.009833 0.000055 -0.000748 -0.002256
# 4 -0.000126 0.003828 0.000055 0.018634 -0.006065 0.000339
# 5 -0.005636 -0.002945 -0.000748 -0.006065 0.033197 0.002562
# 6 -0.005451 0.005410 -0.002256 0.000339 0.002562 0.021855
#
#
# Mechanical properties :
#
#
# Convention : Reuss Voigt Hill
#
# Bulk Modulus (GPa) = 65.97939 83.18940 74.58439
# Shear Modulus (GPa) = 39.99583 50.14080 45.06832
#
# Velocity S-wave (km/s) = 4.11845 4.61129 4.37182
# Velocity P-wave (km/s) = 7.11311 7.97692 7.55737
#
# Compressibility (1/GPa) = 0.01515625
#
# Stress axis : x y z
#
# Youngs Moduli (GPa) = 100.69796 91.30349 101.70300
#
# Poissons Ratio (x) = 0.29576 0.17411
# Poissons Ratio (y) = 0.32619 0.28767
# Poissons Ratio (z) = 0.17239 0.25825
#
# Static dielectric constant tensor:
#      x y z
#    x 1.916480 -0.005080 -0.032060 
#    y -0.005080 1.884660 0.016680 
#    z -0.032060 0.016680 1.907870 
# 
# From -- ./inp_files/525969.got.cif
#   From: 2010.05.17/outbox.cif.g08.bks.cpg/sg2_263_cif.got.tgz:525969.got - 2010.06.03 11:33:40.
