data_PCOD9045267
_publ_section_title
;
Structure prediction by ZEFSAII (Michael W. Deem and Ramdas Pophale) SiO2 
 PCOD9045267
Probable space group: P -1
;
_chemical_formula_sum "Si O2"
_cell_formula_units_Z 15
_cell_length_a 11.237232
_cell_length_b 7.206014
_cell_length_c 13.132107
_cell_angle_alpha 45.501207
_cell_angle_beta 112.787244
_cell_angle_gamma 114.667651
_cell_volume 681.847283
_symmetry_space_group_name_H-M "P -1"
_symmetry_group_IT_number 2
_symmetry_cell_setting 'triclinic'
loop_
_space_group_symop_operation_xyz
x,y,z
-x,-y,-z
loop_
_atom_site_type_symbol
_atom_site_label
_atom_site_fract_x
_atom_site_fract_y
_atom_site_fract_z
Si Si1 0.964022 0.818858 0.736167
Si Si2 0.216978 0.857006 0.567961
Si Si3 0.500000 0.000000 0.500000
Si Si4 0.329450 0.697443 0.373878
Si Si5 0.159057 0.116059 0.126795
Si Si6 0.928315 0.618319 0.184152
Si Si7 0.236294 0.178741 0.654023
Si Si8 0.506792 0.505288 0.662274
O O1 0.990974 0.568956 0.778381
O O2 0.886356 0.989172 0.574790
O O3 0.878440 0.742563 0.838580
O O4 0.107398 0.015047 0.729668
O O5 0.146030 0.552869 0.682109
O O6 0.344216 0.893751 0.527728
O O7 0.256218 0.989303 0.639979
O O8 0.457855 0.280392 0.322590
O O9 0.271815 0.951669 0.240142
O O10 0.225588 0.456197 0.487229
O O11 0.457857 0.729435 0.481314
O O12 0.382373 0.592797 0.326974
O O13 0.029276 0.880687 0.153294
O O14 0.172330 0.304432 0.960870
O O15 0.376697 0.274261 0.721057
#
# Coordination Sequence:
#
# PCOD9045267 Si02
#       8
#     2   2   1   2   2   2   2   2
#     4  11  22  36  63  88 115 152 204 246 285 347
#     4  11  21  36  59  89 118 146 201 249 289 339
#     4  12  20  32  56  92 116 144 192 248 296 344
#     4   9  16  34  52  78 110 152 189 229 294 336
#     4  11  22  38  59  82 124 161 193 233 299 353
#     4  10  24  39  56  86 122 159 192 243 292 351
#     4   9  18  35  53  86 118 149 184 255 294 330
#     4   9  19  31  55  84 116 147 189 245 289 339
#
# _framework density 21.999063
#
# number of rings (size 3 to 8) (size 9 to 14) (size 15 to 20)
#    0.800    1.067    1.333    4.400    1.867    1.067 
#    0.000    0.000    0.000   15.200    0.000    0.000 
#    0.000    0.000    0.000    0.000    0.000    0.000 
#
# Total GULP energy -83561.488202 kJ/mol
# GULP energy per Si atom -5570.765880 kJ/mol
# Density = 2.194899 g / cm^3
# Si number density = 21.999063 Si / 1000 Ang^3
#
#
#
# Elastic Constant Matrix: (Units=GPa)
#
#
# Indices 1 2 3 4 5 6 
#
# 1 85.2771 -1.6968 0.8970 3.0331 9.4272 -17.1715
# 2 -1.6968 57.3365 -21.5262 -2.5285 -8.1462 -0.9685
# 3 0.8970 -21.5262 41.6786 1.2582 7.8874 -2.2087
# 4 3.0331 -2.5285 1.2582 10.8004 1.0613 2.2185
# 5 9.4272 -8.1462 7.8874 1.0613 11.8068 -8.2293
# 6 -17.1715 -0.9685 -2.2087 2.2185 -8.2293 25.0266
#
#
#
# Elastic Compliance Matrix: (Units=1/GPa)
#
#
# Indices 1 2 3 4 5 6 
#
# 1 0.014256 0.000020 0.001444 -0.005305 -0.005996 0.008409
# 2 0.000020 0.023183 0.009669 0.001707 0.013610 0.006088
# 3 0.001444 0.009669 0.032072 0.000056 -0.016854 -0.001351
# 4 -0.005305 0.001707 0.000056 0.099649 -0.015860 -0.017618
# 5 -0.005996 0.013610 -0.016854 -0.015860 0.141414 0.042831
# 6 0.008409 0.006088 -0.001351 -0.017618 0.042831 0.061489
#
#
# Mechanical properties :
#
#
# Convention : Reuss Voigt Hill
#
# Bulk Modulus (GPa) = 10.89585 15.51557 13.20571
# Shear Modulus (GPa) = 13.14440 23.30132 18.22286
#
# Velocity S-wave (km/s) = 2.44703 3.25806 2.88122
# Velocity P-wave (km/s) = 3.59827 4.60667 4.13334
#
# Compressibility (1/GPa) = 0.09177808
#
# Stress axis : x y z
#
# Youngs Moduli (GPa) = 70.14389 43.13440 31.17981
#
# Poissons Ratio (x) = -0.00087 -0.04503
# Poissons Ratio (y) = -0.00142 -0.30147
# Poissons Ratio (z) = -0.10130 -0.41706
#
# Static dielectric constant tensor:
#      x y z
#    x 1.818110 -0.079750 0.020640 
#    y -0.079750 2.270570 0.036260 
#    z 0.020640 0.036260 1.840880 
# 
# From -- ./inp_files/511407.got.cif
#   From: 2010.05.17/outbox.cif.g08.bks.cpg/sg2_256_cif.got.tgz:511407.got - 2010.06.03 11:33:40.
