data_PCOD9045401
_publ_section_title
;
Structure prediction by ZEFSAII (Michael W. Deem and Ramdas Pophale) SiO2 
 PCOD9045401
Probable space group: P -1
;
_chemical_formula_sum "Si O2"
_cell_formula_units_Z 16
_cell_length_a 9.275698
_cell_length_b 15.488169
_cell_length_c 12.642279
_cell_angle_alpha 149.855574
_cell_angle_beta 60.451653
_cell_angle_gamma 105.338790
_cell_volume 736.928997
_symmetry_space_group_name_H-M "P -1"
_symmetry_group_IT_number 2
_symmetry_cell_setting 'triclinic'
loop_
_space_group_symop_operation_xyz
x,y,z
-x,-y,-z
loop_
_atom_site_type_symbol
_atom_site_label
_atom_site_fract_x
_atom_site_fract_y
_atom_site_fract_z
Si Si1 0.889903 0.861327 0.963200
Si Si2 0.392026 0.907004 0.238380
Si Si3 0.227470 0.319265 0.799689
Si Si4 0.264383 0.374639 0.089549
Si Si5 0.617395 0.850769 0.882576
Si Si6 0.263966 0.739407 0.593970
Si Si7 0.399659 0.437751 0.561980
Si Si8 0.834340 0.326495 0.931231
O O1 0.853997 0.711920 0.890911
O O2 0.789404 0.074836 0.261618
O O3 0.785676 0.869256 0.898743
O O4 0.098396 0.798919 0.799414
O O5 0.535711 0.770611 0.120188
O O6 0.220605 0.849403 0.253854
O O7 0.361869 0.117632 0.500692
O O8 0.484648 0.854101 0.032197
O O9 0.221105 0.368630 0.976989
O O10 0.038821 0.301789 0.821485
O O11 0.258288 0.489793 0.912190
O O12 0.258153 0.567251 0.345527
O O13 0.690715 0.676490 0.594230
O O14 0.500000 0.000000 0.000000
O O15 0.447346 0.677769 0.530494
O O16 0.500000 0.500000 0.500000
O O17 0.248345 0.602568 0.849213
#
# Coordination Sequence:
#
# PCOD9045401 Si02
#       8
#     2   2   2   2   2   2   2   2
#     4  10  24  40  64  98 136 169 216 271 327 398
#     4  11  23  45  66  97 130 172 227 266 319 397
#     4  11  27  44  67  95 133 177 220 275 316 388
#     4  11  24  42  67  93 129 180 213 271 326 383
#     4  11  21  38  66  97 130 169 208 272 329 388
#     4  11  23  43  62 100 137 166 218 270 326 400
#     4  12  22  40  70  96 128 171 215 267 339 387
#     4  11  25  46  65  97 132 169 224 275 324 388
#
# _framework density 21.711725999999999
#
# number of rings (size 3 to 8) (size 9 to 14) (size 15 to 20)
#    0.000    1.000    3.750    2.625    5.250    1.500 
#    0.000    0.000    0.000    0.000    0.000    0.000 
#    0.000    0.000    0.000    0.000    0.000    0.000 
#
# Total GULP energy -89295.397024 kJ/mol
# GULP energy per Si atom -5580.962314 kJ/mol
# Density = 2.166231 g / cm^3
# Si number density = 21.711726 Si / 1000 Ang^3
#
#
#
# Elastic Constant Matrix: (Units=GPa)
#
#
# Indices 1 2 3 4 5 6 
#
# 1 55.3050 25.5266 10.1531 2.2409 3.4212 11.4410
# 2 25.5266 49.1015 10.7098 7.4491 22.2533 0.7791
# 3 10.1531 10.7098 113.4875 21.8652 19.1226 -3.9376
# 4 2.2409 7.4491 21.8652 19.3588 6.6443 -6.8848
# 5 3.4212 22.2533 19.1226 6.6443 37.0135 -3.0040
# 6 11.4410 0.7791 -3.9376 -6.8848 -3.0040 21.7015
#
#
#
# Elastic Compliance Matrix: (Units=1/GPa)
#
#
# Indices 1 2 3 4 5 6 
#
# 1 0.029553 -0.018239 -0.002563 -0.001726 0.008672 -0.014737
# 2 -0.018239 0.040660 0.003363 -0.008488 -0.022736 0.002926
# 3 -0.002563 0.003363 0.012228 -0.013376 -0.005831 -0.001602
# 4 -0.001726 -0.008488 -0.013376 0.078684 -0.000024 0.023747
# 5 0.008672 -0.022736 -0.005831 -0.000024 0.042993 0.001130
# 6 -0.014737 0.002926 -0.001602 0.023747 0.001130 0.061144
#
#
# Mechanical properties :
#
#
# Convention : Reuss Voigt Hill
#
# Bulk Modulus (GPa) = 21.02537 34.51922 27.77229
# Shear Modulus (GPa) = 15.82309 27.04839 21.43574
#
# Velocity S-wave (km/s) = 2.70252 3.53341 3.14552
# Velocity P-wave (km/s) = 4.40943 5.70790 5.10015
#
# Compressibility (1/GPa) = 0.04756160
#
# Stress axis : x y z
#
# Youngs Moduli (GPa) = 33.83785 24.59411 81.78246
#
# Poissons Ratio (x) = 0.44858 0.20959
# Poissons Ratio (y) = 0.61718 -0.27500
# Poissons Ratio (z) = 0.08672 -0.08270
#
# Static dielectric constant tensor:
#      x y z
#    x 2.068620 0.277540 0.657730 
#    y 0.277540 2.029870 0.644270 
#    z 0.657730 0.644270 3.422630 
# 
# From -- ./inp_files/356596.got.cif
#   From: 2010.05.17/outbox.cif.g08.bks.cpg/sg2_179_cif.got.tgz:356596.got - 2010.06.03 11:33:40.
