data_PCOD9045292
_publ_section_title
;
Structure prediction by ZEFSAII (Michael W. Deem and Ramdas Pophale) SiO2 
 PCOD9045292
Probable space group: P -1
;
_chemical_formula_sum "Si O2"
_cell_formula_units_Z 12
_cell_length_a 5.282066
_cell_length_b 5.195343
_cell_length_c 22.826133
_cell_angle_alpha 77.596518
_cell_angle_beta 92.431570
_cell_angle_gamma 59.864255
_cell_volume 520.648849
_symmetry_space_group_name_H-M "P -1"
_symmetry_group_IT_number 2
_symmetry_cell_setting 'triclinic'
loop_
_space_group_symop_operation_xyz
x,y,z
-x,-y,-z
loop_
_atom_site_type_symbol
_atom_site_label
_atom_site_fract_x
_atom_site_fract_y
_atom_site_fract_z
Si Si1 0.326351 0.797005 0.213414
Si Si2 0.119338 0.915961 0.640168
Si Si3 0.484162 0.551793 0.428794
Si Si4 0.050138 0.463690 0.831974
Si Si5 0.852297 0.802370 0.024199
Si Si6 0.414327 0.007661 0.323911
O O1 0.137710 0.638663 0.204901
O O2 0.406432 0.801090 0.282169
O O3 0.627422 0.649845 0.186192
O O4 0.128019 0.165958 0.180350
O O5 0.360264 0.881804 0.691220
O O6 0.856516 0.269177 0.606332
O O7 0.928644 0.774820 0.671728
O O8 0.289981 0.746232 0.591249
O O9 0.500000 0.500000 0.500000
O O10 0.554111 0.808380 0.394537
O O11 0.088124 0.303471 0.902721
O O12 0.000000 0.500000 0.000000
O O13 0.500000 0.000000 0.000000
O O14 0.000000 0.000000 0.000000
#
# Coordination Sequence:
#
# PCOD9045292 Si02
#       6
#     2   2   2   2   2   2
#     4  12  27  44  72  98 147 179 238 283 340 413
#     4  10  24  39  65  90 127 160 224 259 352 388
#     4  10  24  42  65  94 127 166 220 274 336 402
#     4  12  26  46  70 108 137 186 230 283 340 404
#     4  12  25  45  74 103 144 182 229 283 341 404
#     4  10  26  41  67  92 129 176 217 277 340 393
#
# _framework density 23.048164
#
# number of rings (size 3 to 8) (size 9 to 14) (size 15 to 20)
#    1.000    0.000    0.000    6.000    7.000    1.333 
#    0.000    0.000    0.000    0.000    0.000    0.000 
#    0.000    0.000    0.000    0.000    0.000    0.000 
#
# Total GULP energy -67055.701768 kJ/mol
# GULP energy per Si atom -5587.975147 kJ/mol
# Density = 2.299571 g / cm^3
# Si number density = 23.048164 Si / 1000 Ang^3
#
#
#
# Elastic Constant Matrix: (Units=GPa)
#
#
# Indices 1 2 3 4 5 6 
#
# 1 159.6649 61.8839 33.6797 13.5669 19.2188 -29.5884
# 2 61.8839 118.8736 27.1994 7.9706 -2.2315 -28.4020
# 3 33.6797 27.1994 109.6401 -1.7726 -15.0198 -15.5938
# 4 13.5669 7.9706 -1.7726 43.8489 0.5668 -6.5288
# 5 19.2188 -2.2315 -15.0198 0.5668 35.0861 5.9752
# 6 -29.5884 -28.4020 -15.5938 -6.5288 5.9752 43.9482
#
#
#
# Elastic Compliance Matrix: (Units=1/GPa)
#
#
# Indices 1 2 3 4 5 6 
#
# 1 0.010099 -0.003651 -0.002662 -0.001837 -0.007599 0.004255
# 2 -0.003651 0.011647 -0.000920 -0.000380 0.001592 0.004469
# 3 -0.002662 -0.000920 0.011150 0.001510 0.005981 0.000981
# 4 -0.001837 -0.000380 0.001510 0.023864 0.000819 0.002488
# 5 -0.007599 0.001592 0.005981 0.000819 0.036470 -0.006802
# 6 0.004255 0.004469 0.000981 0.002488 -0.006802 0.030150
#
#
# Mechanical properties :
#
#
# Convention : Reuss Voigt Hill
#
# Bulk Modulus (GPa) = 54.26102 70.41161 62.33632
# Shear Modulus (GPa) = 34.72481 42.27100 38.49790
#
# Velocity S-wave (km/s) = 3.88573 4.28720 4.09139
# Velocity P-wave (km/s) = 6.61252 7.42448 7.03023
#
# Compressibility (1/GPa) = 0.01842944
#
# Stress axis : x y z
#
# Youngs Moduli (GPa) = 99.01909 85.86085 89.68609
#
# Poissons Ratio (x) = 0.31349 0.23874
# Poissons Ratio (y) = 0.36153 0.08253
# Poissons Ratio (z) = 0.26358 0.07901
#
# Static dielectric constant tensor:
#      x y z
#    x 1.932620 0.020210 0.001710 
#    y 0.020210 1.878960 -0.048540 
#    z 0.001710 -0.048540 1.851570 
# 
# From -- ./inp_files/12069.got.cif
#   From: 2010.05.17/outbox.cif.g08.bks.cpg/sg2_7_cif.got.tgz:12069.got - 2010.06.03 11:33:40.
