data_PCOD9045161
_publ_section_title
;
Structure prediction by ZEFSAII (Michael W. Deem and Ramdas Pophale) SiO2 
 PCOD9045161
Probable space group: P -1
;
_chemical_formula_sum "Si O2"
_cell_formula_units_Z 14
_cell_length_a 9.348400
_cell_length_b 8.924027
_cell_length_c 7.008959
_cell_angle_alpha 102.964146
_cell_angle_beta 110.436367
_cell_angle_gamma 78.622077
_cell_volume 529.407422
_symmetry_space_group_name_H-M "P -1"
_symmetry_group_IT_number 2
_symmetry_cell_setting 'triclinic'
loop_
_space_group_symop_operation_xyz
x,y,z
-x,-y,-z
loop_
_atom_site_type_symbol
_atom_site_label
_atom_site_fract_x
_atom_site_fract_y
_atom_site_fract_z
Si Si1 0.593401 0.548433 0.813085
Si Si2 0.238577 0.054251 0.615555
Si Si3 0.505039 0.161876 0.945178
Si Si4 0.654577 0.223753 0.655273
Si Si5 0.141357 0.546891 0.324326
Si Si6 0.825813 0.445926 0.212639
Si Si7 0.962111 0.091940 0.203403
O O1 0.545671 0.391382 0.649761
O O2 0.742511 0.580202 0.769697
O O3 0.485265 0.703276 0.857305
O O4 0.672207 0.487668 0.032327
O O5 0.339331 0.185051 0.766525
O O6 0.354335 0.914179 0.534530
O O7 0.152668 0.990024 0.737659
O O8 0.371024 0.841887 0.166165
O O9 0.500000 0.000000 0.000000
O O10 0.814155 0.290684 0.693402
O O11 0.887162 0.898250 0.592339
O O12 0.185707 0.529625 0.560545
O O13 0.962682 0.535112 0.222009
O O14 0.890542 0.265700 0.173149
O O15 0.000000 0.000000 0.000000
#
# Coordination Sequence:
#
# PCOD9045161 Si02
#       7
#     2   2   2   2   2   2   2
#     4  10  24  45  72  99 142 184 245 296 343 422
#     4  11  26  46  68 108 150 184 233 299 359 423
#     4  12  29  47  73 102 145 197 244 295 357 416
#     4  10  23  50  67  98 143 192 241 293 337 430
#     4   9  23  38  71 100 140 172 239 287 356 413
#     4  11  21  41  72 106 136 181 232 293 365 423
#     4  11  25  41  75 109 144 182 229 295 373 428
#
# _framework density 26.444659999999999
#
# number of rings (size 3 to 8) (size 9 to 14) (size 15 to 20)
#    0.857    0.571    1.429    2.143   10.000    0.000 
#    2.571    1.429    0.000    0.000    0.000    0.000 
#    0.000    0.000    0.000    0.000    0.000    0.000 
#
# Total GULP energy -78423.124481 kJ/mol
# GULP energy per Si atom -5601.651749 kJ/mol
# Density = 2.638447 g / cm^3
# Si number density = 26.444660 Si / 1000 Ang^3
#
#
#
# Elastic Constant Matrix: (Units=GPa)
#
#
# Indices 1 2 3 4 5 6 
#
# 1 122.6270 20.4455 39.6567 -3.6684 -14.9899 19.7500
# 2 20.4455 115.8778 32.2178 8.7519 -21.6273 -5.1844
# 3 39.6567 32.2178 112.3393 6.0500 -30.0877 -13.2739
# 4 -3.6684 8.7519 6.0500 52.0496 -7.2877 -6.9762
# 5 -14.9899 -21.6273 -30.0877 -7.2877 63.2548 -2.7275
# 6 19.7500 -5.1844 -13.2739 -6.9762 -2.7275 37.0334
#
#
#
# Elastic Compliance Matrix: (Units=1/GPa)
#
#
# Indices 1 2 3 4 5 6 
#
# 1 0.011020 -0.001090 -0.004553 0.000443 -0.000203 -0.007593
# 2 -0.001090 0.009834 -0.001610 -0.001043 0.002276 0.001352
# 3 -0.004553 -0.001610 0.013155 0.000093 0.004953 0.007300
# 4 0.000443 -0.001043 0.000093 0.020213 0.002278 0.003626
# 5 -0.000203 0.002276 0.004953 0.002278 0.019333 0.004055
# 6 -0.007593 0.001352 0.007300 0.003626 0.004055 0.034840
#
#
# Mechanical properties :
#
#
# Convention : Reuss Voigt Hill
#
# Bulk Modulus (GPa) = 51.27346 59.49824 55.38585
# Shear Modulus (GPa) = 38.63945 47.70249 43.17097
#
# Velocity S-wave (km/s) = 3.82664 4.25180 4.04481
# Velocity P-wave (km/s) = 6.24142 6.83020 6.54244
#
# Compressibility (1/GPa) = 0.01950327
#
# Stress axis : x y z
#
# Youngs Moduli (GPa) = 90.74135 101.69020 76.01729
#
# Poissons Ratio (x) = 0.11080 0.34613
# Poissons Ratio (y) = 0.09887 0.12239
# Poissons Ratio (z) = 0.41317 0.16372
#
# Static dielectric constant tensor:
#      x y z
#    x 2.078520 -0.039390 0.033030 
#    y -0.039390 2.071490 -0.019150 
#    z 0.033030 -0.019150 2.098420 
# 
# From -- ./inp_files/239809.got.cif
#   From: 2010.05.17/outbox.cif.g08.bks.cpg/sg2_120_cif.got.tgz:239809.got - 2010.06.03 11:33:40.
