data_PCOD9045135
_publ_section_title
;
Structure prediction by ZEFSAII (Michael W. Deem and Ramdas Pophale) SiO2 
 PCOD9045135
Probable space group: P -1
;
_chemical_formula_sum "Si O2"
_cell_formula_units_Z 16
_cell_length_a 12.628296
_cell_length_b 18.071915
_cell_length_c 8.796701
_cell_angle_alpha 54.632069
_cell_angle_beta 100.342512
_cell_angle_gamma 144.465238
_cell_volume 750.216834
_symmetry_space_group_name_H-M "P -1"
_symmetry_group_IT_number 2
_symmetry_cell_setting 'triclinic'
loop_
_space_group_symop_operation_xyz
x,y,z
-x,-y,-z
loop_
_atom_site_type_symbol
_atom_site_label
_atom_site_fract_x
_atom_site_fract_y
_atom_site_fract_z
Si Si1 0.843827 0.332184 0.284035
Si Si2 0.277726 0.945603 0.300298
Si Si3 0.628544 0.954836 0.361396
Si Si4 0.167569 0.767444 0.163456
Si Si5 0.718812 0.330868 0.807248
Si Si6 0.621329 0.674485 0.741338
Si Si7 0.628428 0.388397 0.474708
Si Si8 0.124346 0.980522 0.428577
O O1 0.780680 0.177918 0.447622
O O2 0.599716 0.196659 0.417639
O O3 0.021422 0.467250 0.309816
O O4 0.000000 0.500000 0.000000
O O5 0.210293 0.858521 0.217995
O O6 0.163930 0.954742 0.314034
O O7 0.548237 0.169462 0.085863
O O8 0.549193 0.817322 0.390842
O O9 0.836382 0.067667 0.376823
O O10 0.705948 0.096535 0.112271
O O11 0.266105 0.738670 0.230881
O O12 0.896026 0.568785 0.291267
O O13 0.632149 0.363266 0.683525
O O14 0.458827 0.588030 0.663784
O O15 0.870526 0.832550 0.550380
O O16 0.686327 0.802122 0.730086
O O17 0.500000 0.500000 0.000000
#
# Coordination Sequence:
#
# PCOD9045135 Si02
#       8
#     2   2   2   2   2   2   2   2
#     4  12  26  39  61  99 146 188 226 267 324 401
#     4  12  25  41  65 101 143 175 220 282 335 387
#     4  11  22  41  67  96 134 184 223 264 331 403
#     4  12  22  39  68  99 141 185 216 263 329 412
#     4  12  23  40  63  99 146 181 225 260 328 411
#     4  10  23  49  75  92 123 174 234 286 348 403
#     4  11  22  39  69  99 124 177 231 273 326 403
#     4  10  25  44  69 100 129 169 230 288 342 395
#
# _framework density 21.327166999999999
#
# number of rings (size 3 to 8) (size 9 to 14) (size 15 to 20)
#    0.000    0.750    5.000    3.000    1.750    4.000 
#    0.000    1.250    0.000    0.000    0.000    0.000 
#    0.000    0.000    0.000    0.000    0.000    0.000 
#
# Total GULP energy -89245.634263 kJ/mol
# GULP energy per Si atom -5577.852141 kJ/mol
# Density = 2.127863 g / cm^3
# Si number density = 21.327167 Si / 1000 Ang^3
#
#
#
# Elastic Constant Matrix: (Units=GPa)
#
#
# Indices 1 2 3 4 5 6 
#
# 1 92.7082 23.1940 26.4189 9.5273 9.3736 6.1380
# 2 23.1940 70.0327 9.5415 7.2714 3.9709 18.2985
# 3 26.4189 9.5415 151.0686 0.7212 16.5964 4.7348
# 4 9.5273 7.2714 0.7212 29.6562 6.3317 0.6163
# 5 9.3736 3.9709 16.5964 6.3317 35.4276 3.9984
# 6 6.1380 18.2985 4.7348 0.6163 3.9984 41.4668
#
#
#
# Elastic Compliance Matrix: (Units=1/GPa)
#
#
# Indices 1 2 3 4 5 6 
#
# 1 0.012639 -0.003590 -0.001797 -0.002794 -0.001614 0.000115
# 2 -0.003590 0.017700 -0.000301 -0.003132 0.000485 -0.007245
# 3 -0.001797 -0.000301 0.007292 0.001137 -0.003093 -0.000152
# 4 -0.002794 -0.003132 0.001137 0.036643 -0.006185 0.001718
# 5 -0.001614 0.000485 -0.003093 -0.006185 0.031443 -0.002562
# 6 0.000115 -0.007245 -0.000152 0.001718 -0.002562 0.027535
#
#
# Mechanical properties :
#
#
# Convention : Reuss Voigt Hill
#
# Bulk Modulus (GPa) = 38.08730 48.01314 43.05022
# Shear Modulus (GPa) = 32.59922 38.28712 35.44317
#
# Velocity S-wave (km/s) = 3.91388 4.24161 4.08104
# Velocity P-wave (km/s) = 6.19048 6.82275 6.51429
#
# Compressibility (1/GPa) = 0.02625547
#
# Stress axis : x y z
#
# Youngs Moduli (GPa) = 79.11830 56.49814 137.13910
#
# Poissons Ratio (x) = 0.20281 0.24639
# Poissons Ratio (y) = 0.28401 0.04133
# Poissons Ratio (z) = 0.14215 0.01703
#
# Static dielectric constant tensor:
#      x y z
#    x 1.763280 -0.032610 0.027400 
#    y -0.032610 1.865760 0.036960 
#    z 0.027400 0.036960 1.822620 
# 
# From -- ./inp_files/279050.got.cif
#   From: 2010.05.17/outbox.cif.g08.bks.cpg/sg2_140_cif.got.tgz:279050.got - 2010.06.03 11:33:40.
