data_PCOD9045346
_publ_section_title
;
Structure prediction by ZEFSAII (Michael W. Deem and Ramdas Pophale) SiO2 
 PCOD9045346
Probable space group: P -1
;
_chemical_formula_sum "Si O2"
_cell_formula_units_Z 12
_cell_length_a 9.408688
_cell_length_b 9.653050
_cell_length_c 13.015378
_cell_angle_alpha 135.703460
_cell_angle_beta 48.588732
_cell_angle_gamma 135.991989
_cell_volume 546.716786
_symmetry_space_group_name_H-M "P -1"
_symmetry_group_IT_number 2
_symmetry_cell_setting 'triclinic'
loop_
_space_group_symop_operation_xyz
x,y,z
-x,-y,-z
loop_
_atom_site_type_symbol
_atom_site_label
_atom_site_fract_x
_atom_site_fract_y
_atom_site_fract_z
Si Si1 0.936783 0.559878 0.931964
Si Si2 0.434509 0.909226 0.100430
Si Si3 0.888147 0.968556 0.269851
Si Si4 0.252876 0.231154 0.380173
Si Si5 0.731403 0.615975 0.321136
Si Si6 0.851975 0.116574 0.155558
O O1 0.700589 0.357775 0.959186
O O2 0.113593 0.486466 0.843946
O O3 0.000551 0.629127 0.818496
O O4 0.960515 0.790478 0.092260
O O5 0.276064 0.006265 0.263005
O O6 0.642019 0.013928 0.129836
O O7 0.500000 0.000000 0.000000
O O8 0.742579 0.815545 0.350641
O O9 0.796041 0.059871 0.271800
O O10 0.085376 0.176309 0.339936
O O11 0.488371 0.422023 0.338582
O O12 0.198545 0.295866 0.550117
O O13 0.000000 0.000000 0.000000
#
# Coordination Sequence:
#
# PCOD9045346 Si02
#       6
#     2   2   2   2   2   2
#     4  11  23  39  68  94 123 164 211 257 306 376
#     4  12  23  39  69  96 122 166 212 255 311 373
#     4  11  23  40  64  96 127 163 205 267 311 361
#     4  11  24  39  67  93 126 164 213 261 302 374
#     4  11  23  41  66  94 123 167 218 250 309 372
#     4  10  24  40  59  96 133 154 206 265 314 362
#
# _framework density 21.949207999999999
#
# number of rings (size 3 to 8) (size 9 to 14) (size 15 to 20)
#    0.000    1.000    3.333    4.000    0.000    4.000 
#    0.000    1.667    0.000    0.000    0.000    0.000 
#    0.000    0.000    0.000    0.000    0.000    0.000 
#
# Total GULP energy -67003.839496 kJ/mol
# GULP energy per Si atom -5583.653291 kJ/mol
# Density = 2.189925 g / cm^3
# Si number density = 21.949208 Si / 1000 Ang^3
#
#
#
# Elastic Constant Matrix: (Units=GPa)
#
#
# Indices 1 2 3 4 5 6 
#
# 1 131.6539 57.8042 20.1877 -11.1335 44.5668 -15.6497
# 2 57.8042 155.4705 23.9208 -12.9504 29.3000 -8.6006
# 3 20.1877 23.9208 75.2127 -2.2306 24.0118 5.1797
# 4 -11.1335 -12.9504 -2.2306 25.0573 1.8602 5.9569
# 5 44.5668 29.3000 24.0118 1.8602 29.1342 0.9119
# 6 -15.6497 -8.6006 5.1797 5.9569 0.9119 38.5542
#
#
#
# Elastic Compliance Matrix: (Units=1/GPa)
#
#
# Indices 1 2 3 4 5 6 
#
# 1 0.022036 -0.000371 0.006786 0.011471 -0.039883 0.007121
# 2 -0.000371 0.008614 0.000141 0.004640 -0.008546 0.001237
# 3 0.006786 0.000141 0.020584 0.007092 -0.027927 -0.000415
# 4 0.011471 0.004640 0.007092 0.050922 -0.031236 -0.002390
# 5 -0.039883 -0.008546 -0.027927 -0.031236 0.129334 -0.012577
# 6 0.007121 0.001237 -0.000415 -0.002390 -0.012577 0.029827
#
#
# Mechanical properties :
#
#
# Convention : Reuss Voigt Hill
#
# Bulk Modulus (GPa) = 15.54115 62.90693 39.22404
# Shear Modulus (GPa) = 18.54235 35.91076 27.22656
#
# Velocity S-wave (km/s) = 2.90967 4.04924 3.52580
# Velocity P-wave (km/s) = 4.28767 7.11226 5.87232
#
# Compressibility (1/GPa) = 0.06434531
#
# Stress axis : x y z
#
# Youngs Moduli (GPa) = 45.38098 116.09009 48.58107
#
# Poissons Ratio (x) = 0.04309 -0.32968
# Poissons Ratio (y) = 0.01684 -0.00684
# Poissons Ratio (z) = -0.30796 -0.01635
#
# Static dielectric constant tensor:
#      x y z
#    x 1.798640 -0.022780 0.056670 
#    y -0.022780 1.867910 -0.027370 
#    z 0.056670 -0.027370 1.911530 
# 
# From -- ./inp_files/380518.got.cif
#   From: 2010.05.17/outbox.cif.g08.bks.cpg/sg2_191_cif.got.tgz:380518.got - 2010.06.03 11:33:40.
