data_PCOD9045494
_publ_section_title
;
Structure prediction by ZEFSAII (Michael W. Deem and Ramdas Pophale) SiO2 
 PCOD9045494
Probable space group: P -1
;
_chemical_formula_sum "Si O2"
_cell_formula_units_Z 12
_cell_length_a 8.744068
_cell_length_b 19.390457
_cell_length_c 7.426801
_cell_angle_alpha 30.413893
_cell_angle_beta 127.957823
_cell_angle_gamma 126.407695
_cell_volume 496.307454
_symmetry_space_group_name_H-M "P -1"
_symmetry_group_IT_number 2
_symmetry_cell_setting 'triclinic'
loop_
_space_group_symop_operation_xyz
x,y,z
-x,-y,-z
loop_
_atom_site_type_symbol
_atom_site_label
_atom_site_fract_x
_atom_site_fract_y
_atom_site_fract_z
Si Si1 0.174727 0.015445 0.443202
Si Si2 0.921851 0.631964 0.226040
Si Si3 0.456735 0.295383 0.124173
Si Si4 0.902814 0.343980 0.316843
Si Si5 0.912482 0.843473 0.402503
Si Si6 0.494765 0.875740 0.129266
O O1 0.060489 0.980048 0.257169
O O2 0.319902 0.160234 0.244460
O O3 0.312568 0.898429 0.827918
O O4 0.000000 0.000000 0.500000
O O5 0.000000 0.500000 0.500000
O O6 0.053524 0.684857 0.376455
O O7 0.696244 0.597979 0.212797
O O8 0.914619 0.742944 0.810500
O O9 0.674007 0.327747 0.129033
O O10 0.512451 0.257933 0.452569
O O11 0.013168 0.244734 0.501789
O O12 0.000000 0.500000 0.000000
O O13 0.694123 0.880266 0.154534
O O14 0.500000 0.000000 0.000000
#
# Coordination Sequence:
#
# PCOD9045494 Si02
#       6
#     2   2   2   2   2   2
#     4  11  19  39  72 101 136 171 221 277 340 406
#     4  11  23  47  71  96 135 183 230 281 332 403
#     4  10  24  40  69 101 133 179 227 273 343 404
#     4  12  27  46  64 100 142 176 234 281 327 401
#     4  11  23  43  71 102 134 182 219 284 342 392
#     4   9  18  38  69 100 132 176 221 270 338 408
#
# _framework density 24.178560999999998
#
# number of rings (size 3 to 8) (size 9 to 14) (size 15 to 20)
#    0.000    1.333    6.667    1.000    0.000    3.333 
#    3.000    5.833    0.000    1.000    0.000    0.000 
#    0.000    0.000    0.000    0.000    0.000    0.000 
#
# Total GULP energy -67088.470205 kJ/mol
# GULP energy per Si atom -5590.705850 kJ/mol
# Density = 2.412353 g / cm^3
# Si number density = 24.178561 Si / 1000 Ang^3
#
#
#
# Elastic Constant Matrix: (Units=GPa)
#
#
# Indices 1 2 3 4 5 6 
#
# 1 193.2510 100.1143 64.4863 -5.4409 54.7339 15.6736
# 2 100.1143 142.6674 39.5872 14.4903 31.0884 9.4359
# 3 64.4863 39.5872 106.2276 3.4606 37.6581 13.6728
# 4 -5.4409 14.4903 3.4606 42.7509 4.5680 5.9010
# 5 54.7339 31.0884 37.6581 4.5680 59.5774 7.7603
# 6 15.6736 9.4359 13.6728 5.9010 7.7603 60.9662
#
#
#
# Elastic Compliance Matrix: (Units=1/GPa)
#
#
# Indices 1 2 3 4 5 6 
#
# 1 0.010961 -0.006205 -0.002394 0.004426 -0.005523 -0.001046
# 2 -0.006205 0.011973 -0.000648 -0.004862 0.000191 0.000334
# 3 -0.002394 -0.000648 0.013321 -0.000349 -0.005658 -0.001518
# 4 0.004426 -0.004862 -0.000349 0.026293 -0.003003 -0.002470
# 5 -0.005523 0.000191 -0.005658 -0.003003 0.025606 -0.000309
# 6 -0.001046 0.000334 -0.001518 -0.002470 -0.000309 0.017239
#
#
# Mechanical properties :
#
#
# Convention : Reuss Voigt Hill
#
# Bulk Modulus (GPa) = 56.29573 94.50242 75.39908
# Shear Modulus (GPa) = 38.51901 48.52277 43.52089
#
# Velocity S-wave (km/s) = 3.99570 4.48465 4.24722
# Velocity P-wave (km/s) = 6.67993 8.12319 7.43665
#
# Compressibility (1/GPa) = 0.01776334
#
# Stress axis : x y z
#
# Youngs Moduli (GPa) = 91.22939 83.52014 75.07018
#
# Poissons Ratio (x) = 0.51822 0.17969
# Poissons Ratio (y) = 0.56605 0.04862
# Poissons Ratio (z) = 0.21837 0.05410
#
# Static dielectric constant tensor:
#      x y z
#    x 2.107900 -0.023150 -0.148090 
#    y -0.023150 1.961460 0.046310 
#    z -0.148090 0.046310 2.074950 
# 
# From -- ./inp_files/222920.got.cif
#   From: 2010.05.17/outbox.cif.g08.bks.cpg/sg2_112_cif.got.tgz:222920.got - 2010.06.03 11:33:40.
