data_PCOD9045915
_publ_section_title
;
Structure prediction by ZEFSAII (Michael W. Deem and Ramdas Pophale) SiO2 
 PCOD9045915
Probable space group: P -1
;
_chemical_formula_sum "Si O2"
_cell_formula_units_Z 14
_cell_length_a 13.904003
_cell_length_b 4.955266
_cell_length_c 14.081586
_cell_angle_alpha 79.714974
_cell_angle_beta 37.076068
_cell_angle_gamma 73.580724
_cell_volume 559.198119
_symmetry_space_group_name_H-M "P -1"
_symmetry_group_IT_number 2
_symmetry_cell_setting 'triclinic'
loop_
_space_group_symop_operation_xyz
x,y,z
-x,-y,-z
loop_
_atom_site_type_symbol
_atom_site_label
_atom_site_fract_x
_atom_site_fract_y
_atom_site_fract_z
Si Si1 0.215977 0.743757 0.464343
Si Si2 0.320604 0.466938 0.677651
Si Si3 0.249014 0.528820 0.241151
Si Si4 0.037423 0.307796 0.671466
Si Si5 0.101815 0.048079 0.824564
Si Si6 0.575166 0.134005 0.060983
Si Si7 0.593396 0.582391 0.172306
O O1 0.196210 0.682364 0.372575
O O2 0.100706 0.026455 0.577612
O O3 0.404854 0.740007 0.333316
O O4 0.181230 0.468526 0.559184
O O5 0.500000 0.500000 0.500000
O O6 0.250339 0.198610 0.721173
O O7 0.317947 0.469348 0.794531
O O8 0.187699 0.745226 0.733328
O O9 0.383740 0.241261 0.175850
O O10 0.332368 0.735603 0.101077
O O11 0.101033 0.491473 0.294835
O O12 0.990098 0.225010 0.818599
O O13 0.000000 0.000000 0.000000
O O14 0.591946 0.299674 0.134478
O O15 0.643028 0.805396 0.047498
#
# Coordination Sequence:
#
# PCOD9045915 Si02
#       7
#     2   2   2   2   2   2   2
#     4  11  24  43  65 104 131 177 219 283 327 425
#     4  12  26  47  76 103 140 190 246 296 351 418
#     4  10  24  42  68  96 139 174 223 269 344 405
#     4  12  25  42  69  94 141 177 223 270 354 396
#     4  12  28  48  71 108 147 184 243 299 353 423
#     4  10  24  42  64 102 130 173 223 280 323 421
#     4  11  23  42  71  93 137 172 230 274 347 389
#
# _framework density 25.035851000000001
#
# number of rings (size 3 to 8) (size 9 to 14) (size 15 to 20)
#    0.000    0.857    0.000    6.857    4.000    9.714 
#    0.000    0.000    0.000    0.000    0.000    0.000 
#    0.000    0.000    0.000    0.000    0.000    0.000 
#
# Total GULP energy -78489.398440 kJ/mol
# GULP energy per Si atom -5606.385603 kJ/mol
# Density = 2.497887 g / cm^3
# Si number density = 25.035851 Si / 1000 Ang^3
#
#
#
# Elastic Constant Matrix: (Units=GPa)
#
#
# Indices 1 2 3 4 5 6 
#
# 1 98.3197 -0.6197 13.9447 -5.2669 23.2107 -12.8984
# 2 -0.6197 63.8318 10.5450 -14.0330 -0.9735 10.2561
# 3 13.9447 10.5450 104.5415 -5.2672 10.5053 7.5222
# 4 -5.2669 -14.0330 -5.2672 32.2719 0.9152 4.4304
# 5 23.2107 -0.9735 10.5053 0.9152 34.1828 -2.0416
# 6 -12.8984 10.2561 7.5222 4.4304 -2.0416 33.6700
#
#
#
# Elastic Compliance Matrix: (Units=1/GPa)
#
#
# Indices 1 2 3 4 5 6 
#
# 1 0.012950 -0.000238 -0.001137 0.001426 -0.008214 0.004602
# 2 -0.000238 0.018883 -0.000970 0.008935 0.000353 -0.006780
# 3 -0.001137 -0.000970 0.010362 0.001546 -0.002650 -0.002819
# 4 0.001426 0.008935 0.001546 0.036457 -0.002611 -0.007476
# 5 -0.008214 0.000353 -0.002650 -0.002611 0.035717 -0.000153
# 6 0.004602 -0.006780 -0.002819 -0.007476 -0.000153 0.035132
#
#
# Mechanical properties :
#
#
# Convention : Reuss Voigt Hill
#
# Bulk Modulus (GPa) = 26.66346 34.93700 30.80023
# Shear Modulus (GPa) = 29.99505 36.21313 33.10409
#
# Velocity S-wave (km/s) = 3.46509 3.80735 3.64024
# Velocity P-wave (km/s) = 5.16550 5.77174 5.47701
#
# Compressibility (1/GPa) = 0.03750451
#
# Stress axis : x y z
#
# Youngs Moduli (GPa) = 77.22131 52.95693 96.50478
#
# Poissons Ratio (x) = 0.01258 0.10975
# Poissons Ratio (y) = 0.01835 0.09366
# Poissons Ratio (z) = 0.08782 0.05139
#
# Static dielectric constant tensor:
#      x y z
#    x 1.975850 -0.025550 -0.014720 
#    y -0.025550 1.895030 -0.021130 
#    z -0.014720 -0.021130 2.001240 
# 
# From -- ./inp_files/524702.got.cif
#   From: 2010.05.17/outbox.cif.g08.bks.cpg/sg2_263_cif.got.tgz:524702.got - 2010.06.03 11:33:40.
