data_PCOD9045266
_publ_section_title
;
Structure prediction by ZEFSAII (Michael W. Deem and Ramdas Pophale) SiO2 
 PCOD9045266
Probable space group: P -1
;
_chemical_formula_sum "Si O2"
_cell_formula_units_Z 12
_cell_length_a 16.869533
_cell_length_b 18.911804
_cell_length_c 5.537224
_cell_angle_alpha 105.951380
_cell_angle_beta 72.311658
_cell_angle_gamma 165.045328
_cell_volume 433.055266
_symmetry_space_group_name_H-M "P -1"
_symmetry_group_IT_number 2
_symmetry_cell_setting 'triclinic'
loop_
_space_group_symop_operation_xyz
x,y,z
-x,-y,-z
loop_
_atom_site_type_symbol
_atom_site_label
_atom_site_fract_x
_atom_site_fract_y
_atom_site_fract_z
Si Si1 0.501700 0.906483 0.834452
Si Si2 0.506406 0.610238 0.188451
Si Si3 0.978168 0.657231 0.909283
Si Si4 0.448198 0.227693 0.332825
Si Si5 0.624694 0.223011 0.667647
Si Si6 0.945464 0.867052 0.157785
O O1 0.529611 0.841188 0.720720
O O2 0.377273 0.825806 0.617574
O O3 0.311165 0.760040 0.117707
O O4 0.843003 0.220897 0.901998
O O5 0.449236 0.636721 0.408213
O O6 0.674654 0.695801 0.296389
O O7 0.209759 0.320116 0.068717
O O8 0.769163 0.847798 0.966159
O O9 0.849052 0.483058 0.698288
O O10 0.683951 0.446024 0.098628
O O11 0.262563 0.939308 0.776822
O O12 0.102303 0.957179 0.317903
#
# Coordination Sequence:
#
# PCOD9045266 Si02
#       6
#     2   2   2   2   2   2
#     4   9  22  32  48  67  85  95 111 123 139 151
#     4  10  24  39  54  61  83  88 110 118 140 146
#     4   9  22  31  46  67  83  95 111 123 139 151
#     4  11  23  33  55  67  78  96 106 126 134 154
#     4   9  20  33  46  63  88 100 110 124 138 152
#     4  10  24  40  49  69  75  96 102 126 132 154
#
# _framework density 27.710087000000001
#
# number of rings (size 3 to 8) (size 9 to 14) (size 15 to 20)
#    1.000    1.333    0.000    0.500   14.000    0.000 
#    0.000    5.000    0.000    0.000    0.000    0.000 
#    0.000    0.000    0.000    0.000    0.000    0.000 
#
# Total GULP energy -67157.043599 kJ/mol
# GULP energy per Si atom -5596.420300 kJ/mol
# Density = 2.764702 g / cm^3
# Si number density = 27.710087 Si / 1000 Ang^3
#
#
#
# Elastic Constant Matrix: (Units=GPa)
#
#
# Indices 1 2 3 4 5 6 
#
# 1 128.8795 28.3884 26.3499 8.3791 -7.2896 6.6316
# 2 28.3884 134.8853 24.6395 25.3202 -2.8328 -6.3974
# 3 26.3499 24.6395 161.4262 37.7610 4.0281 2.3967
# 4 8.3791 25.3202 37.7610 44.0419 -5.3120 -11.7410
# 5 -7.2896 -2.8328 4.0281 -5.3120 37.6447 8.9313
# 6 6.6316 -6.3974 2.3967 -11.7410 8.9313 28.0785
#
#
#
# Elastic Compliance Matrix: (Units=1/GPa)
#
#
# Indices 1 2 3 4 5 6 
#
# 1 0.008673 -0.001667 -0.001097 -0.000324 0.002392 -0.003231
# 2 -0.001667 0.008636 0.000025 -0.004565 -0.000461 0.000597
# 3 -0.001097 0.000025 0.008329 -0.008010 -0.001440 -0.003338
# 4 -0.000324 -0.004565 -0.008010 0.036312 0.002205 0.014202
# 5 0.002392 -0.000461 -0.001440 0.002205 0.029603 -0.009041
# 6 -0.003231 0.000597 -0.003338 0.014202 -0.009041 0.045613
#
#
# Mechanical properties :
#
#
# Convention : Reuss Voigt Hill
#
# Bulk Modulus (GPa) = 49.60692 64.88296 57.24494
# Shear Modulus (GPa) = 33.47481 45.00722 39.24101
#
# Velocity S-wave (km/s) = 3.47945 4.03453 3.76723
# Velocity P-wave (km/s) = 5.83807 6.72079 6.29492
#
# Compressibility (1/GPa) = 0.02015848
#
# Stress axis : x y z
#
# Youngs Moduli (GPa) = 115.29516 115.79857 120.05587
#
# Poissons Ratio (x) = 0.19306 0.13174
# Poissons Ratio (y) = 0.19222 -0.00295
# Poissons Ratio (z) = 0.12652 -0.00284
#
# Static dielectric constant tensor:
#      x y z
#    x 2.227060 0.040410 0.090390 
#    y 0.040410 2.104060 -0.026440 
#    z 0.090390 -0.026440 2.141010 
# 
# From -- ./inp_files/127800.got.cif
#   From: 2010.05.17/outbox.cif.g08.bks.cpg/sg2_64_cif.got.tgz:127800.got - 2010.06.03 11:33:40.
