data_PCOD9045234
_publ_section_title
;
Structure prediction by ZEFSAII (Michael W. Deem and Ramdas Pophale) SiO2 
 PCOD9045234
Probable space group: P -1
;
_chemical_formula_sum "Si O2"
_cell_formula_units_Z 15
_cell_length_a 24.178221
_cell_length_b 18.041555
_cell_length_c 6.275871
_cell_angle_alpha 119.056826
_cell_angle_beta 128.122092
_cell_angle_gamma 19.634423
_cell_volume 674.511159
_symmetry_space_group_name_H-M "P -1"
_symmetry_group_IT_number 2
_symmetry_cell_setting 'triclinic'
loop_
_space_group_symop_operation_xyz
x,y,z
-x,-y,-z
loop_
_atom_site_type_symbol
_atom_site_label
_atom_site_fract_x
_atom_site_fract_y
_atom_site_fract_z
Si Si1 0.437826 0.904762 0.999218
Si Si2 0.708643 0.632820 0.668841
Si Si3 0.261940 0.724148 0.993138
Si Si4 0.406945 0.719436 0.097116
Si Si5 0.500000 0.000000 0.000000
Si Si6 0.960022 0.937826 0.723838
Si Si7 0.123280 0.150198 0.803464
Si Si8 0.691584 0.495141 0.740878
O O1 0.553060 0.800758 0.342559
O O2 0.421184 0.005618 0.955073
O O3 0.566710 0.688309 0.885585
O O4 0.233019 0.092692 0.834945
O O5 0.634818 0.784134 0.872349
O O6 0.730576 0.516851 0.672544
O O7 0.920807 0.414993 0.774855
O O8 0.278975 0.782344 0.947312
O O9 0.461750 0.448150 0.033187
O O10 0.081224 0.861321 0.743369
O O11 0.226235 0.807197 0.254681
O O12 0.562741 0.564600 0.435769
O O13 0.272898 0.952592 0.069106
O O14 0.916379 0.894851 0.469211
O O15 0.110467 0.756018 0.025238
#
# Coordination Sequence:
#
# PCOD9045234 Si02
#       8
#     2   2   2   2   1   2   2   2
#     4  11  23  46  71 103 135 177 214 279 332 407
#     4  11  23  46  71 103 135 177 214 279 332 407
#     4  10  24  38  60  92 144 176 228 296 342 370
#     4  11  23  40  62  98 130 186 231 284 333 396
#     4  10  26  46  74 102 144 166 212 270 350 400
#     4  11  23  40  62  98 130 186 231 284 333 396
#     4  12  24  42  74  97 134 182 234 271 332 408
#     4  11  22  42  70  94 138 182 234 278 332 394
#
# _framework density 22.238326000000001
#
# number of rings (size 3 to 8) (size 9 to 14) (size 15 to 20)
#    0.000    1.067    2.667    3.600    0.000    6.933 
#    0.000    1.333    0.000    0.000    0.000    0.000 
#    0.000    0.000    0.000    0.000    0.000    0.000 
#
# Total GULP energy -83680.065481 kJ/mol
# GULP energy per Si atom -5578.671032 kJ/mol
# Density = 2.218771 g / cm^3
# Si number density = 22.238326 Si / 1000 Ang^3
#
#
#
# Elastic Constant Matrix: (Units=GPa)
#
#
# Indices 1 2 3 4 5 6 
#
# 1 183.9094 56.7258 17.7141 1.3100 28.9903 -15.6485
# 2 56.7258 102.7346 28.8996 12.9760 14.1926 -19.0506
# 3 17.7141 28.8996 57.9858 -13.7693 4.4228 5.2755
# 4 1.3100 12.9760 -13.7693 12.1634 -6.9474 6.2117
# 5 28.9903 14.1926 4.4228 -6.9474 7.6603 -1.0169
# 6 -15.6485 -19.0506 5.2755 6.2117 -1.0169 35.8809
#
#
#
# Elastic Compliance Matrix: (Units=1/GPa)
#
#
# Indices 1 2 3 4 5 6 
#
# 1 0.007378 -0.008068 0.006030 0.015074 -0.003402 -0.004658
# 2 -0.008068 0.005528 0.001875 0.019639 0.036590 -0.003222
# 3 0.006030 0.001875 0.014168 -0.015680 -0.048311 0.002888
# 4 0.015074 0.019639 -0.015680 -0.032778 -0.111209 0.021829
# 5 -0.003402 0.036590 -0.048311 -0.111209 0.008571 0.044542
# 6 -0.004658 -0.003222 0.002888 0.021829 0.044542 0.021186
#
#
# Mechanical properties :
#
#
# Convention : Reuss Voigt Hill
#
# Bulk Modulus (GPa) = 37.38585 61.25655 49.32120
# Shear Modulus (GPa) = 150.17772 27.22695 88.70233
#
# Velocity S-wave (km/s) = 8.22664 3.50283 6.32248
# Velocity P-wave (km/s) = 10.34818 6.63062 8.69051
#
# Compressibility (1/GPa) = 0.02674809
#
# Stress axis : x y z
#
# Youngs Moduli (GPa) = 135.54656 180.89408 70.58239
#
# Poissons Ratio (x) = 1.45939 -0.42560
# Poissons Ratio (y) = 1.09354 -0.13235
# Poissons Ratio (z) = -0.81732 -0.33920
#
# Static dielectric constant tensor:
#      x y z
#    x 1.808910 -0.020400 -0.021160 
#    y -0.020400 1.783970 -0.015620 
#    z -0.021160 -0.015620 1.839330 
# 
# From -- ./inp_files/124903.got.cif
#   From: 2010.05.17/outbox.cif.g08.bks.cpg/sg2_63_cif.got.tgz:124903.got - 2010.06.03 11:33:40.
