data_PCOD9045035
_publ_section_title
;
Structure prediction by ZEFSAII (Michael W. Deem and Ramdas Pophale) SiO2 
 PCOD9045035
Probable space group: P -1
;
_chemical_formula_sum "Si O2"
_cell_formula_units_Z 13
_cell_length_a 11.117000
_cell_length_b 9.512330
_cell_length_c 5.530078
_cell_angle_alpha 95.582609
_cell_angle_beta 76.947622
_cell_angle_gamma 121.389633
_cell_volume 486.166586
_symmetry_space_group_name_H-M "P -1"
_symmetry_group_IT_number 2
_symmetry_cell_setting 'triclinic'
loop_
_space_group_symop_operation_xyz
x,y,z
-x,-y,-z
loop_
_atom_site_type_symbol
_atom_site_label
_atom_site_fract_x
_atom_site_fract_y
_atom_site_fract_z
Si Si1 0.118836 0.370216 0.986089
Si Si2 0.700008 0.744948 0.044350
Si Si3 0.113576 0.620574 0.670266
Si Si4 0.937153 0.067373 0.740520
Si Si5 0.317355 0.872707 0.288113
Si Si6 0.500000 0.500000 0.500000
Si Si7 0.467392 0.761128 0.807304
O O1 0.131684 0.523531 0.866093
O O2 0.081292 0.231103 0.784972
O O3 0.246796 0.380913 0.087818
O O4 0.969774 0.291548 0.184528
O O5 0.579145 0.738995 0.925047
O O6 0.839567 0.925495 0.958012
O O7 0.618941 0.667079 0.319132
O O8 0.265694 0.748535 0.513126
O O9 0.000000 0.500000 0.500000
O O10 0.825873 0.123381 0.715608
O O11 0.000000 0.000000 0.500000
O O12 0.435722 0.059409 0.328443
O O13 0.369128 0.797978 0.039773
O O14 0.418396 0.600138 0.640122
#
# Coordination Sequence:
#
# PCOD9045035 Si02
#       7
#     2   2   2   2   2   1   2
#     4  11  26  42  71 109 139 189 239 293 383 431
#     4  11  27  44  69 106 148 181 246 298 364 440
#     4  11  24  43  71 105 143 190 234 305 360 439
#     4  11  24  45  77 106 144 191 238 307 370 438
#     4  10  23  48  74  99 152 185 241 298 365 426
#     4  12  28  44  76 104 140 200 250 294 364 422
#     4  10  26  49  71 107 138 199 242 307 354 430
#
# _framework density 26.739806999999999
#
# number of rings (size 3 to 8) (size 9 to 14) (size 15 to 20)
#    0.000    1.231    1.538    1.846   10.769    0.000 
#    0.000    2.308    0.000    0.000    0.000    0.000 
#    0.000    0.000    0.000    0.000    0.000    0.000 
#
# Total GULP energy -72443.881248 kJ/mol
# GULP energy per Si atom -5572.606250 kJ/mol
# Density = 2.667895 g / cm^3
# Si number density = 26.739807 Si / 1000 Ang^3
#
#
#
# Elastic Constant Matrix: (Units=GPa)
#
#
# Indices 1 2 3 4 5 6 
#
# 1 132.5463 47.8286 23.3476 -1.2750 -32.8225 -32.3123
# 2 47.8286 131.7919 51.5186 -20.2327 -6.6971 -22.2617
# 3 23.3476 51.5186 80.4720 -20.9277 -38.0766 -13.6888
# 4 -1.2750 -20.2327 -20.9277 72.2364 1.9951 -12.3523
# 5 -32.8225 -6.6971 -38.0766 1.9951 36.2870 9.2153
# 6 -32.3123 -22.2617 -13.6888 -12.3523 9.2153 55.4736
#
#
#
# Elastic Compliance Matrix: (Units=1/GPa)
#
#
# Indices 1 2 3 4 5 6 
#
# 1 0.017094 -0.010174 0.017690 0.002721 0.030530 0.005773
# 2 -0.010174 0.019123 -0.024080 -0.000805 -0.031098 0.000793
# 3 0.017690 -0.024080 0.061320 0.010283 0.073864 0.005791
# 4 0.002721 -0.000805 0.010283 0.017359 0.010651 0.005895
# 5 0.030530 -0.031098 0.073864 0.010651 0.125053 0.005128
# 6 0.005773 0.000793 0.005791 0.005895 0.005128 0.023597
#
#
# Mechanical properties :
#
#
# Convention : Reuss Voigt Hill
#
# Bulk Modulus (GPa) = 15.52615 65.57775 40.55195
# Shear Modulus (GPa) = 15.71621 47.60710 31.66166
#
# Velocity S-wave (km/s) = 2.42698 4.22404 3.44476
# Velocity P-wave (km/s) = 3.69765 6.95468 5.56957
#
# Compressibility (1/GPa) = 0.06440747
#
# Stress axis : x y z
#
# Youngs Moduli (GPa) = 58.50144 52.29303 16.30802
#
# Poissons Ratio (x) = 0.53204 -0.28848
# Poissons Ratio (y) = 0.59520 0.39269
# Poissons Ratio (z) = -1.03486 1.25920
#
# Static dielectric constant tensor:
#      x y z
#    x 2.325400 0.025990 0.112510 
#    y 0.025990 2.195190 0.062900 
#    z 0.112510 0.062900 2.316030 
# 
# From -- ./inp_files/36729.got.cif
#   From: 2010.05.17/outbox.cif.g08.bks.cpg/sg2_19_cif.got.tgz:36729.got - 2010.06.03 11:33:40.
