data_PCOD9045826
_publ_section_title
;
Structure prediction by ZEFSAII (Michael W. Deem and Ramdas Pophale) SiO2 
 PCOD9045826
Probable space group: P -1
;
_chemical_formula_sum "Si O2"
_cell_formula_units_Z 12
_cell_length_a 4.890936
_cell_length_b 11.507352
_cell_length_c 11.462449
_cell_angle_alpha 45.489015
_cell_angle_beta 84.042829
_cell_angle_gamma 84.099933
_cell_volume 457.155125
_symmetry_space_group_name_H-M "P -1"
_symmetry_group_IT_number 2
_symmetry_cell_setting 'triclinic'
loop_
_space_group_symop_operation_xyz
x,y,z
-x,-y,-z
loop_
_atom_site_type_symbol
_atom_site_label
_atom_site_fract_x
_atom_site_fract_y
_atom_site_fract_z
Si Si1 0.098441 0.395543 0.917604
Si Si2 0.587310 0.034226 0.843502
Si Si3 0.884680 0.817104 0.364971
Si Si4 0.561455 0.609916 0.776174
Si Si5 0.297639 0.864318 0.776494
Si Si6 0.317993 0.533823 0.598391
O O1 0.874362 0.548603 0.820469
O O2 0.362649 0.462658 0.924532
O O3 0.197344 0.382686 0.786493
O O4 0.939369 0.249907 0.084238
O O5 0.502919 0.893777 0.855857
O O6 0.899099 0.081164 0.791652
O O7 0.606903 0.819006 0.302482
O O8 0.500000 0.000000 0.000000
O O9 0.054209 0.651302 0.497953
O O10 0.819771 0.950986 0.376320
O O11 0.455549 0.772885 0.729699
O O12 0.491675 0.617727 0.635485
O O13 0.500000 0.500000 0.500000
#
# Coordination Sequence:
#
# PCOD9045826 Si02
#       6
#     2   2   2   2   2   2
#     4  10  24  42  70 103 139 180 236 279 355 406
#     4  10  24  43  67 100 139 178 235 287 346 402
#     4  10  25  42  70 100 140 179 237 279 354 408
#     4  10  24  41  72 103 141 179 234 281 355 408
#     4  10  24  42  76 102 139 177 235 296 341 410
#     4  10  26  48  68 100 146 187 232 282 348 421
#
# _framework density 26.249298
#
# number of rings (size 3 to 8) (size 9 to 14) (size 15 to 20)
#    2.000    0.000    0.000    1.500    7.000    4.000 
#    0.000    1.667    0.000    0.000    0.000    0.000 
#    0.000    0.000    0.000    0.000    0.000    0.000 
#
# Total GULP energy -67091.354285 kJ/mol
# GULP energy per Si atom -5590.946190 kJ/mol
# Density = 2.618955 g / cm^3
# Si number density = 26.249298 Si / 1000 Ang^3
#
#
#
# Elastic Constant Matrix: (Units=GPa)
#
#
# Indices 1 2 3 4 5 6 
#
# 1 90.8615 46.2511 10.2292 -2.8587 2.4720 -25.2761
# 2 46.2511 183.6327 57.5142 13.0088 -4.0154 -13.1402
# 3 10.2292 57.5142 93.9111 19.3028 -9.2379 -7.2058
# 4 -2.8587 13.0088 19.3028 46.5601 -10.4062 -1.3145
# 5 2.4720 -4.0154 -9.2379 -10.4062 40.8528 -2.1578
# 6 -25.2761 -13.1402 -7.2058 -1.3145 -2.1578 42.6938
#
#
#
# Elastic Compliance Matrix: (Units=1/GPa)
#
#
# Indices 1 2 3 4 5 6 
#
# 1 0.015022 -0.003591 0.000788 0.001777 -0.000210 0.007966
# 2 -0.003591 0.007683 -0.004234 -0.000667 -0.000181 -0.000506
# 3 0.000788 -0.004234 0.014325 -0.004269 0.001769 0.001539
# 4 0.001777 -0.000667 -0.004269 0.024743 0.005225 0.001152
# 5 -0.000210 -0.000181 0.001769 0.005225 0.026289 0.001608
# 6 0.007966 -0.000506 0.001539 0.001152 0.001608 0.028359
#
#
# Mechanical properties :
#
#
# Convention : Reuss Voigt Hill
#
# Bulk Modulus (GPa) = 43.55894 66.26604 54.91249
# Shear Modulus (GPa) = 36.19300 42.98206 39.58753
#
# Velocity S-wave (km/s) = 3.71727 4.05094 3.88769
# Velocity P-wave (km/s) = 5.92068 6.86876 6.41227
#
# Compressibility (1/GPa) = 0.02295740
#
# Stress axis : x y z
#
# Youngs Moduli (GPa) = 66.56683 130.15279 69.80778
#
# Poissons Ratio (x) = 0.46738 -0.05503
# Poissons Ratio (y) = 0.23904 0.29556
# Poissons Ratio (z) = -0.05247 0.55106
#
# Static dielectric constant tensor:
#      x y z
#    x 2.020600 0.005180 -0.034070 
#    y 0.005180 2.148240 -0.048960 
#    z -0.034070 -0.048960 2.191230 
# 
# From -- ./inp_files/363608.got.cif
#   From: 2010.05.17/outbox.cif.g08.bks.cpg/sg2_182_cif.got.tgz:363608.got - 2010.06.03 11:33:40.
