data_PCOD9045697
_publ_section_title
;
Structure prediction by ZEFSAII (Michael W. Deem and Ramdas Pophale) SiO2 
 PCOD9045697
Probable space group: P -1
;
_chemical_formula_sum "Si O2"
_cell_formula_units_Z 16
_cell_length_a 11.639264
_cell_length_b 19.385378
_cell_length_c 8.888544
_cell_angle_alpha 44.276937
_cell_angle_beta 41.370870
_cell_angle_gamma 32.479663
_cell_volume 692.110320
_symmetry_space_group_name_H-M "P -1"
_symmetry_group_IT_number 2
_symmetry_cell_setting 'triclinic'
loop_
_space_group_symop_operation_xyz
x,y,z
-x,-y,-z
loop_
_atom_site_type_symbol
_atom_site_label
_atom_site_fract_x
_atom_site_fract_y
_atom_site_fract_z
Si Si1 0.380199 0.849211 0.047083
Si Si2 0.326075 0.736803 0.021785
Si Si3 0.952060 0.332328 0.053319
Si Si4 0.694377 0.617044 0.314911
Si Si5 0.294574 0.157631 0.460207
Si Si6 0.182476 0.639082 0.530899
Si Si7 0.107624 0.146399 0.941826
Si Si8 0.259217 0.444518 0.303730
O O1 0.610228 0.792472 0.816481
O O2 0.258151 0.990495 0.016474
O O3 0.239599 0.851853 0.045349
O O4 0.470042 0.741422 0.253790
O O5 0.366076 0.628679 0.263952
O O6 0.138361 0.783953 0.004679
O O7 0.563829 0.674181 0.799769
O O8 0.125558 0.358250 0.884921
O O9 0.089655 0.191634 0.057800
O O10 0.787813 0.434020 0.921673
O O11 0.821280 0.349779 0.304636
O O12 0.807268 0.480522 0.333750
O O13 0.633991 0.600192 0.566405
O O14 0.222982 0.188727 0.657132
O O15 0.055877 0.221652 0.512122
O O16 0.500000 0.000000 0.500000
O O17 0.000000 0.500000 0.500000
#
# Coordination Sequence:
#
# PCOD9045697 Si02
#       8
#     2   2   2   2   2   2   2   2
#     4  11  23  42  69  99 137 183 230 271 337 407
#     4  11  25  44  71  98 140 177 223 284 343 407
#     4  11  23  42  70  96 141 176 230 283 331 401
#     4  11  24  41  69 100 137 175 233 279 338 397
#     4   9  20  40  65  95 130 179 228 269 325 403
#     4  11  23  42  68 102 134 178 226 278 342 399
#     4  10  24  44  66 101 137 181 227 278 339 403
#     4  10  24  41  67 100 132 176 223 279 345 402
#
# _framework density 23.117702000000001
#
# number of rings (size 3 to 8) (size 9 to 14) (size 15 to 20)
#    0.000    1.500    1.250    3.000    7.000    5.500 
#    0.000    3.750    0.000    0.000    0.000    0.000 
#    0.000    0.000    0.000    0.000    0.000    0.000 
#
# Total GULP energy -89311.565601 kJ/mol
# GULP energy per Si atom -5581.972850 kJ/mol
# Density = 2.306508 g / cm^3
# Si number density = 23.117702 Si / 1000 Ang^3
#
#
#
# Elastic Constant Matrix: (Units=GPa)
#
#
# Indices 1 2 3 4 5 6 
#
# 1 88.3087 47.7013 61.1846 7.9462 20.1896 20.9795
# 2 47.7013 114.5743 56.9227 8.6529 22.1967 9.7956
# 3 61.1846 56.9227 135.8706 11.0082 25.6825 5.8581
# 4 7.9462 8.6529 11.0082 27.2656 -0.5283 8.8690
# 5 20.1896 22.1967 25.6825 -0.5283 41.7445 3.5197
# 6 20.9795 9.7956 5.8581 8.8690 3.5197 33.7394
#
#
#
# Elastic Compliance Matrix: (Units=1/GPa)
#
#
# Indices 1 2 3 4 5 6 
#
# 1 0.021635 -0.004052 -0.007118 0.001407 -0.002976 -0.011100
# 2 -0.004052 0.012460 -0.002679 -0.001803 -0.003054 0.000160
# 3 -0.007118 -0.002679 0.012386 -0.003541 -0.003162 0.004314
# 4 0.001407 -0.001803 -0.003541 0.041981 0.003930 -0.011182
# 5 -0.002976 -0.003054 -0.003162 0.003930 0.029079 -0.000780
# 6 -0.011100 0.000160 0.004314 -0.011182 -0.000780 0.038767
#
#
# Mechanical properties :
#
#
# Convention : Reuss Voigt Hill
#
# Bulk Modulus (GPa) = 53.23795 74.48565 63.86180
# Shear Modulus (GPa) = 26.27880 32.07957 29.17919
#
# Velocity S-wave (km/s) = 3.37521 3.72918 3.55660
# Velocity P-wave (km/s) = 6.18615 7.12969 6.67461
#
# Compressibility (1/GPa) = 0.01878359
#
# Stress axis : x y z
#
# Youngs Moduli (GPa) = 46.22115 80.25685 80.73498
#
# Poissons Ratio (x) = 0.32518 0.57467
# Poissons Ratio (y) = 0.18728 0.21630
# Poissons Ratio (z) = 0.32900 0.21502
#
# Static dielectric constant tensor:
#      x y z
#    x 1.930800 0.000190 -0.063240 
#    y 0.000190 1.882810 0.008270 
#    z -0.063240 0.008270 1.898670 
# 
# From -- ./inp_files/282870.got.cif
#   From: 2010.05.17/outbox.cif.g08.bks.cpg/sg2_142_cif.got.tgz:282870.got - 2010.06.03 11:33:40.
