data_PCOD9045832
_publ_section_title
;
Structure prediction by ZEFSAII (Michael W. Deem and Ramdas Pophale) SiO2 
 PCOD9045832
Probable space group: P -1
;
_chemical_formula_sum "Si O2"
_cell_formula_units_Z 14
_cell_length_a 20.570178
_cell_length_b 8.057307
_cell_length_c 6.039850
_cell_angle_alpha 91.871792
_cell_angle_beta 113.645922
_cell_angle_gamma 41.338952
_cell_volume 542.797862
_symmetry_space_group_name_H-M "P -1"
_symmetry_group_IT_number 2
_symmetry_cell_setting 'triclinic'
loop_
_space_group_symop_operation_xyz
x,y,z
-x,-y,-z
loop_
_atom_site_type_symbol
_atom_site_label
_atom_site_fract_x
_atom_site_fract_y
_atom_site_fract_z
Si Si1 0.633799 0.307911 0.133214
Si Si2 0.853542 0.892431 0.716139
Si Si3 0.363339 0.318074 0.965321
Si Si4 0.179895 0.713824 0.095440
Si Si5 0.379952 0.145130 0.546012
Si Si6 0.227092 0.180108 0.043059
Si Si7 0.970633 0.226181 0.326449
O O1 0.621088 0.528570 0.102468
O O2 0.697123 0.101781 0.997510
O O3 0.500000 0.500000 0.000000
O O4 0.720942 0.111377 0.449570
O O5 0.861473 0.024934 0.911663
O O6 0.866063 0.710516 0.888794
O O7 0.922634 0.848966 0.599592
O O8 0.240589 0.568105 0.936680
O O9 0.478382 0.086062 0.272061
O O10 0.363775 0.162667 0.791857
O O11 0.289016 0.469298 0.396271
O O12 0.080171 0.761422 0.968201
O O13 0.324050 0.113418 0.303830
O O14 0.140539 0.439323 0.759261
O O15 0.000000 0.000000 0.500000
#
# Coordination Sequence:
#
# PCOD9045832 Si02
#       7
#     2   2   2   2   2   2   2
#     4  12  27  45  74 116 157 200 251 315 381 458
#     4  12  25  49  75 111 154 201 250 313 384 450
#     4  11  22  43  71 106 152 202 252 305 372 454
#     4  11  23  44  73 105 148 198 252 307 381 443
#     4  10  24  41  72 109 147 201 252 306 372 458
#     4  11  27  50  77 113 153 201 254 315 386 449
#     4  11  27  50  78 111 149 200 261 320 376 451
#
# _framework density 25.792289
#
# number of rings (size 3 to 8) (size 9 to 14) (size 15 to 20)
#    0.000    0.857    2.857    3.000    2.000    8.571 
#    5.143    0.000    0.000    0.000    0.000    0.000 
#    0.000    0.000    0.000    0.000    0.000    0.000 
#
# Total GULP energy -78000.765996 kJ/mol
# GULP energy per Si atom -5571.483285 kJ/mol
# Density = 2.573358 g / cm^3
# Si number density = 25.792289 Si / 1000 Ang^3
#
#
#
# Elastic Constant Matrix: (Units=GPa)
#
#
# Indices 1 2 3 4 5 6 
#
# 1 143.2475 26.7257 32.4255 -21.0705 7.8437 -1.2701
# 2 26.7257 89.0921 35.6159 2.7186 5.4617 -3.4770
# 3 32.4255 35.6159 94.6037 -17.4528 8.3318 8.0765
# 4 -21.0705 2.7186 -17.4528 49.7746 10.1084 0.5699
# 5 7.8437 5.4617 8.3318 10.1084 46.6433 -9.7532
# 6 -1.2701 -3.4770 8.0765 0.5699 -9.7532 41.2500
#
#
#
# Elastic Compliance Matrix: (Units=1/GPa)
#
#
# Indices 1 2 3 4 5 6 
#
# 1 0.008245 -0.001968 -0.001279 0.003497 -0.001709 -0.000114
# 2 -0.001968 0.014252 -0.005715 -0.003859 0.001055 0.002562
# 3 -0.001279 -0.005715 0.014982 0.005889 -0.004005 -0.004483
# 4 0.003497 -0.003859 0.005889 0.025393 -0.007418 -0.003475
# 5 -0.001709 0.001055 -0.004005 -0.007418 0.025374 0.006922
# 6 -0.000114 0.002562 -0.004483 -0.003475 0.006922 0.027017
#
#
# Mechanical properties :
#
#
# Convention : Reuss Voigt Hill
#
# Bulk Modulus (GPa) = 51.13839 57.38642 54.26240
# Shear Modulus (GPa) = 35.78941 43.01198 39.40070
#
# Velocity S-wave (km/s) = 3.72909 4.08809 3.91271
# Velocity P-wave (km/s) = 6.19771 6.67691 6.44176
#
# Compressibility (1/GPa) = 0.01955478
#
# Stress axis : x y z
#
# Youngs Moduli (GPa) = 121.28900 70.16394 66.74599
#
# Poissons Ratio (x) = 0.13809 0.08540
# Poissons Ratio (y) = 0.23872 0.38143
# Poissons Ratio (z) = 0.15518 0.40096
#
# Static dielectric constant tensor:
#      x y z
#    x 2.143350 -0.063350 -0.088230 
#    y -0.063350 2.071930 -0.015240 
#    z -0.088230 -0.015240 2.068760 
# 
# From -- ./inp_files/116306.got.cif
#   From: 2010.05.17/outbox.cif.g08.bks.cpg/sg2_59_cif.got.tgz:116306.got - 2010.06.03 11:33:40.
