data_PCOD9045913
_publ_section_title
;
Structure prediction by ZEFSAII (Michael W. Deem and Ramdas Pophale) SiO2 
 PCOD9045913
Probable space group: P -1
;
_chemical_formula_sum "Si O2"
_cell_formula_units_Z 16
_cell_length_a 8.874870
_cell_length_b 8.327396
_cell_length_c 12.084984
_cell_angle_alpha 73.677885
_cell_angle_beta 113.658626
_cell_angle_gamma 68.774052
_cell_volume 660.708198
_symmetry_space_group_name_H-M "P -1"
_symmetry_group_IT_number 2
_symmetry_cell_setting 'triclinic'
loop_
_space_group_symop_operation_xyz
x,y,z
-x,-y,-z
loop_
_atom_site_type_symbol
_atom_site_label
_atom_site_fract_x
_atom_site_fract_y
_atom_site_fract_z
Si Si1 0.477707 0.714207 0.446068
Si Si2 0.157615 0.544172 0.121858
Si Si3 0.856729 0.441900 0.126235
Si Si4 0.213045 0.854406 0.144712
Si Si5 0.438872 0.803230 0.669484
Si Si6 0.438993 0.211106 0.893094
Si Si7 0.782495 0.751263 0.393913
Si Si8 0.096595 0.766984 0.600384
O O1 0.500000 0.500000 0.500000
O O2 0.297499 0.871500 0.283137
O O3 0.441510 0.813949 0.535889
O O4 0.675603 0.680073 0.457759
O O5 0.221268 0.650968 0.202774
O O6 0.338579 0.321917 0.201993
O O7 0.976349 0.546067 0.117197
O O8 0.130966 0.644027 0.974818
O O9 0.644984 0.617315 0.072708
O O10 0.944756 0.280027 0.280372
O O11 0.375708 0.820782 0.111383
O O12 0.000000 0.000000 0.000000
O O13 0.325333 0.689474 0.678733
O O14 0.332653 0.011638 0.660136
O O15 0.266335 0.275553 0.739981
O O16 0.500000 0.000000 0.000000
O O17 0.002868 0.683856 0.504492
O O18 0.000000 0.000000 0.500000
#
# Coordination Sequence:
#
# PCOD9045913 Si02
#       8
#     2   2   2   2   2   2   2   2
#     4  11  23  42  68  99 135 178 228 276 340 412
#     4  11  24  44  69  99 134 179 236 283 356 412
#     4  11  25  42  69  97 135 181 228 291 344 421
#     4  11  25  42  67 102 139 179 230 287 343 416
#     4  11  22  42  70  97 137 179 229 279 346 411
#     4  11  24  44  67  98 136 177 227 278 356 411
#     4  10  24  43  67  97 136 179 224 282 337 415
#     4  10  24  42  64 101 133 177 231 281 346 411
#
# _framework density 24.216442000000001
#
# number of rings (size 3 to 8) (size 9 to 14) (size 15 to 20)
#    0.000    1.250    1.250    3.375    1.750   12.500 
#    0.000    0.000    0.000    0.000    0.000    0.000 
#    0.000    0.000    0.000    0.000    0.000    0.000 
#
# Total GULP energy -89459.642996 kJ/mol
# GULP energy per Si atom -5591.227687 kJ/mol
# Density = 2.416132 g / cm^3
# Si number density = 24.216442 Si / 1000 Ang^3
#
#
#
# Elastic Constant Matrix: (Units=GPa)
#
#
# Indices 1 2 3 4 5 6 
#
# 1 93.5519 13.0027 49.0973 10.6722 4.8768 5.9301
# 2 13.0027 46.1065 12.3201 -3.2062 0.5257 0.1660
# 3 49.0973 12.3201 123.5218 0.9408 -7.1881 -9.3031
# 4 10.6722 -3.2062 0.9408 41.3452 -7.8061 3.2663
# 5 4.8768 0.5257 -7.1881 -7.8061 37.1454 2.5403
# 6 5.9301 0.1660 -9.3031 3.2663 2.5403 38.0479
#
#
#
# Elastic Compliance Matrix: (Units=1/GPa)
#
#
# Indices 1 2 3 4 5 6 
#
# 1 0.015280 -0.002904 -0.006220 -0.004507 -0.003894 -0.003243
# 2 -0.002904 0.022996 -0.001150 0.002650 0.000403 -0.000183
# 3 -0.006220 -0.001150 0.011102 0.001582 0.003085 0.003347
# 4 -0.004507 0.002650 0.001582 0.026903 0.006629 -0.001674
# 5 -0.003894 0.000403 0.003085 0.006629 0.029497 -0.001179
# 6 -0.003243 -0.000183 0.003347 -0.001674 -0.001179 0.027830
#
#
# Mechanical properties :
#
#
# Convention : Reuss Voigt Hill
#
# Bulk Modulus (GPa) = 34.68703 45.78005 40.23354
# Shear Modulus (GPa) = 30.53113 35.89171 33.21142
#
# Velocity S-wave (km/s) = 3.55457 3.85401 3.70731
# Velocity P-wave (km/s) = 5.58583 6.22496 5.91403
#
# Compressibility (1/GPa) = 0.02882922
#
# Stress axis : x y z
#
# Youngs Moduli (GPa) = 65.44425 43.48674 90.07009
#
# Poissons Ratio (x) = 0.12630 0.56027
# Poissons Ratio (y) = 0.19008 0.10355
# Poissons Ratio (z) = 0.40709 0.05000
#
# Static dielectric constant tensor:
#      x y z
#    x 1.951320 -0.020970 0.149620 
#    y -0.020970 1.941590 -0.086590 
#    z 0.149620 -0.086590 2.162590 
# 
# From -- ./inp_files/381756.got.cif
#   From: 2010.05.17/outbox.cif.g08.bks.cpg/sg2_191_cif.got.tgz:381756.got - 2010.06.03 11:33:40.
