data_PCOD9045174
_publ_section_title
;
Structure prediction by ZEFSAII (Michael W. Deem and Ramdas Pophale) SiO2 
 PCOD9045174
Probable space group: P -1
;
_chemical_formula_sum "Si O2"
_cell_formula_units_Z 12
_cell_length_a 9.505272
_cell_length_b 5.167989
_cell_length_c 12.153586
_cell_angle_alpha 61.504469
_cell_angle_beta 121.972710
_cell_angle_gamma 97.388196
_cell_volume 438.896251
_symmetry_space_group_name_H-M "P -1"
_symmetry_group_IT_number 2
_symmetry_cell_setting 'triclinic'
loop_
_space_group_symop_operation_xyz
x,y,z
-x,-y,-z
loop_
_atom_site_type_symbol
_atom_site_label
_atom_site_fract_x
_atom_site_fract_y
_atom_site_fract_z
Si Si1 0.135573 0.600792 0.822075
Si Si2 0.344886 0.768310 0.403182
Si Si3 0.888477 0.069278 0.045322
Si Si4 0.896759 0.633043 0.536823
Si Si5 0.413302 0.899355 0.654406
Si Si6 0.440813 0.695540 0.069202
O O1 0.144593 0.255421 0.865691
O O2 0.324115 0.625428 0.933403
O O3 0.026414 0.763159 0.644639
O O4 0.042293 0.740524 0.867420
O O5 0.500000 0.500000 0.500000
O O6 0.179652 0.615449 0.369941
O O7 0.399058 0.015981 0.293682
O O8 0.353149 0.892044 0.505153
O O9 0.703132 0.248136 0.907311
O O10 0.000000 0.000000 0.000000
O O11 0.725612 0.860800 0.391406
O O12 0.000000 0.500000 0.500000
O O13 0.426207 0.572955 0.775857
O O14 0.500000 0.000000 0.000000
#
# Coordination Sequence:
#
# PCOD9045174 Si02
#       6
#     2   2   2   2   2   2
#     4  10  26  50  80 117 165 211 285 343 421 502
#     4   9  22  45  77 115 160 207 275 338 416 506
#     4  10  24  49  81 117 161 217 272 347 420 507
#     4  11  26  50  80 120 166 220 278 350 426 507
#     4  10  23  50  80 115 159 221 275 348 419 502
#     4  10  26  51  81 116 167 216 279 345 422 503
#
# _framework density 27.341315000000002
#
# number of rings (size 3 to 8) (size 9 to 14) (size 15 to 20)
#    1.000    1.000    0.000    0.500    2.333   10.667 
#    3.000    5.000    3.667    0.000    0.000    0.000 
#    0.000    0.000    0.000    0.000    0.000    0.000 
#
# Total GULP energy -67118.559097 kJ/mol
# GULP energy per Si atom -5593.213258 kJ/mol
# Density = 2.727908 g / cm^3
# Si number density = 27.341315 Si / 1000 Ang^3
#
#
#
# Elastic Constant Matrix: (Units=GPa)
#
#
# Indices 1 2 3 4 5 6 
#
# 1 168.6644 46.4318 41.4917 -3.5610 13.4615 -13.3172
# 2 46.4318 121.4410 47.1445 -9.3070 3.8264 -21.5412
# 3 41.4917 47.1445 112.7410 2.4782 12.6660 -5.8663
# 4 -3.5610 -9.3070 2.4782 63.5032 -1.9266 -6.3905
# 5 13.4615 3.8264 12.6660 -1.9266 37.3115 5.2273
# 6 -13.3172 -21.5412 -5.8663 -6.3905 5.2273 74.4438
#
#
#
# Elastic Compliance Matrix: (Units=1/GPa)
#
#
# Indices 1 2 3 4 5 6 
#
# 1 0.007046 -0.001882 -0.001556 0.000197 -0.001915 0.000744
# 2 -0.001882 0.011081 -0.003911 0.001960 0.000595 0.002688
# 3 -0.001556 -0.003911 0.011412 -0.001236 -0.002917 -0.000412
# 4 0.000197 0.001960 -0.001236 0.016302 0.000730 0.001853
# 5 -0.001915 0.000595 -0.002917 0.000730 0.028790 -0.002359
# 6 0.000744 0.002688 -0.000412 0.001853 -0.002359 0.014636
#
#
# Mechanical properties :
#
#
# Convention : Reuss Voigt Hill
#
# Bulk Modulus (GPa) = 67.39062 74.77582 71.08322
# Shear Modulus (GPa) = 45.90897 52.90359 49.40628
#
# Velocity S-wave (km/s) = 4.10214 4.40356 4.25552
# Velocity P-wave (km/s) = 6.86572 7.29818 7.08525
#
# Compressibility (1/GPa) = 0.01483886
#
# Stress axis : x y z
#
# Youngs Moduli (GPa) = 141.93012 90.24844 87.63052
#
# Poissons Ratio (x) = 0.16986 0.13639
# Poissons Ratio (y) = 0.26714 0.34271
# Poissons Ratio (z) = 0.22090 0.35295
#
# Static dielectric constant tensor:
#      x y z
#    x 2.344190 0.045230 0.024520 
#    y 0.045230 2.229530 -0.030300 
#    z 0.024520 -0.030300 2.127900 
# 
# From -- ./inp_files/361183.got.cif
#   From: 2010.05.17/outbox.cif.g08.bks.cpg/sg2_181_cif.got.tgz:361183.got - 2010.06.03 11:33:40.
