data_PCOD9045334
_publ_section_title
;
Structure prediction by ZEFSAII (Michael W. Deem and Ramdas Pophale) SiO2 
 PCOD9045334
Probable space group: P -1
;
_chemical_formula_sum "Si O2"
_cell_formula_units_Z 14
_cell_length_a 12.730096
_cell_length_b 9.276887
_cell_length_c 22.197023
_cell_angle_alpha 34.311364
_cell_angle_beta 22.032118
_cell_angle_gamma 42.882414
_cell_volume 547.545021
_symmetry_space_group_name_H-M "P -1"
_symmetry_group_IT_number 2
_symmetry_cell_setting 'triclinic'
loop_
_space_group_symop_operation_xyz
x,y,z
-x,-y,-z
loop_
_atom_site_type_symbol
_atom_site_label
_atom_site_fract_x
_atom_site_fract_y
_atom_site_fract_z
Si Si1 0.698087 0.080881 0.644642
Si Si2 0.010486 0.866256 0.900990
Si Si3 0.755928 0.760746 0.832407
Si Si4 0.293115 0.719497 0.906627
Si Si5 0.153207 0.983063 0.647153
Si Si6 0.493190 0.448778 0.362210
Si Si7 0.166053 0.385864 0.716898
O O1 0.595542 0.911602 0.818041
O O2 0.489029 0.970804 0.740450
O O3 0.000000 0.000000 0.500000
O O4 0.019832 0.384268 0.273022
O O5 0.732870 0.661590 0.132935
O O6 0.250495 0.730143 0.854773
O O7 0.029785 0.908469 0.805092
O O8 0.065456 0.143643 0.810124
O O9 0.591131 0.528272 0.040956
O O10 0.933630 0.946930 0.722128
O O11 0.978745 0.702372 0.109987
O O12 0.367785 0.771102 0.599081
O O13 0.304230 0.274243 0.474454
O O14 0.311047 0.621966 0.438086
O O15 0.500000 0.500000 0.500000
#
# Coordination Sequence:
#
# PCOD9045334 Si02
#       7
#     2   2   2   2   2   2   2
#     4  12  28  46  73 102 147 198 242 296 360 427
#     4  12  24  43  78 113 140 187 239 308 369 422
#     4  10  25  47  66 106 145 188 242 296 353 434
#     4  10  24  42  72 107 146 176 250 306 350 432
#     4  11  27  44  76 107 148 189 237 304 365 432
#     4  11  25  47  70 109 146 189 241 301 356 432
#     4  10  24  39  76 106 142 181 240 308 360 406
#
# _framework density 25.568673
#
# number of rings (size 3 to 8) (size 9 to 14) (size 15 to 20)
#    0.857    0.286    2.857    1.286   12.000    0.571 
#    0.000    0.714    0.000    0.000    0.000    0.000 
#    0.000    0.000    0.000    0.000    0.000    0.000 
#
# Total GULP energy -78322.867658 kJ/mol
# GULP energy per Si atom -5594.490547 kJ/mol
# Density = 2.551048 g / cm^3
# Si number density = 25.568673 Si / 1000 Ang^3
#
#
#
# Elastic Constant Matrix: (Units=GPa)
#
#
# Indices 1 2 3 4 5 6 
#
# 1 95.0812 37.0112 36.5107 -9.4558 1.3394 24.0933
# 2 37.0112 127.7557 55.0580 -28.6865 -15.1455 25.7609
# 3 36.5107 55.0580 130.6313 -23.1553 -15.5333 19.6741
# 4 -9.4558 -28.6865 -23.1553 48.4620 8.2615 -1.7047
# 5 1.3394 -15.1455 -15.5333 8.2615 44.3890 -13.6915
# 6 24.0933 25.7609 19.6741 -1.7047 -13.6915 44.5559
#
#
#
# Elastic Compliance Matrix: (Units=1/GPa)
#
#
# Indices 1 2 3 4 5 6 
#
# 1 0.014046 -0.001981 -0.002432 0.000882 -0.004157 -0.006620
# 2 -0.001981 0.011587 -0.002767 0.004854 0.000928 -0.003936
# 3 -0.002432 -0.002767 0.010311 0.002442 0.001996 -0.000932
# 4 0.000882 0.004854 0.002442 0.025304 -0.003615 -0.004504
# 5 -0.004157 0.000928 0.001996 -0.003615 0.027126 0.009027
# 6 -0.006620 -0.003936 -0.000932 -0.004504 0.009027 0.031312
#
#
# Mechanical properties :
#
#
# Convention : Reuss Voigt Hill
#
# Bulk Modulus (GPa) = 46.32747 67.84755 57.08751
# Shear Modulus (GPa) = 35.40072 42.47394 38.93733
#
# Velocity S-wave (km/s) = 3.72497 4.08017 3.90661
# Velocity P-wave (km/s) = 6.05464 6.98499 6.53639
#
# Compressibility (1/GPa) = 0.02158547
#
# Stress axis : x y z
#
# Youngs Moduli (GPa) = 71.19514 86.30255 96.98107
#
# Poissons Ratio (x) = 0.17098 0.23583
# Poissons Ratio (y) = 0.14105 0.26830
# Poissons Ratio (z) = 0.17313 0.23876
#
# Static dielectric constant tensor:
#      x y z
#    x 2.051670 -0.028040 0.120770 
#    y -0.028040 2.039280 -0.000080 
#    z 0.120770 -0.000080 2.140600 
# 
# From -- ./inp_files/594704.got.cif
#   From: 2010.05.17/outbox.cif.g08.bks.cpg/sg2_298_cif.got.tgz:594704.got - 2010.06.03 11:33:40.
