data_PCOD9045246
_publ_section_title
;
Structure prediction by ZEFSAII (Michael W. Deem and Ramdas Pophale) SiO2 
 PCOD9045246
Probable space group: P -1
;
_chemical_formula_sum "Si O2"
_cell_formula_units_Z 15
_cell_length_a 16.284806
_cell_length_b 10.351640
_cell_length_c 10.264491
_cell_angle_alpha 27.272775
_cell_angle_beta 123.283072
_cell_angle_gamma 123.313039
_cell_volume 654.245781
_symmetry_space_group_name_H-M "P -1"
_symmetry_group_IT_number 2
_symmetry_cell_setting 'triclinic'
loop_
_space_group_symop_operation_xyz
x,y,z
-x,-y,-z
loop_
_atom_site_type_symbol
_atom_site_label
_atom_site_fract_x
_atom_site_fract_y
_atom_site_fract_z
Si Si1 0.772134 0.009016 0.274478
Si Si2 0.658667 0.084693 0.364444
Si Si3 0.898283 0.562838 0.796718
Si Si4 0.230702 0.815134 0.363388
Si Si5 0.527233 0.544391 0.831809
Si Si6 0.038824 0.531208 0.351917
Si Si7 0.313422 0.273342 0.816229
Si Si8 0.000000 0.000000 0.000000
O O1 0.701327 0.976292 0.366629
O O2 0.870473 0.873327 0.514000
O O3 0.724771 0.849041 0.246953
O O4 0.807302 0.337948 0.974664
O O5 0.564553 0.867774 0.532696
O O6 0.737501 0.126680 0.513432
O O7 0.619152 0.378352 0.037516
O O8 0.911663 0.505724 0.707583
O O9 0.000000 0.500000 0.000000
O O10 0.112476 0.807210 0.241069
O O11 0.253047 0.510015 0.609336
O O12 0.294699 0.031193 0.127228
O O13 0.428809 0.410210 0.789053
O O14 0.500000 0.500000 0.000000
O O15 0.025880 0.238954 0.679937
O O16 0.949939 0.713777 0.112490
#
# Coordination Sequence:
#
# PCOD9045246 Si02
#       8
#     2   2   2   2   2   2   2   1
#     4  12  26  47  68 105 141 179 232 283 355 411
#     4  12  26  42  68 105 142 177 227 300 336 402
#     4  12  26  46  74  97 136 187 231 279 350 429
#     4  12  22  41  69  96 127 186 225 275 332 409
#     4  12  23  42  69 102 138 180 239 279 343 405
#     4  11  22  42  66  95 132 171 233 270 348 409
#     4  12  23  41  72  95 132 184 229 272 333 415
#     4  10  24  38  64  98 128 160 216 310 320 390
#
# _framework density 22.927164000000001
#
# number of rings (size 3 to 8) (size 9 to 14) (size 15 to 20)
#    0.000    0.267    5.333    4.000    0.000    4.267 
#    0.000    0.000    0.000    0.000    0.000    0.000 
#    0.000    0.000    0.000    0.000    0.000    0.000 
#
# Total GULP energy -83775.553049 kJ/mol
# GULP energy per Si atom -5585.036870 kJ/mol
# Density = 2.287498 g / cm^3
# Si number density = 22.927164 Si / 1000 Ang^3
#
#
#
# Elastic Constant Matrix: (Units=GPa)
#
#
# Indices 1 2 3 4 5 6 
#
# 1 84.9099 31.4766 11.2501 12.0469 -11.2699 -18.7453
# 2 31.4766 82.5363 20.2621 13.6622 -8.9830 2.0116
# 3 11.2501 20.2621 101.8746 -10.0907 -10.0013 -4.5651
# 4 12.0469 13.6622 -10.0907 31.5854 0.7542 4.2098
# 5 -11.2699 -8.9830 -10.0013 0.7542 48.0370 0.0557
# 6 -18.7453 2.0116 -4.5651 4.2098 0.0557 43.4798
#
#
#
# Elastic Compliance Matrix: (Units=1/GPa)
#
#
# Indices 1 2 3 4 5 6 
#
# 1 0.016685 -0.005157 -0.000725 -0.005484 0.002876 0.007883
# 2 -0.005157 0.015992 -0.003173 -0.005626 0.001212 -0.002753
# 3 -0.000725 -0.003173 0.011204 0.005124 0.001488 0.000513
# 4 -0.005484 -0.005626 0.005124 0.038573 -0.001871 -0.005298
# 5 0.002876 0.001212 0.001488 -0.001871 0.022056 0.001493
# 6 0.007883 -0.002753 0.000513 -0.005298 0.001493 0.027090
#
#
# Mechanical properties :
#
#
# Convention : Reuss Voigt Hill
#
# Bulk Modulus (GPa) = 38.80116 43.92203 41.36160
# Shear Modulus (GPa) = 31.58593 38.37591 34.98092
#
# Velocity S-wave (km/s) = 3.71572 4.09567 3.91031
# Velocity P-wave (km/s) = 5.94720 6.44708 6.20218
#
# Compressibility (1/GPa) = 0.02577242
#
# Stress axis : x y z
#
# Youngs Moduli (GPa) = 59.93438 62.53299 89.25638
#
# Poissons Ratio (x) = 0.32245 0.06467
# Poissons Ratio (y) = 0.30905 0.28320
# Poissons Ratio (z) = 0.04342 0.19841
#
# Static dielectric constant tensor:
#      x y z
#    x 1.970110 0.013680 0.092950 
#    y 0.013680 1.917910 0.007720 
#    z 0.092950 0.007720 1.907520 
# 
# From -- ./inp_files/328319.got.cif
#   From: 2010.05.17/outbox.cif.g08.bks.cpg/sg2_165_cif.got.tgz:328319.got - 2010.06.03 11:33:40.
