data_PCOD9045750
_publ_section_title
;
Structure prediction by ZEFSAII (Michael W. Deem and Ramdas Pophale) SiO2 
 PCOD9045750
Probable space group: P -1
;
_chemical_formula_sum "Si O2"
_cell_formula_units_Z 14
_cell_length_a 5.189937
_cell_length_b 27.062057
_cell_length_c 16.317820
_cell_angle_alpha 19.644480
_cell_angle_beta 130.750831
_cell_angle_gamma 132.378270
_cell_volume 567.667507
_symmetry_space_group_name_H-M "P -1"
_symmetry_group_IT_number 2
_symmetry_cell_setting 'triclinic'
loop_
_space_group_symop_operation_xyz
x,y,z
-x,-y,-z
loop_
_atom_site_type_symbol
_atom_site_label
_atom_site_fract_x
_atom_site_fract_y
_atom_site_fract_z
Si Si1 0.733785 0.026624 0.588602
Si Si2 0.303151 0.137847 0.002858
Si Si3 0.522753 0.139399 0.590229
Si Si4 0.394617 0.822243 0.262729
Si Si5 0.298938 0.650322 0.845794
Si Si6 0.711963 0.484187 0.306057
Si Si7 0.457734 0.438362 0.495333
O O1 0.769551 0.196518 0.366341
O O2 0.143926 0.029227 0.662962
O O3 0.500000 0.000000 0.500000
O O4 0.581538 0.898863 0.825176
O O5 0.521144 0.269235 0.785468
O O6 0.952029 0.199176 0.832295
O O7 0.225744 0.972660 0.203064
O O8 0.596868 0.191892 0.615438
O O9 0.555582 0.283238 0.315047
O O10 0.556553 0.683398 0.486501
O O11 0.500000 0.000000 0.000000
O O12 0.566834 0.599816 0.041257
O O13 0.000000 0.500000 0.000000
O O14 0.701933 0.521073 0.343147
O O15 0.057669 0.459524 0.368709
O O16 0.500000 0.500000 0.500000
#
# Coordination Sequence:
#
# PCOD9045750 Si02
#       7
#     2   2   2   2   2   2   2
#     4  11  26  45  70 103 142 194 246 300 364 444
#     4  10  24  41  68 105 133 184 242 303 364 438
#     4  11  24  44  72 102 145 194 242 306 371 435
#     4  11  21  41  72 102 140 177 237 307 367 435
#     4  11  28  45  70 104 147 194 248 303 371 445
#     4  11  27  44  69 107 140 189 239 303 365 436
#     4  11  26  46  72 103 142 191 241 301 371 440
#
# _framework density 24.662326
#
# number of rings (size 3 to 8) (size 9 to 14) (size 15 to 20)
#    0.000    1.143    1.429    2.571   12.000    4.571 
#    0.000    0.000    0.000    0.000    0.000    0.000 
#    0.000    0.000    0.000    0.000    0.000    0.000 
#
# Total GULP energy -77978.349439 kJ/mol
# GULP energy per Si atom -5569.882103 kJ/mol
# Density = 2.460619 g / cm^3
# Si number density = 24.662326 Si / 1000 Ang^3
#
#
#
# Elastic Constant Matrix: (Units=GPa)
#
#
# Indices 1 2 3 4 5 6 
#
# 1 81.2989 23.9115 41.2074 19.5105 -9.5396 -6.1402
# 2 23.9115 89.8863 23.5923 30.5928 -18.9230 -14.0904
# 3 41.2074 23.5923 172.8219 34.2048 -15.4221 -8.2892
# 4 19.5105 30.5928 34.2048 45.4274 -11.2297 -9.0365
# 5 -9.5396 -18.9230 -15.4221 -11.2297 36.0944 8.8489
# 6 -6.1402 -14.0904 -8.2892 -9.0365 8.8489 31.4165
#
#
#
# Elastic Compliance Matrix: (Units=1/GPa)
#
#
# Indices 1 2 3 4 5 6 
#
# 1 0.015062 -0.002162 -0.002668 -0.002759 0.000787 0.000255
# 2 -0.002162 0.015882 0.000580 -0.008442 0.004610 0.003127
# 3 -0.002668 0.000580 0.007343 -0.004435 0.001351 0.000020
# 4 -0.002759 -0.008442 -0.004435 0.033534 0.002541 0.003434
# 5 0.000787 0.004610 0.001351 0.002541 0.033177 -0.006036
# 6 0.000255 0.003127 0.000020 0.003434 -0.006036 0.035976
#
#
# Mechanical properties :
#
#
# Convention : Reuss Voigt Hill
#
# Bulk Modulus (GPa) = 33.57233 57.93661 45.75447
# Shear Modulus (GPa) = 31.36700 39.60740 35.48720
#
# Velocity S-wave (km/s) = 3.57018 4.01183 3.79743
# Velocity P-wave (km/s) = 5.53510 6.70840 6.14979
#
# Compressibility (1/GPa) = 0.02978643
#
# Stress axis : x y z
#
# Youngs Moduli (GPa) = 66.39202 62.96451 136.19104
#
# Poissons Ratio (x) = 0.13613 0.36332
# Poissons Ratio (y) = 0.14354 -0.07893
# Poissons Ratio (z) = 0.17712 -0.03649
#
# Static dielectric constant tensor:
#      x y z
#    x 2.236250 0.093720 -0.051430 
#    y 0.093720 2.049320 -0.079800 
#    z -0.051430 -0.079800 1.917010 
# 
# From -- ./inp_files/110668.got.cif
#   From: 2010.05.17/outbox.cif.g08.bks.cpg/sg2_56_cif.got.tgz:110668.got - 2010.06.03 11:33:40.
