data_PCOD9045072
_publ_section_title
;
Structure prediction by ZEFSAII (Michael W. Deem and Ramdas Pophale) SiO2 
 PCOD9045072
Probable space group: P -1
;
_chemical_formula_sum "Si O2"
_cell_formula_units_Z 12
_cell_length_a 6.930897
_cell_length_b 14.714930
_cell_length_c 8.730655
_cell_angle_alpha 122.487710
_cell_angle_beta 108.633057
_cell_angle_gamma 115.546978
_cell_volume 467.300972
_symmetry_space_group_name_H-M "P -1"
_symmetry_group_IT_number 2
_symmetry_cell_setting 'triclinic'
loop_
_space_group_symop_operation_xyz
x,y,z
-x,-y,-z
loop_
_atom_site_type_symbol
_atom_site_label
_atom_site_fract_x
_atom_site_fract_y
_atom_site_fract_z
Si Si1 0.776066 0.008317 0.507631
Si Si2 0.915851 0.959011 0.118057
Si Si3 0.975224 0.323404 0.739546
Si Si4 0.090621 0.265648 0.415118
Si Si5 0.710738 0.260814 0.093777
Si Si6 0.269543 0.561728 0.318603
O O1 0.856993 0.161756 0.622178
O O2 0.454321 0.847850 0.201388
O O3 0.000000 0.000000 0.500000
O O4 0.846977 0.024165 0.719610
O O5 0.599346 0.642168 0.513281
O O6 0.959423 0.102229 0.304156
O O7 0.000000 0.000000 0.000000
O O8 0.719915 0.309008 0.608762
O O9 0.158734 0.369952 0.671243
O O10 0.164072 0.457195 0.042614
O O11 0.842766 0.220835 0.200633
O O12 0.435794 0.209543 0.072807
O O13 0.007532 0.444326 0.274748
#
# Coordination Sequence:
#
# PCOD9045072 Si02
#       6
#     2   2   2   2   2   2
#     4  10  23  48  82 112 146 200 260 314 381 447
#     4  11  27  47  81 116 150 200 267 317 384 451
#     4  11  26  50  80 110 163 201 257 315 385 458
#     4  12  26  49  77 115 159 202 255 317 384 458
#     4  11  26  50  76 114 156 200 257 321 378 457
#     4  11  29  47  78 117 156 208 254 311 394 457
#
# _framework density 25.679383000000001
#
# number of rings (size 3 to 8) (size 9 to 14) (size 15 to 20)
#    0.000    1.000    3.333    1.500    9.333    4.000 
#    0.000    0.000    0.000    0.000    0.000    0.000 
#    0.000    0.000    0.000    0.000    0.000    0.000 
#
# Total GULP energy -67195.568291 kJ/mol
# GULP energy per Si atom -5599.630691 kJ/mol
# Density = 2.562094 g / cm^3
# Si number density = 25.679383 Si / 1000 Ang^3
#
#
#
# Elastic Constant Matrix: (Units=GPa)
#
#
# Indices 1 2 3 4 5 6 
#
# 1 158.0271 56.1052 56.3877 -3.3101 1.2955 21.4715
# 2 56.1052 159.5780 47.9948 -12.6778 15.3786 -10.3145
# 3 56.3877 47.9948 86.0526 -22.6205 -7.8828 2.7106
# 4 -3.3101 -12.6778 -22.6205 50.0524 -5.4987 -0.2013
# 5 1.2955 15.3786 -7.8828 -5.4987 52.6420 -1.5957
# 6 21.4715 -10.3145 2.7106 -0.2013 -1.5957 45.1836
#
#
#
# Elastic Compliance Matrix: (Units=1/GPa)
#
#
# Indices 1 2 3 4 5 6 
#
# 1 0.009774 -0.002107 -0.005861 -0.002657 -0.000926 -0.004819
# 2 -0.002107 0.008635 -0.003797 0.000021 -0.002943 0.003096
# 3 -0.005861 -0.003797 0.020223 0.008363 0.005183 0.000926
# 4 -0.002657 0.000021 0.008363 0.024015 0.003851 0.001009
# 5 -0.000926 -0.002943 0.005183 0.003851 0.021064 0.000218
# 6 -0.004819 0.003096 0.000926 0.001009 0.000218 0.025085
#
#
# Mechanical properties :
#
#
# Convention : Reuss Voigt Hill
#
# Bulk Modulus (GPa) = 66.21616 80.51478 73.36547
# Shear Modulus (GPa) = 36.40054 45.78695 41.09375
#
# Velocity S-wave (km/s) = 3.76906 4.22717 4.00467
# Velocity P-wave (km/s) = 6.69199 7.43285 7.07213
#
# Compressibility (1/GPa) = 0.01510205
#
# Stress axis : x y z
#
# Youngs Moduli (GPa) = 102.31118 115.81207 49.44800
#
# Poissons Ratio (x) = 0.24401 0.28982
# Poissons Ratio (y) = 0.21556 0.18775
# Poissons Ratio (z) = 0.59966 0.43973
#
# Static dielectric constant tensor:
#      x y z
#    x 2.071810 0.075260 -0.068790 
#    y 0.075260 1.969270 -0.011780 
#    z -0.068790 -0.011780 2.110790 
# 
# From -- ./inp_files/204508.got.cif
#   From: 2010.05.17/outbox.cif.g08.bks.cpg/sg2_103_cif.got.tgz:204508.got - 2010.06.03 11:33:40.
