data_PCOD9045325
_publ_section_title
;
Structure prediction by ZEFSAII (Michael W. Deem and Ramdas Pophale) SiO2 
 PCOD9045325
Probable space group: P -1
;
_chemical_formula_sum "Si O2"
_cell_formula_units_Z 14
_cell_length_a 11.628106
_cell_length_b 5.196166
_cell_length_c 15.353830
_cell_angle_alpha 77.176751
_cell_angle_beta 122.610729
_cell_angle_gamma 72.053857
_cell_volume 650.482011
_symmetry_space_group_name_H-M "P -1"
_symmetry_group_IT_number 2
_symmetry_cell_setting 'triclinic'
loop_
_space_group_symop_operation_xyz
x,y,z
-x,-y,-z
loop_
_atom_site_type_symbol
_atom_site_label
_atom_site_fract_x
_atom_site_fract_y
_atom_site_fract_z
Si Si1 0.606476 0.655065 0.030164
Si Si2 0.592977 0.734158 0.816878
Si Si3 0.606028 0.538792 0.320300
Si Si4 0.063080 0.654127 0.080634
Si Si5 0.804538 0.071311 0.580985
Si Si6 0.081599 0.590373 0.289097
Si Si7 0.867212 0.429343 0.299432
O O1 0.645179 0.675098 0.943865
O O2 0.500000 0.500000 0.000000
O O3 0.760547 0.467965 0.168430
O O4 0.500000 0.000000 0.000000
O O5 0.474431 0.609407 0.759423
O O6 0.745717 0.541714 0.833070
O O7 0.510914 0.098184 0.739144
O O8 0.667348 0.338345 0.447908
O O9 0.755919 0.508475 0.330830
O O10 0.014545 0.651943 0.160172
O O11 0.000000 0.500000 0.000000
O O12 0.000000 0.000000 0.000000
O O13 0.841511 0.210979 0.669454
O O14 0.790944 0.777011 0.620730
O O15 0.971263 0.904589 0.606742
O O16 0.939757 0.646944 0.293037
#
# Coordination Sequence:
#
# PCOD9045325 Si02
#       7
#     2   2   2   2   2   2   2
#     4  12  23  39  60  96 134 167 207 271 336 392
#     4  12  26  43  67 101 137 173 216 279 341 391
#     4  12  24  44  65 103 137 175 218 275 340 391
#     4  12  26  48  72  96 134 176 227 271 326 404
#     4  10  24  42  68  98 134 178 228 268 323 393
#     4  10  24  42  67  98 124 175 234 266 323 376
#     4  10  24  39  70  93 139 172 228 262 333 397
#
# _framework density 21.522500999999998
#
# number of rings (size 3 to 8) (size 9 to 14) (size 15 to 20)
#    0.857    0.000    2.857    3.857    6.000    0.571 
#    0.000    4.286    0.000    0.000    0.000    0.000 
#    0.000    0.000    0.000    0.000    0.000    0.000 
#
# Total GULP energy -78245.337761 kJ/mol
# GULP energy per Si atom -5588.952697 kJ/mol
# Density = 2.147351 g / cm^3
# Si number density = 21.522501 Si / 1000 Ang^3
#
#
#
# Elastic Constant Matrix: (Units=GPa)
#
#
# Indices 1 2 3 4 5 6 
#
# 1 20.7653 2.3541 -12.5156 -4.2339 -8.6264 5.4773
# 2 2.3541 108.6281 8.2238 -16.6829 1.9172 17.6342
# 3 -12.5156 8.2238 51.7671 -18.5562 -5.2862 -6.2663
# 4 -4.2339 -16.6829 -18.5562 42.0432 1.3584 -1.7455
# 5 -8.6264 1.9172 -5.2862 1.3584 19.6213 -2.1554
# 6 5.4773 17.6342 -6.2663 -1.7455 -2.1554 13.1652
#
#
#
# Elastic Compliance Matrix: (Units=1/GPa)
#
#
# Indices 1 2 3 4 5 6 
#
# 1 0.098810 -0.000084 0.035987 0.023661 0.050131 -0.012524
# 2 -0.000084 0.013298 -0.004061 0.002796 -0.004835 -0.020130
# 3 0.035987 -0.004061 0.040617 0.019750 0.027655 0.016946
# 4 0.023661 0.002796 0.019750 0.035678 0.013278 0.002715
# 5 0.050131 -0.004835 0.027655 0.013278 0.081535 0.013892
# 6 -0.012524 -0.020130 0.016946 0.002715 0.013892 0.118832
#
#
# Mechanical properties :
#
#
# Convention : Reuss Voigt Hill
#
# Bulk Modulus (GPa) = 4.62087 19.69835 12.15961
# Shear Modulus (GPa) = 12.58742 27.17249 19.87995
#
# Velocity S-wave (km/s) = 2.42099 3.55704 3.04251
# Velocity P-wave (km/s) = 3.15699 5.10318 4.24317
#
# Compressibility (1/GPa) = 0.21640960
#
# Stress axis : x y z
#
# Youngs Moduli (GPa) = 10.12042 75.20122 24.61996
#
# Poissons Ratio (x) = 0.00629 -0.88599
# Poissons Ratio (y) = 0.00085 0.09998
# Poissons Ratio (z) = -0.36420 0.30538
#
# Static dielectric constant tensor:
#      x y z
#    x 1.795590 -0.006930 -0.002550 
#    y -0.006930 1.754640 -0.004640 
#    z -0.002550 -0.004640 1.758520 
# 
# From -- ./inp_files/410307.got.cif
#   From: 2010.05.17/outbox.cif.g08.bks.cpg/sg2_206_cif.got.tgz:410307.got - 2010.06.03 11:33:40.
