data_PCOD9045820
_publ_section_title
;
Structure prediction by ZEFSAII (Michael W. Deem and Ramdas Pophale) SiO2 
 PCOD9045820
Probable space group: P -1
;
_chemical_formula_sum "Si O2"
_cell_formula_units_Z 16
_cell_length_a 15.332095
_cell_length_b 9.577601
_cell_length_c 9.271004
_cell_angle_alpha 128.135310
_cell_angle_beta 89.111377
_cell_angle_gamma 56.022750
_cell_volume 739.922531
_symmetry_space_group_name_H-M "P -1"
_symmetry_group_IT_number 2
_symmetry_cell_setting 'triclinic'
loop_
_space_group_symop_operation_xyz
x,y,z
-x,-y,-z
loop_
_atom_site_type_symbol
_atom_site_label
_atom_site_fract_x
_atom_site_fract_y
_atom_site_fract_z
Si Si1 0.354313 0.264505 0.647706
Si Si2 0.423055 0.857234 0.831544
Si Si3 0.196971 0.298648 0.913158
Si Si4 0.134575 0.768285 0.608961
Si Si5 0.715287 0.256315 0.155612
Si Si6 0.926377 0.793569 0.660212
Si Si7 0.927782 0.833653 0.348877
Si Si8 0.640892 0.785199 0.701901
O O1 0.267449 0.320537 0.812129
O O2 0.329009 0.510361 0.786745
O O3 0.318459 0.233263 0.473261
O O4 0.500000 0.000000 0.500000
O O5 0.298553 0.091029 0.895243
O O6 0.406179 0.675137 0.744902
O O7 0.541012 0.769650 0.690484
O O8 0.421385 0.962147 0.051362
O O9 0.148102 0.199828 0.763441
O O10 0.075047 0.570210 0.157896
O O11 0.199484 0.794940 0.747191
O O12 0.239745 0.466753 0.376960
O O13 0.017329 0.828870 0.711733
O O14 0.099001 0.939213 0.581949
O O15 0.804175 0.996249 0.892782
O O16 0.894726 0.861652 0.535246
O O17 0.000000 0.500000 0.500000
#
# Coordination Sequence:
#
# PCOD9045820 Si02
#       8
#     2   2   2   2   2   2   2   2
#     4  11  24  44  67  96 132 175 219 273 327 385
#     4  11  22  46  66  95 131 170 226 264 328 387
#     4  11  23  42  68  94 133 169 223 266 329 395
#     4  11  23  43  65  95 133 171 223 264 330 391
#     4  11  25  41  68  98 132 175 219 271 325 394
#     4  12  26  42  68 100 138 172 216 272 333 389
#     4  11  25  41  66  99 128 177 213 272 330 390
#     4  10  24  41  71  94 129 177 216 274 326 389
#
# _framework density 21.623885999999999
#
# number of rings (size 3 to 8) (size 9 to 14) (size 15 to 20)
#    0.000    1.000    2.500    3.750    7.000    4.000 
#    0.000    0.625    0.000    0.000    0.000    0.000 
#    0.000    0.000    0.000    0.000    0.000    0.000 
#
# Total GULP energy -89516.914622 kJ/mol
# GULP energy per Si atom -5594.807164 kJ/mol
# Density = 2.157467 g / cm^3
# Si number density = 21.623886 Si / 1000 Ang^3
#
#
#
# Elastic Constant Matrix: (Units=GPa)
#
#
# Indices 1 2 3 4 5 6 
#
# 1 98.9077 18.4602 1.2706 -9.3049 -6.7824 9.5335
# 2 18.4602 108.5923 5.0431 -0.6977 0.8944 15.4771
# 3 1.2706 5.0431 73.1023 -12.2962 2.0351 2.5722
# 4 -9.3049 -0.6977 -12.2962 28.4951 -1.4790 -5.0892
# 5 -6.7824 0.8944 2.0351 -1.4790 32.7896 1.4512
# 6 9.5335 15.4771 2.5722 -5.0892 1.4512 38.5323
#
#
#
# Elastic Compliance Matrix: (Units=1/GPa)
#
#
# Indices 1 2 3 4 5 6 
#
# 1 0.011097 -0.001662 0.000523 0.003632 0.002549 -0.001729
# 2 -0.001662 0.010053 -0.000740 -0.001307 -0.000466 -0.003732
# 3 0.000523 -0.000740 0.014833 0.006538 -0.000500 0.000060
# 4 0.003632 -0.001307 0.006538 0.039957 0.001989 0.004392
# 5 0.002549 -0.000466 -0.000500 0.001989 0.031217 -0.001323
# 6 -0.001729 -0.003732 0.000060 0.004392 -0.001323 0.028505
#
#
# Mechanical properties :
#
#
# Convention : Reuss Voigt Hill
#
# Bulk Modulus (GPa) = 31.03267 36.68332 33.85800
# Shear Modulus (GPa) = 33.29742 37.01865 35.15803
#
# Velocity S-wave (km/s) = 3.92834 4.14204 4.03661
# Velocity P-wave (km/s) = 5.91254 6.31478 6.11696
#
# Compressibility (1/GPa) = 0.03222410
#
# Stress axis : x y z
#
# Youngs Moduli (GPa) = 90.11423 99.47230 67.41733
#
# Poissons Ratio (x) = 0.16531 -0.03523
# Poissons Ratio (y) = 0.14976 0.04990
# Poissons Ratio (z) = -0.04709 0.07362
#
# Static dielectric constant tensor:
#      x y z
#    x 1.802640 0.001500 0.026450 
#    y 0.001500 1.756990 0.004450 
#    z 0.026450 0.004450 1.778140 
# 
# From -- ./inp_files/188773.got.cif
#   From: 2010.05.17/outbox.cif.g08.bks.cpg/sg2_95_cif.got.tgz:188773.got - 2010.06.03 11:33:40.
