data_PCOD9045231
_publ_section_title
;
Structure prediction by ZEFSAII (Michael W. Deem and Ramdas Pophale) SiO2 
 PCOD9045231
Probable space group: P -1
;
_chemical_formula_sum "Si O2"
_cell_formula_units_Z 16
_cell_length_a 18.531012
_cell_length_b 5.060102
_cell_length_c 9.587453
_cell_angle_alpha 105.630327
_cell_angle_beta 58.971217
_cell_angle_gamma 124.247758
_cell_volume 636.521130
_symmetry_space_group_name_H-M "P -1"
_symmetry_group_IT_number 2
_symmetry_cell_setting 'triclinic'
loop_
_space_group_symop_operation_xyz
x,y,z
-x,-y,-z
loop_
_atom_site_type_symbol
_atom_site_label
_atom_site_fract_x
_atom_site_fract_y
_atom_site_fract_z
Si Si1 0.639574 0.276934 0.619733
Si Si2 0.095256 0.475771 0.433878
Si Si3 0.245931 0.926622 0.705507
Si Si4 0.311119 0.040027 0.243638
Si Si5 0.091493 0.247530 0.116484
Si Si6 0.965788 0.565658 0.215613
Si Si7 0.419685 0.602340 0.578265
Si Si8 0.302259 0.761444 0.908794
O O1 0.727930 0.299909 0.443045
O O2 0.623912 0.029642 0.722550
O O3 0.565405 0.209409 0.555447
O O4 0.660912 0.597245 0.719968
O O5 0.197129 0.812505 0.370833
O O6 0.106602 0.269347 0.273020
O O7 0.072982 0.347568 0.593905
O O8 0.000000 0.500000 0.500000
O O9 0.129716 0.749119 0.791073
O O10 0.283702 0.942150 0.826829
O O11 0.314406 0.267912 0.615018
O O12 0.318834 0.934366 0.064550
O O13 0.046646 0.470778 0.157600
O O14 0.200133 0.418021 0.969546
O O15 0.012908 0.877652 0.116742
O O16 0.500000 0.500000 0.500000
O O17 0.391581 0.724784 0.762045
#
# Coordination Sequence:
#
# PCOD9045231 Si02
#       8
#     2   2   2   2   2   2   2   2
#     4  11  23  44  75 103 138 184 240 285 359 419
#     4   9  19  33  58  92 138 182 243 276 333 396
#     4  11  25  44  74 103 143 190 241 289 360 427
#     4  11  23  43  70 105 144 189 233 302 348 413
#     4  10  24  38  59 100 141 190 228 291 338 409
#     4  11  22  37  64  95 142 186 242 277 335 417
#     4  11  26  52  80 106 139 184 242 300 368 443
#     4  10  27  44  71 105 151 188 235 291 368 414
#
# _framework density 25.136635999999999
#
# number of rings (size 3 to 8) (size 9 to 14) (size 15 to 20)
#    0.000    1.500    2.500    0.375   10.500    8.000 
#    0.000    1.250    0.000    0.000    0.000    0.000 
#    0.000    0.000    0.000    0.000    0.000    0.000 
#
# Total GULP energy -89526.259675 kJ/mol
# GULP energy per Si atom -5595.391230 kJ/mol
# Density = 2.507942 g / cm^3
# Si number density = 25.136636 Si / 1000 Ang^3
#
#
#
# Elastic Constant Matrix: (Units=GPa)
#
#
# Indices 1 2 3 4 5 6 
#
# 1 89.5337 -2.0976 44.6971 -2.7803 -4.9250 -5.7188
# 2 -2.0976 63.5944 40.4140 -5.5039 -12.1954 -7.4734
# 3 44.6971 40.4140 156.2165 -6.4600 -5.5019 -6.8387
# 4 -2.7803 -5.5039 -6.4600 30.7880 3.5650 3.3936
# 5 -4.9250 -12.1954 -5.5019 3.5650 49.0233 -3.9711
# 6 -5.7188 -7.4734 -6.8387 3.3936 -3.9711 38.2778
#
#
#
# Elastic Compliance Matrix: (Units=1/GPa)
#
#
# Indices 1 2 3 4 5 6 
#
# 1 0.013999 0.004293 -0.004925 0.000515 0.002064 0.002218
# 2 0.004293 0.021565 -0.006366 0.001844 0.005279 0.004099
# 3 -0.004925 -0.006366 0.009422 0.000572 -0.001100 -0.000460
# 4 0.000515 0.001844 0.000572 0.033509 -0.002076 -0.002647
# 5 0.002064 0.005279 -0.001100 -0.002076 0.022241 0.003634
# 6 0.002218 0.004099 -0.000460 -0.002647 0.003634 0.027786
#
#
# Mechanical properties :
#
#
# Convention : Reuss Voigt Hill
#
# Bulk Modulus (GPa) = 32.26770 52.81905 42.54337
# Shear Modulus (GPa) = 32.71208 38.70657 35.70932
#
# Velocity S-wave (km/s) = 3.61137 3.92835 3.77319
# Velocity P-wave (km/s) = 5.50037 6.45246 5.99534
#
# Compressibility (1/GPa) = 0.03099074
#
# Stress axis : x y z
#
# Youngs Moduli (GPa) = 71.43170 46.37083 106.13311
#
# Poissons Ratio (x) = -0.19905 0.52270
# Poissons Ratio (y) = -0.30663 0.67560
# Poissons Ratio (z) = 0.35180 0.29518
#
# Static dielectric constant tensor:
#      x y z
#    x 1.991980 0.054130 0.058920 
#    y 0.054130 2.059690 0.034440 
#    z 0.058920 0.034440 1.968640 
# 
# From -- ./inp_files/339925.got.cif
#   From: 2010.05.17/outbox.cif.g08.bks.cpg/sg2_170_cif.got.tgz:339925.got - 2010.06.03 11:33:40.
