data_PCOD9045155
_publ_section_title
;
Structure prediction by ZEFSAII (Michael W. Deem and Ramdas Pophale) SiO2 
 PCOD9045155
Probable space group: P -1
;
_chemical_formula_sum "Si O2"
_cell_formula_units_Z 16
_cell_length_a 4.797291
_cell_length_b 28.499572
_cell_length_c 9.494519
_cell_angle_alpha 152.025397
_cell_angle_beta 92.184606
_cell_angle_gamma 84.523098
_cell_volume 603.161303
_symmetry_space_group_name_H-M "P -1"
_symmetry_group_IT_number 2
_symmetry_cell_setting 'triclinic'
loop_
_space_group_symop_operation_xyz
x,y,z
-x,-y,-z
loop_
_atom_site_type_symbol
_atom_site_label
_atom_site_fract_x
_atom_site_fract_y
_atom_site_fract_z
Si Si1 0.005851 0.521519 0.390602
Si Si2 0.462303 0.654341 0.705127
Si Si3 0.343853 0.417986 0.865867
Si Si4 0.017852 0.105122 0.350810
Si Si5 0.788420 0.212868 0.364405
Si Si6 0.207079 0.898238 0.204417
Si Si7 0.840475 0.731525 0.697805
Si Si8 0.472891 0.852662 0.358824
O O1 0.000000 0.500000 0.500000
O O2 0.676363 0.551468 0.434155
O O3 0.157714 0.621639 0.632705
O O4 0.180002 0.445405 0.082806
O O5 0.559651 0.714159 0.729974
O O6 0.029123 0.802227 0.975800
O O7 0.527351 0.731215 0.030463
O O8 0.103146 0.384361 0.665661
O O9 0.579016 0.318152 0.629273
O O10 0.500000 0.500000 0.000000
O O11 0.855530 0.184426 0.449774
O O12 0.330634 0.113745 0.428253
O O13 0.845146 0.115130 0.516639
O O14 0.000000 0.000000 0.000000
O O15 0.099282 0.219354 0.321482
O O16 0.699664 0.126905 0.024585
O O17 0.461973 0.898291 0.321703
O O18 0.000000 0.000000 0.500000
#
# Coordination Sequence:
#
# PCOD9045155 Si02
#       8
#     2   2   2   2   2   2   2   2
#     4  12  29  46  77 112 165 214 283 337 425 508
#     4  12  25  50  72 113 156 217 277 342 414 503
#     4  12  25  47  80 117 169 229 282 368 428 504
#     4  12  28  51  80 120 170 221 277 349 444 521
#     4  10  27  45  79 124 165 219 290 352 424 515
#     4  10  23  49  82 123 166 217 289 360 421 517
#     4  10  24  44  79 115 161 212 287 348 421 500
#     4  12  27  49  82 111 164 219 268 345 433 507
#
# _framework density 26.526900000000001
#
# number of rings (size 3 to 8) (size 9 to 14) (size 15 to 20)
#    0.750    0.000    1.250    5.250    5.250    3.000 
#    0.000    3.750    0.000    0.000    0.000    0.000 
#    0.000    0.000    0.000    0.000    0.000    0.000 
#
# Total GULP energy -89150.693919 kJ/mol
# GULP energy per Si atom -5571.918370 kJ/mol
# Density = 2.646652 g / cm^3
# Si number density = 26.526900 Si / 1000 Ang^3
#
#
#
# Elastic Constant Matrix: (Units=GPa)
#
#
# Indices 1 2 3 4 5 6 
#
# 1 118.9316 25.7608 39.5523 0.0956 -3.7228 4.2756
# 2 25.7608 123.5557 49.3060 -15.9283 -0.1707 -22.0377
# 3 39.5523 49.3060 180.4873 -7.8375 -2.7079 -1.0540
# 4 0.0956 -15.9283 -7.8375 39.5278 -6.8175 -9.8043
# 5 -3.7228 -0.1707 -2.7079 -6.8175 60.8348 -6.3536
# 6 4.2756 -22.0377 -1.0540 -9.8043 -6.3536 38.8337
#
#
#
# Elastic Compliance Matrix: (Units=1/GPa)
#
#
# Indices 1 2 3 4 5 6 
#
# 1 0.009490 -0.002058 -0.001613 -0.001845 0.000012 -0.002720
# 2 -0.002058 0.011971 -0.002449 0.006813 0.001493 0.008918
# 3 -0.001613 -0.002449 0.006562 0.000087 0.000092 -0.000997
# 4 -0.001845 0.006813 0.000087 0.032124 0.004865 0.012978
# 5 0.000012 0.001493 0.000092 0.004865 0.017508 0.004942
# 6 -0.002720 0.008918 -0.000997 0.012978 0.004942 0.035169
#
#
# Mechanical properties :
#
#
# Convention : Reuss Voigt Hill
#
# Bulk Modulus (GPa) = 63.35851 72.46809 67.91330
# Shear Modulus (GPa) = 38.36551 48.39628 43.38089
#
# Velocity S-wave (km/s) = 3.80713 4.27596 4.04834
# Velocity P-wave (km/s) = 6.57740 7.19420 6.89270
#
# Compressibility (1/GPa) = 0.01578320
#
# Stress axis : x y z
#
# Youngs Moduli (GPa) = 105.37290 83.53715 152.38238
#
# Poissons Ratio (x) = 0.17190 0.24584
# Poissons Ratio (y) = 0.21683 0.37317
# Poissons Ratio (z) = 0.17000 0.20458
#
# Static dielectric constant tensor:
#      x y z
#    x 2.132740 -0.235260 0.120290 
#    y -0.235260 2.010160 0.232000 
#    z 0.120290 0.232000 1.973530 
# 
# From -- ./inp_files/143448.got.cif
#   From: 2010.05.17/outbox.cif.g08.bks.cpg/sg2_72_cif.got.tgz:143448.got - 2010.06.03 11:33:40.
