data_PCOD9045765
_publ_section_title
;
Structure prediction by ZEFSAII (Michael W. Deem and Ramdas Pophale) SiO2 
 PCOD9045765
Probable space group: P -1
;
_chemical_formula_sum "Si O2"
_cell_formula_units_Z 16
_cell_length_a 8.463013
_cell_length_b 18.683645
_cell_length_c 26.479200
_cell_angle_alpha 12.953779
_cell_angle_beta 125.225229
_cell_angle_gamma 125.369331
_cell_volume 763.489149
_symmetry_space_group_name_H-M "P -1"
_symmetry_group_IT_number 2
_symmetry_cell_setting 'triclinic'
loop_
_space_group_symop_operation_xyz
x,y,z
-x,-y,-z
loop_
_atom_site_type_symbol
_atom_site_label
_atom_site_fract_x
_atom_site_fract_y
_atom_site_fract_z
Si Si1 0.866658 0.681833 0.299038
Si Si2 0.457491 0.477846 0.719538
Si Si3 0.236557 0.844055 0.954471
Si Si4 0.102616 0.583038 0.774378
Si Si5 0.252355 0.907311 0.248887
Si Si6 0.355442 0.271777 0.594587
Si Si7 0.206451 0.293577 0.447538
Si Si8 0.594721 0.173635 0.256901
O O1 0.739018 0.704087 0.211027
O O2 0.810782 0.324482 0.556164
O O3 0.096032 0.758397 0.281259
O O4 0.801772 0.917464 0.169677
O O5 0.625930 0.472574 0.710744
O O6 0.447210 0.860974 0.458928
O O7 0.553263 0.291587 0.909941
O O8 0.226646 0.042339 0.765654
O O9 0.078254 0.542687 0.136839
O O10 0.256070 0.799040 0.687159
O O11 0.997238 0.686891 0.632501
O O12 0.208500 0.267278 0.000244
O O13 0.476174 0.896036 0.287963
O O14 0.500000 0.500000 0.500000
O O15 0.223736 0.379247 0.450528
O O16 0.280055 0.949724 0.682019
O O17 0.500000 0.500000 0.000000
#
# Coordination Sequence:
#
# PCOD9045765 Si02
#       8
#     2   2   2   2   2   2   2   2
#     4  10  17  34  54  85 108 151 195 241 274 341
#     4   9  18  33  56  86 109 147 194 235 286 330
#     4  10  21  32  59  82 120 148 187 238 288 339
#     4  10  20  39  61  88 110 148 202 243 276 336
#     4  10  20  32  59  81 115 149 193 236 283 338
#     4  12  21  38  54  85 123 158 186 230 297 346
#     4   9  20  34  58  82 112 153 189 234 283 341
#     4  10  19  35  66  90 109 144 201 246 279 333
#
# _framework density 20.956422
#
# number of rings (size 3 to 8) (size 9 to 14) (size 15 to 20)
#    0.750    1.250    2.500    2.250    0.000    2.000 
#    0.000    3.125    0.000    1.500    0.000    0.000 
#    0.000    0.000    0.000    0.000    0.000    0.000 
#
# Total GULP energy -89081.320138 kJ/mol
# GULP energy per Si atom -5567.582509 kJ/mol
# Density = 2.090872 g / cm^3
# Si number density = 20.956422 Si / 1000 Ang^3
#
#
#
# Elastic Constant Matrix: (Units=GPa)
#
#
# Indices 1 2 3 4 5 6 
#
# 1 21.6769 15.0724 2.1811 0.9039 5.2964 15.8828
# 2 15.0724 134.5274 21.3923 12.3869 -2.2592 20.3870
# 3 2.1811 21.3923 72.7097 3.9875 15.5355 -10.5451
# 4 0.9039 12.3869 3.9875 23.6255 -1.6777 0.5358
# 5 5.2964 -2.2592 15.5355 -1.6777 26.2843 3.0572
# 6 15.8828 20.3870 -10.5451 0.5358 3.0572 24.8703
#
#
#
# Elastic Compliance Matrix: (Units=1/GPa)
#
#
# Indices 1 2 3 4 5 6 
#
# 1 0.097182 0.001324 -0.012093 -0.001157 -0.004521 -0.067695
# 2 0.001324 0.010587 -0.005910 -0.003938 0.005351 -0.012603
# 3 -0.012093 -0.005910 0.022457 -0.001782 -0.014236 0.023878
# 4 -0.001157 -0.003938 -0.001782 0.044952 0.003608 0.001800
# 5 -0.004521 0.005351 -0.014236 0.003608 0.049656 -0.013717
# 6 -0.067695 -0.012603 0.023878 0.001800 -0.013717 0.105544
#
#
# Mechanical properties :
#
#
# Convention : Reuss Voigt Hill
#
# Bulk Modulus (GPa) = 10.32325 34.02285 22.17305
# Shear Modulus (GPa) = 12.62546 27.64057 20.13302
#
# Velocity S-wave (km/s) = 2.45717 3.63568 3.10289
# Velocity P-wave (km/s) = 3.60375 5.82190 4.84157
#
# Compressibility (1/GPa) = 0.09686869
#
# Stress axis : x y z
#
# Youngs Moduli (GPa) = 10.29001 94.45338 44.52921
#
# Poissons Ratio (x) = -0.12510 0.53851
# Poissons Ratio (y) = -0.01363 0.26316
# Poissons Ratio (z) = 0.12444 0.55820
#
# Static dielectric constant tensor:
#      x y z
#    x 1.734030 -0.027230 0.061420 
#    y -0.027230 1.832120 0.018860 
#    z 0.061420 0.018860 1.787990 
# 
# From -- ./inp_files/590429.got.cif
#   From: 2010.05.17/outbox.cif.g08.bks.cpg/sg2_296_cif.got.tgz:590429.got - 2010.06.03 11:33:40.
