data_PCOD9045441
_publ_section_title
;
Structure prediction by ZEFSAII (Michael W. Deem and Ramdas Pophale) SiO2 
 PCOD9045441
Probable space group: P -1
;
_chemical_formula_sum "Si O2"
_cell_formula_units_Z 16
_cell_length_a 8.065990
_cell_length_b 16.199977
_cell_length_c 11.738361
_cell_angle_alpha 47.161375
_cell_angle_beta 109.749833
_cell_angle_gamma 70.895273
_cell_volume 624.895600
_symmetry_space_group_name_H-M "P -1"
_symmetry_group_IT_number 2
_symmetry_cell_setting 'triclinic'
loop_
_space_group_symop_operation_xyz
x,y,z
-x,-y,-z
loop_
_atom_site_type_symbol
_atom_site_label
_atom_site_fract_x
_atom_site_fract_y
_atom_site_fract_z
Si Si1 0.496191 0.339939 0.078591
Si Si2 0.381580 0.916645 0.802138
Si Si3 0.848612 0.567597 0.750351
Si Si4 0.877154 0.985064 0.105648
Si Si5 0.457924 0.596579 0.723558
Si Si6 0.014690 0.813242 0.086045
Si Si7 0.069743 0.539321 0.368572
Si Si8 0.505556 0.938987 0.435486
O O1 0.452822 0.465346 0.862546
O O2 0.179104 0.447964 0.937554
O O3 0.690351 0.147329 0.239235
O O4 0.622844 0.318066 0.248171
O O5 0.289190 0.951161 0.876590
O O6 0.294589 0.079909 0.576536
O O7 0.740380 0.731670 0.061846
O O8 0.776664 0.479724 0.863659
O O9 0.651351 0.744545 0.623523
O O10 0.764712 0.608641 0.557783
O O11 0.216807 0.772314 0.415710
O O12 0.793306 0.948119 0.015775
O O13 0.839834 0.137492 0.930114
O O14 0.826158 0.901302 0.843656
O O15 0.184458 0.608760 0.344235
O O16 0.000000 0.500000 0.500000
O O17 0.500000 0.000000 0.500000
#
# Coordination Sequence:
#
# PCOD9045441 Si02
#       8
#     2   2   2   2   2   2   2   2
#     4  10  24  43  64 107 138 177 235 281 348 413
#     4  10  24  40  66  98 134 179 225 288 338 406
#     4  11  23  44  72  98 138 183 226 292 346 401
#     4  11  24  44  67  96 140 179 225 289 334 418
#     4  11  23  42  69  97 138 185 225 285 350 408
#     4  10  25  44  65 100 133 178 232 271 349 412
#     4  10  25  42  68  97 133 175 228 279 347 414
#     4  11  23  44  70 100 134 177 235 280 344 411
#
# _framework density 25.604278999999998
#
# number of rings (size 3 to 8) (size 9 to 14) (size 15 to 20)
#    0.000    1.500    1.250    1.875    8.750    3.500 
#    2.250    1.250    0.000    0.000    0.000    0.000 
#    0.000    0.000    0.000    0.000    0.000    0.000 
#
# Total GULP energy -89425.794274 kJ/mol
# GULP energy per Si atom -5589.112142 kJ/mol
# Density = 2.554600 g / cm^3
# Si number density = 25.604279 Si / 1000 Ang^3
#
#
#
# Elastic Constant Matrix: (Units=GPa)
#
#
# Indices 1 2 3 4 5 6 
#
# 1 120.4192 19.3279 37.6237 -3.4698 -28.8560 -0.9621
# 2 19.3279 145.2252 25.4672 3.2521 -8.9121 6.0462
# 3 37.6237 25.4672 73.7096 1.5372 -20.8569 13.0098
# 4 -3.4698 3.2521 1.5372 31.9082 1.8451 -5.8259
# 5 -28.8560 -8.9121 -20.8569 1.8451 47.4579 1.0410
# 6 -0.9621 6.0462 13.0098 -5.8259 1.0410 37.9849
#
#
#
# Elastic Compliance Matrix: (Units=1/GPa)
#
#
# Indices 1 2 3 4 5 6 
#
# 1 0.010931 -0.000506 -0.004536 0.001572 0.004452 0.002030
# 2 -0.000506 0.007379 -0.002114 -0.000825 0.000194 -0.000595
# 3 -0.004536 -0.002114 0.019528 -0.002836 0.005692 -0.007058
# 4 0.001572 -0.000825 -0.002836 0.032981 -0.001865 0.006252
# 5 0.004452 0.000194 0.005692 -0.001865 0.026452 -0.002879
# 6 0.002030 -0.000595 -0.007058 0.006252 -0.002879 0.029927
#
#
# Mechanical properties :
#
#
# Convention : Reuss Voigt Hill
#
# Bulk Modulus (GPa) = 42.50580 56.02128 49.26354
# Shear Modulus (GPa) = 33.47766 40.59921 37.03844
#
# Velocity S-wave (km/s) = 3.61986 3.98633 3.80751
# Velocity P-wave (km/s) = 5.84023 6.56620 6.21383
#
# Compressibility (1/GPa) = 0.02352620
#
# Stress axis : x y z
#
# Youngs Moduli (GPa) = 91.48118 135.51797 51.20834
#
# Poissons Ratio (x) = 0.06855 0.23229
# Poissons Ratio (y) = 0.04628 0.10826
# Poissons Ratio (z) = 0.41497 0.28650
#
# Static dielectric constant tensor:
#      x y z
#    x 2.098490 0.034770 0.015620 
#    y 0.034770 2.030420 0.016590 
#    z 0.015620 0.016590 2.087570 
# 
# From -- ./inp_files/398625.got.cif
#   From: 2010.05.17/outbox.cif.g08.bks.cpg/sg2_200_cif.got.tgz:398625.got - 2010.06.03 11:33:40.
