data_PCOD9045169
_publ_section_title
;
Structure prediction by ZEFSAII (Michael W. Deem and Ramdas Pophale) SiO2 
 PCOD9045169
Probable space group: P -1
;
_chemical_formula_sum "Si O2"
_cell_formula_units_Z 14
_cell_length_a 8.808003
_cell_length_b 16.276981
_cell_length_c 5.599837
_cell_angle_alpha 118.511470
_cell_angle_beta 57.008558
_cell_angle_gamma 120.701424
_cell_volume 556.445338
_symmetry_space_group_name_H-M "P -1"
_symmetry_group_IT_number 2
_symmetry_cell_setting 'triclinic'
loop_
_space_group_symop_operation_xyz
x,y,z
-x,-y,-z
loop_
_atom_site_type_symbol
_atom_site_label
_atom_site_fract_x
_atom_site_fract_y
_atom_site_fract_z
Si Si1 0.304476 0.991097 0.788510
Si Si2 0.663556 0.809633 0.146015
Si Si3 0.606604 0.499778 0.154465
Si Si4 0.990901 0.439853 0.176205
Si Si5 0.286935 0.688702 0.067835
Si Si6 0.188690 0.094853 0.409240
Si Si7 0.997528 0.788638 0.622197
O O1 0.225143 0.072420 0.842870
O O2 0.500000 0.000000 0.500000
O O3 0.155779 0.880974 0.745002
O O4 0.318390 0.035036 0.099857
O O5 0.478432 0.779427 0.095103
O O6 0.654106 0.821979 0.450033
O O7 0.803350 0.748155 0.886051
O O8 0.500000 0.500000 0.500000
O O9 0.500000 0.500000 0.000000
O O10 0.656448 0.398506 0.977174
O O11 0.814551 0.585287 0.059876
O O12 0.000000 0.500000 0.500000
O O13 0.789712 0.349452 0.185894
O O14 0.000000 0.500000 0.000000
O O15 0.106789 0.713245 0.364463
O O16 0.084277 0.163567 0.458975
O O17 0.000000 0.000000 0.500000
#
# Coordination Sequence:
#
# PCOD9045169 Si02
#       7
#     2   2   2   2   2   2   2
#     4  11  21  41  66  94 148 198 236 291 362 424
#     4  11  23  44  67 103 146 188 250 297 352 429
#     4  11  25  50  81 107 144 192 235 301 389 464
#     4  10  23  50  75 105 146 188 235 297 381 462
#     4  11  26  46  72 110 140 183 246 310 365 442
#     4  11  21  41  66  95 138 204 247 287 359 423
#     4  11  23  44  67 101 149 190 243 306 352 427
#
# _framework density 25.159704999999999
#
# number of rings (size 3 to 8) (size 9 to 14) (size 15 to 20)
#    0.000    1.143    4.286    2.571    2.000    1.714 
#   23.143    0.000    0.000    0.000    0.000    0.000 
#    0.000    0.000    0.000    0.000    0.000    0.000 
#
# Total GULP energy -77945.445280 kJ/mol
# GULP energy per Si atom -5567.531806 kJ/mol
# Density = 2.510244 g / cm^3
# Si number density = 25.159705 Si / 1000 Ang^3
#
#
#
# Elastic Constant Matrix: (Units=GPa)
#
#
# Indices 1 2 3 4 5 6 
#
# 1 168.5874 41.1931 99.2023 8.7192 10.6355 33.5437
# 2 41.1931 61.0537 32.6183 11.1608 5.1534 8.5800
# 3 99.2023 32.6183 200.5213 8.1919 -9.1068 21.7068
# 4 8.7192 11.1608 8.1919 36.1751 4.2144 -7.5369
# 5 10.6355 5.1534 -9.1068 4.2144 58.3040 15.5118
# 6 33.5437 8.5800 21.7068 -7.5369 15.5118 55.7125
#
#
#
# Elastic Compliance Matrix: (Units=1/GPa)
#
#
# Indices 1 2 3 4 5 6 
#
# 1 0.010073 -0.003886 -0.003948 -0.001001 -0.001034 -0.003775
# 2 -0.003886 0.020789 -0.001171 -0.005329 -0.000677 -0.000938
# 3 -0.003948 -0.001171 0.007389 -0.000858 0.002329 -0.001086
# 4 -0.001001 -0.005329 -0.000858 0.031616 -0.003641 0.007048
# 5 -0.001034 -0.000677 0.002329 -0.003641 0.019662 -0.006148
# 6 -0.003775 -0.000938 -0.001086 0.007048 -0.006148 0.023455
#
#
# Mechanical properties :
#
#
# Convention : Reuss Voigt Hill
#
# Bulk Modulus (GPa) = 49.40426 86.24331 67.82378
# Shear Modulus (GPa) = 36.29985 47.18157 41.74071
#
# Velocity S-wave (km/s) = 3.80251 4.33515 4.07754
# Velocity P-wave (km/s) = 6.24161 7.70784 7.01315
#
# Compressibility (1/GPa) = 0.02024117
#
# Stress axis : x y z
#
# Youngs Moduli (GPa) = 99.27864 48.10136 135.33266
#
# Poissons Ratio (x) = 0.18691 0.53435
# Poissons Ratio (y) = 0.38577 0.15845
# Poissons Ratio (z) = 0.39200 0.05632
#
# Static dielectric constant tensor:
#      x y z
#    x 2.467930 0.106620 0.446780 
#    y 0.106620 2.286170 -0.096060 
#    z 0.446780 -0.096060 2.518900 
# 
# From -- ./inp_files/49233.got.cif
#   From: 2010.05.17/outbox.cif.g08.bks.cpg/sg2_25_cif.got.tgz:49233.got - 2010.06.03 11:33:40.
