data_PCOD9045875
_publ_section_title
;
Structure prediction by ZEFSAII (Michael W. Deem and Ramdas Pophale) SiO2 
 PCOD9045875
Probable space group: P -1
;
_chemical_formula_sum "Si O2"
_cell_formula_units_Z 16
_cell_length_a 8.104367
_cell_length_b 13.986709
_cell_length_c 13.514102
_cell_angle_alpha 97.933656
_cell_angle_beta 69.376445
_cell_angle_gamma 145.847742
_cell_volume 769.775717
_symmetry_space_group_name_H-M "P -1"
_symmetry_group_IT_number 2
_symmetry_cell_setting 'triclinic'
loop_
_space_group_symop_operation_xyz
x,y,z
-x,-y,-z
loop_
_atom_site_type_symbol
_atom_site_label
_atom_site_fract_x
_atom_site_fract_y
_atom_site_fract_z
Si Si1 0.588163 0.899316 0.505145
Si Si2 0.879274 0.511350 0.938517
Si Si3 0.737723 0.748971 0.487154
Si Si4 0.349080 0.423092 0.867488
Si Si5 0.480321 0.100716 0.708956
Si Si6 0.265099 0.168562 0.896775
Si Si7 0.798118 0.592261 0.321353
Si Si8 0.881194 0.260218 0.246947
O O1 0.668830 0.823124 0.471531
O O2 0.535095 0.913115 0.408279
O O3 0.282993 0.775601 0.623796
O O4 0.904063 0.090875 0.518067
O O5 0.604004 0.330150 0.908246
O O6 0.141610 0.672522 0.827434
O O7 0.723345 0.535345 0.023965
O O8 0.000000 0.500000 0.000000
O O9 0.711757 0.657305 0.394422
O O10 0.474092 0.603975 0.606138
O O11 0.194213 0.246728 0.894319
O O12 0.212899 0.406025 0.793352
O O13 0.736253 0.584533 0.797291
O O14 0.309330 0.119002 0.786775
O O15 0.849996 0.272987 0.692280
O O16 0.299478 0.923235 0.764824
O O17 0.000000 0.000000 0.000000
#
# Coordination Sequence:
#
# PCOD9045875 Si02
#       8
#     2   2   2   2   2   2   2   2
#     4  11  24  43  66  93 132 178 214 257 323 393
#     4  11  25  46  68  95 127 171 217 269 324 384
#     4  10  24  42  61  92 136 168 217 257 322 380
#     4  11  24  43  68  92 131 172 214 264 328 382
#     4  12  24  41  67  99 133 169 216 266 322 379
#     4  11  24  44  67  97 128 168 218 269 323 379
#     4  11  24  40  64  98 132 165 216 270 318 376
#     4  11  24  43  67  95 130 175 219 259 323 391
#
# _framework density 20.785273
#
# number of rings (size 3 to 8) (size 9 to 14) (size 15 to 20)
#    0.000    1.000    1.250    5.625    8.750    1.500 
#    2.250    2.500    0.000    0.000    0.000    0.000 
#    0.000    0.000    0.000    0.000    0.000    0.000 
#
# Total GULP energy -89538.240333 kJ/mol
# GULP energy per Si atom -5596.140021 kJ/mol
# Density = 2.073797 g / cm^3
# Si number density = 20.785273 Si / 1000 Ang^3
#
#
#
# Elastic Constant Matrix: (Units=GPa)
#
#
# Indices 1 2 3 4 5 6 
#
# 1 72.4524 15.6793 25.0515 -10.0650 9.5449 -5.6177
# 2 15.6793 67.8705 41.4131 -23.1909 9.4682 -12.7544
# 3 25.0515 41.4131 119.5297 -10.0162 7.9280 -4.4538
# 4 -10.0650 -23.1909 -10.0162 36.5667 -2.6978 0.4212
# 5 9.5449 9.4682 7.9280 -2.6978 42.1326 3.4285
# 6 -5.6177 -12.7544 -4.4538 0.4212 3.4285 27.7376
#
#
#
# Elastic Compliance Matrix: (Units=1/GPa)
#
#
# Indices 1 2 3 4 5 6 
#
# 1 0.015864 0.000298 -0.002802 0.003516 -0.003172 0.003239
# 2 0.000298 0.027131 -0.007474 0.014755 -0.004765 0.011701
# 3 -0.002802 -0.007474 0.011246 -0.002389 0.000223 -0.002190
# 4 0.003516 0.014755 -0.002389 0.036803 -0.001858 0.006784
# 5 -0.003172 -0.004765 0.000223 -0.001858 0.025848 -0.005964
# 6 0.003239 0.011701 -0.002190 0.006784 -0.005964 0.042371
#
#
# Mechanical properties :
#
#
# Convention : Reuss Voigt Hill
#
# Bulk Modulus (GPa) = 29.16790 47.12670 38.14730
# Shear Modulus (GPa) = 26.22624 33.13463 29.68044
#
# Velocity S-wave (km/s) = 3.55599 3.99700 3.78293
# Velocity P-wave (km/s) = 5.56090 6.63503 6.12157
#
# Compressibility (1/GPa) = 0.03428427
#
# Stress axis : x y z
#
# Youngs Moduli (GPa) = 63.03516 36.85847 88.91839
#
# Poissons Ratio (x) = -0.01097 0.24917
# Poissons Ratio (y) = -0.01876 0.66456
# Poissons Ratio (z) = 0.17664 0.27547
#
# Static dielectric constant tensor:
#      x y z
#    x 1.755180 -0.018360 -0.012610 
#    y -0.018360 1.707270 -0.002080 
#    z -0.012610 -0.002080 1.727500 
# 
# From -- ./inp_files/208803.got.cif
#   From: 2010.05.17/outbox.cif.g08.bks.cpg/sg2_105_cif.got.tgz:208803.got - 2010.06.03 11:33:40.
