data_PCOD9045065
_publ_section_title
;
Structure prediction by ZEFSAII (Michael W. Deem and Ramdas Pophale) SiO2 
 PCOD9045065
Probable space group: P -1
;
_chemical_formula_sum "Si O2"
_cell_formula_units_Z 12
_cell_length_a 5.039970
_cell_length_b 8.926207
_cell_length_c 14.248448
_cell_angle_alpha 113.539170
_cell_angle_beta 55.573758
_cell_angle_gamma 86.199719
_cell_volume 447.127529
_symmetry_space_group_name_H-M "P -1"
_symmetry_group_IT_number 2
_symmetry_cell_setting 'triclinic'
loop_
_space_group_symop_operation_xyz
x,y,z
-x,-y,-z
loop_
_atom_site_type_symbol
_atom_site_label
_atom_site_fract_x
_atom_site_fract_y
_atom_site_fract_z
Si Si1 0.415360 0.518480 0.725212
Si Si2 0.913886 0.002025 0.751462
Si Si3 0.304847 0.570604 0.962267
Si Si4 0.329524 0.243449 0.390572
Si Si5 0.786084 0.796740 0.386343
Si Si6 0.132662 0.152493 0.995658
O O1 0.540301 0.515512 0.807783
O O2 0.620235 0.589232 0.626565
O O3 0.355379 0.341138 0.668416
O O4 0.039553 0.685458 0.856555
O O5 0.932351 0.159300 0.720468
O O6 0.947533 0.226656 0.951415
O O7 0.277392 0.900082 0.706081
O O8 0.868329 0.846186 0.658053
O O9 0.500000 0.500000 0.000000
O O10 0.456556 0.919391 0.103249
O O11 0.000000 0.500000 0.000000
O O12 0.150242 0.268031 0.534686
O O13 0.500000 0.000000 0.500000
O O14 0.000000 0.000000 0.000000
#
# Coordination Sequence:
#
# PCOD9045065 Si02
#       6
#     2   2   2   2   2   2
#     4  10  24  48  80 119 165 211 269 332 411 481
#     4  11  24  47  77 119 164 213 267 334 404 482
#     4  10  25  46  71 113 157 204 258 323 400 479
#     4  11  24  48  81 116 160 219 268 333 396 481
#     4  10  24  48  80 117 163 216 276 330 398 478
#     4  10  23  48  79 117 165 208 269 329 417 481
#
# _framework density 26.837979000000001
#
# number of rings (size 3 to 8) (size 9 to 14) (size 15 to 20)
#    1.000    0.667    1.667    1.000    0.000    9.333 
#    0.000   14.167    0.000    0.000    0.000    1.167 
#    0.000    0.000    0.000    0.000    0.000    0.000 
#
# Total GULP energy -67204.334556 kJ/mol
# GULP energy per Si atom -5600.361213 kJ/mol
# Density = 2.677689 g / cm^3
# Si number density = 26.837979 Si / 1000 Ang^3
#
#
#
# Elastic Constant Matrix: (Units=GPa)
#
#
# Indices 1 2 3 4 5 6 
#
# 1 114.3085 54.0544 28.2970 0.0164 1.6765 6.8582
# 2 54.0544 257.7019 44.8372 -8.9318 6.1263 12.3705
# 3 28.2970 44.8372 112.7797 0.2795 -18.6767 15.0649
# 4 0.0164 -8.9318 0.2795 65.2202 6.0384 3.6971
# 5 1.6765 6.1263 -18.6767 6.0384 53.1250 -7.0413
# 6 6.8582 12.3705 15.0649 3.6971 -7.0413 50.9819
#
#
#
# Elastic Compliance Matrix: (Units=1/GPa)
#
#
# Indices 1 2 3 4 5 6 
#
# 1 0.010088 -0.001745 -0.001912 -0.000129 -0.000838 -0.000475
# 2 -0.001745 0.004594 -0.001498 0.000782 -0.001177 -0.000657
# 3 -0.001912 -0.001498 0.010848 -0.000492 0.003835 -0.002020
# 4 -0.000129 0.000782 -0.000492 0.015733 -0.002243 -0.001478
# 5 -0.000838 -0.001177 0.003835 -0.002243 0.020896 0.002314
# 6 -0.000475 -0.000657 -0.002020 -0.001478 0.002314 0.020862
#
#
# Mechanical properties :
#
#
# Convention : Reuss Voigt Hill
#
# Bulk Modulus (GPa) = 65.70437 82.12972 73.91705
# Shear Modulus (GPa) = 50.81156 57.70551 54.25853
#
# Velocity S-wave (km/s) = 4.35589 4.64199 4.50122
# Velocity P-wave (km/s) = 7.05928 7.70709 7.39029
#
# Compressibility (1/GPa) = 0.01521969
#
# Stress axis : x y z
#
# Youngs Moduli (GPa) = 99.13164 217.69178 92.18184
#
# Poissons Ratio (x) = 0.37987 0.17628
# Poissons Ratio (y) = 0.17298 0.13805
# Poissons Ratio (z) = 0.18957 0.32602
#
# Static dielectric constant tensor:
#      x y z
#    x 2.143430 -0.087420 -0.041650 
#    y -0.087420 1.992780 0.004690 
#    z -0.041650 0.004690 2.245040 
# 
# From -- ./inp_files/480833.got.cif
#   From: 2010.05.17/outbox.cif.g08.bks.cpg/sg2_241_cif.got.tgz:480833.got - 2010.06.03 11:33:40.
