data_PCOD9045285
_publ_section_title
;
Structure prediction by ZEFSAII (Michael W. Deem and Ramdas Pophale) SiO2 
 PCOD9045285
Probable space group: P -1
;
_chemical_formula_sum "Si O2"
_cell_formula_units_Z 11
_cell_length_a 12.808593
_cell_length_b 7.327142
_cell_length_c 11.852902
_cell_angle_alpha 103.719819
_cell_angle_beta 37.292983
_cell_angle_gamma 125.867278
_cell_volume 483.177153
_symmetry_space_group_name_H-M "P -1"
_symmetry_group_IT_number 2
_symmetry_cell_setting 'triclinic'
loop_
_space_group_symop_operation_xyz
x,y,z
-x,-y,-z
loop_
_atom_site_type_symbol
_atom_site_label
_atom_site_fract_x
_atom_site_fract_y
_atom_site_fract_z
Si Si1 0.226457 0.686845 0.754005
Si Si2 0.073101 0.440341 0.609453
Si Si3 0.708394 0.406463 0.787589
Si Si4 0.186143 0.106974 0.175512
Si Si5 0.748627 0.871603 0.145090
Si Si6 0.500000 0.500000 0.500000
O O1 0.138275 0.600492 0.688777
O O2 0.396235 0.638407 0.626685
O O3 0.313672 0.960028 0.744924
O O4 0.000000 0.500000 0.000000
O O5 0.263662 0.605917 0.371897
O O6 0.837759 0.347074 0.741148
O O7 0.015027 0.183506 0.656682
O O8 0.847269 0.703218 0.732687
O O9 0.439141 0.234003 0.025095
O O10 0.215239 0.121352 0.017904
O O11 0.567639 0.604735 0.324978
O O12 0.000000 0.000000 0.000000
#
# Coordination Sequence:
#
# PCOD9045285 Si02
#       6
#     2   2   2   2   2   1
#     4  12  24  45  70 101 136 175 223 277 340 400
#     4  11  22  44  64  92 132 168 215 274 325 390
#     4  10  24  39  64  95 124 173 220 263 324 388
#     4  11  22  41  65  93 129 169 220 268 324 395
#     4  12  24  43  69 101 138 178 221 279 340 399
#     4  12  26  42  66 100 136 180 218 268 342 394
#
# _framework density 22.765975999999998
#
# number of rings (size 3 to 8) (size 9 to 14) (size 15 to 20)
#    0.000    0.727    3.636    3.818    0.000    0.000 
#    0.000    9.091    0.000    0.000    0.000    0.000 
#    0.000    0.000    0.000    0.000    0.000    0.000 
#
# Total GULP energy -61299.695911 kJ/mol
# GULP energy per Si atom -5572.699628 kJ/mol
# Density = 2.271416 g / cm^3
# Si number density = 22.765976 Si / 1000 Ang^3
#
#
#
# Elastic Constant Matrix: (Units=GPa)
#
#
# Indices 1 2 3 4 5 6 
#
# 1 94.4689 53.8189 25.4101 6.1344 24.7812 -11.7839
# 2 53.8189 77.4858 33.0866 19.0924 23.6532 -6.5264
# 3 25.4101 33.0866 46.4692 6.4120 4.1391 -14.5361
# 4 6.1344 19.0924 6.4120 43.8275 -1.4832 2.1351
# 5 24.7812 23.6532 4.1391 -1.4832 46.7789 6.1829
# 6 -11.7839 -6.5264 -14.5361 2.1351 6.1829 42.1120
#
#
#
# Elastic Compliance Matrix: (Units=1/GPa)
#
#
# Indices 1 2 3 4 5 6 
#
# 1 0.018963 -0.011705 -0.000760 0.002220 -0.004488 0.003776
# 2 -0.011705 0.032808 -0.015147 -0.010674 -0.009184 -0.001530
# 3 -0.000760 -0.015147 0.034982 0.001284 0.003832 0.008887
# 4 0.002220 -0.010674 0.001284 0.027283 0.005337 -0.002757
# 5 -0.004488 -0.009184 0.003832 0.005337 0.029007 -0.005886
# 6 0.003776 -0.001530 0.008887 -0.002757 -0.005886 0.028637
#
#
# Mechanical properties :
#
#
# Convention : Reuss Voigt Hill
#
# Bulk Modulus (GPa) = 31.71784 49.22835 40.47309
# Shear Modulus (GPa) = 21.06038 33.61758 27.33898
#
# Velocity S-wave (km/s) = 3.04481 3.84690 3.46912
# Velocity P-wave (km/s) = 5.13065 6.43445 5.81918
#
# Compressibility (1/GPa) = 0.03152800
#
# Stress axis : x y z
#
# Youngs Moduli (GPa) = 52.73545 30.48038 28.58653
#
# Poissons Ratio (x) = 0.35677 0.02173
# Poissons Ratio (y) = 0.61727 0.43299
# Poissons Ratio (z) = 0.04010 0.46168
#
# Static dielectric constant tensor:
#      x y z
#    x 1.849330 0.028440 -0.021510 
#    y 0.028440 1.853240 -0.048290 
#    z -0.021510 -0.048290 1.903660 
# 
# From -- ./inp_files/63585.got.cif
#   From: 2010.05.17/outbox.cif.g08.bks.cpg/sg2_32_cif.got.tgz:63585.got - 2010.06.03 11:33:40.
