data_PCOD9045661
_publ_section_title
;
Structure prediction by ZEFSAII (Michael W. Deem and Ramdas Pophale) SiO2 
 PCOD9045661
Probable space group: P -1
;
_chemical_formula_sum "Si O2"
_cell_formula_units_Z 16
_cell_length_a 9.104907
_cell_length_b 8.568486
_cell_length_c 16.260383
_cell_angle_alpha 53.050958
_cell_angle_beta 100.162708
_cell_angle_gamma 63.569838
_cell_volume 711.980686
_symmetry_space_group_name_H-M "P -1"
_symmetry_group_IT_number 2
_symmetry_cell_setting 'triclinic'
loop_
_space_group_symop_operation_xyz
x,y,z
-x,-y,-z
loop_
_atom_site_type_symbol
_atom_site_label
_atom_site_fract_x
_atom_site_fract_y
_atom_site_fract_z
Si Si1 0.634117 0.862981 0.972324
Si Si2 0.630909 0.249127 0.738620
Si Si3 0.734207 0.588923 0.441539
Si Si4 0.959865 0.501972 0.776407
Si Si5 0.462656 0.305153 0.292806
Si Si6 0.020904 0.825210 0.257952
Si Si7 0.059307 0.169595 0.467327
Si Si8 0.588494 0.148601 0.186268
O O1 0.612116 0.081145 0.848900
O O2 0.546487 0.775627 0.931388
O O3 0.877060 0.624889 0.094298
O O4 0.500000 0.000000 0.000000
O O5 0.456550 0.378753 0.610824
O O6 0.588726 0.475061 0.719313
O O7 0.856959 0.086756 0.774294
O O8 0.825976 0.452175 0.583111
O O9 0.652597 0.880152 0.319189
O O10 0.920546 0.374539 0.463821
O O11 0.719350 0.688901 0.718714
O O12 0.019392 0.258896 0.803043
O O13 0.990059 0.659561 0.671517
O O14 0.696168 0.030474 0.427270
O O15 0.470747 0.365263 0.179599
O O16 0.804211 0.049604 0.212528
O O17 0.000000 0.000000 0.500000
#
# Coordination Sequence:
#
# PCOD9045661 Si02
#       8
#     2   2   2   2   2   2   2   2
#     4  11  23  46  72  85 125 178 221 249 311 394
#     4  10  24  41  65  98 128 166 212 263 318 373
#     4  11  20  39  65  94 134 168 213 252 324 386
#     4  11  24  43  66  91 128 176 211 258 322 376
#     4  11  24  40  65  98 134 157 210 269 325 365
#     4  11  20  37  65  96 126 162 215 262 309 375
#     4  12  22  39  65  98 130 166 207 263 326 380
#     4  11  22  41  67  95 124 176 212 258 317 382
#
# _framework density 22.472518999999998
#
# number of rings (size 3 to 8) (size 9 to 14) (size 15 to 20)
#    0.000    1.000    5.000    2.625    0.000    3.500 
#    4.500    0.625    2.750    0.000    0.000    0.000 
#    0.000    0.000    0.000    0.000    0.000    0.000 
#
# Total GULP energy -89538.295229 kJ/mol
# GULP energy per Si atom -5596.143452 kJ/mol
# Density = 2.242137 g / cm^3
# Si number density = 22.472519 Si / 1000 Ang^3
#
#
#
# Elastic Constant Matrix: (Units=GPa)
#
#
# Indices 1 2 3 4 5 6 
#
# 1 110.0545 5.7425 11.0710 -2.2792 12.3649 -14.4142
# 2 5.7425 39.0795 -10.3592 11.1270 9.5861 -5.5681
# 3 11.0710 -10.3592 71.7664 17.2486 23.5287 9.4021
# 4 -2.2792 11.1270 17.2486 24.5889 2.4189 0.3328
# 5 12.3649 9.5861 23.5287 2.4189 36.4582 8.3220
# 6 -14.4142 -5.5681 9.4021 0.3328 8.3220 24.0928
#
#
#
# Elastic Compliance Matrix: (Units=1/GPa)
#
#
# Indices 1 2 3 4 5 6 
#
# 1 0.011069 -0.001073 -0.002529 0.003568 -0.004066 0.008716
# 2 -0.001073 0.052808 0.025422 -0.039028 -0.030219 0.012618
# 3 -0.002529 0.025422 0.034476 -0.033376 -0.025937 0.000328
# 4 0.003568 -0.039028 -0.033376 0.079546 0.026231 -0.004020
# 5 -0.004066 -0.030219 -0.025937 0.026231 0.056096 -0.019034
# 6 0.008716 0.012618 0.000328 -0.004020 -0.019034 0.056139
#
#
# Mechanical properties :
#
#
# Convention : Reuss Voigt Hill
#
# Bulk Modulus (GPa) = 7.04255 25.97876 16.51066
# Shear Modulus (GPa) = 17.01691 31.32439 24.17065
#
# Velocity S-wave (km/s) = 2.75477 3.73754 3.28314
# Velocity P-wave (km/s) = 3.64129 5.49645 4.66208
#
# Compressibility (1/GPa) = 0.14199394
#
# Stress axis : x y z
#
# Youngs Moduli (GPa) = 90.34111 18.93645 29.00584
#
# Poissons Ratio (x) = 0.02032 0.07335
# Poissons Ratio (y) = 0.09696 -0.73740
# Poissons Ratio (z) = 0.22845 -0.48141
#
# Static dielectric constant tensor:
#      x y z
#    x 1.832420 0.005970 0.003950 
#    y 0.005970 1.845060 0.004460 
#    z 0.003950 0.004460 1.837600 
# 
# From -- ./inp_files/190411.got.cif
#   From: 2010.05.17/outbox.cif.g08.bks.cpg/sg2_96_cif.got.tgz:190411.got - 2010.06.03 11:33:40.
