data_PCOD9045575
_publ_section_title
;
Structure prediction by ZEFSAII (Michael W. Deem and Ramdas Pophale) SiO2 
 PCOD9045575
Probable space group: P -1
;
_chemical_formula_sum "Si O2"
_cell_formula_units_Z 15
_cell_length_a 15.197502
_cell_length_b 5.093799
_cell_length_c 15.671540
_cell_angle_alpha 103.099790
_cell_angle_beta 34.150171
_cell_angle_gamma 112.900408
_cell_volume 616.593883
_symmetry_space_group_name_H-M "P -1"
_symmetry_group_IT_number 2
_symmetry_cell_setting 'triclinic'
loop_
_space_group_symop_operation_xyz
x,y,z
-x,-y,-z
loop_
_atom_site_type_symbol
_atom_site_label
_atom_site_fract_x
_atom_site_fract_y
_atom_site_fract_z
Si Si1 0.500000 0.000000 0.000000
Si Si2 0.661278 0.539801 0.770975
Si Si3 0.174514 0.417845 0.538560
Si Si4 0.351674 0.918717 0.542160
Si Si5 0.191197 0.105722 0.827206
Si Si6 0.065009 0.239701 0.289599
Si Si7 0.673513 0.004033 0.994427
Si Si8 0.629929 0.226565 0.225993
O O1 0.577870 0.774565 0.870017
O O2 0.691073 0.174191 0.905564
O O3 0.704513 0.515051 0.636346
O O4 0.828738 0.631723 0.700208
O O5 0.517761 0.231217 0.895190
O O6 0.280707 0.584717 0.547555
O O7 0.039086 0.572377 0.646518
O O8 0.076817 0.077226 0.599847
O O9 0.500000 0.000000 0.500000
O O10 0.212087 0.008497 0.707463
O O11 0.437265 0.096011 0.402287
O O12 0.284534 0.446120 0.788977
O O13 0.279619 0.955927 0.809592
O O14 0.000000 0.000000 0.000000
O O15 0.196159 0.157347 0.116824
O O16 0.657484 0.175712 0.101809
#
# Coordination Sequence:
#
# PCOD9045575 Si02
#       8
#     1   2   2   2   2   2   2   2
#     4  10  24  40  74  98 144 182 246 292 346 414
#     4  11  25  47  72 103 143 199 241 294 358 439
#     4  12  27  47  73 106 146 190 241 302 366 429
#     4  10  25  49  74 104 146 190 245 296 363 438
#     4  11  26  45  74 105 145 179 237 306 374 417
#     4  11  28  43  71 105 149 185 240 305 360 426
#     4  11  26  44  74 102 148 193 252 287 367 436
#     4  11  25  46  73 104 137 194 238 295 352 453
#
# _framework density 24.327195
#
# number of rings (size 3 to 8) (size 9 to 14) (size 15 to 20)
#    0.000    1.067    1.333    3.200   14.933    4.267 
#    0.000    0.000    0.000    0.000    0.000    0.000 
#    0.000    0.000    0.000    0.000    0.000    0.000 
#
# Total GULP energy -83844.342646 kJ/mol
# GULP energy per Si atom -5589.622843 kJ/mol
# Density = 2.427182 g / cm^3
# Si number density = 24.327195 Si / 1000 Ang^3
#
#
#
# Elastic Constant Matrix: (Units=GPa)
#
#
# Indices 1 2 3 4 5 6 
#
# 1 74.2051 42.3462 14.1416 13.2672 -7.6138 0.1406
# 2 42.3462 122.0572 31.1792 0.1568 6.4650 8.9267
# 3 14.1416 31.1792 131.9063 12.0621 5.3300 16.5835
# 4 13.2672 0.1568 12.0621 49.2590 8.1337 3.1175
# 5 -7.6138 6.4650 5.3300 8.1337 42.5940 16.7719
# 6 0.1406 8.9267 16.5835 3.1175 16.7719 51.5374
#
#
#
# Elastic Compliance Matrix: (Units=1/GPa)
#
#
# Indices 1 2 3 4 5 6 
#
# 1 0.019080 -0.006876 -0.000057 -0.006030 0.005751 -0.000349
# 2 -0.006876 0.011283 -0.002007 0.002841 -0.003048 -0.000470
# 3 -0.000057 -0.002007 0.008532 -0.002007 0.000581 -0.002465
# 4 -0.006030 0.002841 -0.002007 0.023353 -0.005997 0.000709
# 5 0.005751 -0.003048 0.000581 -0.005997 0.029557 -0.008931
# 6 -0.000349 -0.000470 -0.002465 0.000709 -0.008931 0.023142
#
#
# Mechanical properties :
#
#
# Convention : Reuss Voigt Hill
#
# Bulk Modulus (GPa) = 47.58874 55.94473 51.76673
# Shear Modulus (GPa) = 35.75673 44.71151 40.23412
#
# Velocity S-wave (km/s) = 3.83799 4.29175 4.07120
# Velocity P-wave (km/s) = 6.26455 6.89968 6.58977
#
# Compressibility (1/GPa) = 0.02101338
#
# Stress axis : x y z
#
# Youngs Moduli (GPa) = 52.41089 88.62529 117.20883
#
# Poissons Ratio (x) = 0.60941 0.00670
# Poissons Ratio (y) = 0.36039 0.23529
# Poissons Ratio (z) = 0.00300 0.17791
#
# Static dielectric constant tensor:
#      x y z
#    x 2.496070 -0.286460 0.228360 
#    y -0.286460 2.078980 -0.182230 
#    z 0.228360 -0.182230 2.087470 
# 
# From -- ./inp_files/134300.got.cif
#   From: 2010.05.17/outbox.cif.g08.bks.cpg/sg2_68_cif.got.tgz:134300.got - 2010.06.03 11:33:40.
