data_PCOD9045403
_publ_section_title
;
Structure prediction by ZEFSAII (Michael W. Deem and Ramdas Pophale) SiO2 
 PCOD9045403
Probable space group: P -1
;
_chemical_formula_sum "Si O2"
_cell_formula_units_Z 16
_cell_length_a 6.207654
_cell_length_b 11.142593
_cell_length_c 13.035166
_cell_angle_alpha 56.495549
_cell_angle_beta 98.447007
_cell_angle_gamma 96.786122
_cell_volume 742.913820
_symmetry_space_group_name_H-M "P -1"
_symmetry_group_IT_number 2
_symmetry_cell_setting 'triclinic'
loop_
_space_group_symop_operation_xyz
x,y,z
-x,-y,-z
loop_
_atom_site_type_symbol
_atom_site_label
_atom_site_fract_x
_atom_site_fract_y
_atom_site_fract_z
Si Si1 0.491744 0.817309 0.971752
Si Si2 0.227397 0.156479 0.227799
Si Si3 0.179786 0.067842 0.903045
Si Si4 0.665121 0.461422 0.442701
Si Si5 0.157312 0.635770 0.918987
Si Si6 0.409492 0.669052 0.712832
Si Si7 0.894700 0.105979 0.520747
Si Si8 0.020366 0.267629 0.625541
O O1 0.638901 0.847458 0.866850
O O2 0.340231 0.676954 0.998155
O O3 0.330903 0.945820 0.925239
O O4 0.658951 0.819617 0.077171
O O5 0.362294 0.265168 0.261382
O O6 0.993077 0.225393 0.165194
O O7 0.213460 0.999714 0.351574
O O8 0.053589 0.146401 0.768112
O O9 0.000000 0.000000 0.000000
O O10 0.500000 0.500000 0.500000
O O11 0.574976 0.434550 0.335004
O O12 0.842583 0.593145 0.392180
O O13 0.780431 0.320369 0.559790
O O14 0.277393 0.610021 0.831256
O O15 0.000000 0.500000 0.000000
O O16 0.270266 0.798838 0.597434
O O17 0.076784 0.205965 0.546167
O O18 0.000000 0.000000 0.500000
#
# Coordination Sequence:
#
# PCOD9045403 Si02
#       8
#     2   2   2   2   2   2   2   2
#     4  10  24  41  63  99 128 170 223 267 331 393
#     4  11  23  41  65  94 132 164 212 278 326 390
#     4  11  23  42  68  95 131 171 218 273 330 384
#     4  10  24  43  63  91 132 171 215 264 317 391
#     4  11  24  43  63  91 133 174 221 273 322 386
#     4  10  24  40  64  99 123 174 221 261 337 391
#     4  11  21  39  68  96 127 161 206 271 334 389
#     4  10  24  41  63  94 129 166 214 260 321 391
#
# _framework density 21.536816999999999
#
# number of rings (size 3 to 8) (size 9 to 14) (size 15 to 20)
#    0.000    1.500    1.250    2.625    3.500   10.000 
#    0.000    0.000    0.000    0.000    0.000    0.000 
#    0.000    0.000    0.000    0.000    0.000    0.000 
#
# Total GULP energy -89407.951055 kJ/mol
# GULP energy per Si atom -5587.996941 kJ/mol
# Density = 2.148780 g / cm^3
# Si number density = 21.536817 Si / 1000 Ang^3
#
#
#
# Elastic Constant Matrix: (Units=GPa)
#
#
# Indices 1 2 3 4 5 6 
#
# 1 58.8682 30.9548 28.1915 23.7354 -0.0792 4.0959
# 2 30.9548 118.0969 34.8347 44.0324 -0.2510 8.0177
# 3 28.1915 34.8347 76.6434 20.0087 12.0275 5.9842
# 4 23.7354 44.0324 20.0087 48.0255 4.6824 1.7526
# 5 -0.0792 -0.2510 12.0275 4.6824 25.1358 8.2750
# 6 4.0959 8.0177 5.9842 1.7526 8.2750 42.2974
#
#
#
# Elastic Compliance Matrix: (Units=1/GPa)
#
#
# Indices 1 2 3 4 5 6 
#
# 1 0.024558 -0.000910 -0.007056 -0.008851 0.005740 -0.001963
# 2 -0.000910 0.014262 -0.003725 -0.011459 0.004904 -0.002573
# 3 -0.007056 -0.003725 0.018745 -0.000030 -0.009201 0.000538
# 4 -0.008851 -0.011459 -0.000030 0.036375 -0.007916 0.003075
# 5 0.005740 0.004904 -0.009201 -0.007916 0.048825 -0.009408
# 6 -0.001963 -0.002573 0.000538 0.003075 -0.009408 0.025957
#
#
# Mechanical properties :
#
#
# Convention : Reuss Voigt Hill
#
# Bulk Modulus (GPa) = 29.25351 49.06339 39.15845
# Shear Modulus (GPa) = 24.57008 33.73356 29.15182
#
# Velocity S-wave (km/s) = 3.38130 3.96197 3.68310
# Velocity P-wave (km/s) = 5.37185 6.61515 6.02565
#
# Compressibility (1/GPa) = 0.03418393
#
# Stress axis : x y z
#
# Youngs Moduli (GPa) = 40.72037 70.11402 53.34634
#
# Poissons Ratio (x) = 0.06381 0.37642
# Poissons Ratio (y) = 0.03706 0.19870
# Poissons Ratio (z) = 0.28733 0.26115
#
# Static dielectric constant tensor:
#      x y z
#    x 1.775530 -0.000490 0.006310 
#    y -0.000490 1.856790 0.003250 
#    z 0.006310 0.003250 1.755710 
# 
# From -- ./inp_files/83233.got.cif
#   From: 2010.05.17/outbox.cif.g08.bks.cpg/sg2_42_cif.got.tgz:83233.got - 2010.06.03 11:33:40.
