data_PCOD9045932
_publ_section_title
;
Structure prediction by ZEFSAII (Michael W. Deem and Ramdas Pophale) SiO2 
 PCOD9045932
Probable space group: P -1
;
_chemical_formula_sum "Si O2"
_cell_formula_units_Z 14
_cell_length_a 9.829721
_cell_length_b 16.911088
_cell_length_c 11.231869
_cell_angle_alpha 122.174296
_cell_angle_beta 79.126318
_cell_angle_gamma 50.923134
_cell_volume 739.472765
_symmetry_space_group_name_H-M "P -1"
_symmetry_group_IT_number 2
_symmetry_cell_setting 'triclinic'
loop_
_space_group_symop_operation_xyz
x,y,z
-x,-y,-z
loop_
_atom_site_type_symbol
_atom_site_label
_atom_site_fract_x
_atom_site_fract_y
_atom_site_fract_z
Si Si1 0.205686 0.953217 0.994231
Si Si2 0.221032 0.771368 0.531363
Si Si3 0.268166 0.123300 0.740454
Si Si4 0.670726 0.178672 0.876104
Si Si5 0.497813 0.194791 0.413293
Si Si6 0.328495 0.607478 0.993152
Si Si7 0.112019 0.420073 0.053902
O O1 0.420486 0.862476 0.785401
O O2 0.376660 0.810726 0.965814
O O3 0.000000 0.000000 0.000000
O O4 0.960342 0.159671 0.269495
O O5 0.361656 0.789732 0.552588
O O6 0.465559 0.557887 0.274685
O O7 0.963411 0.944532 0.616799
O O8 0.500000 0.000000 0.500000
O O9 0.362301 0.978539 0.686293
O O10 0.222298 0.248416 0.915078
O O11 0.959152 0.282439 0.862842
O O12 0.744570 0.242520 0.900084
O O13 0.391907 0.316944 0.955911
O O14 0.160438 0.397855 0.669252
O O15 0.500000 0.500000 0.000000
O O16 0.000000 0.500000 0.000000
#
# Coordination Sequence:
#
# PCOD9045932 Si02
#       7
#     2   2   2   2   2   2   2
#     4   8  18  43  66  88 126 163 209 274 302 363
#     4   9  21  41  63  92 125 159 214 264 307 367
#     4  12  25  40  61  93 127 168 206 256 321 374
#     4  10  24  42  64  93 127 163 214 263 311 367
#     4  11  21  43  66  88 130 167 211 257 319 374
#     4  12  24  38  66  94 121 171 213 252 318 380
#     4  12  25  41  62  94 133 170 204 260 321 375
#
# _framework density 18.932407000000001
#
# number of rings (size 3 to 8) (size 9 to 14) (size 15 to 20)
#    0.857    0.571    4.286    0.857    2.000    1.143 
#    2.571    2.857    0.000    0.000    0.000    0.000 
#    0.000    0.000    0.000    0.000    0.000    0.000 
#
# Total GULP energy -78005.482734 kJ/mol
# GULP energy per Si atom -5571.820195 kJ/mol
# Density = 1.888932 g / cm^3
# Si number density = 18.932407 Si / 1000 Ang^3
#
#
#
# Elastic Constant Matrix: (Units=GPa)
#
#
# Indices 1 2 3 4 5 6 
#
# 1 55.7156 -5.1361 17.9564 2.0809 -5.8250 -5.6611
# 2 -5.1361 41.5983 -5.2408 -10.4509 -1.5298 -6.4388
# 3 17.9564 -5.2408 107.9181 -0.3927 -18.5633 -8.5277
# 4 2.0809 -10.4509 -0.3927 30.3449 3.1044 -2.8823
# 5 -5.8250 -1.5298 -18.5633 3.1044 27.2228 5.9413
# 6 -5.6611 -6.4388 -8.5277 -2.8823 5.9413 26.1941
#
#
#
# Elastic Compliance Matrix: (Units=1/GPa)
#
#
# Indices 1 2 3 4 5 6 
#
# 1 0.019579 0.002647 -0.002525 -0.000312 0.001866 0.003603
# 2 0.002647 0.028699 0.001751 0.010599 0.000128 0.009334
# 3 -0.002525 0.001751 0.011072 0.000436 0.006614 0.002037
# 4 -0.000312 0.010599 0.000436 0.037934 -0.005255 0.008046
# 5 0.001866 0.000128 0.006614 -0.005255 0.043988 -0.007968
# 6 0.003603 0.009334 0.002037 0.008046 -0.007968 0.044605
#
#
# Mechanical properties :
#
#
# Convention : Reuss Voigt Hill
#
# Bulk Modulus (GPa) = 15.84858 24.48790 20.16824
# Shear Modulus (GPa) = 24.61092 29.92920 27.27006
#
# Velocity S-wave (km/s) = 3.60937 3.98030 3.79937
# Velocity P-wave (km/s) = 5.07537 5.83833 5.47017
#
# Compressibility (1/GPa) = 0.06309713
#
# Stress axis : x y z
#
# Youngs Moduli (GPa) = 51.07574 34.84422 90.32117
#
# Poissons Ratio (x) = -0.09224 0.22803
# Poissons Ratio (y) = -0.13520 -0.15818
# Poissons Ratio (z) = 0.12895 -0.06102
#
# Static dielectric constant tensor:
#      x y z
#    x 1.669220 -0.017170 0.015800 
#    y -0.017170 1.664010 0.006570 
#    z 0.015800 0.006570 1.668030 
# 
# From -- ./inp_files/399417.got.cif
#   From: 2010.05.17/outbox.cif.g08.bks.cpg/sg2_200_cif.got.tgz:399417.got - 2010.06.03 11:33:40.
