data_PCOD9045780
_publ_section_title
;
Structure prediction by ZEFSAII (Michael W. Deem and Ramdas Pophale) SiO2 
 PCOD9045780
Probable space group: P -1
;
_chemical_formula_sum "Si O2"
_cell_formula_units_Z 10
_cell_length_a 16.617966
_cell_length_b 4.930571
_cell_length_c 4.903937
_cell_angle_alpha 72.092362
_cell_angle_beta 78.286420
_cell_angle_gamma 84.631096
_cell_volume 374.171410
_symmetry_space_group_name_H-M "P -1"
_symmetry_group_IT_number 2
_symmetry_cell_setting 'triclinic'
loop_
_space_group_symop_operation_xyz
x,y,z
-x,-y,-z
loop_
_atom_site_type_symbol
_atom_site_label
_atom_site_fract_x
_atom_site_fract_y
_atom_site_fract_z
Si Si1 0.274380 0.719545 0.849643
Si Si2 0.942668 0.733741 0.611936
Si Si3 0.168203 0.247747 0.820088
Si Si4 0.585725 0.894754 0.342686
Si Si5 0.584861 0.383380 0.835975
O O1 0.231242 0.497700 0.753913
O O2 0.332320 0.548233 0.077056
O O3 0.206489 0.934793 0.965858
O O4 0.337470 0.952029 0.617934
O O5 0.863279 0.774004 0.459113
O O6 0.000000 0.500000 0.500000
O O7 0.908176 0.677448 0.952408
O O8 0.000000 0.000000 0.500000
O O9 0.589364 0.558187 0.497890
O O10 0.500000 0.000000 0.500000
O O11 0.586128 0.041792 0.998087
O O12 0.500000 0.500000 0.000000
#
# Coordination Sequence:
#
# PCOD9045780 Si02
#       5
#     2   2   2   2   2
#     4  10  24  41  69 108 156 190 258 320 373 441
#     4  12  26  50  79 106 147 190 245 300 389 492
#     4  12  26  47  74 118 145 196 243 322 390 447
#     4   8  16  35  65  96 146 204 262 308 371 439
#     4   8  16  35  65  96 146 204 262 308 371 439
#
# _framework density 26.725718000000001
#
# number of rings (size 3 to 8) (size 9 to 14) (size 15 to 20)
#    1.200    0.800    0.000    3.600    2.800    0.000 
#    0.000    2.000    0.000    0.000    0.000    0.000 
#    0.000    0.000    0.000    0.000    0.000    0.000 
#
# Total GULP energy -55927.874636 kJ/mol
# GULP energy per Si atom -5592.787464 kJ/mol
# Density = 2.666489 g / cm^3
# Si number density = 26.725718 Si / 1000 Ang^3
#
#
#
# Elastic Constant Matrix: (Units=GPa)
#
#
# Indices 1 2 3 4 5 6 
#
# 1 138.1842 49.2589 9.0071 13.0269 16.4457 24.4376
# 2 49.2589 205.2003 48.8003 -3.8139 16.3817 -1.8084
# 3 9.0071 48.8003 105.9723 -17.2742 0.7529 -4.1885
# 4 13.0269 -3.8139 -17.2742 58.3891 -7.6672 1.5243
# 5 16.4457 16.3817 0.7529 -7.6672 49.6479 8.4834
# 6 24.4376 -1.8084 -4.1885 1.5243 8.4834 72.1326
#
#
#
# Elastic Compliance Matrix: (Units=1/GPa)
#
#
# Indices 1 2 3 4 5 6 
#
# 1 0.008944 -0.001957 -0.000352 -0.002445 -0.002213 -0.002788
# 2 -0.001957 0.006089 -0.002620 -0.000158 -0.001490 0.000842
# 3 -0.000352 -0.002620 0.011235 0.003383 0.001250 0.000488
# 4 -0.002445 -0.000158 0.003383 0.019149 0.003738 0.000177
# 5 -0.002213 -0.001490 0.001250 0.003738 0.022251 -0.001911
# 6 -0.002788 0.000842 0.000488 0.000177 -0.001911 0.015078
#
#
# Mechanical properties :
#
#
# Convention : Reuss Voigt Hill
#
# Bulk Modulus (GPa) = 60.93594 73.72106 67.32850
# Shear Modulus (GPa) = 50.98199 58.85327 54.91763
#
# Velocity S-wave (km/s) = 4.37235 4.69777 4.53798
# Velocity P-wave (km/s) = 6.95269 7.55444 7.25980
#
# Compressibility (1/GPa) = 0.01641068
#
# Stress axis : x y z
#
# Youngs Moduli (GPa) = 111.80599 164.21895 89.01095
#
# Poissons Ratio (x) = 0.32131 0.03135
# Poissons Ratio (y) = 0.21876 0.23319
# Poissons Ratio (z) = 0.03938 0.43023
#
# Static dielectric constant tensor:
#      x y z
#    x 2.142610 -0.058220 -0.034480 
#    y -0.058220 2.054910 -0.004720 
#    z -0.034480 -0.004720 2.083540 
# 
# From -- ./inp_files/85541.got.cif
#   From: 2010.05.17/outbox.cif.g08.bks.cpg/sg2_43_cif.got.tgz:85541.got - 2010.06.03 11:33:40.
