data_PCOD9045838
_publ_section_title
;
Structure prediction by ZEFSAII (Michael W. Deem and Ramdas Pophale) SiO2 
 PCOD9045838
Probable space group: P -1
;
_chemical_formula_sum "Si O2"
_cell_formula_units_Z 14
_cell_length_a 14.661562
_cell_length_b 11.190732
_cell_length_c 5.100096
_cell_angle_alpha 121.797432
_cell_angle_beta 67.835297
_cell_angle_gamma 119.432881
_cell_volume 611.441856
_symmetry_space_group_name_H-M "P -1"
_symmetry_group_IT_number 2
_symmetry_cell_setting 'triclinic'
loop_
_space_group_symop_operation_xyz
x,y,z
-x,-y,-z
loop_
_atom_site_type_symbol
_atom_site_label
_atom_site_fract_x
_atom_site_fract_y
_atom_site_fract_z
Si Si1 0.306003 0.938441 0.859430
Si Si2 0.939067 0.409654 0.714249
Si Si3 0.580158 0.669486 0.072399
Si Si4 0.713689 0.251664 0.858914
Si Si5 0.984634 0.108995 0.413554
Si Si6 0.517261 0.791756 0.787913
Si Si7 0.190180 0.148766 0.039632
O O1 0.312671 0.870218 0.490215
O O2 0.238799 0.045491 0.034504
O O3 0.254025 0.809466 0.978254
O O4 0.419901 0.038294 0.976686
O O5 0.815992 0.391268 0.817500
O O6 0.938185 0.240587 0.566202
O O7 0.000000 0.500000 0.500000
O O8 0.000000 0.500000 0.000000
O O9 0.540782 0.769754 0.434097
O O10 0.706310 0.723742 0.049353
O O11 0.500000 0.500000 0.000000
O O12 0.568038 0.700859 0.816046
O O13 0.605926 0.272175 0.078801
O O14 0.897614 0.974550 0.186117
O O15 0.000000 0.000000 0.500000
O O16 0.110273 0.208817 0.342545
#
# Coordination Sequence:
#
# PCOD9045838 Si02
#       7
#     2   2   2   2   2   2   2
#     4  11  21  40  69 104 135 174 230 296 345 413
#     4  12  29  48  69 106 151 189 235 300 368 425
#     4  11  25  45  66  99 141 177 232 294 360 422
#     4  12  23  42  69  96 145 181 227 283 355 432
#     4  11  25  46  77 105 136 194 254 294 353 425
#     4  11  24  40  67 102 129 181 227 279 359 425
#     4  10  24  41  73 102 137 181 244 299 344 421
#
# _framework density 22.896699000000002
#
# number of rings (size 3 to 8) (size 9 to 14) (size 15 to 20)
#    0.000    0.857    1.429    5.571    8.000    2.286 
#    0.000    0.000    0.000    0.000    0.000    0.000 
#    0.000    0.000    0.000    0.000    0.000    0.000 
#
# Total GULP energy -78011.286154 kJ/mol
# GULP energy per Si atom -5572.234725 kJ/mol
# Density = 2.284459 g / cm^3
# Si number density = 22.896699 Si / 1000 Ang^3
#
#
#
# Elastic Constant Matrix: (Units=GPa)
#
#
# Indices 1 2 3 4 5 6 
#
# 1 123.1309 32.0163 11.2901 -15.8270 -3.8491 35.4081
# 2 32.0163 121.2034 11.4049 -14.5764 0.5012 37.9271
# 3 11.2901 11.4049 48.6628 -16.6189 7.2031 15.3128
# 4 -15.8270 -14.5764 -16.6189 30.4500 9.6934 -2.7481
# 5 -3.8491 0.5012 7.2031 9.6934 34.0812 -18.0587
# 6 35.4081 37.9271 15.3128 -2.7481 -18.0587 61.1818
#
#
#
# Elastic Compliance Matrix: (Units=1/GPa)
#
#
# Indices 1 2 3 4 5 6 
#
# 1 0.011745 0.001394 0.006067 0.012064 -0.009465 -0.011431
# 2 0.001394 0.013498 0.008124 0.014649 -0.013649 -0.014578
# 3 0.006067 0.008124 0.045428 0.040638 -0.035775 -0.028651
# 4 0.012064 0.014649 0.040638 0.080938 -0.050304 -0.037447
# 5 -0.009465 -0.013649 -0.035775 -0.050304 0.072635 0.042073
# 6 -0.011431 -0.014578 -0.028651 -0.037447 0.042073 0.049905
#
#
# Mechanical properties :
#
#
# Convention : Reuss Voigt Hill
#
# Bulk Modulus (GPa) = 9.81944 44.71331 27.26637
# Shear Modulus (GPa) = 18.05532 41.02832 29.54182
#
# Velocity S-wave (km/s) = 2.81117 4.23766 3.59586
# Velocity P-wave (km/s) = 3.85160 6.59654 5.40135
#
# Compressibility (1/GPa) = 0.10183878
#
# Stress axis : x y z
#
# Youngs Moduli (GPa) = 85.14373 74.08508 22.01296
#
# Poissons Ratio (x) = -0.10326 -0.13354
# Poissons Ratio (y) = -0.11868 -0.17883
# Poissons Ratio (z) = -0.51653 -0.60184
#
# Static dielectric constant tensor:
#      x y z
#    x 1.752000 0.095240 -0.053740 
#    y 0.095240 1.791470 0.139980 
#    z -0.053740 0.139980 1.181930 
# 
# From -- ./inp_files/95594.got.cif
#   From: 2010.05.17/outbox.cif.g08.bks.cpg/sg2_48_cif.got.tgz:95594.got - 2010.06.03 11:33:40.
