data_PCOD9045736
_publ_section_title
;
Structure prediction by ZEFSAII (Michael W. Deem and Ramdas Pophale) SiO2 
 PCOD9045736
Probable space group: P -1
;
_chemical_formula_sum "Si O2"
_cell_formula_units_Z 14
_cell_length_a 11.367087
_cell_length_b 8.374644
_cell_length_c 18.878802
_cell_angle_alpha 33.783471
_cell_angle_beta 134.391773
_cell_angle_gamma 113.370549
_cell_volume 632.198419
_symmetry_space_group_name_H-M "P -1"
_symmetry_group_IT_number 2
_symmetry_cell_setting 'triclinic'
loop_
_space_group_symop_operation_xyz
x,y,z
-x,-y,-z
loop_
_atom_site_type_symbol
_atom_site_label
_atom_site_fract_x
_atom_site_fract_y
_atom_site_fract_z
Si Si1 0.929231 0.558377 0.028497
Si Si2 0.644059 0.982897 0.271857
Si Si3 0.679008 0.781778 0.606279
Si Si4 0.359029 0.766945 0.286698
Si Si5 0.313768 0.807592 0.945172
Si Si6 0.311470 0.719296 0.682449
Si Si7 0.029178 0.484821 0.602629
O O1 0.824205 0.939011 0.864730
O O2 0.779107 0.425389 0.021221
O O3 0.000000 0.500000 0.000000
O O4 0.116844 0.333338 0.233030
O O5 0.465409 0.943348 0.229108
O O6 0.824005 0.638048 0.490544
O O7 0.652206 0.075159 0.160220
O O8 0.669612 0.227740 0.245963
O O9 0.678178 0.451930 0.704650
O O10 0.500000 0.000000 0.500000
O O11 0.667754 0.998911 0.453693
O O12 0.500000 0.500000 0.500000
O O13 0.167144 0.114772 0.813840
O O14 0.508465 0.615176 0.137709
O O15 0.128673 0.696393 0.591287
O O16 0.000000 0.500000 0.500000
#
# Coordination Sequence:
#
# PCOD9045736 Si02
#       7
#     2   2   2   2   2   2   2
#     4  12  27  49  73 102 143 185 240 289 353 422
#     4  11  24  45  70 102 143 178 233 287 352 417
#     4  12  27  45  73 103 141 186 238 289 353 424
#     4  12  25  48  72 104 143 187 235 291 352 418
#     4  11  24  45  71 104 138 183 231 289 349 415
#     4  12  23  46  69 103 137 183 234 288 350 415
#     4  10  24  41  67  99 138 180 225 285 346 413
#
# _framework density 22.144946000000001
#
# number of rings (size 3 to 8) (size 9 to 14) (size 15 to 20)
#    0.000    0.571    2.857    5.143    8.000    0.000 
#    2.571    0.000    0.000    0.000    0.000    0.000 
#    0.000    0.000    0.000    0.000    0.000    0.000 
#
# Total GULP energy -78305.906670 kJ/mol
# GULP energy per Si atom -5593.279048 kJ/mol
# Density = 2.209454 g / cm^3
# Si number density = 22.144946 Si / 1000 Ang^3
#
#
#
# Elastic Constant Matrix: (Units=GPa)
#
#
# Indices 1 2 3 4 5 6 
#
# 1 85.2811 21.7077 32.5873 -7.1887 11.7339 0.7592
# 2 21.7077 80.8416 -9.4983 -13.8223 3.3325 9.1186
# 3 32.5873 -9.4983 108.6626 -15.8937 27.6273 -5.4485
# 4 -7.1887 -13.8223 -15.8937 45.0292 -7.3872 12.3541
# 5 11.7339 3.3325 27.6273 -7.3872 39.5954 -8.3286
# 6 0.7592 9.1186 -5.4485 12.3541 -8.3286 23.4437
#
#
#
# Elastic Compliance Matrix: (Units=1/GPa)
#
#
# Indices 1 2 3 4 5 6 
#
# 1 0.014767 -0.004742 -0.004788 -0.001058 -0.000717 0.000557
# 2 -0.004742 0.017110 0.004636 0.008591 -0.004063 -0.011395
# 3 -0.004788 0.004636 0.013761 0.005291 -0.008480 -0.004251
# 4 -0.001058 0.008591 0.005291 0.031515 -0.002325 -0.019511
# 5 -0.000717 -0.004063 -0.008480 -0.002325 0.034015 0.012943
# 6 0.000557 -0.011395 -0.004251 -0.019511 0.012943 0.060961
#
#
# Mechanical properties :
#
#
# Convention : Reuss Voigt Hill
#
# Bulk Modulus (GPa) = 27.89415 40.48652 34.19034
# Shear Modulus (GPa) = 25.79111 36.94622 31.36867
#
# Velocity S-wave (km/s) = 3.41640 4.08901 3.76775
# Velocity P-wave (km/s) = 5.30904 6.37304 5.86521
#
# Compressibility (1/GPa) = 0.03584981
#
# Stress axis : x y z
#
# Youngs Moduli (GPa) = 67.71935 58.44698 72.67175
#
# Poissons Ratio (x) = 0.27715 0.34792
# Poissons Ratio (y) = 0.32112 -0.33691
# Poissons Ratio (z) = 0.32421 -0.27096
#
# Static dielectric constant tensor:
#      x y z
#    x 1.761910 -0.011880 0.067350 
#    y -0.011880 1.819490 -0.038490 
#    z 0.067350 -0.038490 1.772370 
# 
# From -- ./inp_files/445662.got.cif
#   From: 2010.05.17/outbox.cif.g08.bks.cpg/sg2_223_cif.got.tgz:445662.got - 2010.06.03 11:33:40.
