data_PCOD9045738
_publ_section_title
;
Structure prediction by ZEFSAII (Michael W. Deem and Ramdas Pophale) SiO2 
 PCOD9045738
Probable space group: P -1
;
_chemical_formula_sum "Si O2"
_cell_formula_units_Z 13
_cell_length_a 14.978612
_cell_length_b 9.215073
_cell_length_c 5.157513
_cell_angle_alpha 53.433542
_cell_angle_beta 104.026266
_cell_angle_gamma 125.470945
_cell_volume 459.801201
_symmetry_space_group_name_H-M "P -1"
_symmetry_group_IT_number 2
_symmetry_cell_setting 'triclinic'
loop_
_space_group_symop_operation_xyz
x,y,z
-x,-y,-z
loop_
_atom_site_type_symbol
_atom_site_label
_atom_site_fract_x
_atom_site_fract_y
_atom_site_fract_z
Si Si1 0.475488 0.735921 0.810449
Si Si2 0.366729 0.265746 0.393412
Si Si3 0.781344 0.830664 0.116995
Si Si4 0.500000 0.000000 0.000000
Si Si5 0.103927 0.627039 0.629899
Si Si6 0.026158 0.824913 0.788995
Si Si7 0.279721 0.633785 0.445332
O O1 0.553805 0.819712 0.514064
O O2 0.356185 0.648220 0.716283
O O3 0.457877 0.524949 0.161642
O O4 0.534229 0.930078 0.839445
O O5 0.302623 0.202035 0.680468
O O6 0.280344 0.191925 0.172655
O O7 0.794180 0.627635 0.377777
O O8 0.896798 0.055238 0.029663
O O9 0.367468 0.769487 0.136317
O O10 0.091758 0.771514 0.681341
O O11 0.209267 0.720486 0.418854
O O12 0.000000 0.500000 0.500000
O O13 0.085352 0.414387 0.992037
O O14 0.000000 0.000000 0.500000
#
# Coordination Sequence:
#
# PCOD9045738 Si02
#       7
#     2   2   2   1   2   2   2
#     4  10  24  41  67  99 150 201 260 317 392 475
#     4  10  24  44  70 107 150 198 267 319 396 477
#     4  11  25  45  77 111 152 211 264 337 399 487
#     4  12  24  42  64 104 144 204 250 326 390 474
#     4  11  28  52  78 120 160 207 272 345 407 493
#     4  11  28  50  83 116 157 210 277 336 417 481
#     4  11  26  45  71 105 158 207 267 327 411 474
#
# _framework density 28.273091000000001
#
# number of rings (size 3 to 8) (size 9 to 14) (size 15 to 20)
#    0.000    1.231    1.538    1.385   10.769    6.769 
#    0.000    0.000    0.000    0.000    0.000    0.000 
#    0.000    0.000    0.000    0.000    0.000    0.000 
#
# Total GULP energy -72714.575887 kJ/mol
# GULP energy per Si atom -5593.428914 kJ/mol
# Density = 2.820874 g / cm^3
# Si number density = 28.273091 Si / 1000 Ang^3
#
#
#
# Elastic Constant Matrix: (Units=GPa)
#
#
# Indices 1 2 3 4 5 6 
#
# 1 120.8252 10.8129 27.1233 -5.7542 -4.8339 -18.8533
# 2 10.8129 158.1809 44.9615 -14.3264 8.3048 -23.9922
# 3 27.1233 44.9615 96.7360 -10.3589 -19.1579 -9.3511
# 4 -5.7542 -14.3264 -10.3589 67.2053 1.3296 5.5035
# 5 -4.8339 8.3048 -19.1579 1.3296 54.0144 3.3623
# 6 -18.8533 -23.9922 -9.3511 5.5035 3.3623 44.6394
#
#
#
# Elastic Compliance Matrix: (Units=1/GPa)
#
#
# Indices 1 2 3 4 5 6 
#
# 1 0.009399 0.000744 -0.002679 0.000248 -0.000467 0.003813
# 2 0.000744 0.008303 -0.004168 0.000921 -0.002961 0.004013
# 3 -0.002679 -0.004168 0.014122 0.001029 0.005444 -0.000950
# 4 0.000248 0.000921 0.001029 0.015345 -0.000066 -0.001072
# 5 -0.000467 -0.002961 0.005444 -0.000066 0.020998 -0.002222
# 6 0.003813 0.004013 -0.000950 -0.001072 -0.002222 0.026270
#
#
# Mechanical properties :
#
#
# Convention : Reuss Voigt Hill
#
# Bulk Modulus (GPa) = 50.96760 60.17083 55.56922
# Shear Modulus (GPa) = 44.17701 52.69479 48.43590
#
# Velocity S-wave (km/s) = 3.95715 4.32183 4.14351
# Velocity P-wave (km/s) = 6.24057 6.79945 6.52600
#
# Compressibility (1/GPa) = 0.01962031
#
# Stress axis : x y z
#
# Youngs Moduli (GPa) = 106.39153 120.43520 70.81188
#
# Poissons Ratio (x) = -0.08962 0.18968
# Poissons Ratio (y) = -0.07917 0.29512
# Poissons Ratio (z) = 0.28498 0.50193
#
# Static dielectric constant tensor:
#      x y z
#    x 2.227720 -0.078540 0.088280 
#    y -0.078540 2.134200 -0.098570 
#    z 0.088280 -0.098570 2.252750 
# 
# From -- ./inp_files/88441.got.cif
#   From: 2010.05.17/outbox.cif.g08.bks.cpg/sg2_45_cif.got.tgz:88441.got - 2010.06.03 11:33:40.
