data_PCOD9045447
_publ_section_title
;
Structure prediction by ZEFSAII (Michael W. Deem and Ramdas Pophale) SiO2 
 PCOD9045447
Probable space group: P -1
;
_chemical_formula_sum "Si O2"
_cell_formula_units_Z 15
_cell_length_a 8.694764
_cell_length_b 22.607901
_cell_length_c 15.739452
_cell_angle_alpha 18.855446
_cell_angle_beta 47.134211
_cell_angle_gamma 40.378659
_cell_volume 635.461856
_symmetry_space_group_name_H-M "P -1"
_symmetry_group_IT_number 2
_symmetry_cell_setting 'triclinic'
loop_
_space_group_symop_operation_xyz
x,y,z
-x,-y,-z
loop_
_atom_site_type_symbol
_atom_site_label
_atom_site_fract_x
_atom_site_fract_y
_atom_site_fract_z
Si Si1 0.062998 0.801654 0.368750
Si Si2 0.501241 0.015938 0.319347
Si Si3 0.241837 0.451586 0.924874
Si Si4 0.500000 0.500000 0.500000
Si Si5 0.716335 0.057426 0.774399
Si Si6 0.083586 0.083100 0.274721
Si Si7 0.267443 0.362624 0.622868
Si Si8 0.565810 0.368203 0.068289
O O1 0.230807 0.693147 0.372303
O O2 0.131175 0.960034 0.175510
O O3 0.772563 0.919097 0.314079
O O4 0.151032 0.611407 0.663062
O O5 0.475608 0.830274 0.627202
O O6 0.403769 0.215293 0.147585
O O7 0.310697 0.098342 0.201484
O O8 0.409517 0.474334 0.900642
O O9 0.000000 0.500000 0.000000
O O10 0.371053 0.469731 0.502383
O O11 0.454224 0.253262 0.623675
O O12 0.843920 0.070702 0.623228
O O13 0.711048 0.841953 0.059556
O O14 0.845913 0.293123 0.050551
O O15 0.000000 0.000000 0.500000
O O16 0.000000 0.500000 0.500000
O O17 0.500000 0.500000 0.000000
#
# Coordination Sequence:
#
# PCOD9045447 Si02
#       8
#     2   2   2   1   2   2   2   2
#     4  11  26  46  72 102 146 184 248 300 367 432
#     4  11  25  43  67 103 139 196 231 296 359 430
#     4  12  25  42  71 101 142 188 243 295 362 430
#     4  10  26  48  70 112 136 180 250 300 356 448
#     4  10  24  46  68 105 138 182 235 300 350 435
#     4  10  24  40  67 101 147 183 236 281 357 427
#     4  10  24  49  77 100 141 184 240 303 370 419
#     4  11  24  42  66 100 144 189 239 292 354 433
#
# _framework density 23.604876999999998
#
# number of rings (size 3 to 8) (size 9 to 14) (size 15 to 20)
#    0.000    1.333    1.333    2.000   11.200    4.267 
#    0.000    2.667    0.000    0.000    0.000    0.000 
#    0.000    0.000    0.000    0.000    0.000    0.000 
#
# Total GULP energy -83640.990874 kJ/mol
# GULP energy per Si atom -5576.066058 kJ/mol
# Density = 2.355115 g / cm^3
# Si number density = 23.604877 Si / 1000 Ang^3
#
#
#
# Elastic Constant Matrix: (Units=GPa)
#
#
# Indices 1 2 3 4 5 6 
#
# 1 159.7381 87.1611 39.4202 -47.2345 20.6013 -22.7641
# 2 87.1611 188.4563 40.9818 -54.3354 5.9389 -6.2241
# 3 39.4202 40.9818 71.9151 -19.4470 -0.3208 8.1487
# 4 -47.2345 -54.3354 -19.4470 44.5750 -4.2007 3.2917
# 5 20.6013 5.9389 -0.3208 -4.2007 19.8804 -16.5456
# 6 -22.7641 -6.2241 8.1487 3.2917 -16.5456 58.9615
#
#
#
# Elastic Compliance Matrix: (Units=1/GPa)
#
#
# Indices 1 2 3 4 5 6 
#
# 1 0.011953 -0.002302 -0.003518 0.007374 -0.008476 0.002068
# 2 -0.002302 0.008982 -0.001757 0.007871 0.001595 0.000310
# 3 -0.003518 -0.001757 0.017898 0.002390 0.001970 -0.003598
# 4 0.007374 0.007871 0.002390 0.040763 -0.000585 0.000907
# 5 -0.008476 0.001595 0.001970 -0.000585 0.072715 0.017061
# 6 0.002068 0.000310 -0.003598 0.000907 0.017061 0.023026
#
#
# Mechanical properties :
#
#
# Convention : Reuss Voigt Hill
#
# Bulk Modulus (GPa) = 42.23095 83.91511 63.07303
# Shear Modulus (GPa) = 25.20385 41.51981 33.36183
#
# Velocity S-wave (km/s) = 3.27117 4.19853 3.76353
# Velocity P-wave (km/s) = 5.67424 7.68965 6.75750
#
# Compressibility (1/GPa) = 0.02367932
#
# Stress axis : x y z
#
# Youngs Moduli (GPa) = 83.66354 111.33278 55.87313
#
# Poissons Ratio (x) = 0.25625 0.19658
# Poissons Ratio (y) = 0.19256 0.09814
# Poissons Ratio (z) = 0.29436 0.19556
#
# Static dielectric constant tensor:
#      x y z
#    x 1.896770 -0.026580 -0.024550 
#    y -0.026580 1.942980 0.049580 
#    z -0.024550 0.049580 2.065540 
# 
# From -- ./inp_files/563095.got.cif
#   From: 2010.05.17/outbox.cif.g08.bks.cpg/sg2_282_cif.got.tgz:563095.got - 2010.06.03 11:33:40.
