data_PCOD9045215
_publ_section_title
;
Structure prediction by ZEFSAII (Michael W. Deem and Ramdas Pophale) SiO2 
 PCOD9045215
Probable space group: P -1
;
_chemical_formula_sum "Si O2"
_cell_formula_units_Z 16
_cell_length_a 9.917369
_cell_length_b 9.301830
_cell_length_c 13.939753
_cell_angle_alpha 72.711660
_cell_angle_beta 84.097072
_cell_angle_gamma 40.894732
_cell_volume 788.425144
_symmetry_space_group_name_H-M "P -1"
_symmetry_group_IT_number 2
_symmetry_cell_setting 'triclinic'
loop_
_space_group_symop_operation_xyz
x,y,z
-x,-y,-z
loop_
_atom_site_type_symbol
_atom_site_label
_atom_site_fract_x
_atom_site_fract_y
_atom_site_fract_z
Si Si1 0.195445 0.350387 0.379477
Si Si2 0.647821 0.017347 0.423121
Si Si3 0.197860 0.490218 0.707120
Si Si4 0.461755 0.704176 0.433066
Si Si5 0.638383 0.948058 0.124354
Si Si6 0.932148 0.868427 0.268608
Si Si7 0.798660 0.771233 0.937712
Si Si8 0.928687 0.927053 0.754816
O O1 0.432205 0.151623 0.360405
O O2 0.024492 0.395295 0.328815
O O3 0.108340 0.593136 0.333520
O O4 0.229160 0.236428 0.501080
O O5 0.580251 0.164200 0.494075
O O6 0.793092 0.992372 0.350375
O O7 0.340735 0.406014 0.621906
O O8 0.311719 0.266722 0.806215
O O9 0.135351 0.689932 0.732191
O O10 0.500000 0.500000 0.500000
O O11 0.256722 0.890744 0.344366
O O12 0.778393 0.933313 0.185522
O O13 0.387345 0.172846 0.104641
O O14 0.708733 0.909489 0.017324
O O15 0.024972 0.952325 0.223753
O O16 0.859152 0.855941 0.846904
O O17 0.000000 0.500000 0.000000
#
# Coordination Sequence:
#
# PCOD9045215 Si02
#       8
#     2   2   2   2   2   2   2   2
#     4  10  24  37  61  91 128 178 224 274 313 383
#     4  11  24  38  62  93 133 184 227 265 323 387
#     4  11  23  41  68  94 129 179 226 271 319 401
#     4  12  26  40  62  97 144 178 223 270 324 391
#     4  10  24  44  70  99 126 164 224 279 324 402
#     4  11  26  42  64  97 137 171 219 276 332 386
#     4  11  23  45  76  98 123 171 221 274 342 395
#     4  12  25  43  68 100 134 177 220 274 337 393
#
# _framework density 20.293619
#
# number of rings (size 3 to 8) (size 9 to 14) (size 15 to 20)
#    0.000    1.000    3.750    1.875   12.250    1.500 
#    0.000    0.625    0.000    0.000    0.000    0.000 
#    0.000    0.000    0.000    0.000    0.000    0.000 
#
# Total GULP energy -89465.080402 kJ/mol
# GULP energy per Si atom -5591.567525 kJ/mol
# Density = 2.024743 g / cm^3
# Si number density = 20.293619 Si / 1000 Ang^3
#
#
#
# Elastic Constant Matrix: (Units=GPa)
#
#
# Indices 1 2 3 4 5 6 
#
# 1 74.1467 36.6303 22.9604 -10.0960 11.7953 7.5808
# 2 36.6303 89.1764 33.4466 -13.7231 9.7137 0.6842
# 3 22.9604 33.4466 93.5210 -1.6388 2.5870 -1.0236
# 4 -10.0960 -13.7231 -1.6388 34.9609 -12.3696 7.9687
# 5 11.7953 9.7137 2.5870 -12.3696 27.0034 -2.7025
# 6 7.5808 0.6842 -1.0236 7.9687 -2.7025 34.5902
#
#
#
# Elastic Compliance Matrix: (Units=1/GPa)
#
#
# Indices 1 2 3 4 5 6 
#
# 1 0.018788 -0.005853 -0.002387 0.002272 -0.005334 -0.005012
# 2 -0.005853 0.015904 -0.004156 0.004070 -0.000918 -0.000164
# 3 -0.002387 -0.004156 0.012732 -0.001835 0.000623 0.001453
# 4 0.002272 0.004070 -0.001835 0.037644 0.014143 -0.008200
# 5 -0.005334 -0.000918 0.000623 0.014143 0.046268 0.001562
# 6 -0.005012 -0.000164 0.001453 -0.008200 0.001562 0.032066
#
#
# Mechanical properties :
#
#
# Convention : Reuss Voigt Hill
#
# Bulk Modulus (GPa) = 44.18563 49.21319 46.69941
# Shear Modulus (GPa) = 25.54448 30.23133 27.88791
#
# Velocity S-wave (km/s) = 3.55173 3.86385 3.71107
# Velocity P-wave (km/s) = 6.21612 6.64898 6.43619
#
# Compressibility (1/GPa) = 0.02263179
#
# Stress axis : x y z
#
# Youngs Moduli (GPa) = 53.22631 62.87569 78.54436
#
# Poissons Ratio (x) = 0.36802 0.18747
# Poissons Ratio (y) = 0.31154 0.32644
# Poissons Ratio (z) = 0.12704 0.26132
#
# Static dielectric constant tensor:
#      x y z
#    x 1.721200 -0.007200 0.025200 
#    y -0.007200 1.739750 0.010450 
#    z 0.025200 0.010450 1.705600 
# 
# From -- ./inp_files/226597.got.cif
#   From: 2010.05.17/outbox.cif.g08.bks.cpg/sg2_114_cif.got.tgz:226597.got - 2010.06.03 11:33:40.
