data_PCOD9045497
_publ_section_title
;
Structure prediction by ZEFSAII (Michael W. Deem and Ramdas Pophale) SiO2 
 PCOD9045497
Probable space group: P -1
;
_chemical_formula_sum "Si O2"
_cell_formula_units_Z 14
_cell_length_a 11.269528
_cell_length_b 14.199720
_cell_length_c 6.284807
_cell_angle_alpha 113.893162
_cell_angle_beta 74.339250
_cell_angle_gamma 140.204670
_cell_volume 587.079648
_symmetry_space_group_name_H-M "P -1"
_symmetry_group_IT_number 2
_symmetry_cell_setting 'triclinic'
loop_
_space_group_symop_operation_xyz
x,y,z
-x,-y,-z
loop_
_atom_site_type_symbol
_atom_site_label
_atom_site_fract_x
_atom_site_fract_y
_atom_site_fract_z
Si Si1 0.738783 0.140342 0.424430
Si Si2 0.359923 0.436938 0.708295
Si Si3 0.638936 0.742520 0.105667
Si Si4 0.959992 0.239132 0.801757
Si Si5 0.721873 0.949928 0.944861
Si Si6 0.925579 0.562014 0.680627
Si Si7 0.453374 0.765682 0.524960
O O1 0.781239 0.153172 0.664312
O O2 0.627411 0.174974 0.456534
O O3 0.948588 0.281223 0.364795
O O4 0.664297 0.003031 0.187637
O O5 0.500000 0.500000 0.500000
O O6 0.333605 0.332938 0.809769
O O7 0.145585 0.326522 0.662014
O O8 0.458346 0.593011 0.924434
O O9 0.766933 0.872037 0.976582
O O10 0.610007 0.820621 0.345660
O O11 0.023015 0.375096 0.045034
O O12 0.888493 0.100601 0.859056
O O13 0.542864 0.823518 0.765220
O O14 0.710662 0.420993 0.597410
O O15 0.000000 0.500000 0.500000
#
# Coordination Sequence:
#
# PCOD9045497 Si02
#       7
#     2   2   2   2   2   2   2
#     4  10  24  40  69 105 149 185 226 287 355 424
#     4  11  26  47  74 102 135 184 244 303 347 408
#     4  11  25  44  71 102 135 188 239 290 352 413
#     4  11  24  46  69 105 145 183 233 294 354 418
#     4  11  25  43  67 105 147 188 228 284 356 430
#     4   9  21  39  66 102 139 182 231 284 346 419
#     4  11  22  42  68 105 143 188 233 283 350 427
#
# _framework density 23.846848000000001
#
# number of rings (size 3 to 8) (size 9 to 14) (size 15 to 20)
#    0.000    1.429    1.429    2.143    4.000    9.714 
#    0.000    5.000    0.000    0.000    0.000    0.000 
#    0.000    0.000    0.000    0.000    0.000    0.000 
#
# Total GULP energy -78041.565153 kJ/mol
# GULP energy per Si atom -5574.397511 kJ/mol
# Density = 2.379257 g / cm^3
# Si number density = 23.846848 Si / 1000 Ang^3
#
#
#
# Elastic Constant Matrix: (Units=GPa)
#
#
# Indices 1 2 3 4 5 6 
#
# 1 78.7756 36.7678 53.9821 -5.0594 23.0557 -2.6213
# 2 36.7678 79.4430 72.0692 -0.8990 14.2482 -5.4708
# 3 53.9821 72.0692 149.3250 23.9188 18.7290 -2.7391
# 4 -5.0594 -0.8990 23.9188 39.3496 -0.9238 5.0134
# 5 23.0557 14.2482 18.7290 -0.9238 29.1613 -0.4248
# 6 -2.6213 -5.4708 -2.7391 5.0134 -0.4248 36.9028
#
#
#
# Elastic Compliance Matrix: (Units=1/GPa)
#
#
# Indices 1 2 3 4 5 6 
#
# 1 0.022056 -0.002104 -0.006491 0.006482 -0.012040 -0.000246
# 2 -0.002104 0.025457 -0.012388 0.007571 -0.002555 0.001647
# 3 -0.006491 -0.012388 0.016862 -0.011432 -0.000001 0.000507
# 4 0.006482 0.007571 -0.011432 0.033851 -0.000466 -0.003870
# 5 -0.012040 -0.002555 -0.000001 -0.000466 0.045035 -0.000652
# 6 -0.000246 0.001647 0.000507 -0.003870 -0.000652 0.027881
#
#
# Mechanical properties :
#
#
# Convention : Reuss Voigt Hill
#
# Bulk Modulus (GPa) = 44.62245 70.35354 57.48799
# Shear Modulus (GPa) = 22.66792 30.73105 26.69949
#
# Velocity S-wave (km/s) = 3.08646 3.59372 3.34971
# Velocity P-wave (km/s) = 5.60842 6.84003 6.25462
#
# Compressibility (1/GPa) = 0.02241024
#
# Stress axis : x y z
#
# Youngs Moduli (GPa) = 45.33940 39.28255 59.30335
#
# Poissons Ratio (x) = 0.08265 0.38491
# Poissons Ratio (y) = 0.09540 0.73463
# Poissons Ratio (z) = 0.29428 0.48662
#
# Static dielectric constant tensor:
#      x y z
#    x 1.923790 -0.048020 -0.003190 
#    y -0.048020 2.082540 -0.025770 
#    z -0.003190 -0.025770 1.990830 
# 
# From -- ./inp_files/78336.got.cif
#   From: 2010.05.17/outbox.cif.g08.bks.cpg/sg2_40_cif.got.tgz:78336.got - 2010.06.03 11:33:40.
