data_PCOD9045108
_publ_section_title
;
Structure prediction by ZEFSAII (Michael W. Deem and Ramdas Pophale) SiO2 
 PCOD9045108
Probable space group: P -1
;
_chemical_formula_sum "Si O2"
_cell_formula_units_Z 16
_cell_length_a 23.850134
_cell_length_b 6.993897
_cell_length_c 8.121237
_cell_angle_alpha 54.334715
_cell_angle_beta 134.229938
_cell_angle_gamma 96.685501
_cell_volume 683.582123
_symmetry_space_group_name_H-M "P -1"
_symmetry_group_IT_number 2
_symmetry_cell_setting 'triclinic'
loop_
_space_group_symop_operation_xyz
x,y,z
-x,-y,-z
loop_
_atom_site_type_symbol
_atom_site_label
_atom_site_fract_x
_atom_site_fract_y
_atom_site_fract_z
Si Si1 0.068160 0.951741 0.312426
Si Si2 0.137732 0.233545 0.494892
Si Si3 0.328901 0.696067 0.172460
Si Si4 0.546216 0.157450 0.435050
Si Si5 0.809634 0.314840 0.579558
Si Si6 0.631388 0.351185 0.092082
Si Si7 0.951479 0.794773 0.334605
Si Si8 0.601756 0.893080 0.327958
O O1 0.160023 0.725240 0.531134
O O2 0.029245 0.879265 0.429539
O O3 0.078139 0.212071 0.237544
O O4 0.000000 0.000000 0.000000
O O5 0.165502 0.462682 0.417906
O O6 0.086446 0.245573 0.551901
O O7 0.227751 0.939141 0.827563
O O8 0.382256 0.820794 0.313298
O O9 0.341503 0.427889 0.422671
O O10 0.372841 0.575852 0.144918
O O11 0.500000 0.000000 0.500000
O O12 0.591150 0.998011 0.441109
O O13 0.462782 0.464203 0.102433
O O14 0.707043 0.384121 0.326562
O O15 0.867673 0.034900 0.940392
O O16 0.649590 0.045863 0.268884
O O17 0.000000 0.500000 0.500000
O O18 0.500000 0.000000 0.000000
#
# Coordination Sequence:
#
# PCOD9045108 Si02
#       8
#     2   2   2   2   2   2   2   2
#     4  10  23  49  72 105 141 187 240 295 364 438
#     4  12  26  46  76 108 148 191 242 301 370 428
#     4  12  27  46  71 110 146 194 244 300 362 429
#     4  12  24  45  75 102 147 198 241 295 363 425
#     4  11  26  47  72 108 149 190 237 305 362 436
#     4  12  25  47  72 105 152 193 245 298 364 427
#     4  11  25  47  78 105 144 185 243 296 367 441
#     4  12  27  46  73 105 147 194 252 302 352 431
#
# _framework density 23.406112
#
# number of rings (size 3 to 8) (size 9 to 14) (size 15 to 20)
#    0.000    0.500    5.000    2.625    1.750    4.000 
#    4.500    0.000    0.000    0.000    0.000    0.000 
#    0.000    0.000    0.000    0.000    0.000    0.000 
#
# Total GULP energy -89459.784218 kJ/mol
# GULP energy per Si atom -5591.236514 kJ/mol
# Density = 2.335284 g / cm^3
# Si number density = 23.406112 Si / 1000 Ang^3
#
#
#
# Elastic Constant Matrix: (Units=GPa)
#
#
# Indices 1 2 3 4 5 6 
#
# 1 52.8472 13.2731 12.7966 5.4269 2.0167 1.5406
# 2 13.2731 183.0698 56.8475 11.2915 -6.6011 23.4161
# 3 12.7966 56.8475 81.7911 0.9193 1.7083 1.5883
# 4 5.4269 11.2915 0.9193 42.8100 6.4939 1.5884
# 5 2.0167 -6.6011 1.7083 6.4939 25.7488 -11.3024
# 6 1.5406 23.4161 1.5883 1.5884 -11.3024 47.2375
#
#
#
# Elastic Compliance Matrix: (Units=1/GPa)
#
#
# Indices 1 2 3 4 5 6 
#
# 1 0.019984 -0.000427 -0.002770 -0.002160 -0.001192 -0.000559
# 2 -0.000427 0.007703 -0.005232 -0.001964 0.001438 -0.003218
# 3 -0.002770 -0.005232 0.016286 0.001609 -0.001896 0.001629
# 4 -0.002160 -0.001964 0.001609 0.025325 -0.007562 -0.001671
# 5 -0.001192 0.001438 -0.001896 -0.007562 0.046007 0.010652
# 6 -0.000559 -0.003218 0.001629 -0.001671 0.010652 0.025333
#
#
# Mechanical properties :
#
#
# Convention : Reuss Voigt Hill
#
# Bulk Modulus (GPa) = 36.88044 53.72696 45.30370
# Shear Modulus (GPa) = 30.02369 38.81198 34.41784
#
# Velocity S-wave (km/s) = 3.58541 4.07652 3.83882
# Velocity P-wave (km/s) = 5.73857 6.72022 6.24870
#
# Compressibility (1/GPa) = 0.02711465
#
# Stress axis : x y z
#
# Youngs Moduli (GPa) = 50.04013 129.82370 61.40194
#
# Poissons Ratio (x) = 0.05544 0.17007
# Poissons Ratio (y) = 0.02137 0.32127
# Poissons Ratio (z) = 0.13860 0.67928
#
# Static dielectric constant tensor:
#      x y z
#    x 2.048230 0.062210 -0.124170 
#    y 0.062210 1.914870 -0.087160 
#    z -0.124170 -0.087160 2.076780 
# 
# From -- ./inp_files/355962.got.cif
#   From: 2010.05.17/outbox.cif.g08.bks.cpg/sg2_178_cif.got.tgz:355962.got - 2010.06.03 11:33:40.
