data_PCOD9045622
_publ_section_title
;
Structure prediction by ZEFSAII (Michael W. Deem and Ramdas Pophale) SiO2 
 PCOD9045622
Probable space group: P -1
;
_chemical_formula_sum "Si O2"
_cell_formula_units_Z 14
_cell_length_a 8.773207
_cell_length_b 7.523793
_cell_length_c 26.101949
_cell_angle_alpha 135.345872
_cell_angle_beta 142.167587
_cell_angle_gamma 70.044157
_cell_volume 638.161925
_symmetry_space_group_name_H-M "P -1"
_symmetry_group_IT_number 2
_symmetry_cell_setting 'triclinic'
loop_
_space_group_symop_operation_xyz
x,y,z
-x,-y,-z
loop_
_atom_site_type_symbol
_atom_site_label
_atom_site_fract_x
_atom_site_fract_y
_atom_site_fract_z
Si Si1 0.784547 0.085574 0.983479
Si Si2 0.196340 0.210942 0.880622
Si Si3 0.799651 0.732413 0.430684
Si Si4 0.707076 0.422011 0.935422
Si Si5 0.183389 0.634956 0.726245
Si Si6 0.829911 0.342142 0.745595
Si Si7 0.052976 0.149145 0.669191
O O1 0.700088 0.222458 0.940972
O O2 0.508226 0.784005 0.863988
O O3 0.924944 0.313711 0.113951
O O4 0.000000 0.000000 0.000000
O O5 0.913290 0.224888 0.793830
O O6 0.130936 0.902486 0.777303
O O7 0.500000 0.500000 0.000000
O O8 0.240921 0.269622 0.964489
O O9 0.810984 0.465233 0.351046
O O10 0.477882 0.684093 0.337180
O O11 0.000000 0.000000 0.500000
O O12 0.919486 0.836304 0.540957
O O13 0.389355 0.261013 0.792931
O O14 0.000000 0.500000 0.000000
O O15 0.008939 0.354041 0.658307
O O16 0.894679 0.182046 0.683810
#
# Coordination Sequence:
#
# PCOD9045622 Si02
#       7
#     2   2   2   2   2   2   2
#     4  11  20  36  65  93 123 162 201 255 318 368
#     4  11  21  41  63  94 127 160 198 266 322 363
#     4  10  24  41  64  86 125 176 209 249 305 377
#     4  11  23  38  63  96 128 158 206 266 314 360
#     4  11  21  40  63  94 125 164 208 250 316 374
#     4  11  21  41  66  88 129 161 209 262 313 361
#     4  11  23  40  63  93 127 164 213 256 302 371
#
# _framework density 21.938006000000001
#
# number of rings (size 3 to 8) (size 9 to 14) (size 15 to 20)
#    0.000    1.143    5.714    1.286    6.000    3.429 
#    0.000    5.714    0.000    0.000    0.000    0.000 
#    0.000    0.000    0.000    0.000    0.000    0.000 
#
# Total GULP energy -77940.478288 kJ/mol
# GULP energy per Si atom -5567.177021 kJ/mol
# Density = 2.188807 g / cm^3
# Si number density = 21.938006 Si / 1000 Ang^3
#
#
#
# Elastic Constant Matrix: (Units=GPa)
#
#
# Indices 1 2 3 4 5 6 
#
# 1 78.6429 6.1174 37.2100 1.2728 -21.0468 -19.5407
# 2 6.1174 66.7923 23.7207 -2.3730 -11.4944 -16.4039
# 3 37.2100 23.7207 130.8776 -0.3773 -42.0245 -17.2403
# 4 1.2728 -2.3730 -0.3773 32.3428 -6.7294 -3.5439
# 5 -21.0468 -11.4944 -42.0245 -6.7294 40.8179 11.2522
# 6 -19.5407 -16.4039 -17.2403 -3.5439 11.2522 35.8980
#
#
#
# Elastic Compliance Matrix: (Units=1/GPa)
#
#
# Indices 1 2 3 4 5 6 
#
# 1 0.016934 0.002109 -0.002698 0.001256 0.004675 0.007544
# 2 0.002109 0.017932 -0.002086 0.002538 0.002233 0.007891
# 3 -0.002698 -0.002086 0.012398 0.002441 0.011108 0.000291
# 4 0.001256 0.002538 0.002441 0.033222 0.008337 0.003682
# 5 0.004675 0.002233 0.011108 0.008337 0.041232 -0.003201
# 6 0.007544 0.007891 0.000291 0.003682 -0.003201 0.037076
#
#
# Mechanical properties :
#
#
# Convention : Reuss Voigt Hill
#
# Bulk Modulus (GPa) = 23.85855 45.60098 34.72977
# Shear Modulus (GPa) = 28.07176 35.76271 31.91724
#
# Velocity S-wave (km/s) = 3.58102 4.04192 3.81843
# Velocity P-wave (km/s) = 5.29125 6.52796 5.94187
#
# Compressibility (1/GPa) = 0.04191369
#
# Stress axis : x y z
#
# Youngs Moduli (GPa) = 59.05399 55.76674 80.65734
#
# Poissons Ratio (x) = -0.11763 0.21763
# Poissons Ratio (y) = -0.12456 0.16826
# Poissons Ratio (z) = 0.15934 0.11633
#
# Static dielectric constant tensor:
#      x y z
#    x 1.825560 0.019760 -0.035060 
#    y 0.019760 1.874890 0.051990 
#    z -0.035060 0.051990 1.884150 
# 
# From -- ./inp_files/206234.got.cif
#   From: 2010.05.17/outbox.cif.g08.bks.cpg/sg2_104_cif.got.tgz:206234.got - 2010.06.03 11:33:40.
