data_PCOD9045505
_publ_section_title
;
Structure prediction by ZEFSAII (Michael W. Deem and Ramdas Pophale) SiO2 
 PCOD9045505
Probable space group: P -1
;
_chemical_formula_sum "Si O2"
_cell_formula_units_Z 16
_cell_length_a 10.697803
_cell_length_b 17.813966
_cell_length_c 8.987747
_cell_angle_alpha 150.614736
_cell_angle_beta 55.695097
_cell_angle_gamma 120.087173
_cell_volume 694.020102
_symmetry_space_group_name_H-M "P -1"
_symmetry_group_IT_number 2
_symmetry_cell_setting 'triclinic'
loop_
_space_group_symop_operation_xyz
x,y,z
-x,-y,-z
loop_
_atom_site_type_symbol
_atom_site_label
_atom_site_fract_x
_atom_site_fract_y
_atom_site_fract_z
Si Si1 0.666369 0.794651 0.390498
Si Si2 0.434381 0.143474 0.876971
Si Si3 0.610569 0.569066 0.777208
Si Si4 0.919478 0.840502 0.820011
Si Si5 0.042716 0.438483 0.527995
Si Si6 0.945789 0.708397 0.257845
Si Si7 0.432840 0.781342 0.764035
Si Si8 0.844962 0.074184 0.677778
O O1 0.796617 0.770429 0.383519
O O2 0.516472 0.834686 0.650188
O O3 0.734896 0.928324 0.470294
O O4 0.637783 0.647767 0.054596
O O5 0.500000 0.000000 0.500000
O O6 0.474588 0.305699 0.048103
O O7 0.253539 0.128642 0.975058
O O8 0.492414 0.152177 0.021554
O O9 0.775708 0.547493 0.557226
O O10 0.542633 0.400680 0.554636
O O11 0.992836 0.741325 0.731390
O O12 0.923059 0.728383 0.481422
O O13 0.000000 0.000000 0.000000
O O14 0.000000 0.500000 0.500000
O O15 0.968482 0.544493 0.884701
O O16 0.094679 0.811789 0.292887
O O17 0.256843 0.827190 0.970572
O O18 0.000000 0.000000 0.500000
#
# Coordination Sequence:
#
# PCOD9045505 Si02
#       8
#     2   2   2   2   2   2   2   2
#     4  11  23  42  68 104 144 180 239 297 353 427
#     4  11  26  47  69  99 142 187 236 296 364 426
#     4  11  24  43  70  99 141 188 236 290 360 433
#     4  11  27  46  72 108 142 186 245 296 356 429
#     4  11  23  44  73 104 143 187 234 295 359 426
#     4  11  22  45  68 103 140 184 238 292 356 425
#     4  12  23  46  69 101 138 186 244 289 361 422
#     4  10  24  40  70 100 140 188 232 288 363 421
#
# _framework density 23.054086999999999
#
# number of rings (size 3 to 8) (size 9 to 14) (size 15 to 20)
#    0.000    1.000    3.750    2.250    5.250    1.000 
#    2.250    0.000    0.000    0.000    0.000    0.000 
#    0.000    0.000    0.000    0.000    0.000    0.000 
#
# Total GULP energy -89487.345248 kJ/mol
# GULP energy per Si atom -5592.959078 kJ/mol
# Density = 2.300162 g / cm^3
# Si number density = 23.054087 Si / 1000 Ang^3
#
#
#
# Elastic Constant Matrix: (Units=GPa)
#
#
# Indices 1 2 3 4 5 6 
#
# 1 70.4169 41.4302 44.7940 -0.1029 -4.4860 -13.3676
# 2 41.4302 116.9967 58.9426 7.2425 -7.8494 4.6721
# 3 44.7940 58.9426 166.9376 -4.8162 -7.3045 3.9585
# 4 -0.1029 7.2425 -4.8162 52.7083 2.1015 -5.4340
# 5 -4.4860 -7.8494 -7.3045 2.1015 40.2264 -0.5793
# 6 -13.3676 4.6721 3.9585 -5.4340 -0.5793 27.8521
#
#
#
# Elastic Compliance Matrix: (Units=1/GPa)
#
#
# Indices 1 2 3 4 5 6 
#
# 1 0.023412 -0.006838 -0.004101 0.001963 0.000622 0.013363
# 2 -0.006838 0.012722 -0.002544 -0.002617 0.001315 -0.005538
# 3 -0.004101 -0.002544 0.008091 0.000803 0.000437 -0.002526
# 4 0.001963 -0.002617 0.000803 0.019984 -0.001116 0.005143
# 5 0.000622 0.001315 0.000437 -0.001116 0.025328 0.000325
# 6 0.013363 -0.005538 -0.002526 0.005143 0.000325 0.044615
#
#
# Mechanical properties :
#
#
# Convention : Reuss Voigt Hill
#
# Bulk Modulus (GPa) = 57.93811 71.63164 64.78488
# Shear Modulus (GPa) = 29.96358 38.10298 34.03328
#
# Velocity S-wave (km/s) = 3.60906 4.06983 3.84635
# Velocity P-wave (km/s) = 6.52327 7.29543 6.92013
#
# Compressibility (1/GPa) = 0.01725980
#
# Stress axis : x y z
#
# Youngs Moduli (GPa) = 42.71291 78.60701 123.59608
#
# Poissons Ratio (x) = 0.53752 0.50684
# Poissons Ratio (y) = 0.29207 0.31437
# Poissons Ratio (z) = 0.17515 0.19994
#
# Static dielectric constant tensor:
#      x y z
#    x 1.854620 -0.012100 -0.011570 
#    y -0.012100 1.902980 0.038700 
#    z -0.011570 0.038700 1.863590 
# 
# From -- ./inp_files/206923.got.cif
#   From: 2010.05.17/outbox.cif.g08.bks.cpg/sg2_104_cif.got.tgz:206923.got - 2010.06.03 11:33:40.
