data_PCOD9045140
_publ_section_title
;
Structure prediction by ZEFSAII (Michael W. Deem and Ramdas Pophale) SiO2 
 PCOD9045140
Probable space group: P -1
;
_chemical_formula_sum "Si O2"
_cell_formula_units_Z 11
_cell_length_a 13.482582
_cell_length_b 8.518330
_cell_length_c 13.744731
_cell_angle_alpha 29.995792
_cell_angle_beta 150.712432
_cell_angle_gamma 138.447768
_cell_volume 385.905215
_symmetry_space_group_name_H-M "P -1"
_symmetry_group_IT_number 2
_symmetry_cell_setting 'triclinic'
loop_
_space_group_symop_operation_xyz
x,y,z
-x,-y,-z
loop_
_atom_site_type_symbol
_atom_site_label
_atom_site_fract_x
_atom_site_fract_y
_atom_site_fract_z
Si Si1 0.309267 0.386685 0.783758
Si Si2 0.655478 0.237697 0.050545
Si Si3 0.625802 0.220295 0.705241
Si Si4 0.099215 0.861519 0.497923
Si Si5 0.500000 0.000000 0.500000
Si Si6 0.099361 0.272138 0.096476
O O1 0.228752 0.607364 0.681493
O O2 0.123039 0.286918 0.610586
O O3 0.500063 0.511662 0.817400
O O4 0.386133 0.075085 0.072840
O O5 0.796926 0.105215 0.327874
O O6 0.799793 0.395997 0.013378
O O7 0.500000 0.000000 0.000000
O O8 0.500000 0.500000 0.500000
O O9 0.534237 0.138061 0.567350
O O10 0.864081 0.277167 0.864030
O O11 0.103283 0.158093 0.271936
O O12 0.240818 0.037965 0.278231
#
# Coordination Sequence:
#
# PCOD9045140 Si02
#       6
#     2   2   2   2   1   2
#     4  10  23  49  77 112 158 214 275 347 422 499
#     4  12  27  46  74 120 163 211 277 341 418 515
#     4  11  27  51  83 125 174 225 284 354 430 519
#     4  10  23  50  82 108 163 214 271 356 418 502
#     4  12  24  46  86 120 162 220 278 346 422 510
#     4  11  26  50  85 121 163 229 284 341 437 508
#
# _framework density 28.504411000000001
#
# number of rings (size 3 to 8) (size 9 to 14) (size 15 to 20)
#    0.000    1.091    0.000    4.364    2.545    6.545 
#    6.545    0.000   16.000    0.000    0.000    0.000 
#    0.000    0.000    0.000    0.000    0.000    0.000 
#
# Total GULP energy -61729.275786 kJ/mol
# GULP energy per Si atom -5611.752344 kJ/mol
# Density = 2.843953 g / cm^3
# Si number density = 28.504411 Si / 1000 Ang^3
#
#
#
# Elastic Constant Matrix: (Units=GPa)
#
#
# Indices 1 2 3 4 5 6 
#
# 1 233.2146 97.2385 102.5270 23.6004 25.4926 9.5710
# 2 97.2385 203.9983 99.8658 46.4036 -11.6059 -4.8756
# 3 102.5270 99.8658 175.0260 34.4127 1.4379 -9.3970
# 4 23.6004 46.4036 34.4127 54.3784 -5.2712 2.2176
# 5 25.4926 -11.6059 1.4379 -5.2712 75.9486 7.5755
# 6 9.5710 -4.8756 -9.3970 2.2176 7.5755 78.9487
#
#
#
# Elastic Compliance Matrix: (Units=1/GPa)
#
#
# Indices 1 2 3 4 5 6 
#
# 1 0.006647 -0.002034 -0.002865 0.000480 -0.002349 -0.001061
# 2 -0.002034 0.008267 -0.002664 -0.004342 0.001655 0.000403
# 3 -0.002865 -0.002664 0.009484 -0.002535 0.000062 0.001377
# 4 0.000480 -0.004342 -0.002535 0.023645 0.001003 -0.001388
# 5 -0.002349 0.001655 0.000062 0.001003 0.014378 -0.001013
# 6 -0.001061 0.000403 0.001377 -0.001388 -0.001013 0.013120
#
#
# Mechanical properties :
#
#
# Convention : Reuss Voigt Hill
#
# Bulk Modulus (GPa) = 107.85114 134.61126 121.23120
# Shear Modulus (GPa) = 53.32916 62.69564 58.01240
#
# Velocity S-wave (km/s) = 4.33009 4.69498 4.51622
# Velocity P-wave (km/s) = 7.93211 8.75886 8.35572
#
# Compressibility (1/GPa) = 0.00927204
#
# Stress axis : x y z
#
# Youngs Moduli (GPa) = 150.43646 120.96266 105.44498
#
# Poissons Ratio (x) = 0.24602 0.30213
# Poissons Ratio (y) = 0.30597 0.28088
# Poissons Ratio (z) = 0.43105 0.32222
#
# Static dielectric constant tensor:
#      x y z
#    x 2.175260 -0.010700 0.141100 
#    y -0.010700 2.096860 0.020840 
#    z 0.141100 0.020840 2.083750 
# 
# From -- ./inp_files/527077.got.cif
#   From: 2010.05.17/outbox.cif.g08.bks.cpg/sg2_264_cif.got.tgz:527077.got - 2010.06.03 11:33:40.
