data_PCOD9045522
_publ_section_title
;
Structure prediction by ZEFSAII (Michael W. Deem and Ramdas Pophale) SiO2 
 PCOD9045522
Probable space group: P -1
;
_chemical_formula_sum "Si O2"
_cell_formula_units_Z 9
_cell_length_a 12.109596
_cell_length_b 8.079708
_cell_length_c 9.681673
_cell_angle_alpha 150.444743
_cell_angle_beta 50.714182
_cell_angle_gamma 132.348602
_cell_volume 342.422363
_symmetry_space_group_name_H-M "P -1"
_symmetry_group_IT_number 2
_symmetry_cell_setting 'triclinic'
loop_
_space_group_symop_operation_xyz
x,y,z
-x,-y,-z
loop_
_atom_site_type_symbol
_atom_site_label
_atom_site_fract_x
_atom_site_fract_y
_atom_site_fract_z
Si Si1 0.344076 0.426204 0.462873
Si Si2 0.559436 0.668605 0.220206
Si Si3 0.898971 0.696076 0.957223
Si Si4 0.500000 0.000000 0.000000
Si Si5 0.023363 0.117316 0.409979
O O1 0.482262 0.438957 0.251178
O O2 0.348463 0.047651 0.238143
O O3 0.195691 0.379135 0.458568
O O4 0.387965 0.734176 0.762765
O O5 0.500000 0.000000 0.500000
O O6 0.500000 0.500000 0.000000
O O7 0.734283 0.723878 0.123773
O O8 0.911108 0.335765 0.623880
O O9 0.000000 0.000000 0.000000
O O10 0.985247 0.784835 0.098934
O O11 0.000000 0.000000 0.500000
#
# Coordination Sequence:
#
# PCOD9045522 Si02
#       5
#     2   2   2   1   2
#     4  11  24  43  69  96 143 175 238 278 351 412
#     4  12  25  44  72 102 135 182 241 291 345 418
#     4  12  26  47  73 103 145 192 240 290 363 429
#     4  10  24  40  70  94 134 184 228 278 342 408
#     4  12  27  45  71 108 148 186 236 295 364 425
#
# _framework density 26.283328000000001
#
# number of rings (size 3 to 8) (size 9 to 14) (size 15 to 20)
#    0.000    0.444    0.000    8.000    9.333    0.000 
#    0.000    0.000    0.000    0.000    0.000    0.000 
#    0.000    0.000    0.000    0.000    0.000    0.000 
#
# Total GULP energy -50232.478626 kJ/mol
# GULP energy per Si atom -5581.386514 kJ/mol
# Density = 2.622351 g / cm^3
# Si number density = 26.283328 Si / 1000 Ang^3
#
#
#
# Elastic Constant Matrix: (Units=GPa)
#
#
# Indices 1 2 3 4 5 6 
#
# 1 150.3190 46.0203 50.1679 -5.6394 4.8399 38.7127
# 2 46.0203 111.8325 29.2066 -28.5307 -9.9223 12.5714
# 3 50.1679 29.2066 189.3771 29.3539 2.8395 21.7935
# 4 -5.6394 -28.5307 29.3539 42.1277 -2.7999 -8.0074
# 5 4.8399 -9.9223 2.8395 -2.7999 75.0043 -6.3118
# 6 38.7127 12.5714 21.7935 -8.0074 -6.3118 53.1596
#
#
#
# Elastic Compliance Matrix: (Units=1/GPa)
#
#
# Indices 1 2 3 4 5 6 
#
# 1 0.009691 -0.003624 -0.000989 -0.001768 -0.001660 -0.006258
# 2 -0.003624 0.014546 -0.003630 0.012657 0.003017 0.002952
# 3 -0.000989 -0.003630 0.007831 -0.008723 -0.001299 -0.003100
# 4 -0.001768 0.012657 -0.008723 0.040037 0.004321 0.008414
# 5 -0.001660 0.003017 -0.001299 0.004321 0.014334 0.003381
# 6 -0.006258 0.002952 -0.003100 0.008414 0.003381 0.025610
#
#
# Mechanical properties :
#
#
# Convention : Reuss Voigt Hill
#
# Bulk Modulus (GPa) = 64.18299 78.03535 71.10917
# Shear Modulus (GPa) = 37.38872 55.80058 46.59465
#
# Velocity S-wave (km/s) = 3.77573 4.61265 4.21501
# Velocity P-wave (km/s) = 6.59400 7.62386 7.12755
#
# Compressibility (1/GPa) = 0.01558045
#
# Stress axis : x y z
#
# Youngs Moduli (GPa) = 103.18737 68.74529 127.70435
#
# Poissons Ratio (x) = 0.24917 0.12632
# Poissons Ratio (y) = 0.37400 0.46359
# Poissons Ratio (z) = 0.10207 0.24956
#
# Static dielectric constant tensor:
#      x y z
#    x 2.567050 -0.464130 -0.607550 
#    y -0.464130 2.594330 0.384230 
#    z -0.607550 0.384230 2.345910 
# 
# From -- ./inp_files/128939.got.cif
#   From: 2010.05.17/outbox.cif.g08.bks.cpg/sg2_65_cif.got.tgz:128939.got - 2010.06.03 11:33:40.
