data_PCOD9045731
_publ_section_title
;
Structure prediction by ZEFSAII (Michael W. Deem and Ramdas Pophale) SiO2 
 PCOD9045731
Probable space group: P -1
;
_chemical_formula_sum "Si O2"
_cell_formula_units_Z 16
_cell_length_a 19.479102
_cell_length_b 14.434922
_cell_length_c 8.584538
_cell_angle_alpha 55.232193
_cell_angle_beta 123.119039
_cell_angle_gamma 159.108520
_cell_volume 706.321290
_symmetry_space_group_name_H-M "P -1"
_symmetry_group_IT_number 2
_symmetry_cell_setting 'triclinic'
loop_
_space_group_symop_operation_xyz
x,y,z
-x,-y,-z
loop_
_atom_site_type_symbol
_atom_site_label
_atom_site_fract_x
_atom_site_fract_y
_atom_site_fract_z
Si Si1 0.058328 0.772118 0.487647
Si Si2 0.892854 0.524745 0.832431
Si Si3 0.270507 0.229970 0.494803
Si Si4 0.336113 0.539298 0.379452
Si Si5 0.771223 0.971976 0.072123
Si Si6 0.604866 0.829055 0.699551
Si Si7 0.622267 0.253040 0.333211
Si Si8 0.426023 0.063355 0.974069
O O1 0.025198 0.662684 0.713114
O O2 0.846909 0.525986 0.389982
O O3 0.160051 0.015782 0.436601
O O4 0.205108 0.900133 0.423175
O O5 0.796527 0.524510 0.665968
O O6 0.739202 0.236228 0.942328
O O7 0.019422 0.708174 0.965873
O O8 0.500000 0.500000 0.500000
O O9 0.230245 0.313241 0.361279
O O10 0.216692 0.114734 0.708602
O O11 0.446707 0.606721 0.584838
O O12 0.493003 0.801172 0.221268
O O13 0.685500 0.844930 0.916852
O O14 0.640765 0.903230 0.062228
O O15 0.490552 0.781787 0.698475
O O16 0.590514 0.218437 0.142088
O O17 0.500000 0.000000 0.500000
#
# Coordination Sequence:
#
# PCOD9045731 Si02
#       8
#     2   2   2   2   2   2   2   2
#     4  11  23  43  70  95 136 181 224 277 340 403
#     4  11  23  43  66 103 133 177 232 275 342 414
#     4  11  22  46  70  96 135 184 232 277 335 410
#     4  12  23  43  70  95 136 183 222 285 343 396
#     4  10  24  41  67  98 135 175 229 278 339 405
#     4  11  24  43  66 102 134 179 226 279 346 392
#     4  11  23  45  65 102 143 173 224 287 337 407
#     4  11  22  42  69  95 140 177 221 284 343 402
#
# _framework density 22.65258
#
# number of rings (size 3 to 8) (size 9 to 14) (size 15 to 20)
#    0.000    1.000    5.000    1.500    1.750    3.000 
#    0.000    0.625    0.000    0.000    0.000    0.000 
#    0.000    0.000    0.000    0.000    0.000    0.000 
#
# Total GULP energy -89332.775825 kJ/mol
# GULP energy per Si atom -5583.298489 kJ/mol
# Density = 2.260102 g / cm^3
# Si number density = 22.652580 Si / 1000 Ang^3
#
#
#
# Elastic Constant Matrix: (Units=GPa)
#
#
# Indices 1 2 3 4 5 6 
#
# 1 39.3634 30.4215 8.5864 16.8715 10.2398 -1.5696
# 2 30.4215 47.3954 -10.5061 -62.6853 -39.4604 72.1387
# 3 8.5864 -10.5061 50.5879 -16.8359 -25.9062 32.9534
# 4 16.8715 -62.6853 -16.8359 -32.8398 -38.7546 69.8137
# 5 10.2398 -39.4604 -25.9062 -38.7546 7.6804 29.5007
# 6 -1.5696 72.1387 32.9534 69.8137 29.5007 -27.7085
#
#
#
# Elastic Compliance Matrix: (Units=1/GPa)
#
#
# Indices 1 2 3 4 5 6 
#
# 1 0.027910 -0.002984 0.000158 0.000921 -0.004142 -0.011253
# 2 -0.002984 0.008278 -0.003075 -0.004619 -0.002329 0.003947
# 3 0.000158 -0.003075 0.018598 -0.007362 0.005236 0.001129
# 4 0.000921 -0.004619 -0.007362 0.016390 -0.008977 0.010905
# 5 -0.004142 -0.002329 0.005236 -0.008977 0.035656 0.015743
# 6 -0.011253 0.003947 0.001129 0.010905 0.015743 0.020405
#
#
# Mechanical properties :
#
#
# Convention : Reuss Voigt Hill
#
# Bulk Modulus (GPa) = 23.26443 21.59446 22.42944
# Shear Modulus (GPa) = 32.60187 -3.31724 14.64231
#
# Velocity S-wave (km/s) = 3.79781 -1.21144 2.54517
# Velocity P-wave (km/s) = 5.43356 2.75623 4.30815
#
# Compressibility (1/GPa) = 0.04298408
#
# Stress axis : x y z
#
# Youngs Moduli (GPa) = 35.82913 120.80409 53.76967
#
# Poissons Ratio (x) = 0.36047 -0.00850
# Poissons Ratio (y) = 0.10691 0.16535
# Poissons Ratio (z) = -0.00566 0.37148
#
# Static dielectric constant tensor:
#      x y z
#    x 1.961280 0.026210 -0.025050 
#    y 0.026210 1.881130 0.051250 
#    z -0.025050 0.051250 1.882190 
# 
# From -- ./inp_files/318940.got.cif
#   From: 2010.05.17/outbox.cif.g08.bks.cpg/sg2_160_cif.got.tgz:318940.got - 2010.06.03 11:33:40.
