data_PCOD9045903
_publ_section_title
;
Structure prediction by ZEFSAII (Michael W. Deem and Ramdas Pophale) SiO2 
 PCOD9045903
Probable space group: P -1
;
_chemical_formula_sum "Si O2"
_cell_formula_units_Z 16
_cell_length_a 10.491258
_cell_length_b 12.880579
_cell_length_c 14.714827
_cell_angle_alpha 43.886282
_cell_angle_beta 65.934051
_cell_angle_gamma 34.197953
_cell_volume 678.267023
_symmetry_space_group_name_H-M "P -1"
_symmetry_group_IT_number 2
_symmetry_cell_setting 'triclinic'
loop_
_space_group_symop_operation_xyz
x,y,z
-x,-y,-z
loop_
_atom_site_type_symbol
_atom_site_label
_atom_site_fract_x
_atom_site_fract_y
_atom_site_fract_z
Si Si1 0.398801 0.228246 0.219176
Si Si2 0.706671 0.240292 0.832895
Si Si3 0.287681 0.647615 0.042049
Si Si4 0.022710 0.292771 0.247765
Si Si5 0.519670 0.664376 0.508071
Si Si6 0.482159 0.166406 0.035003
Si Si7 0.799310 0.660745 0.539591
Si Si8 0.760816 0.616063 0.298485
O O1 0.258720 0.497150 0.130520
O O2 0.208715 0.268468 0.217511
O O3 0.553940 0.126798 0.144845
O O4 0.597136 0.979772 0.390509
O O5 0.629115 0.388718 0.857068
O O6 0.571544 0.447850 0.658572
O O7 0.640106 0.128365 0.944181
O O8 0.014313 0.974688 0.898829
O O9 0.500000 0.500000 0.000000
O O10 0.852390 0.443854 0.293088
O O11 0.218881 0.977324 0.383634
O O12 0.814498 0.511110 0.092272
O O13 0.638430 0.658192 0.560781
O O14 0.668640 0.590933 0.422090
O O15 0.538930 0.941080 0.140651
O O16 0.000000 0.500000 0.500000
O O17 0.987292 0.513537 0.662618
#
# Coordination Sequence:
#
# PCOD9045903 Si02
#       8
#     2   2   2   2   2   2   2   2
#     4  11  22  41  68  99 126 175 217 276 331 381
#     4  11  27  42  65 100 139 170 218 270 336 395
#     4  11  25  41  67  98 138 175 214 268 340 403
#     4  11  25  42  70  95 130 177 230 270 321 384
#     4  10  24  42  63  97 131 175 212 280 329 390
#     4  12  23  46  66  97 136 176 224 274 315 395
#     4   9  19  35  64  93 128 156 213 270 330 372
#     4  11  23  40  68  96 129 173 222 276 328 383
#
# _framework density 23.589531999999998
#
# number of rings (size 3 to 8) (size 9 to 14) (size 15 to 20)
#    0.000    1.250    5.000    1.500   10.500    1.500 
#    0.000    0.625    0.000    0.000    0.000    0.000 
#    0.000    0.000    0.000    0.000    0.000    0.000 
#
# Total GULP energy -89496.641078 kJ/mol
# GULP energy per Si atom -5593.540067 kJ/mol
# Density = 2.353584 g / cm^3
# Si number density = 23.589532 Si / 1000 Ang^3
#
#
#
# Elastic Constant Matrix: (Units=GPa)
#
#
# Indices 1 2 3 4 5 6 
#
# 1 25.2908 7.1291 12.1020 6.4924 -5.5911 -9.7158
# 2 7.1291 115.2937 49.4942 12.0798 -10.5820 -6.6211
# 3 12.1020 49.4942 131.7606 12.8922 -16.3609 -14.6360
# 4 6.4924 12.0798 12.8922 35.8592 -10.6250 3.1258
# 5 -5.5911 -10.5820 -16.3609 -10.6250 34.4952 -1.1831
# 6 -9.7158 -6.6211 -14.6360 3.1258 -1.1831 29.2439
#
#
#
# Elastic Compliance Matrix: (Units=1/GPa)
#
#
# Indices 1 2 3 4 5 6 
#
# 1 0.050122 -0.000253 -0.001088 -0.008462 0.005513 0.017178
# 2 -0.000253 0.010551 -0.003540 -0.002033 0.000918 0.000788
# 3 -0.001088 -0.003540 0.010032 -0.001653 0.003129 0.004161
# 4 -0.008462 -0.002033 -0.001653 0.033501 0.007286 -0.007385
# 5 0.005513 0.000918 0.003129 0.007286 0.034037 0.004204
# 6 0.017178 0.000788 0.004161 -0.007385 0.004204 0.043122
#
#
# Mechanical properties :
#
#
# Convention : Reuss Voigt Hill
#
# Bulk Modulus (GPa) = 16.40869 45.53287 30.97078
# Shear Modulus (GPa) = 23.64720 33.49433 28.57076
#
# Velocity S-wave (km/s) = 3.16958 3.77222 3.48395
# Velocity P-wave (km/s) = 4.51287 6.19006 5.41677
#
# Compressibility (1/GPa) = 0.06094332
#
# Stress axis : x y z
#
# Youngs Moduli (GPa) = 19.95123 94.77603 99.68470
#
# Poissons Ratio (x) = 0.02399 0.10845
# Poissons Ratio (y) = 0.00505 0.35287
# Poissons Ratio (z) = 0.02170 0.33549
#
# Static dielectric constant tensor:
#      x y z
#    x 1.934760 -0.017460 -0.009120 
#    y -0.017460 1.907740 0.026170 
#    z -0.009120 0.026170 1.919100 
# 
# From -- ./inp_files/522274.got.cif
#   From: 2010.05.17/outbox.cif.g08.bks.cpg/sg2_262_cif.got.tgz:522274.got - 2010.06.03 11:33:40.
