data_PCOD9045309
_publ_section_title
;
Structure prediction by ZEFSAII (Michael W. Deem and Ramdas Pophale) SiO2 
 PCOD9045309
Probable space group: P -1
;
_chemical_formula_sum "Si O2"
_cell_formula_units_Z 15
_cell_length_a 9.014313
_cell_length_b 6.052887
_cell_length_c 21.933259
_cell_angle_alpha 69.580723
_cell_angle_beta 47.069120
_cell_angle_gamma 53.258415
_cell_volume 698.646475
_symmetry_space_group_name_H-M "P -1"
_symmetry_group_IT_number 2
_symmetry_cell_setting 'triclinic'
loop_
_space_group_symop_operation_xyz
x,y,z
-x,-y,-z
loop_
_atom_site_type_symbol
_atom_site_label
_atom_site_fract_x
_atom_site_fract_y
_atom_site_fract_z
Si Si1 0.000000 0.000000 0.000000
Si Si2 0.082477 0.569150 0.232068
Si Si3 0.398567 0.930459 0.476010
Si Si4 0.416439 0.621108 0.827422
Si Si5 0.681260 0.610120 0.939453
Si Si6 0.386015 0.830745 0.679716
Si Si7 0.691398 0.784852 0.049181
Si Si8 0.212243 0.666786 0.627629
O O1 0.870151 0.884269 0.003479
O O2 0.769523 0.128763 0.100849
O O3 0.323968 0.507595 0.202013
O O4 0.121708 0.557341 0.149621
O O5 0.020948 0.341087 0.291590
O O6 0.856372 0.867073 0.281866
O O7 0.185005 0.902638 0.565678
O O8 0.598757 0.625932 0.427153
O O9 0.500000 0.000000 0.500000
O O10 0.394572 0.134024 0.405865
O O11 0.417759 0.708559 0.749588
O O12 0.350612 0.384193 0.871863
O O13 0.552165 0.931253 0.926600
O O14 0.500000 0.500000 0.000000
O O15 0.768164 0.588134 0.986223
O O16 0.333658 0.676038 0.655831
#
# Coordination Sequence:
#
# PCOD9045309 Si02
#       8
#     1   2   2   2   2   2   2   2
#     4  12  26  44  58  92 132 176 226 280 322 386
#     4  11  24  41  63  96 130 171 220 278 327 394
#     4   8  16  39  67  97 131 169 211 261 327 399
#     4  12  27  43  63  98 135 172 226 278 332 389
#     4  11  23  43  65  89 124 177 225 273 336 392
#     4  10  24  39  67  97 132 172 216 270 329 398
#     4  11  25  42  64  86 127 178 221 282 332 389
#     4   9  19  38  68  98 128 172 216 264 329 395
#
# _framework density 21.470088000000001
#
# number of rings (size 3 to 8) (size 9 to 14) (size 15 to 20)
#    0.000    1.600    2.667    0.400    7.467    2.133 
#    0.000    0.667    0.000   27.200    0.000    0.000 
#    0.000    0.000    0.000    0.000    0.000    0.000 
#
# Total GULP energy -83516.791556 kJ/mol
# GULP energy per Si atom -5567.786104 kJ/mol
# Density = 2.142122 g / cm^3
# Si number density = 21.470088 Si / 1000 Ang^3
#
#
#
# Elastic Constant Matrix: (Units=GPa)
#
#
# Indices 1 2 3 4 5 6 
#
# 1 86.9127 20.4085 36.4858 -9.5137 7.4801 23.4132
# 2 20.4085 42.5545 41.3159 -5.6714 18.9239 6.6670
# 3 36.4858 41.3159 134.6287 -25.6824 14.5125 15.9982
# 4 -9.5137 -5.6714 -25.6824 35.4116 10.3949 10.0519
# 5 7.4801 18.9239 14.5125 10.3949 38.9464 -3.8773
# 6 23.4132 6.6670 15.9982 10.0519 -3.8773 40.2887
#
#
#
# Elastic Compliance Matrix: (Units=1/GPa)
#
#
# Indices 1 2 3 4 5 6 
#
# 1 0.016911 -0.002338 0.000038 0.009434 -0.005876 -0.012375
# 2 -0.002338 0.044069 -0.008202 0.008541 -0.020866 -0.006816
# 3 0.000038 -0.008202 0.013798 0.012449 -0.005258 -0.007756
# 4 0.009434 0.008541 0.012449 0.057924 -0.028955 -0.029077
# 5 -0.005876 -0.020866 -0.005258 -0.028955 0.048708 0.020867
# 6 -0.012375 -0.006816 -0.007756 -0.029077 0.020867 0.045483
#
#
# Mechanical properties :
#
#
# Convention : Reuss Voigt Hill
#
# Bulk Modulus (GPa) = 18.59649 51.16848 34.88248
# Shear Modulus (GPa) = 18.80963 33.98840 26.39902
#
# Velocity S-wave (km/s) = 2.96309 3.98308 3.51033
# Velocity P-wave (km/s) = 4.51518 6.71100 5.71946
#
# Compressibility (1/GPa) = 0.05377360
#
# Stress axis : x y z
#
# Youngs Moduli (GPa) = 59.13344 22.69169 72.47539
#
# Poissons Ratio (x) = 0.05306 -0.00277
# Poissons Ratio (y) = 0.13826 0.59445
# Poissons Ratio (z) = -0.00226 0.18612
#
# Static dielectric constant tensor:
#      x y z
#    x 1.769600 -0.037650 -0.013100 
#    y -0.037650 1.928040 -0.029830 
#    z -0.013100 -0.029830 1.827240 
# 
# From -- ./inp_files/55164.got.cif
#   From: 2010.05.17/outbox.cif.g08.bks.cpg/sg2_28_cif.got.tgz:55164.got - 2010.06.03 11:33:40.
