data_PCOD9045181
_publ_section_title
;
Structure prediction by ZEFSAII (Michael W. Deem and Ramdas Pophale) SiO2 
 PCOD9045181
Probable space group: P -1
;
_chemical_formula_sum "Si O2"
_cell_formula_units_Z 16
_cell_length_a 21.133471
_cell_length_b 15.383904
_cell_length_c 4.932525
_cell_angle_alpha 92.580930
_cell_angle_beta 79.662574
_cell_angle_gamma 156.482469
_cell_volume 599.630463
_symmetry_space_group_name_H-M "P -1"
_symmetry_group_IT_number 2
_symmetry_cell_setting 'triclinic'
loop_
_space_group_symop_operation_xyz
x,y,z
-x,-y,-z
loop_
_atom_site_type_symbol
_atom_site_label
_atom_site_fract_x
_atom_site_fract_y
_atom_site_fract_z
Si Si1 0.687943 0.514463 0.421700
Si Si2 0.560343 0.891290 0.145562
Si Si3 0.129281 0.322570 0.170097
Si Si4 0.685196 0.779067 0.943157
Si Si5 0.674346 0.247163 0.550495
Si Si6 0.036918 0.733677 0.395088
Si Si7 0.756859 0.164755 0.549296
Si Si8 0.205320 0.166670 0.648689
O O1 0.508655 0.278285 0.668749
O O2 0.811300 0.648721 0.595889
O O3 0.709526 0.637292 0.315134
O O4 0.731706 0.503360 0.145805
O O5 0.404596 0.765524 0.253767
O O6 0.715650 0.114858 0.253566
O O7 0.612694 0.939620 0.809459
O O8 0.037502 0.297309 0.316141
O O9 0.983140 0.077743 0.133131
O O10 0.790338 0.845043 0.675421
O O11 0.797671 0.008480 0.816005
O O12 0.500000 0.500000 0.000000
O O13 0.699688 0.790109 0.256575
O O14 0.725722 0.225649 0.678302
O O15 0.861863 0.503133 0.320835
O O16 0.500000 0.000000 0.500000
O O17 0.089017 0.703868 0.465833
#
# Coordination Sequence:
#
# PCOD9045181 Si02
#       8
#     2   2   2   2   2   2   2   2
#     4  12  23  41  72 102 146 190 250 296 367 431
#     4  11  25  44  73 107 147 187 243 309 370 430
#     4  11  23  42  66 108 142 191 238 309 358 434
#     4  11  26  45  67 104 153 203 237 301 362 442
#     4  10  23  51  78 110 146 192 246 317 374 437
#     4  11  25  47  77 109 152 195 250 298 379 444
#     4  11  26  47  72 109 143 193 243 304 370 449
#     4  11  24  41  68 100 145 190 252 298 358 421
#
# _framework density 26.683101000000001
#
# number of rings (size 3 to 8) (size 9 to 14) (size 15 to 20)
#    0.000    1.000    1.250    4.875    3.500    3.000 
#    0.000    3.125    0.000    0.000    0.000    0.000 
#    0.000    0.000    0.000    0.000    0.000    0.000 
#
# Total GULP energy -89127.939607 kJ/mol
# GULP energy per Si atom -5570.496225 kJ/mol
# Density = 2.662237 g / cm^3
# Si number density = 26.683101 Si / 1000 Ang^3
#
#
#
# Elastic Constant Matrix: (Units=GPa)
#
#
# Indices 1 2 3 4 5 6 
#
# 1 150.3653 27.5689 14.9234 -10.7173 16.9550 13.7294
# 2 27.5689 137.9819 33.3488 -25.4416 6.2399 15.6064
# 3 14.9234 33.3488 108.1853 -6.5134 10.0562 12.3801
# 4 -10.7173 -25.4416 -6.5134 41.6640 7.0152 0.7138
# 5 16.9550 6.2399 10.0562 7.0152 22.9428 -9.3391
# 6 13.7294 15.6064 12.3801 0.7138 -9.3391 39.6885
#
#
#
# Elastic Compliance Matrix: (Units=1/GPa)
#
#
# Indices 1 2 3 4 5 6 
#
# 1 0.008533 -0.000019 0.000657 0.004086 -0.010119 -0.005604
# 2 -0.000019 0.009679 -0.001451 0.006781 -0.006047 -0.004892
# 3 0.000657 -0.001451 0.011021 0.002380 -0.007660 -0.004939
# 4 0.004086 0.006781 0.002380 0.033137 -0.020177 -0.010166
# 5 -0.010119 -0.006047 -0.007660 -0.020177 0.072714 0.025741
# 6 -0.005604 -0.004892 -0.004939 -0.010166 0.025741 0.036839
#
#
# Mechanical properties :
#
#
# Convention : Reuss Voigt Hill
#
# Bulk Modulus (GPa) = 36.22427 60.91273 48.56850
# Shear Modulus (GPa) = 27.35991 42.23850 34.79920
#
# Velocity S-wave (km/s) = 3.20561 3.98297 3.61524
# Velocity P-wave (km/s) = 5.22555 6.63550 5.97228
#
# Compressibility (1/GPa) = 0.02760580
#
# Stress axis : x y z
#
# Youngs Moduli (GPa) = 117.19779 103.31978 90.73940
#
# Poissons Ratio (x) = 0.00194 -0.05958
# Poissons Ratio (y) = 0.00220 0.13165
# Poissons Ratio (z) = -0.07695 0.14990
#
# Static dielectric constant tensor:
#      x y z
#    x 2.119050 -0.029680 0.017750 
#    y -0.029680 2.281980 -0.100440 
#    z 0.017750 -0.100440 2.040460 
# 
# From -- ./inp_files/124718.got.cif
#   From: 2010.05.17/outbox.cif.g08.bks.cpg/sg2_63_cif.got.tgz:124718.got - 2010.06.03 11:33:40.
