data_PCOD9045239
_publ_section_title
;
Structure prediction by ZEFSAII (Michael W. Deem and Ramdas Pophale) SiO2 
 PCOD9045239
Probable space group: P -1
;
_chemical_formula_sum "Si O2"
_cell_formula_units_Z 16
_cell_length_a 12.013088
_cell_length_b 26.587557
_cell_length_c 28.549555
_cell_angle_alpha 169.790006
_cell_angle_beta 152.185541
_cell_angle_gamma 28.296286
_cell_volume 748.613985
_symmetry_space_group_name_H-M "P -1"
_symmetry_group_IT_number 2
_symmetry_cell_setting 'triclinic'
loop_
_space_group_symop_operation_xyz
x,y,z
-x,-y,-z
loop_
_atom_site_type_symbol
_atom_site_label
_atom_site_fract_x
_atom_site_fract_y
_atom_site_fract_z
Si Si1 0.787130 0.448715 0.949750
Si Si2 0.928385 0.062155 0.802719
Si Si3 0.193511 0.807823 0.926738
Si Si4 0.772151 0.848378 0.648329
Si Si5 0.289218 0.076402 0.802113
Si Si6 0.950249 0.332562 0.596363
Si Si7 0.612030 0.846384 0.336718
Si Si8 0.742221 0.972129 0.358450
O O1 0.643702 0.177812 0.646009
O O2 0.706624 0.656021 0.152981
O O3 0.731002 0.634499 0.052465
O O4 0.065309 0.326160 0.948628
O O5 0.877673 0.975894 0.757935
O O6 0.034899 0.790224 0.562972
O O7 0.670931 0.170741 0.781816
O O8 0.085663 0.325498 0.100921
O O9 0.200071 0.956418 0.116589
O O10 0.451977 0.813889 0.002896
O O11 0.136375 0.483024 0.612693
O O12 0.000000 0.000000 0.000000
O O13 0.484122 0.866386 0.551536
O O14 0.236959 0.841008 0.604862
O O15 0.267428 0.937186 0.615441
O O16 0.209914 0.244496 0.637337
O O17 0.000000 0.000000 0.500000
#
# Coordination Sequence:
#
# PCOD9045239 Si02
#       8
#     2   2   2   2   2   2   2   2
#     4  11  21  35  57  87 130 163 209 259 304 363
#     4  12  23  39  61  86 133 171 218 253 291 368
#     4  11  25  48  73  96 122 154 207 280 335 384
#     4  11  25  41  69  98 123 165 214 257 324 376
#     4  10  24  38  62  93 126 168 215 253 324 382
#     4  11  23  38  56  88 129 179 212 253 296 359
#     4  11  22  36  55  85 128 179 222 243 287 353
#     4  11  21  37  59  91 133 167 207 260 310 376
#
# _framework density 21.37283
#
# number of rings (size 3 to 8) (size 9 to 14) (size 15 to 20)
#    0.000    1.000    1.250    6.750    3.500    4.000 
#    0.000    0.000    0.000    4.500    0.000    0.000 
#    0.000    0.000    0.000    0.000    0.000    0.000 
#
# Total GULP energy -89502.780511 kJ/mol
# GULP energy per Si atom -5593.923782 kJ/mol
# Density = 2.132418 g / cm^3
# Si number density = 21.372830 Si / 1000 Ang^3
#
#
#
# Elastic Constant Matrix: (Units=GPa)
#
#
# Indices 1 2 3 4 5 6 
#
# 1 106.0930 7.6434 35.5485 -5.3225 -5.1071 8.5188
# 2 7.6434 31.9611 -4.8860 8.3720 3.7643 4.0920
# 3 35.5485 -4.8860 122.5883 10.2602 -5.7661 4.7566
# 4 -5.3225 8.3720 10.2602 21.2056 3.9792 0.8651
# 5 -5.1071 3.7643 -5.7661 3.9792 35.0344 -0.1554
# 6 8.5188 4.0920 4.7566 0.8651 -0.1554 16.4671
#
#
#
# Elastic Compliance Matrix: (Units=1/GPa)
#
#
# Indices 1 2 3 4 5 6 
#
# 1 0.011818 -0.004784 -0.003990 0.006806 0.000789 -0.004122
# 2 -0.004784 0.039144 0.004670 -0.018208 -0.002101 -0.007664
# 3 -0.003990 0.004670 0.010310 -0.008052 0.001521 -0.001637
# 4 0.006806 -0.018208 -0.008052 0.060941 -0.005298 0.000078
# 5 0.000789 -0.002101 0.001521 -0.005298 0.029737 0.000234
# 6 -0.004122 -0.007664 -0.001637 0.000078 0.000234 0.065235
#
#
# Mechanical properties :
#
#
# Convention : Reuss Voigt Hill
#
# Bulk Modulus (GPa) = 18.84557 37.47270 28.15913
# Shear Modulus (GPa) = 20.56932 29.36386 24.96659
#
# Velocity S-wave (km/s) = 3.10563 3.71062 3.42152
# Velocity P-wave (km/s) = 4.65796 5.99410 5.36776
#
# Compressibility (1/GPa) = 0.05306287
#
# Stress axis : x y z
#
# Youngs Moduli (GPa) = 84.61864 25.54666 96.99732
#
# Poissons Ratio (x) = 0.12222 0.38704
# Poissons Ratio (y) = 0.40482 -0.45297
# Poissons Ratio (z) = 0.33764 -0.11930
#
# Static dielectric constant tensor:
#      x y z
#    x 1.822210 -0.006220 0.021130 
#    y -0.006220 1.755540 -0.013700 
#    z 0.021130 -0.013700 1.829700 
# 
# From -- ./inp_files/623228.got.cif
#   From: 2010.05.17/outbox.cif.g08.bks.cpg/sg2_312_cif.got.tgz:623228.got - 2010.06.03 11:33:40.
