data_PCOD9045357
_publ_section_title
;
Structure prediction by ZEFSAII (Michael W. Deem and Ramdas Pophale) SiO2 
 PCOD9045357
Probable space group: P -1
;
_chemical_formula_sum "Si O2"
_cell_formula_units_Z 14
_cell_length_a 15.326643
_cell_length_b 9.996718
_cell_length_c 7.773176
_cell_angle_alpha 68.691264
_cell_angle_beta 105.544550
_cell_angle_gamma 143.827703
_cell_volume 654.180111
_symmetry_space_group_name_H-M "P -1"
_symmetry_group_IT_number 2
_symmetry_cell_setting 'triclinic'
loop_
_space_group_symop_operation_xyz
x,y,z
-x,-y,-z
loop_
_atom_site_type_symbol
_atom_site_label
_atom_site_fract_x
_atom_site_fract_y
_atom_site_fract_z
Si Si1 0.455055 0.357090 0.313028
Si Si2 0.607920 0.261509 0.382964
Si Si3 0.212070 0.207674 0.391711
Si Si4 0.911048 0.705042 0.493971
Si Si5 0.002209 0.330871 0.081553
Si Si6 0.240153 0.437997 0.979547
Si Si7 0.722503 0.817150 0.040830
O O1 0.535918 0.310134 0.410540
O O2 0.352059 0.281350 0.448022
O O3 0.580146 0.617430 0.179611
O O4 0.339579 0.199720 0.164711
O O5 0.778922 0.460428 0.439430
O O6 0.624527 0.316913 0.162443
O O7 0.500000 0.000000 0.500000
O O8 0.156298 0.224889 0.518141
O O9 0.265777 0.394286 0.196360
O O10 0.066654 0.938443 0.376999
O O11 0.951511 0.669358 0.705368
O O12 0.842835 0.068055 0.072570
O O13 0.000000 0.500000 0.000000
O O14 0.113771 0.395553 0.973215
O O15 0.210147 0.258311 0.929520
#
# Coordination Sequence:
#
# PCOD9045357 Si02
#       7
#     2   2   2   2   2   2   2
#     4   9  20  37  65  92 115 165 211 258 300 365
#     4  11  25  41  61  91 133 162 204 255 318 378
#     4   9  20  41  66  93 120 157 219 260 303 362
#     4  10  24  40  61  95 127 161 203 267 311 364
#     4  11  24  40  62  94 131 167 207 257 316 378
#     4   9  21  40  67  89 116 177 209 246 310 370
#     4   9  19  38  66  91 119 160 222 256 292 373
#
# _framework density 21.400834
#
# number of rings (size 3 to 8) (size 9 to 14) (size 15 to 20)
#    0.000    2.286    0.000    1.286   18.000    1.714 
#    2.571    2.857    0.000    0.000    0.000    0.000 
#    0.000    0.000    0.000    0.000    0.000    0.000 
#
# Total GULP energy -78132.855809 kJ/mol
# GULP energy per Si atom -5580.918272 kJ/mol
# Density = 2.135213 g / cm^3
# Si number density = 21.400834 Si / 1000 Ang^3
#
#
#
# Elastic Constant Matrix: (Units=GPa)
#
#
# Indices 1 2 3 4 5 6 
#
# 1 122.4829 40.9866 19.9846 -12.0325 -6.8861 19.1410
# 2 40.9866 107.9860 32.9877 -20.1015 8.3389 13.7142
# 3 19.9846 32.9877 86.2166 -10.4766 -3.3378 7.0721
# 4 -12.0325 -20.1015 -10.4766 37.0256 5.7138 -0.6418
# 5 -6.8861 8.3389 -3.3378 5.7138 33.4347 -7.6661
# 6 19.1410 13.7142 7.0721 -0.6418 -7.6661 25.9471
#
#
#
# Elastic Compliance Matrix: (Units=1/GPa)
#
#
# Indices 1 2 3 4 5 6 
#
# 1 0.010286 -0.002871 -0.000626 0.001313 0.001290 -0.005486
# 2 -0.002871 0.014031 -0.003660 0.006623 -0.007012 -0.006208
# 3 -0.000626 -0.003660 0.013432 0.001330 0.001733 -0.000720
# 4 0.001313 0.006623 0.001330 0.032576 -0.008301 -0.006478
# 5 0.001290 -0.007012 0.001733 -0.008301 0.036461 0.012849
# 6 -0.005486 -0.006208 -0.000720 -0.006478 0.012849 0.049700
#
#
# Mechanical properties :
#
#
# Convention : Reuss Voigt Hill
#
# Bulk Modulus (GPa) = 42.67385 56.06702 49.37043
# Shear Modulus (GPa) = 27.99326 34.12993 31.06159
#
# Velocity S-wave (km/s) = 3.62061 3.99782 3.81388
# Velocity P-wave (km/s) = 6.12062 6.89677 6.52026
#
# Compressibility (1/GPa) = 0.02343356
#
# Stress axis : x y z
#
# Youngs Moduli (GPa) = 97.21697 71.26931 74.44866
#
# Poissons Ratio (x) = 0.20465 0.04662
# Poissons Ratio (y) = 0.27915 0.27251
# Poissons Ratio (z) = 0.06088 0.26087
#
# Static dielectric constant tensor:
#      x y z
#    x 1.816290 0.003780 -0.015270 
#    y 0.003780 1.793460 0.062240 
#    z -0.015270 0.062240 1.831680 
# 
# From -- ./inp_files/224075.got.cif
#   From: 2010.05.17/outbox.cif.g08.bks.cpg/sg2_113_cif.got.tgz:224075.got - 2010.06.03 11:33:40.
