data_PCOD9045962
_publ_section_title
;
Structure prediction by ZEFSAII (Michael W. Deem and Ramdas Pophale) SiO2 
 PCOD9045962
Probable space group: P -1
;
_chemical_formula_sum "Si O2"
_cell_formula_units_Z 16
_cell_length_a 13.847737
_cell_length_b 9.639297
_cell_length_c 13.537180
_cell_angle_alpha 97.575650
_cell_angle_beta 132.003283
_cell_angle_gamma 42.778580
_cell_volume 640.392324
_symmetry_space_group_name_H-M "P -1"
_symmetry_group_IT_number 2
_symmetry_cell_setting 'triclinic'
loop_
_space_group_symop_operation_xyz
x,y,z
-x,-y,-z
loop_
_atom_site_type_symbol
_atom_site_label
_atom_site_fract_x
_atom_site_fract_y
_atom_site_fract_z
Si Si1 0.861364 0.761052 0.022653
Si Si2 0.995285 0.318523 0.368126
Si Si3 0.186786 0.112444 0.774195
Si Si4 0.269642 0.396045 0.001020
Si Si5 0.689859 0.721177 0.386582
Si Si6 0.103661 0.805335 0.198052
Si Si7 0.624251 0.392939 0.831919
Si Si8 0.916441 0.092284 0.587375
O O1 0.879538 0.576518 0.029844
O O2 0.625383 0.014452 0.806109
O O3 0.764067 0.894487 0.080022
O O4 0.111247 0.630912 0.171242
O O5 0.264193 0.157912 0.549204
O O6 0.802738 0.567703 0.342619
O O7 0.028101 0.124345 0.394431
O O8 0.884156 0.442788 0.193422
O O9 0.895914 0.449251 0.576214
O O10 0.162569 0.967857 0.732886
O O11 0.427706 0.937663 0.854033
O O12 0.308105 0.511485 0.085019
O O13 0.253603 0.742660 0.206983
O O14 0.188998 0.770194 0.361655
O O15 0.788238 0.145434 0.998598
O O16 0.309012 0.663248 0.626246
#
# Coordination Sequence:
#
# PCOD9045962 Si02
#       8
#     2   2   2   2   2   2   2   2
#     4  11  22  39  62  89 124 157 198 245 296 353
#     4  11  22  37  59  89 121 163 197 238 296 356
#     4  11  23  37  61  93 123 159 194 241 300 361
#     4  12  22  40  61  87 128 161 195 244 297 356
#     4  11  21  37  60  86 124 158 196 237 297 361
#     4  10  24  42  65  90 114 158 204 253 296 347
#     4  11  23  43  66  86 119 158 202 251 301 347
#     4  11  23  41  63  91 122 153 203 246 297 359
#
# _framework density 24.984684000000001
#
# number of rings (size 3 to 8) (size 9 to 14) (size 15 to 20)
#    0.000    1.000    3.750    4.500    0.000    4.000 
#    0.000    0.000    0.000    1.500    0.000    0.000 
#    0.000    0.000    0.000    0.000    0.000    0.000 
#
# Total GULP energy -89564.301768 kJ/mol
# GULP energy per Si atom -5597.768861 kJ/mol
# Density = 2.492782 g / cm^3
# Si number density = 24.984684 Si / 1000 Ang^3
#
#
#
# Elastic Constant Matrix: (Units=GPa)
#
#
# Indices 1 2 3 4 5 6 
#
# 1 58.0933 15.1577 5.4087 1.6156 -5.9832 16.1698
# 2 15.1577 93.0018 34.7239 25.1729 12.6471 27.2566
# 3 5.4087 34.7239 134.7270 11.5353 -20.7224 7.8832
# 4 1.6156 25.1729 11.5353 41.4276 8.3261 0.2582
# 5 -5.9832 12.6471 -20.7224 8.3261 33.0680 13.1792
# 6 16.1698 27.2566 7.8832 0.2582 13.1792 47.6005
#
#
#
# Elastic Compliance Matrix: (Units=1/GPa)
#
#
# Indices 1 2 3 4 5 6 
#
# 1 0.021239 -0.002467 0.002012 -0.001857 0.010067 -0.008913
# 2 -0.002467 0.017772 -0.004039 -0.008589 -0.004694 -0.007323
# 3 0.002012 -0.004039 0.010332 -0.002527 0.010169 -0.002883
# 4 -0.001857 -0.008589 -0.002527 0.032120 -0.010151 0.008604
# 5 0.010067 -0.004694 0.010169 -0.010151 0.049150 -0.015970
# 6 -0.008913 -0.007323 -0.002883 0.008604 -0.015970 0.033082
#
#
# Mechanical properties :
#
#
# Convention : Reuss Voigt Hill
#
# Bulk Modulus (GPa) = 24.78038 44.04474 34.41256
# Shear Modulus (GPa) = 26.86210 39.78799 33.32505
#
# Velocity S-wave (km/s) = 3.28249 3.99494 3.65611
# Velocity P-wave (km/s) = 4.93012 6.24070 5.62372
#
# Compressibility (1/GPa) = 0.04035451
#
# Stress axis : x y z
#
# Youngs Moduli (GPa) = 47.08237 56.26762 96.78799
#
# Poissons Ratio (x) = 0.13882 -0.19475
# Poissons Ratio (y) = 0.11616 0.39097
# Poissons Ratio (z) = -0.09474 0.22729
#
# Static dielectric constant tensor:
#      x y z
#    x 1.979190 0.006210 0.033760 
#    y 0.006210 2.004840 -0.036480 
#    z 0.033760 -0.036480 1.951550 
# 
# From -- ./inp_files/187933.got.cif
#   From: 2010.05.17/outbox.cif.g08.bks.cpg/sg2_94_cif.got.tgz:187933.got - 2010.06.03 11:33:40.
