data_PCOD9045637
_publ_section_title
;
Structure prediction by ZEFSAII (Michael W. Deem and Ramdas Pophale) SiO2 
 PCOD9045637
Probable space group: P -1
;
_chemical_formula_sum "Si O2"
_cell_formula_units_Z 16
_cell_length_a 7.847750
_cell_length_b 5.616707
_cell_length_c 17.810123
_cell_angle_alpha 68.744975
_cell_angle_beta 86.570187
_cell_angle_gamma 65.059847
_cell_volume 659.382517
_symmetry_space_group_name_H-M "P -1"
_symmetry_group_IT_number 2
_symmetry_cell_setting 'triclinic'
loop_
_space_group_symop_operation_xyz
x,y,z
-x,-y,-z
loop_
_atom_site_type_symbol
_atom_site_label
_atom_site_fract_x
_atom_site_fract_y
_atom_site_fract_z
Si Si1 0.369599 0.183312 0.195021
Si Si2 0.081718 0.762075 0.177806
Si Si3 0.695223 0.282603 0.683221
Si Si4 0.234759 0.600135 0.500261
Si Si5 0.197415 0.051206 0.564400
Si Si6 0.105939 0.165070 0.023032
Si Si7 0.692212 0.810395 0.126186
Si Si8 0.666099 0.314576 0.263170
O O1 0.214067 0.501148 0.151229
O O2 0.540493 0.188069 0.239233
O O3 0.271315 0.036286 0.266736
O O4 0.486276 0.017330 0.138304
O O5 0.158633 0.671085 0.269947
O O6 0.863396 0.839195 0.163320
O O7 0.128197 0.018521 0.120100
O O8 0.708498 0.361730 0.589494
O O9 0.486480 0.455846 0.703441
O O10 0.292418 0.267654 0.551332
O O11 0.005813 0.756518 0.488004
O O12 0.292941 0.788061 0.534544
O O13 0.182499 0.913378 0.660159
O O14 0.276368 0.129840 0.967230
O O15 0.000000 0.500000 0.000000
O O16 0.000000 0.000000 0.000000
O O17 0.725766 0.490815 0.181939
#
# Coordination Sequence:
#
# PCOD9045637 Si02
#       8
#     2   2   2   2   2   2   2   2
#     4  10  24  43  62 106 134 176 240 266 340 413
#     4  10  24  42  72  98 136 182 223 286 338 403
#     4  10  24  42  64  97 132 175 226 275 338 406
#     4  10  24  41  64  96 129 170 224 277 335 402
#     4  10  24  41  64  96 129 170 224 277 335 402
#     4  10  24  43  69 107 136 175 237 275 339 412
#     4  10  24  42  72  98 136 182 223 286 338 403
#     4  10  24  42  64  97 132 175 226 275 338 406
#
# _framework density 24.265124
#
# number of rings (size 3 to 8) (size 9 to 14) (size 15 to 20)
#    0.000    2.000    0.000    0.000   17.500    2.500 
#    0.000    5.625    0.000    0.000    0.000    0.000 
#    0.000    0.000    0.000    0.000    0.000    0.000 
#
# Total GULP energy -89398.932729 kJ/mol
# GULP energy per Si atom -5587.433296 kJ/mol
# Density = 2.420990 g / cm^3
# Si number density = 24.265124 Si / 1000 Ang^3
#
#
#
# Elastic Constant Matrix: (Units=GPa)
#
#
# Indices 1 2 3 4 5 6 
#
# 1 86.0672 30.1338 9.9916 1.5524 -2.4408 4.4051
# 2 30.1338 122.9762 27.0425 -5.8960 -7.2015 11.7153
# 3 9.9916 27.0425 87.9603 0.1845 -15.6403 6.9355
# 4 1.5524 -5.8960 0.1845 25.9840 -8.6614 -8.6889
# 5 -2.4408 -7.2015 -15.6403 -8.6614 33.1319 -7.4949
# 6 4.4051 11.7153 6.9355 -8.6889 -7.4949 31.7985
#
#
#
# Elastic Compliance Matrix: (Units=1/GPa)
#
#
# Indices 1 2 3 4 5 6 
#
# 1 0.012835 -0.003049 -0.000563 -0.002185 -0.000855 -0.001330
# 2 -0.003049 0.009724 -0.002339 0.002083 0.000907 -0.001867
# 3 -0.000563 -0.002339 0.013231 0.001363 0.006017 -0.000155
# 4 -0.002185 0.002083 0.001363 0.050991 0.018216 0.017465
# 5 -0.000855 0.000907 0.006017 0.018216 0.040879 0.013085
# 6 -0.001330 -0.001867 -0.000155 0.017465 0.013085 0.040210
#
#
# Mechanical properties :
#
#
# Convention : Reuss Voigt Hill
#
# Bulk Modulus (GPa) = 41.86310 47.92661 44.89485
# Shear Modulus (GPa) = 26.63316 33.50526 30.06921
#
# Velocity S-wave (km/s) = 3.31658 3.71994 3.52404
# Velocity P-wave (km/s) = 5.65298 6.18423 5.92456
#
# Compressibility (1/GPa) = 0.02388739
#
# Stress axis : x y z
#
# Youngs Moduli (GPa) = 77.91153 102.83758 75.57923
#
# Poissons Ratio (x) = 0.31359 0.04255
# Poissons Ratio (y) = 0.23758 0.17678
# Poissons Ratio (z) = 0.04387 0.24054
#
# Static dielectric constant tensor:
#      x y z
#    x 1.945750 0.044280 0.055270 
#    y 0.044280 2.034650 0.017940 
#    z 0.055270 0.017940 1.928340 
# 
# From -- ./inp_files/39209.got.cif
#   From: 2010.05.17/outbox.cif.g08.bks.cpg/sg2_20_cif.got.tgz:39209.got - 2010.06.03 11:33:40.
