data_PCOD9045603
_publ_section_title
;
Structure prediction by ZEFSAII (Michael W. Deem and Ramdas Pophale) SiO2 
 PCOD9045603
Probable space group: P -1
;
_chemical_formula_sum "Si O2"
_cell_formula_units_Z 16
_cell_length_a 5.742647
_cell_length_b 8.686245
_cell_length_c 28.105886
_cell_angle_alpha 38.721946
_cell_angle_beta 104.268890
_cell_angle_gamma 121.786558
_cell_volume 708.890220
_symmetry_space_group_name_H-M "P -1"
_symmetry_group_IT_number 2
_symmetry_cell_setting 'triclinic'
loop_
_space_group_symop_operation_xyz
x,y,z
-x,-y,-z
loop_
_atom_site_type_symbol
_atom_site_label
_atom_site_fract_x
_atom_site_fract_y
_atom_site_fract_z
Si Si1 0.809192 0.367711 0.378577
Si Si2 0.741023 0.257258 0.759572
Si Si3 0.160065 0.342122 0.241944
Si Si4 0.371345 0.290400 0.648871
Si Si5 0.164407 0.369093 0.477817
Si Si6 0.727002 0.050236 0.605975
Si Si7 0.583503 0.435176 0.070987
Si Si8 0.739533 0.349372 0.928791
O O1 0.769612 0.564282 0.366259
O O2 0.532992 0.079841 0.412490
O O3 0.950880 0.584442 0.288244
O O4 0.979953 0.273055 0.442939
O O5 0.776597 0.438989 0.764526
O O6 0.575222 0.297242 0.698499
O O7 0.576276 0.915235 0.845613
O O8 0.333238 0.190974 0.299583
O O9 0.226692 0.509639 0.155396
O O10 0.837657 0.050600 0.293259
O O11 0.521284 0.490685 0.561743
O O12 0.197081 0.657221 0.434037
O O13 0.992047 0.116077 0.568992
O O14 0.418060 0.530592 0.075578
O O15 0.934310 0.575040 0.059820
O O16 0.500000 0.500000 0.000000
O O17 0.500000 0.000000 0.000000
#
# Coordination Sequence:
#
# PCOD9045603 Si02
#       8
#     2   2   2   2   2   2   2   2
#     4  11  22  42  66  93 134 183 236 300 355 431
#     4  11  25  43  69 101 135 188 236 292 360 436
#     4  12  24  44  71 101 140 184 236 295 365 437
#     4  11  22  43  65  94 136 179 235 291 357 419
#     4  10  24  41  62  92 137 180 237 299 357 424
#     4  11  23  41  63  98 133 184 236 294 364 431
#     4  12  27  50  79 112 155 194 245 304 370 447
#     4  12  28  50  80 116 156 194 243 307 371 441
#
# _framework density 22.570489999999999
#
# number of rings (size 3 to 8) (size 9 to 14) (size 15 to 20)
#    0.000    0.750    3.750    3.375    1.750    3.000 
#    2.250    0.000    0.000    0.000    0.000    0.000 
#    0.000    0.000    0.000    0.000    0.000    0.000 
#
# Total GULP energy -89305.278811 kJ/mol
# GULP energy per Si atom -5581.579926 kJ/mol
# Density = 2.251912 g / cm^3
# Si number density = 22.570490 Si / 1000 Ang^3
#
#
#
# Elastic Constant Matrix: (Units=GPa)
#
#
# Indices 1 2 3 4 5 6 
#
# 1 85.5321 61.9079 48.5128 -0.5609 -1.2242 5.3079
# 2 61.9079 162.8300 61.1411 -0.3521 -1.5037 15.3381
# 3 48.5128 61.1411 166.7728 3.8881 -3.1519 4.5766
# 4 -0.5609 -0.3521 3.8881 38.1268 2.3202 5.9513
# 5 -1.2242 -1.5037 -3.1519 2.3202 29.0931 -3.2363
# 6 5.3079 15.3381 4.5766 5.9513 -3.2363 45.5153
#
#
#
# Elastic Compliance Matrix: (Units=1/GPa)
#
#
# Indices 1 2 3 4 5 6 
#
# 1 0.017385 -0.005462 -0.003066 0.000503 0.000084 0.000062
# 2 -0.005462 0.009072 -0.001691 0.000556 -0.000249 -0.002341
# 3 -0.003066 -0.001691 0.007534 -0.000926 0.000712 0.000341
# 4 0.000503 0.000556 -0.000926 0.027102 -0.002644 -0.003885
# 5 0.000084 -0.000249 0.000712 -0.002644 0.034966 0.002834
# 6 0.000062 -0.002341 0.000341 -0.003885 0.002834 0.023427
#
#
# Mechanical properties :
#
#
# Convention : Reuss Voigt Hill
#
# Bulk Modulus (GPa) = 73.78778 84.25093 79.01936
# Shear Modulus (GPa) = 34.61568 38.78525 36.70047
#
# Velocity S-wave (km/s) = 3.92046 4.14986 4.03679
# Velocity P-wave (km/s) = 7.29770 7.76986 7.53748
#
# Compressibility (1/GPa) = 0.01355238
#
# Stress axis : x y z
#
# Youngs Moduli (GPa) = 57.52066 110.22547 132.73841
#
# Poissons Ratio (x) = 0.60209 0.40704
# Poissons Ratio (y) = 0.31420 0.22440
# Poissons Ratio (z) = 0.17638 0.18634
#
# Static dielectric constant tensor:
#      x y z
#    x 2.102990 0.130290 -0.014870 
#    y 0.130290 1.868540 0.006340 
#    z -0.014870 0.006340 1.794960 
# 
# From -- ./inp_files/55556.got.cif
#   From: 2010.05.17/outbox.cif.g08.bks.cpg/sg2_28_cif.got.tgz:55556.got - 2010.06.03 11:33:40.
