data_PCOD9045410
_publ_section_title
;
Structure prediction by ZEFSAII (Michael W. Deem and Ramdas Pophale) SiO2 
 PCOD9045410
Probable space group: P -1
;
_chemical_formula_sum "Si O2"
_cell_formula_units_Z 16
_cell_length_a 6.716204
_cell_length_b 11.819050
_cell_length_c 11.896996
_cell_angle_alpha 106.512672
_cell_angle_beta 63.131511
_cell_angle_gamma 109.244324
_cell_volume 785.025853
_symmetry_space_group_name_H-M "P -1"
_symmetry_group_IT_number 2
_symmetry_cell_setting 'triclinic'
loop_
_space_group_symop_operation_xyz
x,y,z
-x,-y,-z
loop_
_atom_site_type_symbol
_atom_site_label
_atom_site_fract_x
_atom_site_fract_y
_atom_site_fract_z
Si Si1 0.974838 0.566198 0.816453
Si Si2 0.508287 0.859292 0.245846
Si Si3 0.241967 0.493105 0.382209
Si Si4 0.414213 0.248580 0.580584
Si Si5 0.503772 0.290685 0.319179
Si Si6 0.565159 0.067560 0.121734
Si Si7 0.064037 0.704661 0.208596
Si Si8 0.035882 0.208053 0.976820
O O1 0.234659 0.630118 0.731076
O O2 0.810405 0.534713 0.742642
O O3 0.978766 0.439220 0.837162
O O4 0.896777 0.663740 0.941383
O O5 0.539715 0.849573 0.368937
O O6 0.289189 0.754557 0.237952
O O7 0.738094 0.834218 0.124924
O O8 0.478804 0.979174 0.223565
O O9 0.422061 0.620358 0.392617
O O10 0.340318 0.383669 0.376185
O O11 0.000000 0.500000 0.500000
O O12 0.462421 0.226797 0.432828
O O13 0.155568 0.263238 0.667321
O O14 0.473812 0.189345 0.200371
O O15 0.842470 0.114175 0.068544
O O16 0.500000 0.000000 0.000000
O O17 0.088405 0.769093 0.100238
#
# Coordination Sequence:
#
# PCOD9045410 Si02
#       8
#     2   2   2   2   2   2   2   2
#     4  11  22  37  63  99 130 169 209 264 328 386
#     4  11  24  42  67  91 127 176 215 267 315 376
#     4  12  22  38  66  99 132 167 209 263 326 385
#     4  11  23  41  64  97 133 166 211 263 327 386
#     4  11  25  42  66  97 131 173 214 262 319 385
#     4  11  24  47  69  89 128 174 221 270 316 371
#     4  11  21  40  62  94 135 170 205 265 330 379
#     4  10  24  40  65  93 124 171 221 267 319 379
#
# _framework density 20.381494
#
# number of rings (size 3 to 8) (size 9 to 14) (size 15 to 20)
#    0.000    1.000    5.000    1.875    1.750    1.000 
#    0.000    0.625    0.000    0.000    0.000    0.000 
#    0.000    0.000    0.000    0.000    0.000    0.000 
#
# Total GULP energy -89407.792561 kJ/mol
# GULP energy per Si atom -5587.987035 kJ/mol
# Density = 2.033510 g / cm^3
# Si number density = 20.381494 Si / 1000 Ang^3
#
#
#
# Elastic Constant Matrix: (Units=GPa)
#
#
# Indices 1 2 3 4 5 6 
#
# 1 56.3041 15.8357 22.6715 4.3552 9.0799 -2.8583
# 2 15.8357 93.0327 28.5530 -9.3781 2.7312 -0.8363
# 3 22.6715 28.5530 58.8163 7.2078 1.2084 1.3758
# 4 4.3552 -9.3781 7.2078 28.3097 6.4751 3.6160
# 5 9.0799 2.7312 1.2084 6.4751 18.7310 -1.8184
# 6 -2.8583 -0.8363 1.3758 3.6160 -1.8184 27.8990
#
#
#
# Elastic Compliance Matrix: (Units=1/GPa)
#
#
# Indices 1 2 3 4 5 6 
#
# 1 0.023156 -0.001035 -0.008298 0.000341 -0.010460 0.002025
# 2 -0.001035 0.014017 -0.007244 0.007575 -0.003747 -0.000555
# 3 -0.008298 -0.007244 0.024679 -0.008790 0.006455 -0.000724
# 4 0.000341 0.007575 -0.008790 0.044635 -0.016733 -0.006180
# 5 -0.010460 -0.003747 0.006455 -0.016733 0.064847 0.004893
# 6 0.002025 -0.000555 -0.000724 -0.006180 0.004893 0.037190
#
#
# Mechanical properties :
#
#
# Convention : Reuss Voigt Hill
#
# Bulk Modulus (GPa) = 34.84520 38.03039 36.43780
# Shear Modulus (GPa) = 19.90096 24.39412 22.14754
#
# Velocity S-wave (km/s) = 3.12817 3.46334 3.30001
# Velocity P-wave (km/s) = 5.49371 5.89006 5.69533
#
# Compressibility (1/GPa) = 0.02869836
#
# Stress axis : x y z
#
# Youngs Moduli (GPa) = 43.18499 71.34187 40.52075
#
# Poissons Ratio (x) = 0.07386 0.33622
# Poissons Ratio (y) = 0.04471 0.29353
# Poissons Ratio (z) = 0.35833 0.51680
#
# Static dielectric constant tensor:
#      x y z
#    x 1.700590 -0.023070 0.016990 
#    y -0.023070 1.745140 -0.010820 
#    z 0.016990 -0.010820 1.719910 
# 
# From -- ./inp_files/66462.got.cif
#   From: 2010.05.17/outbox.cif.g08.bks.cpg/sg2_34_cif.got.tgz:66462.got - 2010.06.03 11:33:40.
