data_PCOD9045656
_publ_section_title
;
Structure prediction by ZEFSAII (Michael W. Deem and Ramdas Pophale) SiO2 
 PCOD9045656
Probable space group: P -1
;
_chemical_formula_sum "Si O2"
_cell_formula_units_Z 16
_cell_length_a 9.513757
_cell_length_b 15.619267
_cell_length_c 10.924783
_cell_angle_alpha 147.068219
_cell_angle_beta 133.328572
_cell_angle_gamma 55.820857
_cell_volume 641.579855
_symmetry_space_group_name_H-M "P -1"
_symmetry_group_IT_number 2
_symmetry_cell_setting 'triclinic'
loop_
_space_group_symop_operation_xyz
x,y,z
-x,-y,-z
loop_
_atom_site_type_symbol
_atom_site_label
_atom_site_fract_x
_atom_site_fract_y
_atom_site_fract_z
Si Si1 0.460017 0.780211 0.626700
Si Si2 0.178989 0.002175 0.844441
Si Si3 0.591175 0.598044 0.834483
Si Si4 0.695135 0.554945 0.118243
Si Si5 0.412741 0.164146 0.505891
Si Si6 0.816358 0.257150 0.268950
Si Si7 0.954075 0.533607 0.869242
Si Si8 0.794082 0.137346 0.858528
O O1 0.258299 0.861991 0.637554
O O2 0.449804 0.592666 0.422673
O O3 0.508455 0.816517 0.559082
O O4 0.645119 0.869009 0.906131
O O5 0.167982 0.911763 0.860046
O O6 0.969316 0.079485 0.808020
O O7 0.408652 0.696967 0.814797
O O8 0.768232 0.635499 0.894103
O O9 0.655902 0.626363 0.046744
O O10 0.747502 0.703760 0.412378
O O11 0.845091 0.419803 0.019833
O O12 0.500000 0.500000 0.000000
O O13 0.604461 0.187031 0.731756
O O14 0.301462 0.007190 0.293967
O O15 0.900078 0.385648 0.571247
O O16 0.871186 0.255206 0.154555
O O17 0.000000 0.500000 0.000000
#
# Coordination Sequence:
#
# PCOD9045656 Si02
#       8
#     2   2   2   2   2   2   2   2
#     4  11  24  43  68 100 136 176 216 292 335 390
#     4  11  25  44  68  97 135 179 229 272 339 395
#     4  11  23  43  67 100 137 173 222 273 344 398
#     4  11  22  41  64  96 135 175 219 279 332 392
#     4  11  23  43  67  98 136 176 227 277 334 394
#     4  12  22  43  73  99 132 179 229 273 328 410
#     4  10  24  41  65  96 131 181 218 267 337 408
#     4  11  25  43  70  99 128 184 231 271 330 411
#
# _framework density 24.938438999999999
#
# number of rings (size 3 to 8) (size 9 to 14) (size 15 to 20)
#    0.000    1.000    5.000    1.500    1.750    0.500 
#    2.250    1.250    0.000    0.000    0.000    0.000 
#    0.000    0.000    0.000    0.000    0.000    0.000 
#
# Total GULP energy -89287.997972 kJ/mol
# GULP energy per Si atom -5580.499873 kJ/mol
# Density = 2.488168 g / cm^3
# Si number density = 24.938439 Si / 1000 Ang^3
#
#
#
# Elastic Constant Matrix: (Units=GPa)
#
#
# Indices 1 2 3 4 5 6 
#
# 1 160.4063 36.1157 6.7176 3.3059 -23.0658 -39.2110
# 2 36.1157 84.5092 7.1448 8.0983 -9.7918 -30.9227
# 3 6.7176 7.1448 58.3711 -12.2564 -10.5056 -2.4546
# 4 3.3059 8.0983 -12.2564 25.5127 -0.6646 -5.6321
# 5 -23.0658 -9.7918 -10.5056 -0.6646 33.5578 5.8255
# 6 -39.2110 -30.9227 -2.4546 -5.6321 5.8255 46.9084
#
#
#
# Elastic Compliance Matrix: (Units=1/GPa)
#
#
# Indices 1 2 3 4 5 6 
#
# 1 0.008582 -0.001034 0.000422 0.000874 0.004699 0.006036
# 2 -0.001034 0.016370 -0.002016 -0.003970 0.001772 0.009125
# 3 0.000422 -0.002016 0.020775 0.010869 0.006311 0.000632
# 4 0.000874 -0.003970 0.010869 0.046502 0.003092 0.003881
# 5 0.004699 0.001772 0.006311 0.003092 0.035339 0.001409
# 6 0.006036 0.009125 0.000632 0.003881 0.001409 0.032703
#
#
# Mechanical properties :
#
#
# Convention : Reuss Voigt Hill
#
# Bulk Modulus (GPa) = 24.70894 44.80477 34.75686
# Shear Modulus (GPa) = 27.93028 38.08299 33.00664
#
# Velocity S-wave (km/s) = 3.35022 3.91203 3.64197
# Velocity P-wave (km/s) = 4.98947 6.19761 5.62607
#
# Compressibility (1/GPa) = 0.04047118
#
# Stress axis : x y z
#
# Youngs Moduli (GPa) = 116.51647 61.08753 48.13553
#
# Poissons Ratio (x) = 0.06317 -0.02031
# Poissons Ratio (y) = 0.12050 0.09703
# Poissons Ratio (z) = -0.04915 0.12313
#
# Static dielectric constant tensor:
#      x y z
#    x 2.051550 -0.042460 0.335970 
#    y -0.042460 1.965370 -0.075440 
#    z 0.335970 -0.075440 3.231910 
# 
# From -- ./inp_files/403620.got.cif
#   From: 2010.05.17/outbox.cif.g08.bks.cpg/sg2_202_cif.got.tgz:403620.got - 2010.06.03 11:33:40.
