data_PCOD9045582
_publ_section_title
;
Structure prediction by ZEFSAII (Michael W. Deem and Ramdas Pophale) SiO2 
 PCOD9045582
Probable space group: P -1
;
_chemical_formula_sum "Si O2"
_cell_formula_units_Z 14
_cell_length_a 9.053201
_cell_length_b 11.885415
_cell_length_c 10.045531
_cell_angle_alpha 54.736026
_cell_angle_beta 62.501966
_cell_angle_gamma 43.441160
_cell_volume 605.116072
_symmetry_space_group_name_H-M "P -1"
_symmetry_group_IT_number 2
_symmetry_cell_setting 'triclinic'
loop_
_space_group_symop_operation_xyz
x,y,z
-x,-y,-z
loop_
_atom_site_type_symbol
_atom_site_label
_atom_site_fract_x
_atom_site_fract_y
_atom_site_fract_z
Si Si1 0.856706 0.749883 0.803881
Si Si2 0.207919 0.540515 0.997229
Si Si3 0.578389 0.921405 0.168009
Si Si4 0.528671 0.676075 0.458239
Si Si5 0.138170 0.731214 0.465525
Si Si6 0.153500 0.999734 0.835664
Si Si7 0.496748 0.639150 0.779462
O O1 0.790876 0.622983 0.923096
O O2 0.010934 0.712572 0.644380
O O3 0.641972 0.949488 0.744653
O O4 0.983093 0.711644 0.915697
O O5 0.275510 0.511015 0.143043
O O6 0.383500 0.552278 0.851631
O O7 0.640878 0.730005 0.282348
O O8 0.743124 0.934095 0.163597
O O9 0.500000 0.000000 0.000000
O O10 0.287735 0.769367 0.445036
O O11 0.681603 0.462930 0.539046
O O12 0.519932 0.720280 0.585802
O O13 0.980094 0.873239 0.321967
O O14 0.340655 0.800483 0.837365
O O15 0.000000 0.000000 0.000000
#
# Coordination Sequence:
#
# PCOD9045582 Si02
#       7
#     2   2   2   2   2   2   2
#     4  11  24  45  72 102 144 181 232 279 348 403
#     4  10  24  40  76 104 136 182 232 282 344 406
#     4  12  29  46  71 102 139 181 233 288 345 414
#     4  11  27  46  71 103 141 181 230 284 344 410
#     4  11  27  46  71 103 141 181 230 284 344 410
#     4  12  29  46  71 102 139 181 233 288 345 414
#     4  11  24  45  72 102 144 181 232 279 348 403
#
# _framework density 23.136057999999998
#
# number of rings (size 3 to 8) (size 9 to 14) (size 15 to 20)
#    0.000    0.857    2.857    1.714   14.000    2.857 
#    0.000    0.000    0.000    0.000    0.000    0.000 
#    0.000    0.000    0.000    0.000    0.000    0.000 
#
# Total GULP energy -78284.161358 kJ/mol
# GULP energy per Si atom -5591.725811 kJ/mol
# Density = 2.308340 g / cm^3
# Si number density = 23.136058 Si / 1000 Ang^3
#
#
#
# Elastic Constant Matrix: (Units=GPa)
#
#
# Indices 1 2 3 4 5 6 
#
# 1 157.9991 20.5038 55.3993 -17.5401 14.3007 -19.5227
# 2 20.5038 41.6743 20.4590 -5.4330 2.0807 -9.5392
# 3 55.3993 20.4590 137.4928 -16.4790 18.7502 -3.9406
# 4 -17.5401 -5.4330 -16.4790 41.1288 -4.7396 1.3900
# 5 14.3007 2.0807 18.7502 -4.7396 38.0452 -13.4435
# 6 -19.5227 -9.5392 -3.9406 1.3900 -13.4435 27.8799
#
#
#
# Elastic Compliance Matrix: (Units=1/GPa)
#
#
# Indices 1 2 3 4 5 6 
#
# 1 0.008307 -0.001294 -0.002808 0.002120 0.000383 0.005056
# 2 -0.001294 0.029017 -0.003923 0.001907 0.004856 0.010714
# 3 -0.002808 -0.003923 0.009737 0.001774 -0.004848 -0.004358
# 4 0.002120 0.001907 0.001774 0.026370 0.002276 0.002171
# 5 0.000383 0.004856 -0.004848 0.002276 0.034893 0.017956
# 6 0.005056 0.010714 -0.004358 0.002171 0.017956 0.051009
#
#
# Mechanical properties :
#
#
# Convention : Reuss Voigt Hill
#
# Bulk Modulus (GPa) = 32.24633 58.87672 45.56153
# Shear Modulus (GPa) = 26.92245 37.46438 32.19341
#
# Velocity S-wave (km/s) = 3.41494 4.02843 3.73430
# Velocity P-wave (km/s) = 5.43296 6.86592 6.19104
#
# Compressibility (1/GPa) = 0.03101128
#
# Stress axis : x y z
#
# Youngs Moduli (GPa) = 120.38003 34.46284 102.70084
#
# Poissons Ratio (x) = 0.04460 0.28836
# Poissons Ratio (y) = 0.15578 0.40289
# Poissons Ratio (z) = 0.33800 0.13520
#
# Static dielectric constant tensor:
#      x y z
#    x 1.858980 0.022890 -0.015260 
#    y 0.022890 1.869620 0.003790 
#    z -0.015260 0.003790 1.850210 
# 
# From -- ./inp_files/184779.got.cif
#   From: 2010.05.17/outbox.cif.g08.bks.cpg/sg2_93_cif.got.tgz:184779.got - 2010.06.03 11:33:40.
