data_PCOD9045874
_publ_section_title
;
Structure prediction by ZEFSAII (Michael W. Deem and Ramdas Pophale) SiO2 
 PCOD9045874
Probable space group: P -1
;
_chemical_formula_sum "Si O2"
_cell_formula_units_Z 16
_cell_length_a 14.916092
_cell_length_b 12.510978
_cell_length_c 18.465061
_cell_angle_alpha 39.880915
_cell_angle_beta 21.753485
_cell_angle_gamma 43.375069
_cell_volume 817.406075
_symmetry_space_group_name_H-M "P -1"
_symmetry_group_IT_number 2
_symmetry_cell_setting 'triclinic'
loop_
_space_group_symop_operation_xyz
x,y,z
-x,-y,-z
loop_
_atom_site_type_symbol
_atom_site_label
_atom_site_fract_x
_atom_site_fract_y
_atom_site_fract_z
Si Si1 0.533252 0.886132 0.606386
Si Si2 0.927918 0.188245 0.804464
Si Si3 0.525747 0.740571 0.164320
Si Si4 0.398700 0.888183 0.044865
Si Si5 0.868084 0.684596 0.822381
Si Si6 0.122238 0.654311 0.091109
Si Si7 0.714451 0.892144 0.201364
Si Si8 0.589668 0.325820 0.558249
O O1 0.343167 0.743946 0.838819
O O2 0.806952 0.809326 0.431078
O O3 0.500000 0.000000 0.500000
O O4 0.474361 0.009311 0.654631
O O5 0.738350 0.178051 0.886538
O O6 0.868777 0.327035 0.838268
O O7 0.895409 0.020372 0.963780
O O8 0.439500 0.655523 0.343906
O O9 0.633048 0.914710 0.019777
O O10 0.333648 0.797081 0.216498
O O11 0.725292 0.628117 0.030199
O O12 0.687651 0.835958 0.850222
O O13 0.128438 0.727781 0.632557
O O14 0.882590 0.534769 0.832988
O O15 0.877525 0.755846 0.194582
O O16 0.572328 0.809082 0.286620
O O17 0.500000 0.500000 0.500000
#
# Coordination Sequence:
#
# PCOD9045874 Si02
#       8
#     2   2   2   2   2   2   2   2
#     4  11  21  36  64  87 120 173 202 252 319 352
#     4  11  21  41  65  89 122 166 212 255 300 370
#     4   9  22  44  61  89 129 160 212 258 294 371
#     4   9  21  45  64  86 126 169 208 259 296 361
#     4  10  24  42  61  91 130 165 198 260 316 356
#     4  11  22  40  58  94 132 153 209 262 303 372
#     4  11  22  37  60  97 126 153 212 259 303 377
#     4  12  24  39  66  99 122 164 200 255 329 372
#
# _framework density 19.574114999999999
#
# number of rings (size 3 to 8) (size 9 to 14) (size 15 to 20)
#    0.750    0.750    5.000    0.750    1.750    3.500 
#    4.500    0.625    0.000    0.000    0.000    0.000 
#    0.000    0.000    0.000    0.000    0.000    0.000 
#
# Total GULP energy -89131.574440 kJ/mol
# GULP energy per Si atom -5570.723403 kJ/mol
# Density = 1.952956 g / cm^3
# Si number density = 19.574115 Si / 1000 Ang^3
#
#
#
# Elastic Constant Matrix: (Units=GPa)
#
#
# Indices 1 2 3 4 5 6 
#
# 1 146.7157 -16.7205 40.8685 28.8431 -5.1574 39.7065
# 2 -16.7205 103.2640 -8.1618 -11.9080 11.2745 -11.1375
# 3 40.8685 -8.1618 94.9477 32.2495 -7.5249 24.0798
# 4 28.8431 -11.9080 32.2495 29.7238 -7.2238 20.4871
# 5 -5.1574 11.2745 -7.5249 -7.2238 43.0733 -13.0229
# 6 39.7065 -11.1375 24.0798 20.4871 -13.0229 61.2503
#
#
#
# Elastic Compliance Matrix: (Units=1/GPa)
#
#
# Indices 1 2 3 4 5 6 
#
# 1 0.009251 0.000543 -0.001389 -0.004793 -0.001298 -0.004025
# 2 0.000543 0.010407 -0.000905 0.004046 -0.002110 0.000094
# 3 -0.001389 -0.000905 0.016975 -0.017325 0.000093 -0.000123
# 4 -0.004793 0.004046 -0.017325 0.067166 0.003242 -0.011122
# 5 -0.001298 -0.002110 0.000093 0.003242 0.025620 0.004784
# 6 -0.004025 0.000094 -0.000123 -0.011122 0.004784 0.023738
#
#
# Mechanical properties :
#
#
# Convention : Reuss Voigt Hill
#
# Bulk Modulus (GPa) = 30.18243 41.87778 36.03010
# Shear Modulus (GPa) = 29.81464 48.73887 39.27676
#
# Velocity S-wave (km/s) = 3.90701 4.99537 4.48433
# Velocity P-wave (km/s) = 5.98381 7.39679 6.72750
#
# Compressibility (1/GPa) = 0.03313186
#
# Stress axis : x y z
#
# Youngs Moduli (GPa) = 108.10024 96.08475 58.90916
#
# Poissons Ratio (x) = -0.05217 0.08184
# Poissons Ratio (y) = -0.05869 0.05328
# Poissons Ratio (z) = 0.15018 0.08691
#
# Static dielectric constant tensor:
#      x y z
#    x 1.677980 -0.000850 0.029210 
#    y -0.000850 1.680220 -0.019110 
#    z 0.029210 -0.019110 1.678370 
# 
# From -- ./inp_files/476945.got.cif
#   From: 2010.05.17/outbox.cif.g08.bks.cpg/sg2_239_cif.got.tgz:476945.got - 2010.06.03 11:33:40.
