data_PCOD9045396
_publ_section_title
;
Structure prediction by ZEFSAII (Michael W. Deem and Ramdas Pophale) SiO2 
 PCOD9045396
Probable space group: P -1
;
_chemical_formula_sum "Si O2"
_cell_formula_units_Z 14
_cell_length_a 17.769690
_cell_length_b 9.535717
_cell_length_c 12.547206
_cell_angle_alpha 47.902417
_cell_angle_beta 155.603458
_cell_angle_gamma 130.009967
_cell_volume 647.963135
_symmetry_space_group_name_H-M "P -1"
_symmetry_group_IT_number 2
_symmetry_cell_setting 'triclinic'
loop_
_space_group_symop_operation_xyz
x,y,z
-x,-y,-z
loop_
_atom_site_type_symbol
_atom_site_label
_atom_site_fract_x
_atom_site_fract_y
_atom_site_fract_z
Si Si1 0.097318 0.713248 0.010346
Si Si2 0.988891 0.705434 0.200188
Si Si3 0.179566 0.114082 0.312336
Si Si4 0.355210 0.649929 0.745634
Si Si5 0.581098 0.303846 0.738948
Si Si6 0.583382 0.203286 0.463367
Si Si7 0.335253 0.539827 0.005801
O O1 0.250127 0.734531 0.102311
O O2 0.216476 0.767064 0.242582
O O3 0.000000 0.500000 0.000000
O O4 0.925648 0.836235 0.740367
O O5 0.156683 0.576717 0.477082
O O6 0.847924 0.605617 0.153226
O O7 0.092844 0.904435 0.273678
O O8 0.877796 0.749262 0.928480
O O9 0.398518 0.154587 0.582193
O O10 0.339538 0.672607 0.840055
O O11 0.500000 0.500000 0.000000
O O12 0.573751 0.193334 0.328749
O O13 0.500000 0.500000 0.500000
O O14 0.653524 0.340138 0.933307
O O15 0.500000 0.000000 0.500000
O O16 0.489167 0.390782 0.279672
#
# Coordination Sequence:
#
# PCOD9045396 Si02
#       7
#     2   2   2   2   2   2   2
#     4  12  21  36  61  94 129 165 212 266 319 383
#     4  11  21  40  65  94 130 164 215 278 326 374
#     4  11  23  38  64 103 128 161 223 284 322 369
#     4  10  24  40  64  95 131 170 213 261 330 394
#     4  12  22  38  62  94 134 174 213 263 326 389
#     4  11  22  38  66  97 125 161 215 274 321 373
#     4  11  22  42  62  93 131 172 212 264 324 396
#
# _framework density 21.606165000000001
#
# number of rings (size 3 to 8) (size 9 to 14) (size 15 to 20)
#    0.000    0.857    5.714    1.286    4.000    0.000 
#    0.000    0.714    0.000    0.857    0.000    0.000 
#    0.000    0.000    0.000    0.000    0.000    0.000 
#
# Total GULP energy -78074.389959 kJ/mol
# GULP energy per Si atom -5576.742140 kJ/mol
# Density = 2.155699 g / cm^3
# Si number density = 21.606165 Si / 1000 Ang^3
#
#
#
# Elastic Constant Matrix: (Units=GPa)
#
#
# Indices 1 2 3 4 5 6 
#
# 1 177.1623 49.7945 42.4031 0.5900 -3.1943 20.5211
# 2 49.7945 96.4574 35.1221 26.8720 -6.1418 11.8663
# 3 42.4031 35.1221 63.1849 14.1810 7.2037 14.6007
# 4 0.5900 26.8720 14.1810 32.2880 8.6966 0.3053
# 5 -3.1943 -6.1418 7.2037 8.6966 53.9838 -6.0497
# 6 20.5211 11.8663 14.6007 0.3053 -6.0497 35.4657
#
#
#
# Elastic Compliance Matrix: (Units=1/GPa)
#
#
# Indices 1 2 3 4 5 6 
#
# 1 0.007792 -0.003812 -0.003715 0.004802 -0.000455 -0.001823
# 2 -0.003812 0.018569 -0.004784 -0.014551 0.004746 -0.001103
# 3 -0.003715 -0.004784 0.024233 -0.005484 -0.003881 -0.006841
# 4 0.004802 -0.014551 -0.005484 0.047536 -0.008009 0.002573
# 5 -0.000455 0.004746 -0.003881 -0.008009 0.021291 0.003974
# 6 -0.001823 -0.001103 -0.006841 0.002573 0.003974 0.033092
#
#
# Mechanical properties :
#
#
# Convention : Reuss Voigt Hill
#
# Bulk Modulus (GPa) = 38.50286 65.71598 52.10942
# Shear Modulus (GPa) = 26.91200 38.31316 32.61258
#
# Velocity S-wave (km/s) = 3.53309 4.21557 3.88933
# Velocity P-wave (km/s) = 5.87390 7.36044 6.65878
#
# Compressibility (1/GPa) = 0.02597210
#
# Stress axis : x y z
#
# Youngs Moduli (GPa) = 128.33473 53.85343 41.26657
#
# Poissons Ratio (x) = 0.20531 0.15330
# Poissons Ratio (y) = 0.48926 0.19741
# Poissons Ratio (z) = 0.47673 0.25762
#
# Static dielectric constant tensor:
#      x y z
#    x 1.931670 0.193320 -0.077630 
#    y 0.193320 2.646150 -0.697660 
#    z -0.077630 -0.697660 2.398050 
# 
# From -- ./inp_files/540820.got.cif
#   From: 2010.05.17/outbox.cif.g08.bks.cpg/sg2_271_cif.got.tgz:540820.got - 2010.06.03 11:33:40.
