data_PCOD9045465
_publ_section_title
;
Structure prediction by ZEFSAII (Michael W. Deem and Ramdas Pophale) SiO2 
 PCOD9045465
Probable space group: P -1
;
_chemical_formula_sum "Si O2"
_cell_formula_units_Z 15
_cell_length_a 18.658417
_cell_length_b 10.889215
_cell_length_c 9.280386
_cell_angle_alpha 36.806864
_cell_angle_beta 51.541293
_cell_angle_gamma 34.220422
_cell_volume 630.785423
_symmetry_space_group_name_H-M "P -1"
_symmetry_group_IT_number 2
_symmetry_cell_setting 'triclinic'
loop_
_space_group_symop_operation_xyz
x,y,z
-x,-y,-z
loop_
_atom_site_type_symbol
_atom_site_label
_atom_site_fract_x
_atom_site_fract_y
_atom_site_fract_z
Si Si1 0.465911 0.822370 0.035917
Si Si2 0.419267 0.752217 0.674128
Si Si3 0.350907 0.318453 0.512835
Si Si4 0.825459 0.127761 0.579272
Si Si5 0.030474 0.758740 0.890391
Si Si6 0.287439 0.566074 0.064973
Si Si7 0.000000 0.000000 0.000000
Si Si8 0.276355 0.090345 0.259898
O O1 0.609905 0.668791 0.962472
O O2 0.379211 0.057632 0.797500
O O3 0.485508 0.548666 0.251381
O O4 0.397970 0.982546 0.118637
O O5 0.512553 0.780151 0.589371
O O6 0.314917 0.002562 0.459222
O O7 0.345290 0.699278 0.913328
O O8 0.264202 0.583587 0.483556
O O9 0.284403 0.425387 0.340266
O O10 0.911799 0.132809 0.363200
O O11 0.749824 0.089827 0.609284
O O12 0.918513 0.861944 0.824295
O O13 0.968150 0.917087 0.971121
O O14 0.147188 0.420029 0.087273
O O15 0.149038 0.790912 0.958177
#
# Coordination Sequence:
#
# PCOD9045465 Si02
#       8
#     2   2   2   2   2   2   1   2
#     4  10  24  40  68 101 129 175 227 280 337 400
#     4  10  25  39  66 100 138 172 223 282 333 402
#     4  12  21  43  70  98 138 179 223 279 344 400
#     4  11  23  44  70 100 138 181 231 280 335 410
#     4  11  26  44  70  98 138 186 228 278 342 405
#     4  10  24  44  64  99 137 180 223 276 339 403
#     4  12  24  46  70  94 140 180 224 280 332 412
#     4  12  23  44  69 105 133 177 229 285 342 402
#
# _framework density 23.779876999999999
#
# number of rings (size 3 to 8) (size 9 to 14) (size 15 to 20)
#    0.800    0.267    4.000    2.400    1.867    0.533 
#    0.000    2.667    2.933    0.000    0.000    0.000 
#    0.000    0.000    0.000    0.000    0.000    0.000 
#
# Total GULP energy -83613.668186 kJ/mol
# GULP energy per Si atom -5574.244546 kJ/mol
# Density = 2.372575 g / cm^3
# Si number density = 23.779877 Si / 1000 Ang^3
#
#
#
# Elastic Constant Matrix: (Units=GPa)
#
#
# Indices 1 2 3 4 5 6 
#
# 1 71.3569 0.5692 -1.1491 -0.3981 4.0072 1.7881
# 2 0.5692 100.4696 9.3328 -3.1646 5.7181 4.0352
# 3 -1.1491 9.3328 73.2713 -14.9712 16.6029 1.5823
# 4 -0.3981 -3.1646 -14.9712 38.0838 1.8637 6.2816
# 5 4.0072 5.7181 16.6029 1.8637 22.5733 1.3005
# 6 1.7881 4.0352 1.5823 6.2816 1.3005 37.3697
#
#
#
# Elastic Compliance Matrix: (Units=1/GPa)
#
#
# Indices 1 2 3 4 5 6 
#
# 1 0.014252 0.000065 0.001207 0.000926 -0.003466 -0.000775
# 2 0.000065 0.010207 -0.000597 0.000911 -0.002166 -0.001158
# 3 0.001207 -0.000597 0.018752 0.008319 -0.014445 -0.001683
# 4 0.000926 0.000911 0.008319 0.030931 -0.008757 -0.005389
# 5 -0.003466 -0.002166 -0.014445 -0.008757 0.056783 0.000507
# 6 -0.000775 -0.001158 -0.001683 -0.005389 0.000507 0.027881
#
#
# Mechanical properties :
#
#
# Convention : Reuss Voigt Hill
#
# Bulk Modulus (GPa) = 22.44171 29.17816 25.80994
# Shear Modulus (GPa) = 29.01724 35.36169 32.18947
#
# Velocity S-wave (km/s) = 3.49699 3.86040 3.68318
# Velocity P-wave (km/s) = 5.07573 5.67160 5.38191
#
# Compressibility (1/GPa) = 0.04455988
#
# Stress axis : x y z
#
# Youngs Moduli (GPa) = 70.16465 97.97347 53.32674
#
# Poissons Ratio (x) = -0.00634 -0.06434
# Poissons Ratio (y) = -0.00454 0.03184
# Poissons Ratio (z) = -0.08466 0.05849
#
# Static dielectric constant tensor:
#      x y z
#    x 1.897610 0.013380 -0.038480 
#    y 0.013380 1.883840 -0.027260 
#    z -0.038480 -0.027260 1.906440 
# 
# From -- ./inp_files/345844.got.cif
#   From: 2010.05.17/outbox.cif.g08.bks.cpg/sg2_173_cif.got.tgz:345844.got - 2010.06.03 11:33:40.
