data_PCOD9045132
_publ_section_title
;
Structure prediction by ZEFSAII (Michael W. Deem and Ramdas Pophale) SiO2 
 PCOD9045132
Probable space group: P -1
;
_chemical_formula_sum "Si O2"
_cell_formula_units_Z 16
_cell_length_a 6.169689
_cell_length_b 20.408104
_cell_length_c 6.216266
_cell_angle_alpha 106.763905
_cell_angle_beta 99.874750
_cell_angle_gamma 69.604322
_cell_volume 700.252992
_symmetry_space_group_name_H-M "P -1"
_symmetry_group_IT_number 2
_symmetry_cell_setting 'triclinic'
loop_
_space_group_symop_operation_xyz
x,y,z
-x,-y,-z
loop_
_atom_site_type_symbol
_atom_site_label
_atom_site_fract_x
_atom_site_fract_y
_atom_site_fract_z
Si Si1 0.077369 0.436750 0.272544
Si Si2 0.452986 0.150108 0.362591
Si Si3 0.287464 0.521935 0.140742
Si Si4 0.251812 0.247680 0.790990
Si Si5 0.923574 0.849360 0.025892
Si Si6 0.909581 0.343785 0.472482
Si Si7 0.372911 0.756693 0.848101
Si Si8 0.736255 0.997720 0.389003
O O1 0.298484 0.451836 0.219881
O O2 0.000000 0.500000 0.500000
O O3 0.050999 0.369280 0.333481
O O4 0.917880 0.450640 0.045395
O O5 0.409401 0.178207 0.622617
O O6 0.527925 0.209613 0.300536
O O7 0.634859 0.071071 0.306083
O O8 0.213848 0.147770 0.216541
O O9 0.256340 0.586889 0.363871
O O10 0.500000 0.500000 0.000000
O O11 0.106136 0.216235 0.900525
O O12 0.091279 0.299764 0.639535
O O13 0.422115 0.279314 0.984163
O O14 0.804668 0.923438 0.198683
O O15 0.192907 0.826440 0.997717
O O16 0.764734 0.295503 0.306068
O O17 0.500000 0.000000 0.500000
O O18 0.000000 0.000000 0.500000
#
# Coordination Sequence:
#
# PCOD9045132 Si02
#       8
#     2   2   2   2   2   2   2   2
#     4   9  22  47  68 104 141 179 230 291 349 431
#     4  11  25  47  71 103 149 195 249 315 371 445
#     4  10  23  49  75 103 141 185 236 294 356 438
#     4  11  25  47  69 105 148 189 242 310 368 444
#     4  11  25  47  72 101 152 190 259 303 377 444
#     4  11  25  47  73 104 149 186 237 301 371 440
#     4  11  27  45  72 109 143 197 242 309 370 452
#     4  12  27  45  77 110 146 210 259 320 391 447
#
# _framework density 22.848883000000001
#
# number of rings (size 3 to 8) (size 9 to 14) (size 15 to 20)
#    0.000    1.250    2.500    1.125    8.750    2.500 
#   18.000    0.000    0.000    0.000    0.000    0.000 
#    0.000    0.000    0.000    0.000    0.000    0.000 
#
# Total GULP energy -89316.086218 kJ/mol
# GULP energy per Si atom -5582.255389 kJ/mol
# Density = 2.279688 g / cm^3
# Si number density = 22.848883 Si / 1000 Ang^3
#
#
#
# Elastic Constant Matrix: (Units=GPa)
#
#
# Indices 1 2 3 4 5 6 
#
# 1 98.7531 27.5917 48.8035 6.6225 0.6862 4.2651
# 2 27.5917 111.4490 40.6711 3.5569 18.0776 7.5900
# 3 48.8035 40.6711 112.1568 5.6455 9.9788 9.4178
# 4 6.6225 3.5569 5.6455 46.9023 -13.6318 -2.1752
# 5 0.6862 18.0776 9.9788 -13.6318 46.8214 4.5056
# 6 4.2651 7.5900 9.4178 -2.1752 4.5056 27.2437
#
#
#
# Elastic Compliance Matrix: (Units=1/GPa)
#
#
# Indices 1 2 3 4 5 6 
#
# 1 0.013198 -0.001531 -0.005259 -0.000737 0.001313 -0.000098
# 2 -0.001531 0.011178 -0.002842 -0.001514 -0.003998 -0.001352
# 3 -0.005259 -0.002842 0.012653 -0.001153 -0.001609 -0.002585
# 4 -0.000737 -0.001514 -0.001153 0.023981 0.007671 0.001582
# 5 0.001313 -0.003998 -0.001609 0.007671 0.025667 -0.002168
# 6 -0.000098 -0.001352 -0.002585 0.001582 -0.002168 0.038476
#
#
# Mechanical properties :
#
#
# Convention : Reuss Voigt Hill
#
# Bulk Modulus (GPa) = 56.29059 61.83238 59.06148
# Shear Modulus (GPa) = 33.25832 37.87967 35.56900
#
# Velocity S-wave (km/s) = 3.81934 4.07607 3.94979
# Velocity P-wave (km/s) = 6.64375 7.01945 6.83418
#
# Compressibility (1/GPa) = 0.01776496
#
# Stress axis : x y z
#
# Youngs Moduli (GPa) = 75.77143 89.46379 79.03114
#
# Poissons Ratio (x) = 0.13697 0.41563
# Poissons Ratio (y) = 0.11601 0.22458
# Poissons Ratio (z) = 0.39849 0.25423
#
# Static dielectric constant tensor:
#      x y z
#    x 2.158790 0.025780 0.181780 
#    y 0.025780 1.868860 0.046210 
#    z 0.181780 0.046210 1.928250 
# 
# From -- ./inp_files/11418.got.cif
#   From: 2010.05.17/outbox.cif.g08.bks.cpg/sg2_6_cif.got.tgz:11418.got - 2010.06.03 11:33:40.
