data_PCOD9045668
_publ_section_title
;
Structure prediction by ZEFSAII (Michael W. Deem and Ramdas Pophale) SiO2 
 PCOD9045668
Probable space group: P -1
;
_chemical_formula_sum "Si O2"
_cell_formula_units_Z 16
_cell_length_a 19.723016
_cell_length_b 22.757811
_cell_length_c 8.956718
_cell_angle_alpha 31.280119
_cell_angle_beta 39.387536
_cell_angle_gamma 19.413618
_cell_volume 680.881944
_symmetry_space_group_name_H-M "P -1"
_symmetry_group_IT_number 2
_symmetry_cell_setting 'triclinic'
loop_
_space_group_symop_operation_xyz
x,y,z
-x,-y,-z
loop_
_atom_site_type_symbol
_atom_site_label
_atom_site_fract_x
_atom_site_fract_y
_atom_site_fract_z
Si Si1 0.035060 0.151606 0.677475
Si Si2 0.666616 0.159151 0.892411
Si Si3 0.315548 0.216259 0.742720
Si Si4 0.269002 0.696440 0.755248
Si Si5 0.728857 0.520046 0.936118
Si Si6 0.733351 0.247256 0.043120
Si Si7 0.933307 0.458145 0.008589
Si Si8 0.511360 0.078128 0.176120
O O1 0.803568 0.309585 0.737235
O O2 0.045699 0.262580 0.342307
O O3 0.141585 0.052382 0.872170
O O4 0.153561 0.951976 0.809399
O O5 0.706375 0.234767 0.565893
O O6 0.472728 0.349821 0.921783
O O7 0.601633 0.115515 0.991481
O O8 0.338610 0.321257 0.410212
O O9 0.339134 0.112184 0.786736
O O10 0.096842 0.401781 0.796111
O O11 0.500000 0.000000 0.000000
O O12 0.491612 0.453912 0.970188
O O13 0.164173 0.679930 0.900601
O O14 0.187202 0.831408 0.750721
O O15 0.852418 0.468304 0.973146
O O16 0.734623 0.680560 0.958775
O O17 0.500000 0.000000 0.500000
#
# Coordination Sequence:
#
# PCOD9045668 Si02
#       8
#     2   2   2   2   2   2   2   2
#     4  11  24  44  65 101 143 182 227 288 354 416
#     4  11  23  42  72 100 141 184 228 287 351 413
#     4  12  27  47  74 106 142 185 235 296 353 419
#     4  11  24  42  71 101 135 188 233 284 344 420
#     4  11  23  44  68 103 140 183 231 285 352 412
#     4  10  24  41  65  99 143 176 235 279 348 414
#     4  11  26  45  75 101 142 188 234 293 355 415
#     4  11  25  48  74 103 140 184 240 287 353 419
#
# _framework density 23.498933000000001
#
# number of rings (size 3 to 8) (size 9 to 14) (size 15 to 20)
#    0.000    1.000    3.750    3.000    5.250    4.000 
#    0.000    0.000    0.000    0.000    0.000    0.000 
#    0.000    0.000    0.000    0.000    0.000    0.000 
#
# Total GULP energy -89521.035486 kJ/mol
# GULP energy per Si atom -5595.064718 kJ/mol
# Density = 2.344545 g / cm^3
# Si number density = 23.498933 Si / 1000 Ang^3
#
#
#
# Elastic Constant Matrix: (Units=GPa)
#
#
# Indices 1 2 3 4 5 6 
#
# 1 63.4785 11.6415 29.1043 3.7110 -3.1982 10.0297
# 2 11.6415 53.4422 2.2450 5.4341 -1.9069 -3.5039
# 3 29.1043 2.2450 145.3934 14.4327 6.8161 10.2613
# 4 3.7110 5.4341 14.4327 28.4801 0.5914 6.3357
# 5 -3.1982 -1.9069 6.8161 0.5914 31.1418 -7.8268
# 6 10.0297 -3.5039 10.2613 6.3357 -7.8268 22.0606
#
#
#
# Elastic Compliance Matrix: (Units=1/GPa)
#
#
# Indices 1 2 3 4 5 6 
#
# 1 0.019455 -0.004846 -0.003433 0.002014 0.000279 -0.008497
# 2 -0.004846 0.020906 0.000504 -0.005408 0.002739 0.007814
# 3 -0.003433 0.000504 0.008152 -0.003252 -0.002580 -0.002132
# 4 0.002014 -0.005408 -0.003252 0.040524 -0.003484 -0.013136
# 5 0.000279 0.002739 -0.002580 -0.003484 0.036855 0.015584
# 6 -0.008497 0.007814 -0.002132 -0.013136 0.015584 0.060727
#
#
# Mechanical properties :
#
#
# Convention : Reuss Voigt Hill
#
# Bulk Modulus (GPa) = 30.33629 38.69955 34.51792
# Shear Modulus (GPa) = 23.45701 30.95806 27.20754
#
# Velocity S-wave (km/s) = 3.16288 3.63357 3.40637
# Velocity P-wave (km/s) = 5.12602 5.84022 5.49474
#
# Compressibility (1/GPa) = 0.03296382
#
# Stress axis : x y z
#
# Youngs Moduli (GPa) = 51.40105 47.83292 122.67663
#
# Poissons Ratio (x) = 0.23178 0.42113
# Poissons Ratio (y) = 0.24907 -0.06185
# Poissons Ratio (z) = 0.17645 -0.02412
#
# Static dielectric constant tensor:
#      x y z
#    x 1.885210 -0.010440 0.012660 
#    y -0.010440 1.942770 -0.025560 
#    z 0.012660 -0.025560 1.811330 
# 
# From -- ./inp_files/294525.got.cif
#   From: 2010.05.17/outbox.cif.g08.bks.cpg/sg2_148_cif.got.tgz:294525.got - 2010.06.03 11:33:40.
