data_PCOD9045472
_publ_section_title
;
Structure prediction by ZEFSAII (Michael W. Deem and Ramdas Pophale) SiO2 
 PCOD9045472
Probable space group: P -1
;
_chemical_formula_sum "Si O2"
_cell_formula_units_Z 14
_cell_length_a 19.180613
_cell_length_b 9.305044
_cell_length_c 18.061396
_cell_angle_alpha 140.299815
_cell_angle_beta 165.437261
_cell_angle_gamma 40.237743
_cell_volume 514.221446
_symmetry_space_group_name_H-M "P -1"
_symmetry_group_IT_number 2
_symmetry_cell_setting 'triclinic'
loop_
_space_group_symop_operation_xyz
x,y,z
-x,-y,-z
loop_
_atom_site_type_symbol
_atom_site_label
_atom_site_fract_x
_atom_site_fract_y
_atom_site_fract_z
Si Si1 0.239056 0.235838 0.278703
Si Si2 0.079855 0.903513 0.657563
Si Si3 0.590920 0.175229 0.474098
Si Si4 0.110105 0.182816 0.282941
Si Si5 0.019224 0.298890 0.856115
Si Si6 0.500000 0.500000 0.000000
Si Si7 0.691450 0.589496 0.067779
Si Si8 0.500000 0.000000 0.000000
O O1 0.485468 0.240424 0.474356
O O2 0.303520 0.208515 0.420843
O O3 0.044804 0.471302 0.163040
O O4 0.075339 0.022429 0.004466
O O5 0.231060 0.685910 0.769681
O O6 0.824950 0.829300 0.316020
O O7 0.942883 0.086491 0.646768
O O8 0.307845 0.006903 0.883972
O O9 0.830549 0.307323 0.739425
O O10 0.705797 0.909539 0.494069
O O11 0.333465 0.226805 0.175785
O O12 0.907286 0.406855 0.178824
O O13 0.381692 0.501409 0.964131
O O14 0.437235 0.718462 0.813057
#
# Coordination Sequence:
#
# PCOD9045472 Si02
#       8
#     2   2   2   2   2   1   2   1
#     4  11  26  49  71 111 146 200 248 304 371 441
#     4  11  25  44  70 107 141 193 239 303 364 445
#     4  12  26  49  74 113 145 200 244 313 367 438
#     4  11  26  47  75 105 152 195 248 306 369 443
#     4  12  28  45  80 109 152 191 251 305 375 436
#     4  10  24  40  68 104 140 188 228 300 360 432
#     4  11  24  45  71 107 144 190 242 300 370 440
#     4  10  24  44  70  98 146 190 238 300 354 436
#
# _framework density 27.225622999999999
#
# number of rings (size 3 to 8) (size 9 to 14) (size 15 to 20)
#    0.000    0.857    1.429    3.857    8.000    1.143 
#    0.000    0.000    0.000    0.000    0.000    0.000 
#    0.000    0.000    0.000    0.000    0.000    0.000 
#
# Total GULP energy -78140.068919 kJ/mol
# GULP energy per Si atom -5581.433494 kJ/mol
# Density = 2.716366 g / cm^3
# Si number density = 27.225623 Si / 1000 Ang^3
#
#
#
# Elastic Constant Matrix: (Units=GPa)
#
#
# Indices 1 2 3 4 5 6 
#
# 1 116.7285 54.8289 25.1765 5.2394 29.6808 26.4562
# 2 54.8289 186.9716 33.1504 -22.2513 -21.2255 8.3741
# 3 25.1765 33.1504 99.3032 -5.0795 6.8349 6.0301
# 4 5.2394 -22.2513 -5.0795 38.8923 5.4693 -4.1339
# 5 29.6808 -21.2255 6.8349 5.4693 37.4029 -9.1740
# 6 26.4562 8.3741 6.0301 -4.1339 -9.1740 61.0700
#
#
#
# Elastic Compliance Matrix: (Units=1/GPa)
#
#
# Indices 1 2 3 4 5 6 
#
# 1 0.023230 -0.009933 -0.000308 -0.006548 -0.026260 -0.013059
# 2 -0.009933 0.010766 -0.002156 0.005718 0.014941 0.005671
# 3 -0.000308 -0.002156 0.011204 0.000627 -0.003399 -0.001145
# 4 -0.006548 0.005718 0.000627 0.029731 0.005150 0.004777
# 5 -0.026260 0.014941 -0.003399 0.005150 0.060610 0.019116
# 6 -0.013059 0.005671 -0.001145 0.004777 0.019116 0.024562
#
#
# Mechanical properties :
#
#
# Convention : Reuss Voigt Hill
#
# Bulk Modulus (GPa) = 49.00633 69.92389 59.46511
# Shear Modulus (GPa) = 26.08265 46.79621 36.43943
#
# Velocity S-wave (km/s) = 3.09855 4.15037 3.66242
# Velocity P-wave (km/s) = 5.55342 6.97899 6.30662
#
# Compressibility (1/GPa) = 0.02040553
#
# Stress axis : x y z
#
# Youngs Moduli (GPa) = 43.04805 92.88457 89.25715
#
# Poissons Ratio (x) = 0.92262 0.02750
# Poissons Ratio (y) = 0.42759 0.19243
# Poissons Ratio (z) = 0.01326 0.20026
#
# Static dielectric constant tensor:
#      x y z
#    x 2.178460 0.253910 -0.368990 
#    y 0.253910 3.563850 -1.313000 
#    z -0.368990 -1.313000 3.494830 
# 
# From -- ./inp_files/575606.got.cif
#   From: 2010.05.17/outbox.cif.g08.bks.cpg/sg2_288_cif.got.tgz:575606.got - 2010.06.03 11:33:40.
