data_PCOD9045746
_publ_section_title
;
Structure prediction by ZEFSAII (Michael W. Deem and Ramdas Pophale) SiO2 
 PCOD9045746
Probable space group: P -1
;
_chemical_formula_sum "Si O2"
_cell_formula_units_Z 16
_cell_length_a 12.545475
_cell_length_b 12.093583
_cell_length_c 9.798955
_cell_angle_alpha 40.324845
_cell_angle_beta 134.653127
_cell_angle_gamma 118.254548
_cell_volume 678.070688
_symmetry_space_group_name_H-M "P -1"
_symmetry_group_IT_number 2
_symmetry_cell_setting 'triclinic'
loop_
_space_group_symop_operation_xyz
x,y,z
-x,-y,-z
loop_
_atom_site_type_symbol
_atom_site_label
_atom_site_fract_x
_atom_site_fract_y
_atom_site_fract_z
Si Si1 0.232426 0.877536 0.626908
Si Si2 0.208416 0.341566 0.249748
Si Si3 0.052509 0.785844 0.314464
Si Si4 0.796004 0.607440 0.128908
Si Si5 0.117311 0.713095 0.945958
Si Si6 0.533212 0.907452 0.258730
Si Si7 0.733018 0.172084 0.756840
Si Si8 0.474060 0.795571 0.696979
O O1 0.084128 0.874893 0.402634
O O2 0.192265 0.814364 0.798737
O O3 0.363679 0.776390 0.743229
O O4 0.321632 0.039486 0.579946
O O5 0.384704 0.286281 0.504409
O O6 0.064855 0.238875 0.254174
O O7 0.197307 0.379016 0.042191
O O8 0.158716 0.517303 0.121852
O O9 0.138924 0.587439 0.589743
O O10 0.135409 0.884345 0.179839
O O11 0.893857 0.742619 0.159316
O O12 0.629198 0.674541 0.965396
O O13 0.191471 0.739046 0.135015
O O14 0.374739 0.949709 0.153807
O O15 0.500000 0.000000 0.000000
O O16 0.605771 0.266656 0.451971
O O17 0.500000 0.000000 0.500000
#
# Coordination Sequence:
#
# PCOD9045746 Si02
#       8
#     2   2   2   2   2   2   2   2
#     4  11  23  44  65  99 135 172 221 269 329 398
#     4  11  24  45  70  96 135 176 217 282 324 392
#     4  10  24  41  68 103 127 173 224 270 334 386
#     4  11  21  44  70  97 135 169 222 279 324 391
#     4  11  24  45  69  98 131 173 227 270 331 391
#     4  12  25  46  64  98 140 174 220 272 334 391
#     4  11  22  42  68  95 134 171 219 272 327 395
#     4  11  23  43  65  94 136 173 213 273 329 388
#
# _framework density 23.596360000000001
#
# number of rings (size 3 to 8) (size 9 to 14) (size 15 to 20)
#    0.000    1.000    6.250    0.000    0.000    4.000 
#    9.000    1.875    0.000    0.000    0.000    0.000 
#    0.000    0.000    0.000    0.000    0.000    0.000 
#
# Total GULP energy -89202.187698 kJ/mol
# GULP energy per Si atom -5575.136731 kJ/mol
# Density = 2.354265 g / cm^3
# Si number density = 23.596360 Si / 1000 Ang^3
#
#
#
# Elastic Constant Matrix: (Units=GPa)
#
#
# Indices 1 2 3 4 5 6 
#
# 1 124.6389 -7.2628 19.9283 8.3383 -11.0583 1.1680
# 2 -7.2628 55.6044 13.5556 12.7663 5.5829 13.8805
# 3 19.9283 13.5556 83.5117 16.4923 7.6499 -8.7066
# 4 8.3383 12.7663 16.4923 28.5955 7.0268 0.6179
# 5 -11.0583 5.5829 7.6499 7.0268 31.5556 3.8708
# 6 1.1680 13.8805 -8.7066 0.6179 3.8708 33.6936
#
#
#
# Elastic Compliance Matrix: (Units=1/GPa)
#
#
# Indices 1 2 3 4 5 6 
#
# 1 0.009276 0.002877 -0.002679 -0.003491 0.004494 -0.002651
# 2 0.002877 0.024121 -0.004014 -0.009336 0.001146 -0.011034
# 3 -0.002679 -0.004014 0.015326 -0.005547 -0.003470 0.006207
# 4 -0.003491 -0.009336 -0.005547 0.045429 -0.008674 0.002697
# 5 0.004494 0.001146 -0.003470 -0.008674 0.036517 -0.005561
# 6 -0.002651 -0.011034 0.006207 0.002697 -0.005561 0.036510
#
#
# Mechanical properties :
#
#
# Convention : Reuss Voigt Hill
#
# Bulk Modulus (GPa) = 24.33573 35.13302 29.73437
# Shear Modulus (GPa) = 26.52399 34.60452 30.56426
#
# Velocity S-wave (km/s) = 3.35635 3.83367 3.60293
# Velocity P-wave (km/s) = 5.03546 5.87516 5.47144
#
# Compressibility (1/GPa) = 0.04109185
#
# Stress axis : x y z
#
# Youngs Moduli (GPa) = 107.80156 41.45706 65.24997
#
# Poissons Ratio (x) = -0.11927 0.17482
# Poissons Ratio (y) = -0.31014 0.26188
# Poissons Ratio (z) = 0.28882 0.16639
#
# Static dielectric constant tensor:
#      x y z
#    x 1.937060 0.002900 0.043530 
#    y 0.002900 2.061170 -0.124260 
#    z 0.043530 -0.124260 1.971080 
# 
# From -- ./inp_files/261809.got.cif
#   From: 2010.05.17/outbox.cif.g08.bks.cpg/sg2_131_cif.got.tgz:261809.got - 2010.06.03 11:33:40.
