data_PCOD9045819
_publ_section_title
;
Structure prediction by ZEFSAII (Michael W. Deem and Ramdas Pophale) SiO2 
 PCOD9045819
Probable space group: P -1
;
_chemical_formula_sum "Si O2"
_cell_formula_units_Z 12
_cell_length_a 8.683613
_cell_length_b 16.805726
_cell_length_c 8.079759
_cell_angle_alpha 75.339954
_cell_angle_beta 99.641598
_cell_angle_gamma 35.809730
_cell_volume 502.315076
_symmetry_space_group_name_H-M "P -1"
_symmetry_group_IT_number 2
_symmetry_cell_setting 'triclinic'
loop_
_space_group_symop_operation_xyz
x,y,z
-x,-y,-z
loop_
_atom_site_type_symbol
_atom_site_label
_atom_site_fract_x
_atom_site_fract_y
_atom_site_fract_z
Si Si1 0.337975 0.985932 0.474932
Si Si2 0.400833 0.269527 0.105326
Si Si3 0.927868 0.454220 0.615294
Si Si4 0.453122 0.646334 0.719046
Si Si5 0.947144 0.091055 0.082646
Si Si6 0.541658 0.526674 0.317868
O O1 0.955010 0.163328 0.403785
O O2 0.271002 0.984992 0.278198
O O3 0.500000 0.000000 0.500000
O O4 0.572861 0.809828 0.706315
O O5 0.322212 0.397980 0.099327
O O6 0.781972 0.113128 0.185919
O O7 0.202341 0.325558 0.882233
O O8 0.562942 0.626369 0.565358
O O9 0.915404 0.390181 0.504640
O O10 0.000000 0.500000 0.500000
O O11 0.538109 0.508927 0.805484
O O12 0.689465 0.285834 0.873661
O O13 0.000000 0.000000 0.000000
O O14 0.500000 0.500000 0.500000
#
# Coordination Sequence:
#
# PCOD9045819 Si02
#       6
#     2   2   2   2   2   2
#     4  11  28  47  70 104 142 193 242 290 361 419
#     4  11  25  44  71 105 141 189 238 291 364 419
#     4  11  23  44  70 109 136 183 236 289 360 423
#     4  10  24  47  71  99 150 180 238 294 350 423
#     4  11  25  47  74 102 146 191 237 293 357 426
#     4  10  24  41  71 107 143 183 236 293 360 408
#
# _framework density 23.889389999999999
#
# number of rings (size 3 to 8) (size 9 to 14) (size 15 to 20)
#    0.000    1.333    1.667    2.500   14.000    5.333 
#    0.000    1.667    0.000    0.000    0.000    0.000 
#    0.000    0.000    0.000    0.000    0.000    0.000 
#
# Total GULP energy -66859.702496 kJ/mol
# GULP energy per Si atom -5571.641875 kJ/mol
# Density = 2.383502 g / cm^3
# Si number density = 23.889390 Si / 1000 Ang^3
#
#
#
# Elastic Constant Matrix: (Units=GPa)
#
#
# Indices 1 2 3 4 5 6 
#
# 1 200.8633 57.7694 78.9502 10.1648 20.0786 43.3033
# 2 57.7694 78.5935 32.0929 5.1651 -2.7757 25.6582
# 3 78.9502 32.0929 153.1089 17.8525 17.1283 36.9680
# 4 10.1648 5.1651 17.8525 35.8469 5.7887 10.0524
# 5 20.0786 -2.7757 17.1283 5.7887 42.9808 10.2646
# 6 43.3033 25.6582 36.9680 10.0524 10.2646 64.5519
#
#
#
# Elastic Compliance Matrix: (Units=1/GPa)
#
#
# Indices 1 2 3 4 5 6 
#
# 1 0.007790 -0.004260 -0.002466 0.000553 -0.002577 -0.001796
# 2 -0.004260 0.017863 -0.000964 -0.000409 0.004625 -0.004362
# 3 -0.002466 -0.000964 0.009104 -0.002741 -0.001572 -0.002499
# 4 0.000553 -0.000409 -0.002741 0.030412 -0.002580 -0.002964
# 5 -0.002577 0.004625 -0.001572 -0.002580 0.026463 -0.003015
# 6 -0.001796 -0.004362 -0.002499 -0.002964 -0.003015 0.020803
#
#
# Mechanical properties :
#
#
# Convention : Reuss Voigt Hill
#
# Bulk Modulus (GPa) = 51.60934 85.57672 68.59303
# Shear Modulus (GPa) = 37.23760 46.25947 41.74853
#
# Velocity S-wave (km/s) = 3.95238 4.40523 4.18494
# Velocity P-wave (km/s) = 6.51758 7.85968 7.21988
#
# Compressibility (1/GPa) = 0.01937634
#
# Stress axis : x y z
#
# Youngs Moduli (GPa) = 128.37072 55.98268 109.84043
#
# Poissons Ratio (x) = 0.23846 0.27092
# Poissons Ratio (y) = 0.54681 0.10590
# Poissons Ratio (z) = 0.31662 0.05397
#
# Static dielectric constant tensor:
#      x y z
#    x 1.826420 0.005880 0.096420 
#    y 0.005880 2.144310 0.024420 
#    z 0.096420 0.024420 1.972160 
# 
# From -- ./inp_files/210373.got.cif
#   From: 2010.05.17/outbox.cif.g08.bks.cpg/sg2_106_cif.got.tgz:210373.got - 2010.06.03 11:33:40.
