data_PCOD9045120
_publ_section_title
;
Structure prediction by ZEFSAII (Michael W. Deem and Ramdas Pophale) SiO2 
 PCOD9045120
Probable space group: P -1
;
_chemical_formula_sum "Si O2"
_cell_formula_units_Z 15
_cell_length_a 9.645137
_cell_length_b 10.317204
_cell_length_c 14.572034
_cell_angle_alpha 49.947481
_cell_angle_beta 54.358466
_cell_angle_gamma 42.696486
_cell_volume 735.659988
_symmetry_space_group_name_H-M "P -1"
_symmetry_group_IT_number 2
_symmetry_cell_setting 'triclinic'
loop_
_space_group_symop_operation_xyz
x,y,z
-x,-y,-z
loop_
_atom_site_type_symbol
_atom_site_label
_atom_site_fract_x
_atom_site_fract_y
_atom_site_fract_z
Si Si1 0.065943 0.578660 0.023463
Si Si2 0.417925 0.235155 0.151076
Si Si3 0.331399 0.974064 0.029206
Si Si4 0.715117 0.322672 0.692088
Si Si5 0.527006 0.107675 0.584665
Si Si6 0.500000 0.500000 0.500000
Si Si7 0.192500 0.123317 0.588967
Si Si8 0.398694 0.669612 0.797634
O O1 0.178356 0.400621 0.137961
O O2 0.240120 0.610861 0.908212
O O3 0.000000 0.500000 0.000000
O O4 0.864985 0.800985 0.029072
O O5 0.481426 0.336919 0.155267
O O6 0.461885 0.027301 0.272869
O O7 0.560206 0.169904 0.035552
O O8 0.265746 0.869071 0.175478
O O9 0.500000 0.000000 0.000000
O O10 0.613787 0.362532 0.613212
O O11 0.562352 0.518750 0.726564
O O12 0.944027 0.274152 0.618178
O O13 0.536541 0.294218 0.527939
O O14 0.315325 0.193514 0.568666
O O15 0.712807 0.941533 0.520276
O O16 0.266231 0.904771 0.705792
#
# Coordination Sequence:
#
# PCOD9045120 Si02
#       8
#     2   2   2   2   2   1   2   2
#     4  12  24  42  70 101 143 187 221 282 355 410
#     4  11  25  44  70 104 142 181 232 284 342 426
#     4  12  24  44  70 102 143 179 228 287 350 415
#     4  12  25  45  74 101 140 184 234 292 346 412
#     4  10  24  48  70 104 143 179 237 292 344 421
#     4  12  26  44  72 104 138 178 240 286 356 408
#     4  10  23  49  73  97 141 190 233 289 348 409
#     4  11  23  46  69 104 139 182 238 282 345 418
#
# _framework density 20.389856000000002
#
# number of rings (size 3 to 8) (size 9 to 14) (size 15 to 20)
#    0.000    0.800    5.333    1.200    0.000    3.733 
#    7.200    0.000    0.000    0.000    0.000    0.000 
#    0.000    0.000    0.000    0.000    0.000    0.000 
#
# Total GULP energy -83634.225536 kJ/mol
# GULP energy per Si atom -5575.615036 kJ/mol
# Density = 2.034345 g / cm^3
# Si number density = 20.389856 Si / 1000 Ang^3
#
#
#
# Elastic Constant Matrix: (Units=GPa)
#
#
# Indices 1 2 3 4 5 6 
#
# 1 110.4665 57.0703 32.4946 19.2936 11.5100 8.1292
# 2 57.0703 108.9865 11.9830 7.4076 7.7341 -4.1107
# 3 32.4946 11.9830 67.8873 2.9096 9.4182 -8.3488
# 4 19.2936 7.4076 2.9096 33.8326 1.4419 1.7827
# 5 11.5100 7.7341 9.4182 1.4419 30.3607 3.1680
# 6 8.1292 -4.1107 -8.3488 1.7827 3.1680 34.0126
#
#
#
# Elastic Compliance Matrix: (Units=1/GPa)
#
#
# Indices 1 2 3 4 5 6 
#
# 1 0.016944 -0.007770 -0.007028 -0.006974 -0.001283 -0.006229
# 2 -0.007770 0.013197 0.002046 0.001218 -0.001529 0.004033
# 3 -0.007028 0.002046 0.019155 0.001742 -0.004608 0.006967
# 4 -0.006974 0.001218 0.001742 0.033085 0.000171 0.000492
# 5 -0.001283 -0.001529 -0.004608 0.000171 0.035688 -0.004342
# 6 -0.006229 0.004033 0.006967 0.000492 -0.004342 0.033466
#
#
# Mechanical properties :
#
#
# Convention : Reuss Voigt Hill
#
# Bulk Modulus (GPa) = 42.03245 54.49289 48.26267
# Shear Modulus (GPa) = 27.03151 32.02734 29.52943
#
# Velocity S-wave (km/s) = 3.64501 3.96757 3.80970
# Velocity P-wave (km/s) = 6.19467 6.91175 6.56301
#
# Compressibility (1/GPa) = 0.02379114
#
# Stress axis : x y z
#
# Youngs Moduli (GPa) = 59.01737 75.77452 52.20658
#
# Poissons Ratio (x) = 0.58876 0.36691
# Poissons Ratio (y) = 0.45856 -0.10679
# Poissons Ratio (z) = 0.41478 -0.15500
#
# Static dielectric constant tensor:
#      x y z
#    x 1.692850 -0.029070 0.022440 
#    y -0.029070 1.594330 0.137480 
#    z 0.022440 0.137480 1.521260 
# 
# From -- ./inp_files/381234.got.cif
#   From: 2010.05.17/outbox.cif.g08.bks.cpg/sg2_191_cif.got.tgz:381234.got - 2010.06.03 11:33:40.
