data_PCOD9045030
_publ_section_title
;
Structure prediction by ZEFSAII (Michael W. Deem and Ramdas Pophale) SiO2 
 PCOD9045030
Probable space group: P -1
;
_chemical_formula_sum "Si O2"
_cell_formula_units_Z 14
_cell_length_a 17.343334
_cell_length_b 9.898395
_cell_length_c 8.661752
_cell_angle_alpha 73.696053
_cell_angle_beta 42.550253
_cell_angle_gamma 42.513761
_cell_volume 556.442321
_symmetry_space_group_name_H-M "P -1"
_symmetry_group_IT_number 2
_symmetry_cell_setting 'triclinic'
loop_
_space_group_symop_operation_xyz
x,y,z
-x,-y,-z
loop_
_atom_site_type_symbol
_atom_site_label
_atom_site_fract_x
_atom_site_fract_y
_atom_site_fract_z
Si Si1 0.101251 0.430692 0.533249
Si Si2 0.146616 0.791780 0.222377
Si Si3 0.192039 0.038462 0.502032
Si Si4 0.432738 0.313221 0.140158
Si Si5 0.564949 0.711730 0.484203
Si Si6 0.183700 0.262128 0.904542
Si Si7 0.231210 0.776738 0.776511
O O1 0.304303 0.309639 0.273750
O O2 0.000000 0.500000 0.500000
O O3 0.143896 0.231808 0.596652
O O4 0.936106 0.679831 0.793384
O O5 0.323851 0.551378 0.139205
O O6 0.000000 0.000000 0.500000
O O7 0.009641 0.818302 0.321838
O O8 0.229782 0.802412 0.955191
O O9 0.292201 0.831973 0.543526
O O10 0.347902 0.911528 0.177418
O O11 0.418337 0.328937 0.341696
O O12 0.696393 0.715415 0.241587
O O13 0.343164 0.991581 0.694169
O O14 0.649836 0.487207 0.348862
O O15 0.000000 0.500000 0.000000
O O16 0.000000 0.000000 0.000000
#
# Coordination Sequence:
#
# PCOD9045030 Si02
#       7
#     2   2   2   2   2   2   2
#     4  12  24  46  74 105 152 195 251 313 379 441
#     4  11  25  46  74 105 146 196 246 304 382 450
#     4  11  25  46  71 107 151 196 248 312 374 446
#     4  12  25  44  72 111 143 201 248 311 377 443
#     4  11  25  44  74 111 148 195 258 303 377 452
#     4  11  24  46  71 107 147 200 245 310 371 444
#     4  10  23  48  74 106 152 195 247 312 370 451
#
# _framework density 25.159839999999999
#
# number of rings (size 3 to 8) (size 9 to 14) (size 15 to 20)
#    0.000    0.857    2.857    4.714    0.000    4.000 
#    0.000    0.000    0.000    0.000    0.000    0.000 
#    0.000    0.000    0.000    0.000    0.000    0.000 
#
# Total GULP energy -78364.145752 kJ/mol
# GULP energy per Si atom -5597.438982 kJ/mol
# Density = 2.510258 g / cm^3
# Si number density = 25.159840 Si / 1000 Ang^3
#
#
#
# Elastic Constant Matrix: (Units=GPa)
#
#
# Indices 1 2 3 4 5 6 
#
# 1 57.4588 34.8652 10.9842 -1.1016 15.0931 -12.1996
# 2 34.8652 151.3869 22.0033 20.7624 3.8876 -7.3168
# 3 10.9842 22.0033 124.2363 13.5909 2.6846 1.8523
# 4 -1.1016 20.7624 13.5909 53.7217 0.0113 2.1644
# 5 15.0931 3.8876 2.6846 0.0113 39.4642 1.4017
# 6 -12.1996 -7.3168 1.8523 2.1644 1.4017 56.3206
#
#
#
# Elastic Compliance Matrix: (Units=1/GPa)
#
#
# Indices 1 2 3 4 5 6 
#
# 1 0.024261 -0.005303 -0.001382 0.002708 -0.008831 0.004727
# 2 -0.005303 0.008330 -0.000689 -0.003156 0.001254 0.000046
# 3 -0.001382 -0.000689 0.008508 -0.001890 0.000039 -0.000597
# 4 0.002708 -0.003156 -0.001890 0.020389 -0.000583 -0.000530
# 5 -0.008831 0.001254 0.000039 -0.000583 0.028678 -0.002443
# 6 0.004727 0.000046 -0.000597 -0.000530 -0.002443 0.018886
#
#
# Mechanical properties :
#
#
# Convention : Reuss Voigt Hill
#
# Bulk Modulus (GPa) = 37.94762 52.08748 45.01755
# Shear Modulus (GPa) = 37.71220 47.58325 42.64773
#
# Velocity S-wave (km/s) = 3.87577 4.35355 4.12159
# Velocity P-wave (km/s) = 5.92825 6.78372 6.37036
#
# Compressibility (1/GPa) = 0.02635212
#
# Stress axis : x y z
#
# Youngs Moduli (GPa) = 41.21868 120.05044 117.53322
#
# Poissons Ratio (x) = 0.63659 0.16240
# Poissons Ratio (y) = 0.21857 0.08098
# Poissons Ratio (z) = 0.05695 0.08271
#
# Static dielectric constant tensor:
#      x y z
#    x 2.012400 0.001450 0.005310 
#    y 0.001450 2.013900 -0.061510 
#    z 0.005310 -0.061510 2.020070 
# 
# From -- ./inp_files/63933.got.cif
#   From: 2010.05.17/outbox.cif.g08.bks.cpg/sg2_32_cif.got.tgz:63933.got - 2010.06.03 11:33:40.
