data_PCOD9045273
_publ_section_title
;
Structure prediction by ZEFSAII (Michael W. Deem and Ramdas Pophale) SiO2 
 PCOD9045273
Probable space group: P -1
;
_chemical_formula_sum "Si O2"
_cell_formula_units_Z 12
_cell_length_a 28.190510
_cell_length_b 5.244976
_cell_length_c 22.443662
_cell_angle_alpha 123.408891
_cell_angle_beta 10.674744
_cell_angle_gamma 122.789939
_cell_volume 513.121736
_symmetry_space_group_name_H-M "P -1"
_symmetry_group_IT_number 2
_symmetry_cell_setting 'triclinic'
loop_
_space_group_symop_operation_xyz
x,y,z
-x,-y,-z
loop_
_atom_site_type_symbol
_atom_site_label
_atom_site_fract_x
_atom_site_fract_y
_atom_site_fract_z
Si Si1 0.260321 0.238078 0.408839
Si Si2 0.238231 0.330843 0.716654
Si Si3 0.155456 0.697397 0.285752
Si Si4 0.922700 0.304009 0.213315
Si Si5 0.338852 0.204564 0.770568
Si Si6 0.047652 0.351648 0.255320
O O1 0.218167 0.412123 0.547147
O O2 0.101510 0.413229 0.575053
O O3 0.149290 0.901064 0.510453
O O4 0.564153 0.238176 0.025196
O O5 0.505350 0.476825 0.386350
O O6 0.219948 0.970393 0.679284
O O7 0.000000 0.500000 0.000000
O O8 0.163011 0.390002 0.885599
O O9 0.000000 0.500000 0.500000
O O10 0.169767 0.517571 0.182481
O O11 0.000000 0.000000 0.500000
O O12 0.056914 0.160107 0.086285
O O13 0.500000 0.000000 0.500000
O O14 0.271568 0.180993 0.919746
#
# Coordination Sequence:
#
# PCOD9045273 Si02
#       6
#     2   2   2   2   2   2
#     4  11  26  47  73 104 146 180 237 296 356 432
#     4  11  22  37  61  94 135 185 234 277 333 399
#     4  12  28  49  78 108 140 184 235 299 368 430
#     4  10  24  39  61  95 133 188 230 286 344 401
#     4  11  22  40  66  96 141 181 231 280 335 414
#     4  11  27  46  73 109 141 191 236 292 357 417
#
# _framework density 23.386265000000002
#
# number of rings (size 3 to 8) (size 9 to 14) (size 15 to 20)
#    0.000    1.000    1.667    3.500    4.667    9.333 
#    0.000    0.000    0.000    0.000    0.000    0.000 
#    0.000    0.000    0.000    0.000    0.000    0.000 
#
# Total GULP energy -67021.943295 kJ/mol
# GULP energy per Si atom -5585.161941 kJ/mol
# Density = 2.333304 g / cm^3
# Si number density = 23.386265 Si / 1000 Ang^3
#
#
#
# Elastic Constant Matrix: (Units=GPa)
#
#
# Indices 1 2 3 4 5 6 
#
# 1 114.0880 17.5527 25.0135 0.9326 -0.7838 -5.8197
# 2 17.5527 67.0425 13.5775 -20.4649 -4.3548 -11.0133
# 3 25.0135 13.5775 90.4292 -24.4933 -12.7200 -6.5902
# 4 0.9326 -20.4649 -24.4933 39.9033 -5.0842 6.9111
# 5 -0.7838 -4.3548 -12.7200 -5.0842 32.8074 2.4464
# 6 -5.8197 -11.0133 -6.5902 6.9111 2.4464 41.9172
#
#
#
# Elastic Compliance Matrix: (Units=1/GPa)
#
#
# Indices 1 2 3 4 5 6 
#
# 1 0.010214 -0.003386 -0.003929 -0.004860 -0.002546 0.000861
# 2 -0.003386 0.019704 0.001999 0.011544 0.004887 0.002833
# 3 -0.003929 0.001999 0.016335 0.012205 0.008393 0.000046
# 4 -0.004860 0.011544 0.012205 0.040756 0.012702 -0.003184
# 5 -0.002546 0.004887 0.008393 0.012702 0.036438 -0.001971
# 6 0.000861 0.002833 0.000046 -0.003184 -0.001971 0.025367
#
#
# Mechanical properties :
#
#
# Convention : Reuss Voigt Hill
#
# Bulk Modulus (GPa) = 28.07380 42.64968 35.36174
# Shear Modulus (GPa) = 29.18534 37.28666 33.23600
#
# Velocity S-wave (km/s) = 3.53649 3.99730 3.77394
# Velocity P-wave (km/s) = 5.35781 6.29136 5.84326
#
# Compressibility (1/GPa) = 0.03562040
#
# Stress axis : x y z
#
# Youngs Moduli (GPa) = 97.90893 50.75074 61.21998
#
# Poissons Ratio (x) = 0.17184 0.24051
# Poissons Ratio (y) = 0.33152 -0.12236
# Poissons Ratio (z) = 0.38464 -0.10143
#
# Static dielectric constant tensor:
#      x y z
#    x 1.976030 -0.045290 -0.022860 
#    y -0.045290 1.933910 0.089670 
#    z -0.022860 0.089670 1.928500 
# 
# From -- ./inp_files/6925.got.cif
#   From: 2010.05.17/outbox.cif.g08.bks.cpg/sg2_4_cif.got.tgz:6925.got - 2010.06.03 11:33:40.
