data_PCOD9045710
_publ_section_title
;
Structure prediction by ZEFSAII (Michael W. Deem and Ramdas Pophale) SiO2 
 PCOD9045710
Probable space group: P -1
;
_chemical_formula_sum "Si O2"
_cell_formula_units_Z 16
_cell_length_a 11.400821
_cell_length_b 16.750526
_cell_length_c 9.084103
_cell_angle_alpha 79.653498
_cell_angle_beta 132.186689
_cell_angle_gamma 137.832903
_cell_volume 663.302264
_symmetry_space_group_name_H-M "P -1"
_symmetry_group_IT_number 2
_symmetry_cell_setting 'triclinic'
loop_
_space_group_symop_operation_xyz
x,y,z
-x,-y,-z
loop_
_atom_site_type_symbol
_atom_site_label
_atom_site_fract_x
_atom_site_fract_y
_atom_site_fract_z
Si Si1 0.185959 0.252511 0.893197
Si Si2 0.481317 0.497480 0.260525
Si Si3 0.937834 0.159012 0.408713
Si Si4 0.632361 0.970503 0.677002
Si Si5 0.753453 0.328734 0.723415
Si Si6 0.762476 0.410625 0.199514
Si Si7 0.814516 0.535415 0.730482
Si Si8 0.493906 0.878811 0.933893
O O1 0.945136 0.149299 0.592282
O O2 0.289797 0.385779 0.996439
O O3 0.482726 0.337844 0.056084
O O4 0.993627 0.128858 0.903039
O O5 0.698487 0.517757 0.482727
O O6 0.273287 0.430824 0.242545
O O7 0.711732 0.671694 0.382128
O O8 0.749011 0.158049 0.215195
O O9 0.788019 0.023937 0.232011
O O10 0.475011 0.830463 0.497065
O O11 0.562773 0.924178 0.804793
O O12 0.500000 0.000000 0.500000
O O13 0.653627 0.377396 0.652976
O O14 0.048868 0.467440 0.817405
O O15 0.858608 0.340779 0.966176
O O16 0.633601 0.265938 0.101328
O O17 0.000000 0.500000 0.500000
#
# Coordination Sequence:
#
# PCOD9045710 Si02
#       8
#     2   2   2   2   2   2   2   2
#     4  12  27  44  74 108 147 193 243 303 366 434
#     4  11  24  42  70 103 146 186 249 292 361 435
#     4  11  25  45  71 105 143 197 244 299 360 436
#     4  12  26  45  74 110 149 190 244 301 370 435
#     4  11  24  45  74 100 145 193 238 298 367 431
#     4  12  25  49  73 107 144 195 247 298 361 439
#     4  10  24  41  67 107 137 188 238 306 354 427
#     4  11  26  45  73 104 150 193 242 299 363 433
#
# _framework density 24.121732999999999
#
# number of rings (size 3 to 8) (size 9 to 14) (size 15 to 20)
#    0.000    0.750    2.500    4.125    5.250    4.000 
#    0.000    0.000    0.000    0.000    0.000    0.000 
#    0.000    0.000    0.000    0.000    0.000    0.000 
#
# Total GULP energy -89442.240311 kJ/mol
# GULP energy per Si atom -5590.140019 kJ/mol
# Density = 2.406683 g / cm^3
# Si number density = 24.121733 Si / 1000 Ang^3
#
#
#
# Elastic Constant Matrix: (Units=GPa)
#
#
# Indices 1 2 3 4 5 6 
#
# 1 98.0888 30.0910 39.7574 17.4095 -16.8527 -12.6248
# 2 30.0910 80.8586 42.2771 25.1735 -8.8651 0.1763
# 3 39.7574 42.2771 124.8890 18.6726 -37.4616 -14.2721
# 4 17.4095 25.1735 18.6726 44.9293 -8.6539 -10.3272
# 5 -16.8527 -8.8651 -37.4616 -8.6539 51.9509 12.6798
# 6 -12.6248 0.1763 -14.2721 -10.3272 12.6798 43.3414
#
#
#
# Elastic Compliance Matrix: (Units=1/GPa)
#
#
# Indices 1 2 3 4 5 6 
#
# 1 0.012788 -0.002980 -0.002190 -0.001615 0.001238 0.002269
# 2 -0.002980 0.018576 -0.005113 -0.008431 -0.001892 -0.004083
# 3 -0.002190 -0.005113 0.012768 0.000153 0.007285 0.001493
# 4 -0.001615 -0.008431 0.000153 0.029247 0.001522 0.006138
# 5 0.001238 -0.001892 0.007285 0.001522 0.025922 -0.004454
# 6 0.002269 -0.004083 0.001493 0.006138 -0.004454 0.027007
#
#
# Mechanical properties :
#
#
# Convention : Reuss Voigt Hill
#
# Bulk Modulus (GPa) = 42.43493 58.67637 50.55565
# Shear Modulus (GPa) = 32.31429 40.82503 36.56966
#
# Velocity S-wave (km/s) = 3.66407 4.11841 3.89787
# Velocity P-wave (km/s) = 5.96077 6.85515 6.42354
#
# Compressibility (1/GPa) = 0.02356549
#
# Stress axis : x y z
#
# Youngs Moduli (GPa) = 78.19715 53.83272 78.32025
#
# Poissons Ratio (x) = 0.16044 0.17152
# Poissons Ratio (y) = 0.23305 0.40046
# Poissons Ratio (z) = 0.17126 0.27525
#
# Static dielectric constant tensor:
#      x y z
#    x 1.980810 0.068490 0.043040 
#    y 0.068490 1.980170 -0.037540 
#    z 0.043040 -0.037540 1.934730 
# 
# From -- ./inp_files/279441.got.cif
#   From: 2010.05.17/outbox.cif.g08.bks.cpg/sg2_140_cif.got.tgz:279441.got - 2010.06.03 11:33:40.
