data_PCOD9045868
_publ_section_title
;
Structure prediction by ZEFSAII (Michael W. Deem and Ramdas Pophale) SiO2 
 PCOD9045868
Probable space group: P -1
;
_chemical_formula_sum "Si O2"
_cell_formula_units_Z 16
_cell_length_a 5.243582
_cell_length_b 8.897467
_cell_length_c 19.985721
_cell_angle_alpha 131.356189
_cell_angle_beta 108.625540
_cell_angle_gamma 59.019832
_cell_volume 599.739823
_symmetry_space_group_name_H-M "P -1"
_symmetry_group_IT_number 2
_symmetry_cell_setting 'triclinic'
loop_
_space_group_symop_operation_xyz
x,y,z
-x,-y,-z
loop_
_atom_site_type_symbol
_atom_site_label
_atom_site_fract_x
_atom_site_fract_y
_atom_site_fract_z
Si Si1 0.462682 0.566018 0.403391
Si Si2 0.644044 0.741511 0.586402
Si Si3 0.117753 0.011886 0.232824
Si Si4 0.230336 0.583167 0.754025
Si Si5 0.294046 0.018450 0.051852
Si Si6 0.938806 0.815609 0.349903
Si Si7 0.310662 0.228836 0.869747
Si Si8 0.789417 0.522150 0.840842
O O1 0.689127 0.626404 0.484102
O O2 0.357929 0.425094 0.404201
O O3 0.595971 0.437048 0.308458
O O4 0.192821 0.784409 0.415821
O O5 0.847471 0.861451 0.661469
O O6 0.313662 0.942139 0.611589
O O7 0.041458 0.184158 0.215935
O O8 0.446190 0.825893 0.185597
O O9 0.858947 0.931197 0.189253
O O10 0.183941 0.361018 0.687672
O O11 0.441196 0.583120 0.832746
O O12 0.492656 0.828200 0.063961
O O13 0.202208 0.274745 0.139093
O O14 0.500000 0.000000 0.000000
O O15 0.000000 0.000000 0.000000
O O16 0.088923 0.702516 0.259166
O O17 0.026917 0.463199 0.903177
#
# Coordination Sequence:
#
# PCOD9045868 Si02
#       8
#     2   2   2   2   2   2   2   2
#     4  10  24  42  60  97 147 195 241 311 364 427
#     4  11  22  42  66  98 143 191 252 301 368 417
#     4  12  23  44  74 107 141 192 246 299 358 421
#     4  11  23  42  69 101 144 195 247 304 362 423
#     4  12  29  50  77 111 150 184 224 293 370 439
#     4  11  22  42  67 101 136 192 248 303 355 423
#     4  12  26  48  78 109 142 189 239 298 352 440
#     4  11  26  44  77 105 143 188 245 289 354 438
#
# _framework density 26.678235999999998
#
# number of rings (size 3 to 8) (size 9 to 14) (size 15 to 20)
#    0.000    0.750    3.750    3.375    1.750    2.000 
#    2.250    0.000    0.000    0.000    0.000    0.000 
#    0.000    0.000    0.000    0.000    0.000    0.000 
#
# Total GULP energy -89570.497547 kJ/mol
# GULP energy per Si atom -5598.156097 kJ/mol
# Density = 2.661752 g / cm^3
# Si number density = 26.678236 Si / 1000 Ang^3
#
#
#
# Elastic Constant Matrix: (Units=GPa)
#
#
# Indices 1 2 3 4 5 6 
#
# 1 87.8261 0.5498 21.8182 -17.9665 28.2016 -19.6413
# 2 0.5498 152.9924 13.4175 -33.5537 -2.1990 -32.4975
# 3 21.8182 13.4175 51.1654 -15.4729 16.2302 -8.7544
# 4 -17.9665 -33.5537 -15.4729 44.1629 -19.5013 7.0033
# 5 28.2016 -2.1990 16.2302 -19.5013 38.8203 -6.8377
# 6 -19.6413 -32.4975 -8.7544 7.0033 -6.8377 53.0125
#
#
#
# Elastic Compliance Matrix: (Units=1/GPa)
#
#
# Indices 1 2 3 4 5 6 
#
# 1 0.016552 0.001733 -0.003214 0.002347 -0.008478 0.005261
# 2 0.001733 0.010096 -0.001281 0.009467 0.005679 0.006101
# 3 -0.003214 -0.001281 0.024350 0.003455 -0.006040 0.000810
# 4 0.002347 0.009467 0.003455 0.039188 0.017842 0.004368
# 5 -0.008478 0.005679 -0.006040 0.017842 0.044202 0.002687
# 6 0.005261 0.006101 0.000810 0.004368 0.002687 0.024456
#
#
# Mechanical properties :
#
#
# Convention : Reuss Voigt Hill
#
# Bulk Modulus (GPa) = 21.99042 40.39499 31.19271
# Shear Modulus (GPa) = 27.85095 44.27904 36.06499
#
# Velocity S-wave (km/s) = 3.23454 4.07842 3.68074
# Velocity P-wave (km/s) = 4.71279 6.11166 5.45723
#
# Compressibility (1/GPa) = 0.04547435
#
# Stress axis : x y z
#
# Youngs Moduli (GPa) = 60.41419 99.04535 41.06748
#
# Poissons Ratio (x) = -0.17160 0.13198
# Poissons Ratio (y) = -0.10467 0.05261
# Poissons Ratio (z) = 0.19416 0.12689
#
# Static dielectric constant tensor:
#      x y z
#    x 2.177730 -0.089730 -0.087300 
#    y -0.089730 2.150550 -0.001790 
#    z -0.087300 -0.001790 2.156820 
# 
# From -- ./inp_files/582618.got.cif
#   From: 2010.05.17/outbox.cif.g08.bks.cpg/sg2_292_cif.got.tgz:582618.got - 2010.06.03 11:33:40.
