data_PCOD9045397
_publ_section_title
;
Structure prediction by ZEFSAII (Michael W. Deem and Ramdas Pophale) SiO2 
 PCOD9045397
Probable space group: P -1
;
_chemical_formula_sum "Si O2"
_cell_formula_units_Z 16
_cell_length_a 23.253240
_cell_length_b 11.852163
_cell_length_c 6.559646
_cell_angle_alpha 110.011625
_cell_angle_beta 121.606698
_cell_angle_gamma 30.440950
_cell_volume 754.481594
_symmetry_space_group_name_H-M "P -1"
_symmetry_group_IT_number 2
_symmetry_cell_setting 'triclinic'
loop_
_space_group_symop_operation_xyz
x,y,z
-x,-y,-z
loop_
_atom_site_type_symbol
_atom_site_label
_atom_site_fract_x
_atom_site_fract_y
_atom_site_fract_z
Si Si1 0.331839 0.610718 0.211187
Si Si2 0.063328 0.229175 0.591119
Si Si3 0.718235 0.072076 0.878806
Si Si4 0.818035 0.762682 0.501820
Si Si5 0.274957 0.529716 0.670940
Si Si6 0.379549 0.128310 0.728959
Si Si7 0.095074 0.933513 0.273556
Si Si8 0.486377 0.796273 0.392132
O O1 0.356463 0.704027 0.222988
O O2 0.214110 0.795557 0.267285
O O3 0.449170 0.374262 0.405761
O O4 0.292822 0.583712 0.936398
O O5 0.135809 0.211555 0.562687
O O6 0.937485 0.491288 0.593342
O O7 0.031768 0.150549 0.378303
O O8 0.167699 0.046741 0.847506
O O9 0.621750 0.128914 0.851718
O O10 0.781955 0.892259 0.714373
O O11 0.693748 0.868118 0.287732
O O12 0.276580 0.389724 0.657125
O O13 0.155718 0.759315 0.457839
O O14 0.402603 0.346390 0.652030
O O15 0.426728 0.002513 0.521778
O O16 0.500000 0.000000 0.000000
O O17 0.000000 0.000000 0.000000
#
# Coordination Sequence:
#
# PCOD9045397 Si02
#       8
#     2   2   2   2   2   2   2   2
#     4  11  22  42  63  95 132 165 214 266 323 391
#     4  11  23  45  67  93 130 173 216 268 326 383
#     4  11  22  41  67  95 129 167 219 264 322 389
#     4  10  25  43  64  96 130 172 218 269 320 380
#     4  11  24  43  64  97 128 174 216 259 335 386
#     4  11  23  43  68  94 135 172 217 270 321 390
#     4  11  26  44  67  97 131 168 218 272 324 386
#     4  10  24  40  64  96 130 170 212 270 323 384
#
# _framework density 21.206614999999999
#
# number of rings (size 3 to 8) (size 9 to 14) (size 15 to 20)
#    0.000    1.250    3.750    1.125    3.500    2.000 
#    9.000    0.000    0.000    0.000    0.000    0.000 
#    0.000    0.000    0.000    0.000    0.000    0.000 
#
# Total GULP energy -89454.800019 kJ/mol
# GULP energy per Si atom -5590.925001 kJ/mol
# Density = 2.115835 g / cm^3
# Si number density = 21.206615 Si / 1000 Ang^3
#
#
#
# Elastic Constant Matrix: (Units=GPa)
#
#
# Indices 1 2 3 4 5 6 
#
# 1 61.0733 8.4799 5.3708 -1.5955 7.6205 19.3252
# 2 8.4799 88.3142 9.8175 13.0718 0.6572 30.0159
# 3 5.3708 9.8175 74.7878 -0.4919 14.2903 19.7285
# 4 -1.5955 13.0718 -0.4919 26.4872 3.0402 7.2580
# 5 7.6205 0.6572 14.2903 3.0402 31.6124 1.1292
# 6 19.3252 30.0159 19.7285 7.2580 1.1292 34.3545
#
#
#
# Elastic Compliance Matrix: (Units=1/GPa)
#
#
# Indices 1 2 3 4 5 6 
#
# 1 0.022622 0.002898 0.004417 0.006024 -0.007417 -0.018822
# 2 0.002898 0.017132 0.002258 -0.003412 -0.001135 -0.017137
# 3 0.004417 0.002258 0.018836 0.004984 -0.009534 -0.016014
# 4 0.006024 -0.003412 0.004984 0.044131 -0.007437 -0.012348
# 5 -0.007417 -0.001135 -0.009534 -0.007437 0.038078 0.010959
# 6 -0.018822 -0.017137 -0.016014 -0.012348 0.010959 0.066114
#
#
# Mechanical properties :
#
#
# Convention : Reuss Voigt Hill
#
# Bulk Modulus (GPa) = 12.86410 30.16798 21.51604
# Shear Modulus (GPa) = 23.39956 31.85794 27.62875
#
# Velocity S-wave (km/s) = 3.32536 3.88011 3.61340
# Velocity P-wave (km/s) = 4.56326 5.85921 5.25136
#
# Compressibility (1/GPa) = 0.07773571
#
# Stress axis : x y z
#
# Youngs Moduli (GPa) = 44.20535 58.37073 53.08848
#
# Poissons Ratio (x) = -0.16914 -0.23450
# Poissons Ratio (y) = -0.12810 -0.11987
# Poissons Ratio (z) = -0.19526 -0.13180
#
# Static dielectric constant tensor:
#      x y z
#    x 1.779050 -0.002830 0.004980 
#    y -0.002830 1.744030 -0.015220 
#    z 0.004980 -0.015220 1.729770 
# 
# From -- ./inp_files/69180.got.cif
#   From: 2010.05.17/outbox.cif.g08.bks.cpg/sg2_35_cif.got.tgz:69180.got - 2010.06.03 11:33:40.
