data_PCOD9045211
_publ_section_title
;
Structure prediction by ZEFSAII (Michael W. Deem and Ramdas Pophale) SiO2 
 PCOD9045211
Probable space group: P -1
;
_chemical_formula_sum "Si O2"
_cell_formula_units_Z 14
_cell_length_a 9.330545
_cell_length_b 8.052493
_cell_length_c 22.918605
_cell_angle_alpha 149.935029
_cell_angle_beta 51.041179
_cell_angle_gamma 133.741184
_cell_volume 621.057697
_symmetry_space_group_name_H-M "P -1"
_symmetry_group_IT_number 2
_symmetry_cell_setting 'triclinic'
loop_
_space_group_symop_operation_xyz
x,y,z
-x,-y,-z
loop_
_atom_site_type_symbol
_atom_site_label
_atom_site_fract_x
_atom_site_fract_y
_atom_site_fract_z
Si Si1 0.086070 0.953111 0.901938
Si Si2 0.612236 0.588058 0.767166
Si Si3 0.980883 0.106009 0.470446
Si Si4 0.721070 0.595298 0.292986
Si Si5 0.261294 0.739860 0.268491
Si Si6 0.351166 0.316854 0.853070
Si Si7 0.031996 0.904174 0.717805
O O1 0.241737 0.764125 0.815487
O O2 0.203724 0.306323 0.940610
O O3 0.904842 0.649791 0.821941
O O4 0.000000 0.000000 0.000000
O O5 0.487820 0.478291 0.706805
O O6 0.675288 0.277794 0.685486
O O7 0.823271 0.896067 0.793623
O O8 0.468460 0.622329 0.867315
O O9 0.001298 0.510981 0.583326
O O10 0.164607 0.027670 0.369919
O O11 0.000000 0.000000 0.500000
O O12 0.781780 0.835271 0.408233
O O13 0.882468 0.815890 0.270297
O O14 0.465254 0.772878 0.195924
O O15 0.200995 0.009912 0.756599
#
# Coordination Sequence:
#
# PCOD9045211 Si02
#       7
#     2   2   2   2   2   2   2
#     4  11  22  41  64  86 112 150 196 244 294 352
#     4   9  19  39  60  81 118 159 187 239 289 331
#     4  11  19  36  59  88 119 162 195 227 278 348
#     4  10  24  37  56  89 118 148 193 248 292 334
#     4   9  20  38  59  85 115 154 195 235 283 333
#     4   9  18  38  62  82 115 154 193 237 283 346
#     4  11  19  38  60  84 126 153 193 236 285 339
#
# _framework density 22.542189
#
# number of rings (size 3 to 8) (size 9 to 14) (size 15 to 20)
#    0.857    1.143    2.857    1.286    0.000    4.000 
#    0.000    3.571    0.000    0.000    0.000    0.000 
#    0.000    0.000    0.000    0.000    0.000    0.000 
#
# Total GULP energy -77944.177716 kJ/mol
# GULP energy per Si atom -5567.441265 kJ/mol
# Density = 2.249088 g / cm^3
# Si number density = 22.542189 Si / 1000 Ang^3
#
#
#
# Elastic Constant Matrix: (Units=GPa)
#
#
# Indices 1 2 3 4 5 6 
#
# 1 136.0802 20.7298 23.9225 -2.3318 1.6575 18.2100
# 2 20.7298 114.7192 14.6673 -24.8796 -3.0725 18.8212
# 3 23.9225 14.6673 47.8674 2.4513 7.0850 8.7492
# 4 -2.3318 -24.8796 2.4513 23.5866 -12.1611 -5.2921
# 5 1.6575 -3.0725 7.0850 -12.1611 -0.1092 -8.0000
# 6 18.2100 18.8212 8.7492 -5.2921 -8.0000 28.6360
#
#
#
# Elastic Compliance Matrix: (Units=1/GPa)
#
#
# Indices 1 2 3 4 5 6 
#
# 1 0.008516 -0.000182 -0.003890 0.001171 0.001711 -0.003413
# 2 -0.000182 0.010761 -0.000030 0.003517 -0.011077 -0.009392
# 3 -0.003890 -0.000030 0.019006 0.008109 0.018862 0.003454
# 4 0.001171 0.003517 0.008109 0.015508 -0.050623 -0.016810
# 5 0.001711 -0.011077 0.018862 -0.050623 -0.060775 -0.025904
# 6 -0.003413 -0.009392 0.003454 -0.016810 -0.025904 0.031866
#
#
# Mechanical properties :
#
#
# Convention : Reuss Voigt Hill
#
# Bulk Modulus (GPa) = 33.24550 46.36735 39.80642
# Shear Modulus (GPa) = 115.97972 26.37916 71.17944
#
# Velocity S-wave (km/s) = 7.18065 3.42455 5.62536
# Velocity P-wave (km/s) = 9.13943 6.02084 7.73885
#
# Compressibility (1/GPa) = 0.03007926
#
# Stress axis : x y z
#
# Youngs Moduli (GPa) = 117.42509 92.93110 52.61553
#
# Poissons Ratio (x) = 0.01690 0.20465
# Poissons Ratio (y) = 0.02136 0.00159
# Poissons Ratio (z) = 0.45674 0.00280
#
# Static dielectric constant tensor:
#      x y z
#    x 1.841040 -0.011860 0.004650 
#    y -0.011860 1.898370 -0.077700 
#    z 0.004650 -0.077700 1.861070 
# 
# From -- ./inp_files/606514.got.cif
#   From: 2010.05.17/outbox.cif.g08.bks.cpg/sg2_304_cif.got.tgz:606514.got - 2010.06.03 11:33:40.
