data_PCOD9045316
_publ_section_title
;
Structure prediction by ZEFSAII (Michael W. Deem and Ramdas Pophale) SiO2 
 PCOD9045316
Probable space group: P -1
;
_chemical_formula_sum "Si O2"
_cell_formula_units_Z 15
_cell_length_a 6.705678
_cell_length_b 4.805149
_cell_length_c 25.799373
_cell_angle_alpha 76.378573
_cell_angle_beta 45.927210
_cell_angle_gamma 92.410766
_cell_volume 554.651457
_symmetry_space_group_name_H-M "P -1"
_symmetry_group_IT_number 2
_symmetry_cell_setting 'triclinic'
loop_
_space_group_symop_operation_xyz
x,y,z
-x,-y,-z
loop_
_atom_site_type_symbol
_atom_site_label
_atom_site_fract_x
_atom_site_fract_y
_atom_site_fract_z
Si Si1 0.912872 0.133681 0.458105
Si Si2 0.528154 0.367106 0.700836
Si Si3 0.458885 0.929255 0.141119
Si Si4 0.927359 0.385690 0.273054
Si Si5 0.988049 0.868613 0.845739
Si Si6 0.500000 0.500000 0.500000
Si Si7 0.844021 0.506408 0.082497
Si Si8 0.958260 0.864756 0.364535
O O1 0.194864 0.332165 0.366450
O O2 0.693820 0.309727 0.506284
O O3 0.000000 0.000000 0.500000
O O4 0.777197 0.870160 0.451853
O O5 0.723454 0.141638 0.677577
O O6 0.332433 0.467603 0.689690
O O7 0.256430 0.171927 0.794795
O O8 0.209596 0.661433 0.223225
O O9 0.552231 0.226935 0.145050
O O10 0.302339 0.026755 0.114785
O O11 0.732281 0.799208 0.090919
O O12 0.949096 0.260222 0.215783
O O13 0.926827 0.111575 0.321020
O O14 0.976101 0.604770 0.900517
O O15 0.747279 0.538661 0.404301
O O16 0.000000 0.500000 0.000000
#
# Coordination Sequence:
#
# PCOD9045316 Si02
#       8
#     2   2   2   2   2   1   2   2
#     4  11  24  40  60  93 131 178 232 291 352 430
#     4  10  24  39  68  95 132 178 236 284 360 411
#     4  11  26  48  74 108 149 190 242 298 357 427
#     4  11  24  44  69 104 138 183 239 297 356 423
#     4  11  26  45  74 105 145 187 242 297 359 430
#     4  10  24  40  62  88 130 180 224 290 356 420
#     4  12  28  48  76 109 149 193 240 294 361 432
#     4  11  24  40  64  94 135 179 236 290 362 420
#
# _framework density 27.04401
#
# number of rings (size 3 to 8) (size 9 to 14) (size 15 to 20)
#    0.000    1.067    1.333    3.200    5.600    8.533 
#    0.000    0.000    0.000    0.000    0.000    0.000 
#    0.000    0.000    0.000    0.000    0.000    0.000 
#
# Total GULP energy -83612.800197 kJ/mol
# GULP energy per Si atom -5574.186680 kJ/mol
# Density = 2.698246 g / cm^3
# Si number density = 27.044010 Si / 1000 Ang^3
#
#
#
# Elastic Constant Matrix: (Units=GPa)
#
#
# Indices 1 2 3 4 5 6 
#
# 1 129.5676 65.4105 50.6435 -0.7303 33.7942 -65.6979
# 2 65.4105 147.2123 33.2629 -5.3324 11.6137 -47.7364
# 3 50.6435 33.2629 64.1034 -12.0606 25.8850 -26.1493
# 4 -0.7303 -5.3324 -12.0606 40.6815 -0.0806 -8.0086
# 5 33.7942 11.6137 25.8850 -0.0806 36.5410 -11.0128
# 6 -65.6979 -47.7364 -26.1493 -8.0086 -11.0128 86.1526
#
#
#
# Elastic Compliance Matrix: (Units=1/GPa)
#
#
# Indices 1 2 3 4 5 6 
#
# 1 0.018971 -0.003268 -0.005273 0.000264 -0.009809 0.009826
# 2 -0.003268 0.009355 -0.001929 0.001089 0.002167 0.002484
# 3 -0.005273 -0.001929 0.029451 0.008911 -0.014502 0.002824
# 4 0.000264 0.001089 0.008911 0.028441 -0.005185 0.005490
# 5 -0.009809 0.002167 -0.014502 -0.005185 0.044356 -0.005493
# 6 0.009826 0.002484 0.002824 0.005490 -0.005493 0.021142
#
#
# Mechanical properties :
#
#
# Convention : Reuss Voigt Hill
#
# Bulk Modulus (GPa) = 27.14708 71.05745 49.10226
# Shear Modulus (GPa) = 27.03648 45.44612 36.24130
#
# Velocity S-wave (km/s) = 3.16527 4.10378 3.66469
# Velocity P-wave (km/s) = 4.83926 6.98473 6.00853
#
# Compressibility (1/GPa) = 0.03683638
#
# Stress axis : x y z
#
# Youngs Moduli (GPa) = 52.71087 106.89578 33.95489
#
# Poissons Ratio (x) = 0.34936 0.17905
# Poissons Ratio (y) = 0.17227 0.06550
# Poissons Ratio (z) = 0.27795 0.20621
#
# Static dielectric constant tensor:
#      x y z
#    x 2.218840 0.164870 -0.023110 
#    y 0.164870 2.320580 -0.071770 
#    z -0.023110 -0.071770 2.239810 
# 
# From -- ./inp_files/614670.got.cif
#   From: 2010.05.17/outbox.cif.g08.bks.cpg/sg2_308_cif.got.tgz:614670.got - 2010.06.03 11:33:40.
