data_PCOD9045269
_publ_section_title
;
Structure prediction by ZEFSAII (Michael W. Deem and Ramdas Pophale) SiO2 
 PCOD9045269
Probable space group: P -1
;
_chemical_formula_sum "Si O2"
_cell_formula_units_Z 14
_cell_length_a 14.553926
_cell_length_b 9.586732
_cell_length_c 7.202730
_cell_angle_alpha 135.010454
_cell_angle_beta 97.241383
_cell_angle_gamma 71.093864
_cell_volume 664.117840
_symmetry_space_group_name_H-M "P -1"
_symmetry_group_IT_number 2
_symmetry_cell_setting 'triclinic'
loop_
_space_group_symop_operation_xyz
x,y,z
-x,-y,-z
loop_
_atom_site_type_symbol
_atom_site_label
_atom_site_fract_x
_atom_site_fract_y
_atom_site_fract_z
Si Si1 0.808855 0.341134 0.987977
Si Si2 0.847838 0.649066 0.999249
Si Si3 0.375419 0.119102 0.875918
Si Si4 0.105129 0.683378 0.634107
Si Si5 0.530213 0.687205 0.596220
Si Si6 0.015361 0.132907 0.883304
Si Si7 0.598754 0.554890 0.100306
O O1 0.836040 0.525094 0.063137
O O2 0.907466 0.141737 0.793078
O O3 0.810065 0.363417 0.232346
O O4 0.701016 0.366418 0.909377
O O5 0.741534 0.821595 0.097484
O O6 0.873690 0.491760 0.681523
O O7 0.932437 0.750692 0.127335
O O8 0.413383 0.220109 0.154068
O O9 0.402319 0.242981 0.827153
O O10 0.434962 0.873828 0.673159
O O11 0.085512 0.902660 0.731341
O O12 0.011759 0.738174 0.805058
O O13 0.500000 0.500000 0.500000
O O14 0.599394 0.607929 0.364738
O O15 0.500000 0.500000 0.000000
#
# Coordination Sequence:
#
# PCOD9045269 Si02
#       7
#     2   2   2   2   2   2   2
#     4   9  21  37  58  88 116 152 202 234 288 357
#     4  11  20  37  63  83 121 153 192 240 299 346
#     4  10  24  39  59  96 113 158 206 242 300 364
#     4   9  20  39  58  84 125 151 191 246 284 348
#     4  11  22  42  64  83 122 158 200 252 302 347
#     4   9  20  40  56  89 120 151 197 240 288 355
#     4  11  21  40  63  86 124 160 196 252 299 347
#
# _framework density 21.080596
#
# number of rings (size 3 to 8) (size 9 to 14) (size 15 to 20)
#    0.857    1.143    1.429    2.143    0.000    2.857 
#    0.000    0.000    3.143    0.000    0.000    0.000 
#    0.000    0.000    0.000    0.000    0.000    0.000 
#
# Total GULP energy -78029.217385 kJ/mol
# GULP energy per Si atom -5573.515527 kJ/mol
# Density = 2.103262 g / cm^3
# Si number density = 21.080596 Si / 1000 Ang^3
#
#
#
# Elastic Constant Matrix: (Units=GPa)
#
#
# Indices 1 2 3 4 5 6 
#
# 1 125.3364 46.8871 34.1168 19.5957 -11.2964 -11.3228
# 2 46.8871 104.1841 14.7151 10.3729 -7.1711 -11.0263
# 3 34.1168 14.7151 40.7562 8.9731 -10.4721 -6.4639
# 4 19.5957 10.3729 8.9731 24.5490 -3.7162 -6.3931
# 5 -11.2964 -7.1711 -10.4721 -3.7162 15.2149 1.6560
# 6 -11.3228 -11.0263 -6.4639 -6.3931 1.6560 26.9555
#
#
#
# Elastic Compliance Matrix: (Units=1/GPa)
#
#
# Indices 1 2 3 4 5 6 
#
# 1 0.012435 -0.003893 -0.007540 -0.005257 0.000867 0.000523
# 2 -0.003893 0.011876 0.000227 -0.000879 0.002330 0.002925
# 3 -0.007540 0.000227 0.036983 -0.003799 0.018627 0.003749
# 4 -0.005257 -0.000879 -0.003799 0.049415 0.004269 0.007979
# 5 0.000867 0.002330 0.018627 0.004269 0.081133 0.001812
# 6 0.000523 0.002925 0.003749 0.007979 0.001812 0.041194
#
#
# Mechanical properties :
#
#
# Convention : Reuss Voigt Hill
#
# Bulk Modulus (GPa) = 25.71913 51.30164 38.51038
# Shear Modulus (GPa) = 18.62831 24.98108 21.80470
#
# Velocity S-wave (km/s) = 2.97589 3.44616 3.21962
# Velocity P-wave (km/s) = 4.90252 6.34220 5.66825
#
# Compressibility (1/GPa) = 0.03888157
#
# Stress axis : x y z
#
# Youngs Moduli (GPa) = 80.42139 84.20554 27.03915
#
# Poissons Ratio (x) = 0.32778 0.20389
# Poissons Ratio (y) = 0.31305 -0.00614
# Poissons Ratio (z) = 0.60641 -0.01912
#
# Static dielectric constant tensor:
#      x y z
#    x 1.751940 -0.058000 -0.004450 
#    y -0.058000 1.739730 -0.009280 
#    z -0.004450 -0.009280 1.754220 
# 
# From -- ./inp_files/299848.got.cif
#   From: 2010.05.17/outbox.cif.g08.bks.cpg/sg2_150_cif.got.tgz:299848.got - 2010.06.03 11:33:40.
