data_PCOD9045426
_publ_section_title
;
Structure prediction by ZEFSAII (Michael W. Deem and Ramdas Pophale) SiO2 
 PCOD9045426
Probable space group: P -1
;
_chemical_formula_sum "Si O2"
_cell_formula_units_Z 14
_cell_length_a 13.661171
_cell_length_b 17.598748
_cell_length_c 4.931006
_cell_angle_alpha 103.782647
_cell_angle_beta 122.795822
_cell_angle_gamma 38.211118
_cell_volume 575.019635
_symmetry_space_group_name_H-M "P -1"
_symmetry_group_IT_number 2
_symmetry_cell_setting 'triclinic'
loop_
_space_group_symop_operation_xyz
x,y,z
-x,-y,-z
loop_
_atom_site_type_symbol
_atom_site_label
_atom_site_fract_x
_atom_site_fract_y
_atom_site_fract_z
Si Si1 0.517771 0.572675 0.750868
Si Si2 0.091894 0.862882 0.533521
Si Si3 0.890669 0.723024 0.413279
Si Si4 0.485936 0.133653 0.242098
Si Si5 0.933656 0.865184 0.799226
Si Si6 0.745794 0.501938 0.530889
Si Si7 0.303338 0.302772 0.637095
O O1 0.500000 0.500000 0.500000
O O2 0.311180 0.727748 0.635328
O O3 0.654987 0.546295 0.727183
O O4 0.626316 0.510544 0.150677
O O5 0.040856 0.118990 0.845700
O O6 0.000000 0.000000 0.500000
O O7 0.074639 0.839087 0.792028
O O8 0.886457 0.644050 0.507314
O O9 0.028394 0.641899 0.291014
O O10 0.964862 0.756474 0.719700
O O11 0.664246 0.850162 0.086946
O O12 0.714003 0.997016 0.478120
O O13 0.413431 0.191674 0.483049
O O14 0.437063 0.230946 0.045275
O O15 0.727715 0.597907 0.460439
#
# Coordination Sequence:
#
# PCOD9045426 Si02
#       7
#     2   2   2   2   2   2   2
#     4  12  27  48  72 102 136 185 243 294 342 405
#     4  12  29  47  72 101 138 180 248 293 347 402
#     4  10  26  42  71 106 143 179 228 274 350 433
#     4  10  24  40  69 100 145 172 230 267 351 414
#     4  12  25  46  73  98 141 185 226 291 352 404
#     4  12  25  43  75  97 145 180 228 285 356 400
#     4  10  24  40  66 103 144 174 226 271 346 419
#
# _framework density 24.346993000000001
#
# number of rings (size 3 to 8) (size 9 to 14) (size 15 to 20)
#    0.857    0.000    0.000    6.000   10.000    1.143 
#    0.000    0.000    0.000    0.000    0.000    0.000 
#    0.000    0.000    0.000    0.000    0.000    0.000 
#
# Total GULP energy -78316.724526 kJ/mol
# GULP energy per Si atom -5594.051752 kJ/mol
# Density = 2.429158 g / cm^3
# Si number density = 24.346993 Si / 1000 Ang^3
#
#
#
# Elastic Constant Matrix: (Units=GPa)
#
#
# Indices 1 2 3 4 5 6 
#
# 1 99.4555 37.7546 4.1843 -6.1375 -9.4569 -20.3410
# 2 37.7546 103.9793 1.1570 -3.4927 10.4382 -15.0030
# 3 4.1843 1.1570 61.1298 1.3489 -8.4125 -14.9402
# 4 -6.1375 -3.4927 1.3489 35.9243 -5.2166 -1.9673
# 5 -9.4569 10.4382 -8.4125 -5.2166 37.9415 10.9459
# 6 -20.3410 -15.0030 -14.9402 -1.9673 10.9459 31.6294
#
#
#
# Elastic Compliance Matrix: (Units=1/GPa)
#
#
# Indices 1 2 3 4 5 6 
#
# 1 0.013337 -0.004222 0.001054 0.002645 0.003327 0.006086
# 2 -0.004222 0.012549 0.000594 -0.000088 -0.005997 0.005588
# 3 0.001054 0.000594 0.018759 0.000277 0.001620 0.009277
# 4 0.002645 -0.000088 0.000277 0.028984 0.004103 0.002173
# 5 0.003327 -0.005997 0.001620 0.004103 0.032958 -0.011090
# 6 0.006086 0.005588 0.009277 0.002173 -0.011090 0.046535
#
#
# Mechanical properties :
#
#
# Convention : Reuss Voigt Hill
#
# Bulk Modulus (GPa) = 25.31794 38.97295 32.14545
# Shear Modulus (GPa) = 29.16520 35.86360 32.51440
#
# Velocity S-wave (km/s) = 3.46482 3.84216 3.65836
# Velocity P-wave (km/s) = 5.14082 5.97704 5.57463
#
# Compressibility (1/GPa) = 0.03949769
#
# Stress axis : x y z
#
# Youngs Moduli (GPa) = 74.97811 79.68852 53.30654
#
# Poissons Ratio (x) = 0.33641 -0.05618
# Poissons Ratio (y) = 0.31652 -0.03165
# Poissons Ratio (z) = -0.07901 -0.04732
#
# Static dielectric constant tensor:
#      x y z
#    x 1.939840 0.048200 0.037100 
#    y 0.048200 1.956920 -0.032280 
#    z 0.037100 -0.032280 1.915150 
# 
# From -- ./inp_files/99399.got.cif
#   From: 2010.05.17/outbox.cif.g08.bks.cpg/sg2_50_cif.got.tgz:99399.got - 2010.06.03 11:33:40.
