data_PCOD9045859
_publ_section_title
;
Structure prediction by ZEFSAII (Michael W. Deem and Ramdas Pophale) SiO2 
 PCOD9045859
Probable space group: P -1
;
_chemical_formula_sum "Si O2"
_cell_formula_units_Z 16
_cell_length_a 13.803618
_cell_length_b 19.632228
_cell_length_c 8.070581
_cell_angle_alpha 52.229120
_cell_angle_beta 48.709697
_cell_angle_gamma 23.052374
_cell_volume 643.376960
_symmetry_space_group_name_H-M "P -1"
_symmetry_group_IT_number 2
_symmetry_cell_setting 'triclinic'
loop_
_space_group_symop_operation_xyz
x,y,z
-x,-y,-z
loop_
_atom_site_type_symbol
_atom_site_label
_atom_site_fract_x
_atom_site_fract_y
_atom_site_fract_z
Si Si1 0.784174 0.720405 0.037991
Si Si2 0.054624 0.654500 0.263293
Si Si3 0.884643 0.193036 0.054958
Si Si4 0.258571 0.453882 0.658076
Si Si5 0.234223 0.839504 0.282945
Si Si6 0.172136 0.042769 0.600999
Si Si7 0.523644 0.689839 0.827861
Si Si8 0.542442 0.973644 0.221105
O O1 0.762559 0.633741 0.243617
O O2 0.708407 0.834059 0.092630
O O3 0.061458 0.573573 0.857444
O O4 0.554612 0.873614 0.932798
O O5 0.743407 0.843555 0.336330
O O6 0.149948 0.689423 0.022949
O O7 0.159171 0.574331 0.447708
O O8 0.175265 0.506997 0.237646
O O9 0.033809 0.118687 0.821601
O O10 0.625754 0.293902 0.141675
O O11 0.060589 0.026959 0.213453
O O12 0.555037 0.299132 0.607273
O O13 0.027977 0.883645 0.411660
O O14 0.405332 0.750673 0.053686
O O15 0.427395 0.835317 0.645386
O O16 0.281009 0.070753 0.386374
#
# Coordination Sequence:
#
# PCOD9045859 Si02
#       8
#     2   2   2   2   2   2   2   2
#     4  10  24  42  58  82 118 156 192 236 288 340
#     4  12  23  35  60  91 119 148 189 243 283 337
#     4   9  19  37  60  86 115 151 192 234 286 341
#     4  11  23  39  60  89 117 148 192 240 291 337
#     4   9  19  40  64  83 114 154 190 232 287 347
#     4   9  19  37  62  86 112 153 197 234 279 343
#     4   9  19  37  60  86 115 151 192 234 286 341
#     4  11  23  41  60  84 117 155 196 233 284 342
#
# _framework density 24.868780000000001
#
# number of rings (size 3 to 8) (size 9 to 14) (size 15 to 20)
#    0.000    2.000    0.000    4.875    0.000    8.000 
#    0.000   16.250    0.000    0.000    0.000    0.000 
#    0.000    0.000    0.000    0.000    0.000    0.000 
#
# Total GULP energy -89538.994359 kJ/mol
# GULP energy per Si atom -5596.187147 kJ/mol
# Density = 2.481218 g / cm^3
# Si number density = 24.868780 Si / 1000 Ang^3
#
#
#
# Elastic Constant Matrix: (Units=GPa)
#
#
# Indices 1 2 3 4 5 6 
#
# 1 56.4630 23.5751 21.2797 -19.3766 -0.0364 -11.2711
# 2 23.5751 137.4203 20.8173 -24.8311 10.2750 -10.8839
# 3 21.2797 20.8173 52.5491 -10.8982 8.4426 -11.9786
# 4 -19.3766 -24.8311 -10.8982 45.2917 7.1333 16.2343
# 5 -0.0364 10.2750 8.4426 7.1333 32.0209 -5.0813
# 6 -11.2711 -10.8839 -11.9786 16.2343 -5.0813 46.1474
#
#
#
# Elastic Compliance Matrix: (Units=1/GPa)
#
#
# Indices 1 2 3 4 5 6 
#
# 1 0.023830 -0.001717 -0.007474 0.006831 0.001218 0.001206
# 2 -0.001717 0.008829 -0.001439 0.004583 -0.003591 -0.000718
# 3 -0.007474 -0.001439 0.024636 0.001836 -0.005987 0.002925
# 4 0.006831 0.004583 0.001836 0.033112 -0.010849 -0.009617
# 5 0.001218 -0.003591 -0.005987 -0.010849 0.037302 0.005821
# 6 0.001206 -0.000718 0.002925 -0.009617 0.005821 0.026578
#
#
# Mechanical properties :
#
#
# Convention : Reuss Voigt Hill
#
# Bulk Modulus (GPa) = 27.75038 41.97518 34.86278
# Shear Modulus (GPa) = 26.65834 36.74270 31.70052
#
# Velocity S-wave (km/s) = 3.27763 3.84795 3.57418
# Velocity P-wave (km/s) = 5.05042 6.05455 5.57514
#
# Compressibility (1/GPa) = 0.03603554
#
# Stress axis : x y z
#
# Youngs Moduli (GPa) = 41.96355 113.26145 40.59144
#
# Poissons Ratio (x) = 0.19450 0.30337
# Poissons Ratio (y) = 0.07206 0.05840
# Poissons Ratio (z) = 0.31363 0.16295
#
# Static dielectric constant tensor:
#      x y z
#    x 2.019270 -0.008820 0.069820 
#    y -0.008820 1.968210 -0.002590 
#    z 0.069820 -0.002590 1.957040 
# 
# From -- ./inp_files/308373.got.cif
#   From: 2010.05.17/outbox.cif.g08.bks.cpg/sg2_155_cif.got.tgz:308373.got - 2010.06.03 11:33:40.
