data_PCOD9045502
_publ_section_title
;
Structure prediction by ZEFSAII (Michael W. Deem and Ramdas Pophale) SiO2 
 PCOD9045502
Probable space group: P -1
;
_chemical_formula_sum "Si O2"
_cell_formula_units_Z 16
_cell_length_a 15.191846
_cell_length_b 14.018011
_cell_length_c 5.513687
_cell_angle_alpha 88.918781
_cell_angle_beta 100.642899
_cell_angle_gamma 141.562025
_cell_volume 702.029215
_symmetry_space_group_name_H-M "P -1"
_symmetry_group_IT_number 2
_symmetry_cell_setting 'triclinic'
loop_
_space_group_symop_operation_xyz
x,y,z
-x,-y,-z
loop_
_atom_site_type_symbol
_atom_site_label
_atom_site_fract_x
_atom_site_fract_y
_atom_site_fract_z
Si Si1 0.211718 0.416172 0.381207
Si Si2 0.919420 0.191737 0.543846
Si Si3 0.368596 0.454523 0.839594
Si Si4 0.331201 0.635236 0.043379
Si Si5 0.144225 0.185201 0.053125
Si Si6 0.719774 0.873790 0.662159
Si Si7 0.644691 0.904333 0.138381
Si Si8 0.970806 0.530828 0.233258
O O1 0.350754 0.475992 0.556785
O O2 0.271987 0.563219 0.286460
O O3 0.132854 0.278924 0.159415
O O4 0.081043 0.323172 0.507625
O O5 0.923825 0.287220 0.711483
O O6 0.873902 0.058553 0.672960
O O7 0.790905 0.087096 0.278127
O O8 0.500000 0.500000 0.000000
O O9 0.359675 0.550513 0.964406
O O10 0.221842 0.268759 0.832390
O O11 0.485837 0.818869 0.080896
O O12 0.198133 0.576627 0.851520
O O13 0.257456 0.216579 0.264660
O O14 0.000000 0.000000 0.000000
O O15 0.637649 0.824717 0.369534
O O16 0.661478 0.871995 0.882551
O O17 0.000000 0.500000 0.500000
O O18 0.000000 0.500000 0.000000
#
# Coordination Sequence:
#
# PCOD9045502 Si02
#       8
#     2   2   2   2   2   2   2   2
#     4  11  24  41  69 100 146 199 247 295 350 426
#     4  10  24  46  75 102 142 192 238 300 368 430
#     4  11  25  38  64  98 151 191 246 287 351 421
#     4  11  26  46  71 106 147 193 238 304 369 422
#     4  11  24  36  58  97 137 195 248 293 336 414
#     4  10  24  40  69  97 146 188 245 284 358 411
#     4  10  25  42  75  97 141 191 236 292 365 424
#     4  12  28  48  81 110 139 181 244 306 373 444
#
# _framework density 22.791073000000001
#
# number of rings (size 3 to 8) (size 9 to 14) (size 15 to 20)
#    0.750    0.500    1.250    3.000   12.250    2.000 
#    0.000    1.250    0.000    0.000    0.000    0.000 
#    0.000    0.000    0.000    0.000    0.000    0.000 
#
# Total GULP energy -89253.052221 kJ/mol
# GULP energy per Si atom -5578.315764 kJ/mol
# Density = 2.273920 g / cm^3
# Si number density = 22.791073 Si / 1000 Ang^3
#
#
#
# Elastic Constant Matrix: (Units=GPa)
#
#
# Indices 1 2 3 4 5 6 
#
# 1 93.4157 23.2970 42.6947 9.3062 9.4485 17.7921
# 2 23.2970 67.5077 12.4395 3.4370 -5.2185 24.5656
# 3 42.6947 12.4395 108.7172 -2.7217 7.4172 16.8606
# 4 9.3062 3.4370 -2.7217 38.4794 2.2233 2.1996
# 5 9.4485 -5.2185 7.4172 2.2233 49.8812 8.4732
# 6 17.7921 24.5656 16.8606 2.1996 8.4732 35.8742
#
#
#
# Elastic Compliance Matrix: (Units=1/GPa)
#
#
# Indices 1 2 3 4 5 6 
#
# 1 0.014779 -0.003440 -0.005065 -0.003404 -0.001927 -0.001930
# 2 -0.003440 0.021647 0.000779 -0.000513 0.005322 -0.014709
# 3 -0.005065 0.000779 0.011728 0.002203 -0.000185 -0.003625
# 4 -0.003404 -0.000513 0.002203 0.027089 -0.000867 -0.000452
# 5 -0.001927 0.005322 -0.000185 -0.000867 0.022366 -0.007831
# 6 -0.001930 -0.014709 -0.003625 -0.000452 -0.007831 0.042485
#
#
# Mechanical properties :
#
#
# Convention : Reuss Voigt Hill
#
# Bulk Modulus (GPa) = 30.57896 47.38923 38.98410
# Shear Modulus (GPa) = 30.03976 37.59423 33.81700
#
# Velocity S-wave (km/s) = 3.63443 4.06583 3.85617
# Velocity P-wave (km/s) = 5.57300 6.54823 6.08020
#
# Compressibility (1/GPa) = 0.03270222
#
# Stress axis : x y z
#
# Youngs Moduli (GPa) = 67.66278 46.19651 85.26597
#
# Poissons Ratio (x) = 0.15894 0.43185
# Poissons Ratio (y) = 0.23279 -0.06646
# Poissons Ratio (z) = 0.34270 -0.03601
#
# Static dielectric constant tensor:
#      x y z
#    x 1.896220 0.040080 0.003600 
#    y 0.040080 1.849990 -0.001750 
#    z 0.003600 -0.001750 1.965350 
# 
# From -- ./inp_files/97120.got.cif
#   From: 2010.05.17/outbox.cif.g08.bks.cpg/sg2_49_cif.got.tgz:97120.got - 2010.06.03 11:33:40.
