data_PCOD9045262
_publ_section_title
;
Structure prediction by ZEFSAII (Michael W. Deem and Ramdas Pophale) SiO2 
 PCOD9045262
Probable space group: P -1
;
_chemical_formula_sum "Si O2"
_cell_formula_units_Z 14
_cell_length_a 22.721470
_cell_length_b 6.153499
_cell_length_c 11.352765
_cell_angle_alpha 77.291768
_cell_angle_beta 150.254551
_cell_angle_gamma 82.727762
_cell_volume 579.723998
_symmetry_space_group_name_H-M "P -1"
_symmetry_group_IT_number 2
_symmetry_cell_setting 'triclinic'
loop_
_space_group_symop_operation_xyz
x,y,z
-x,-y,-z
loop_
_atom_site_type_symbol
_atom_site_label
_atom_site_fract_x
_atom_site_fract_y
_atom_site_fract_z
Si Si1 0.634176 0.390902 0.155173
Si Si2 0.832306 0.081619 0.989645
Si Si3 0.473236 0.630303 0.284961
Si Si4 0.776559 0.368701 0.059745
Si Si5 0.923256 0.529284 0.108149
Si Si6 0.746853 0.689660 0.200607
Si Si7 0.025632 0.119997 0.145775
O O1 0.676513 0.600541 0.184130
O O2 0.790448 0.071782 0.505448
O O3 0.500000 0.500000 0.000000
O O4 0.583348 0.360277 0.945249
O O5 0.660759 0.402422 0.635608
O O6 0.855941 0.047210 0.177156
O O7 0.975169 0.025147 0.178827
O O8 0.822677 0.867259 0.926148
O O9 0.400914 0.510289 0.247645
O O10 0.385998 0.972939 0.115458
O O11 0.842565 0.450570 0.064084
O O12 0.800667 0.470148 0.210190
O O13 0.102129 0.365593 0.478746
O O14 0.931328 0.451806 0.992831
O O15 0.000000 0.000000 0.000000
#
# Coordination Sequence:
#
# PCOD9045262 Si02
#       7
#     2   2   2   2   2   2   2
#     4  11  24  45  69  98 132 174 229 286 336 401
#     4  11  24  43  66 101 141 179 223 280 334 396
#     4  11  24  43  66 101 141 179 223 280 334 396
#     4  10  24  38  70  98 144 178 230 271 332 393
#     4  11  23  43  68 101 137 180 228 273 342 398
#     4  11  23  43  68 101 137 180 228 273 342 398
#     4  11  24  45  69  98 132 174 229 286 336 401
#
# _framework density 24.149425999999998
#
# number of rings (size 3 to 8) (size 9 to 14) (size 15 to 20)
#    0.000    1.143    2.857    2.571    0.000    8.000 
#    0.000    0.000    0.000    0.000    0.000    0.000 
#    0.000    0.000    0.000    0.000    0.000    0.000 
#
# Total GULP energy -78022.252021 kJ/mol
# GULP energy per Si atom -5573.018001 kJ/mol
# Density = 2.409446 g / cm^3
# Si number density = 24.149426 Si / 1000 Ang^3
#
#
#
# Elastic Constant Matrix: (Units=GPa)
#
#
# Indices 1 2 3 4 5 6 
#
# 1 123.1187 41.1995 36.2341 -5.3458 40.2646 -15.1212
# 2 41.1995 136.8021 51.5343 -1.2538 7.1907 -36.5129
# 3 36.2341 51.5343 130.1526 -8.3931 23.4442 -8.3105
# 4 -5.3458 -1.2538 -8.3931 41.5361 1.9234 0.6043
# 5 40.2646 7.1907 23.4442 1.9234 38.5792 3.8337
# 6 -15.1212 -36.5129 -8.3105 0.6043 3.8337 51.4707
#
#
#
# Elastic Compliance Matrix: (Units=1/GPa)
#
#
# Indices 1 2 3 4 5 6 
#
# 1 0.014460 -0.002657 0.000136 0.002459 -0.015148 0.003484
# 2 -0.002657 0.011062 -0.003733 -0.000965 0.002403 0.006296
# 3 0.000136 -0.003733 0.010269 0.002254 -0.005744 -0.000549
# 4 0.002459 -0.000965 0.002254 0.025045 -0.005053 0.000484
# 5 -0.015148 0.002403 -0.005744 -0.005053 0.045723 -0.007019
# 6 0.003484 0.006296 -0.000549 0.000484 -0.007019 0.025347
#
#
# Mechanical properties :
#
#
# Convention : Reuss Voigt Hill
#
# Bulk Modulus (GPa) = 42.95206 72.00101 57.47654
# Shear Modulus (GPa) = 32.85695 43.72425 38.29060
#
# Velocity S-wave (km/s) = 3.69259 4.25970 3.98624
# Velocity P-wave (km/s) = 6.00041 7.35343 6.71110
#
# Compressibility (1/GPa) = 0.02328177
#
# Stress axis : x y z
#
# Youngs Moduli (GPa) = 69.15541 90.40185 97.38518
#
# Poissons Ratio (x) = 0.24023 -0.01327
# Poissons Ratio (y) = 0.18377 0.36355
# Poissons Ratio (z) = -0.00942 0.33748
#
# Static dielectric constant tensor:
#      x y z
#    x 1.969070 0.083020 -0.082290 
#    y 0.083020 2.343290 0.023510 
#    z -0.082290 0.023510 1.979340 
# 
# From -- ./inp_files/81359.got.cif
#   From: 2010.05.17/outbox.cif.g08.bks.cpg/sg2_41_cif.got.tgz:81359.got - 2010.06.03 11:33:40.
