data_PCOD9045560
_publ_section_title
;
Structure prediction by ZEFSAII (Michael W. Deem and Ramdas Pophale) SiO2 
 PCOD9045560
Probable space group: P -1
;
_chemical_formula_sum "Si O2"
_cell_formula_units_Z 16
_cell_length_a 7.822600
_cell_length_b 14.077792
_cell_length_c 11.963163
_cell_angle_alpha 39.999069
_cell_angle_beta 131.228427
_cell_angle_gamma 113.371963
_cell_volume 620.731459
_symmetry_space_group_name_H-M "P -1"
_symmetry_group_IT_number 2
_symmetry_cell_setting 'triclinic'
loop_
_space_group_symop_operation_xyz
x,y,z
-x,-y,-z
loop_
_atom_site_type_symbol
_atom_site_label
_atom_site_fract_x
_atom_site_fract_y
_atom_site_fract_z
Si Si1 0.152093 0.416184 0.241186
Si Si2 0.397221 0.099795 0.555072
Si Si3 0.179404 0.747324 0.611556
Si Si4 0.747417 0.532129 0.214942
Si Si5 0.742484 0.998371 0.173032
Si Si6 0.738570 0.549170 0.432180
Si Si7 0.286012 0.680112 0.210109
Si Si8 0.357373 0.160614 0.224951
O O1 0.359791 0.273597 0.425129
O O2 0.227303 0.548306 0.225342
O O3 0.964131 0.340323 0.291291
O O4 0.000000 0.500000 0.000000
O O5 0.299684 0.133172 0.353938
O O6 0.298576 0.023154 0.690768
O O7 0.637729 0.979860 0.731376
O O8 0.349809 0.604510 0.752241
O O9 0.368677 0.827668 0.674865
O O10 0.969791 0.868960 0.355738
O O11 0.632595 0.594179 0.225083
O O12 0.999813 0.437147 0.451089
O O13 0.771030 0.673906 0.022603
O O14 0.812045 0.154557 0.026788
O O15 0.500000 0.000000 0.000000
O O16 0.565174 0.657025 0.342424
O O17 0.756291 0.375457 0.634016
#
# Coordination Sequence:
#
# PCOD9045560 Si02
#       8
#     2   2   2   2   2   2   2   2
#     4  11  25  41  72  97 137 178 235 282 341 411
#     4  10  26  46  67 100 139 176 234 284 343 407
#     4  11  25  42  67 103 136 175 236 283 335 417
#     4  11  22  44  67 103 135 183 222 286 345 412
#     4  11  26  46  72  99 143 181 232 284 345 406
#     4  10  24  40  72  95 138 173 236 276 339 418
#     4  11  24  44  70 102 134 185 227 289 342 403
#     4  11  25  44  72  97 144 180 226 289 352 404
#
# _framework density 25.776040999999999
#
# number of rings (size 3 to 8) (size 9 to 14) (size 15 to 20)
#    0.000    1.250    1.250    2.625   12.250    3.000 
#    0.000    1.250    0.000    0.000    0.000    0.000 
#    0.000    0.000    0.000    0.000    0.000    0.000 
#
# Total GULP energy -89195.783875 kJ/mol
# GULP energy per Si atom -5574.736492 kJ/mol
# Density = 2.571737 g / cm^3
# Si number density = 25.776041 Si / 1000 Ang^3
#
#
#
# Elastic Constant Matrix: (Units=GPa)
#
#
# Indices 1 2 3 4 5 6 
#
# 1 54.0578 8.5554 9.3552 0.0893 -19.5776 -4.7394
# 2 8.5554 100.5108 52.7121 -24.5810 -8.4043 -10.2305
# 3 9.3552 52.7121 169.3714 -35.6002 -22.3466 -9.4799
# 4 0.0893 -24.5810 -35.6002 46.6907 7.3739 3.1180
# 5 -19.5776 -8.4043 -22.3466 7.3739 64.5459 5.8663
# 6 -4.7394 -10.2305 -9.4799 3.1180 5.8663 37.2930
#
#
#
# Elastic Compliance Matrix: (Units=1/GPa)
#
#
# Indices 1 2 3 4 5 6 
#
# 1 0.021173 -0.001529 -0.000232 -0.002104 0.006255 0.001404
# 2 -0.001529 0.012905 -0.002927 0.004493 -0.000520 0.002308
# 3 -0.000232 -0.002927 0.007983 0.004228 0.001778 0.000564
# 4 -0.002104 0.004493 0.004228 0.027278 -0.001708 0.000028
# 5 0.006255 -0.000520 0.001778 -0.001708 0.018281 -0.001629
# 6 0.001404 0.002308 0.000564 0.000028 -0.001629 0.028023
#
#
# Mechanical properties :
#
#
# Convention : Reuss Voigt Hill
#
# Bulk Modulus (GPa) = 30.59562 51.68727 41.14145
# Shear Modulus (GPa) = 36.78809 46.59373 41.69091
#
# Velocity S-wave (km/s) = 3.78196 4.25624 4.02609
# Velocity P-wave (km/s) = 5.56475 6.65208 6.13256
#
# Compressibility (1/GPa) = 0.03268442
#
# Stress axis : x y z
#
# Youngs Moduli (GPa) = 47.23023 77.49216 125.27241
#
# Poissons Ratio (x) = 0.11850 0.02905
# Poissons Ratio (y) = 0.07222 0.36664
# Poissons Ratio (z) = 0.01095 0.22680
#
# Static dielectric constant tensor:
#      x y z
#    x 2.195150 -0.147410 0.053910 
#    y -0.147410 2.206290 -0.011340 
#    z 0.053910 -0.011340 2.084830 
# 
# From -- ./inp_files/398468.got.cif
#   From: 2010.05.17/outbox.cif.g08.bks.cpg/sg2_200_cif.got.tgz:398468.got - 2010.06.03 11:33:40.
