data_PCOD9045761
_publ_section_title
;
Structure prediction by ZEFSAII (Michael W. Deem and Ramdas Pophale) SiO2 
 PCOD9045761
Probable space group: P -1
;
_chemical_formula_sum "Si O2"
_cell_formula_units_Z 16
_cell_length_a 16.170680
_cell_length_b 15.833243
_cell_length_c 8.092244
_cell_angle_alpha 56.667972
_cell_angle_beta 127.451572
_cell_angle_gamma 154.211733
_cell_volume 715.556799
_symmetry_space_group_name_H-M "P -1"
_symmetry_group_IT_number 2
_symmetry_cell_setting 'triclinic'
loop_
_space_group_symop_operation_xyz
x,y,z
-x,-y,-z
loop_
_atom_site_type_symbol
_atom_site_label
_atom_site_fract_x
_atom_site_fract_y
_atom_site_fract_z
Si Si1 0.619609 0.205649 0.260014
Si Si2 0.184098 0.588314 0.064913
Si Si3 0.479024 0.858979 0.429667
Si Si4 0.965324 0.734769 0.600261
Si Si5 0.667155 0.880628 0.170584
Si Si6 0.656289 0.540797 0.643676
Si Si7 0.008056 0.070275 0.177282
Si Si8 0.845748 0.015395 0.695385
O O1 0.657418 0.261208 0.440056
O O2 0.584072 0.055602 0.363887
O O3 0.771841 0.359577 0.131047
O O4 0.423144 0.109885 0.073852
O O5 0.367163 0.767711 0.216169
O O6 0.112820 0.419501 0.215733
O O7 0.000000 0.500000 0.000000
O O8 0.629507 0.888049 0.581199
O O9 0.776115 0.648791 0.500550
O O10 0.186058 0.941864 0.714719
O O11 0.006395 0.772806 0.416115
O O12 0.477784 0.667856 0.250481
O O13 0.819528 0.925775 0.226473
O O14 0.500000 0.500000 0.500000
O O15 0.827591 0.711853 0.799660
O O16 0.113641 0.048166 0.308251
O O17 0.916159 0.030064 0.937378
#
# Coordination Sequence:
#
# PCOD9045761 Si02
#       8
#     2   2   2   2   2   2   2   2
#     4  11  23  45  71 102 136 183 228 284 347 412
#     4  12  25  44  66 106 140 181 230 285 346 410
#     4  11  25  43  75 100 138 187 226 286 348 409
#     4  11  24  39  66  97 134 179 224 283 339 410
#     4  11  21  45  66  96 139 176 227 285 343 405
#     4  11  23  40  66  98 128 181 229 276 344 407
#     4  10  24  41  68  95 136 183 226 284 340 407
#     4  11  22  45  62  99 139 174 232 286 341 404
#
# _framework density 22.360206999999999
#
# number of rings (size 3 to 8) (size 9 to 14) (size 15 to 20)
#    0.000    1.000    2.500    4.125    1.750    3.500 
#    0.000    1.875    0.000    0.000    0.000    0.000 
#    0.000    0.000    0.000    0.000    0.000    0.000 
#
# Total GULP energy -89201.218322 kJ/mol
# GULP energy per Si atom -5575.076145 kJ/mol
# Density = 2.230931 g / cm^3
# Si number density = 22.360207 Si / 1000 Ang^3
#
#
#
# Elastic Constant Matrix: (Units=GPa)
#
#
# Indices 1 2 3 4 5 6 
#
# 1 103.2787 31.1299 14.4815 -8.3348 -0.5227 25.7088
# 2 31.1299 87.1135 -3.9323 -15.1557 -0.2386 15.5303
# 3 14.4815 -3.9323 50.3576 -16.3059 -0.1340 12.2191
# 4 -8.3348 -15.1557 -16.3059 34.1852 13.7256 6.0952
# 5 -0.5227 -0.2386 -0.1340 13.7256 42.0391 -4.0364
# 6 25.7088 15.5303 12.2191 6.0952 -4.0364 33.7390
#
#
#
# Elastic Compliance Matrix: (Units=1/GPa)
#
#
# Indices 1 2 3 4 5 6 
#
# 1 0.013307 -0.001805 0.000518 0.005736 -0.002759 -0.010863
# 2 -0.001805 0.019168 0.012602 0.020287 -0.008095 -0.016645
# 3 0.000518 0.012602 0.038758 0.034790 -0.013863 -0.028176
# 4 0.005736 0.020287 0.034790 0.075403 -0.028482 -0.043339
# 5 -0.002759 -0.008095 -0.013863 -0.028482 0.034899 0.020170
# 6 -0.010863 -0.016645 -0.028176 -0.043339 0.020170 0.066026
#
#
# Mechanical properties :
#
#
# Convention : Reuss Voigt Hill
#
# Bulk Modulus (GPa) = 10.65370 36.01202 23.33286
# Shear Modulus (GPa) = 19.51471 35.26404 27.38937
#
# Velocity S-wave (km/s) = 2.95743 3.97557 3.50368
# Velocity P-wave (km/s) = 4.05423 6.10032 5.17932
#
# Compressibility (1/GPa) = 0.09386411
#
# Stress axis : x y z
#
# Youngs Moduli (GPa) = 75.14891 52.17052 25.80104
#
# Poissons Ratio (x) = 0.09416 -0.01337
# Poissons Ratio (y) = 0.13563 -0.32515
# Poissons Ratio (z) = -0.03894 -0.65747
#
# Static dielectric constant tensor:
#      x y z
#    x 1.706130 -0.049480 -0.082260 
#    y -0.049480 1.814150 -0.035690 
#    z -0.082260 -0.035690 1.805660 
# 
# From -- ./inp_files/336718.got.cif
#   From: 2010.05.17/outbox.cif.g08.bks.cpg/sg2_169_cif.got.tgz:336718.got - 2010.06.03 11:33:40.
