data_PCOD9045284
_publ_section_title
;
Structure prediction by ZEFSAII (Michael W. Deem and Ramdas Pophale) SiO2 
 PCOD9045284
Probable space group: P -1
;
_chemical_formula_sum "Si O2"
_cell_formula_units_Z 16
_cell_length_a 8.886551
_cell_length_b 9.513299
_cell_length_c 12.624578
_cell_angle_alpha 132.137891
_cell_angle_beta 75.351820
_cell_angle_gamma 100.639982
_cell_volume 765.537179
_symmetry_space_group_name_H-M "P -1"
_symmetry_group_IT_number 2
_symmetry_cell_setting 'triclinic'
loop_
_space_group_symop_operation_xyz
x,y,z
-x,-y,-z
loop_
_atom_site_type_symbol
_atom_site_label
_atom_site_fract_x
_atom_site_fract_y
_atom_site_fract_z
Si Si1 0.001317 0.505814 0.630064
Si Si2 0.309696 0.003941 0.621118
Si Si3 0.241704 0.996041 0.017841
Si Si4 0.473064 0.735493 0.910492
Si Si5 0.392202 0.867310 0.228262
Si Si6 0.847691 0.866878 0.489190
Si Si7 0.923962 0.066868 0.188696
Si Si8 0.335568 0.618144 0.295326
O O1 0.825056 0.480508 0.689729
O O2 0.000000 0.500000 0.500000
O O3 0.096139 0.333093 0.576529
O O4 0.065088 0.717515 0.746207
O O5 0.163343 0.953235 0.696072
O O6 0.356267 0.809052 0.456865
O O7 0.449522 0.076517 0.707603
O O8 0.251916 0.139547 0.605658
O O9 0.375677 0.147616 0.098381
O O10 0.098994 0.995396 0.123272
O O11 0.327759 0.796989 0.898367
O O12 0.171415 0.045586 0.941396
O O13 0.521134 0.520170 0.790601
O O14 0.433822 0.813007 0.074130
O O15 0.323137 0.684562 0.209932
O O16 0.265364 0.029018 0.354030
O O17 0.000000 0.000000 0.500000
#
# Coordination Sequence:
#
# PCOD9045284 Si02
#       8
#     2   2   2   2   2   2   2   2
#     4  12  23  38  66  98 126 163 210 274 316 370
#     4  11  23  43  68  95 132 169 211 265 324 373
#     4  10  24  39  64  90 130 172 214 258 322 389
#     4  11  23  41  64  92 128 174 215 256 322 383
#     4  11  24  42  67  93 131 172 210 263 322 383
#     4  11  22  40  66  98 124 166 216 259 318 384
#     4  11  22  43  64  94 132 167 212 272 319 370
#     4  11  22  40  64  94 130 161 215 268 311 377
#
# _framework density 20.900355999999999
#
# number of rings (size 3 to 8) (size 9 to 14) (size 15 to 20)
#    0.000    1.000    6.250    1.875    3.500    2.000 
#    0.000    1.250    0.000    3.750    0.000    0.000 
#    0.000    0.000    0.000    0.000    0.000    0.000 
#
# Total GULP energy -89389.311804 kJ/mol
# GULP energy per Si atom -5586.831988 kJ/mol
# Density = 2.085279 g / cm^3
# Si number density = 20.900356 Si / 1000 Ang^3
#
#
#
# Elastic Constant Matrix: (Units=GPa)
#
#
# Indices 1 2 3 4 5 6 
#
# 1 121.9953 37.5453 40.2165 -3.7521 -23.1597 -6.9453
# 2 37.5453 94.9817 24.9084 -0.9282 -22.2856 -7.3611
# 3 40.2165 24.9084 55.6842 -9.9334 -18.2465 -8.6990
# 4 -3.7521 -0.9282 -9.9334 34.0512 -4.9409 -15.1090
# 5 -23.1597 -22.2856 -18.2465 -4.9409 44.7976 3.5950
# 6 -6.9453 -7.3611 -8.6990 -15.1090 3.5950 39.4231
#
#
#
# Elastic Compliance Matrix: (Units=1/GPa)
#
#
# Indices 1 2 3 4 5 6 
#
# 1 0.011482 -0.002332 -0.006765 -0.000630 0.001977 -0.000327
# 2 -0.002332 0.013229 -0.002504 0.000594 0.004313 0.001341
# 3 -0.006765 -0.002504 0.030658 0.013594 0.008478 0.009542
# 4 -0.000630 0.000594 0.013594 0.042804 0.008734 0.018608
# 5 0.001977 0.004313 0.008478 0.008734 0.029612 0.003672
# 6 -0.000327 0.001341 0.009542 0.018608 0.003672 0.034461
#
#
# Mechanical properties :
#
#
# Convention : Reuss Voigt Hill
#
# Bulk Modulus (GPa) = 31.08889 53.11131 42.10010
# Shear Modulus (GPa) = 25.48784 34.98710 30.23747
#
# Velocity S-wave (km/s) = 3.49591 4.09589 3.80774
# Velocity P-wave (km/s) = 5.58590 6.91630 6.28640
#
# Compressibility (1/GPa) = 0.03216584
#
# Stress axis : x y z
#
# Youngs Moduli (GPa) = 87.09003 75.59316 32.61755
#
# Poissons Ratio (x) = 0.17631 0.22067
# Poissons Ratio (y) = 0.20312 0.08168
# Poissons Ratio (z) = 0.58918 0.18930
#
# Static dielectric constant tensor:
#      x y z
#    x 1.771020 0.000100 0.003690 
#    y 0.000100 1.765380 0.014190 
#    z 0.003690 0.014190 1.767470 
# 
# From -- ./inp_files/182688.got.cif
#   From: 2010.05.17/outbox.cif.g08.bks.cpg/sg2_92_cif.got.tgz:182688.got - 2010.06.03 11:33:40.
