data_PCOD9045092
_publ_section_title
;
Structure prediction by ZEFSAII (Michael W. Deem and Ramdas Pophale) SiO2 
 PCOD9045092
Probable space group: P -1
;
_chemical_formula_sum "Si O2"
_cell_formula_units_Z 15
_cell_length_a 8.996498
_cell_length_b 14.851246
_cell_length_c 15.863399
_cell_angle_alpha 30.079239
_cell_angle_beta 52.543228
_cell_angle_gamma 71.832710
_cell_volume 710.243564
_symmetry_space_group_name_H-M "P -1"
_symmetry_group_IT_number 2
_symmetry_cell_setting 'triclinic'
loop_
_space_group_symop_operation_xyz
x,y,z
-x,-y,-z
loop_
_atom_site_type_symbol
_atom_site_label
_atom_site_fract_x
_atom_site_fract_y
_atom_site_fract_z
Si Si1 0.738487 0.849590 0.411161
Si Si2 0.244285 0.080293 0.050651
Si Si3 0.700416 0.580975 0.798632
Si Si4 0.465462 0.878015 0.241750
Si Si5 0.393380 0.869779 0.852374
Si Si6 0.923139 0.159247 0.412679
Si Si7 0.000000 0.500000 0.000000
Si Si8 0.309475 0.525752 0.717023
O O1 0.688933 0.740759 0.608172
O O2 0.550256 0.671025 0.560429
O O3 0.714827 0.053460 0.242232
O O4 0.986783 0.920437 0.245813
O O5 0.319170 0.966701 0.183591
O O6 0.401979 0.138097 0.868709
O O7 0.263265 0.292991 0.906154
O O8 0.930856 0.702325 0.670731
O O9 0.500000 0.500000 0.000000
O O10 0.675782 0.372454 0.933587
O O11 0.330549 0.654021 0.520113
O O12 0.636438 0.055741 0.106167
O O13 0.658749 0.020829 0.625682
O O14 0.002350 0.295660 0.189915
O O15 0.000000 0.000000 0.500000
O O16 0.863226 0.471200 0.161234
#
# Coordination Sequence:
#
# PCOD9045092 Si02
#       8
#     2   2   2   2   2   2   1   2
#     4  11  26  43  65 104 133 172 234 277 335 407
#     4  11  25  45  76  96 134 183 229 288 339 399
#     4  12  26  41  66  97 132 181 225 266 335 404
#     4  10  23  49  70 100 135 179 231 283 345 399
#     4  11  25  44  64  96 138 172 224 282 332 403
#     4  12  26  43  66  96 139 185 221 275 334 402
#     4  12  26  42  72 102 140 184 220 274 342 410
#     4  11  25  45  68 103 141 177 228 278 344 405
#
# _framework density 21.119515
#
# number of rings (size 3 to 8) (size 9 to 14) (size 15 to 20)
#    0.000    0.800    4.000    2.800    5.600    2.667 
#    0.000    7.333    0.000    0.000    0.000    0.000 
#    0.000    0.000    0.000    0.000    0.000    0.000 
#
# Total GULP energy -83587.009331 kJ/mol
# GULP energy per Si atom -5572.467289 kJ/mol
# Density = 2.107145 g / cm^3
# Si number density = 21.119515 Si / 1000 Ang^3
#
#
#
# Elastic Constant Matrix: (Units=GPa)
#
#
# Indices 1 2 3 4 5 6 
#
# 1 181.1944 33.0757 28.1970 14.4679 71.3452 13.1876
# 2 33.0757 83.7011 37.1030 9.7002 10.8590 -9.7884
# 3 28.1970 37.1030 113.8261 21.3226 -11.1779 -18.5450
# 4 14.4679 9.7002 21.3226 42.5477 5.4616 1.5605
# 5 71.3452 10.8590 -11.1779 5.4616 103.1417 20.7810
# 6 13.1876 -9.7884 -18.5450 1.5605 20.7810 39.6218
#
#
#
# Elastic Compliance Matrix: (Units=1/GPa)
#
#
# Indices 1 2 3 4 5 6 
#
# 1 0.008564 -0.001750 -0.002204 -0.000631 -0.005681 -0.001310
# 2 -0.001750 0.015033 -0.003929 -0.000801 -0.001405 0.003226
# 3 -0.002204 -0.003929 0.012565 -0.005158 0.002678 0.004443
# 4 -0.000631 -0.000801 -0.005158 0.026704 -0.000846 -0.003011
# 5 -0.005681 -0.001405 0.002678 -0.000846 0.015138 -0.005109
# 6 -0.001310 0.003226 0.004443 -0.003011 -0.005109 0.031349
#
#
# Mechanical properties :
#
#
# Convention : Reuss Voigt Hill
#
# Bulk Modulus (GPa) = 49.02978 63.94143 56.48560
# Shear Modulus (GPa) = 37.90222 55.75197 46.82710
#
# Velocity S-wave (km/s) = 4.24093 5.14350 4.71387
# Velocity P-wave (km/s) = 6.87361 8.10036 7.51207
#
# Compressibility (1/GPa) = 0.02039577
#
# Stress axis : x y z
#
# Youngs Moduli (GPa) = 116.76603 66.52043 79.58523
#
# Poissons Ratio (x) = 0.11642 0.17541
# Poissons Ratio (y) = 0.20436 0.31269
# Poissons Ratio (z) = 0.25736 0.26136
#
# Static dielectric constant tensor:
#      x y z
#    x 1.950000 0.119200 0.125180 
#    y 0.119200 1.837250 0.052090 
#    z 0.125180 0.052090 1.968810 
# 
# From -- ./inp_files/503594.got.cif
#   From: 2010.05.17/outbox.cif.g08.bks.cpg/sg2_252_cif.got.tgz:503594.got - 2010.06.03 11:33:40.
