data_PCOD9045941
_publ_section_title
;
Structure prediction by ZEFSAII (Michael W. Deem and Ramdas Pophale) SiO2 
 PCOD9045941
Probable space group: P -1
;
_chemical_formula_sum "Si O2"
_cell_formula_units_Z 16
_cell_length_a 6.864462
_cell_length_b 11.776379
_cell_length_c 10.421131
_cell_angle_alpha 85.546111
_cell_angle_beta 59.803816
_cell_angle_gamma 59.837834
_cell_volume 612.018994
_symmetry_space_group_name_H-M "P -1"
_symmetry_group_IT_number 2
_symmetry_cell_setting 'triclinic'
loop_
_space_group_symop_operation_xyz
x,y,z
-x,-y,-z
loop_
_atom_site_type_symbol
_atom_site_label
_atom_site_fract_x
_atom_site_fract_y
_atom_site_fract_z
Si Si1 0.766300 0.480358 0.624129
Si Si2 0.245821 0.868238 0.865080
Si Si3 0.459843 0.786014 0.061660
Si Si4 0.340802 0.219344 0.754411
Si Si5 0.864278 0.523753 0.868797
Si Si6 0.887603 0.199368 0.514009
Si Si7 0.841052 0.941901 0.331682
Si Si8 0.827613 0.318604 0.257440
O O1 0.732627 0.519837 0.780229
O O2 0.865846 0.326695 0.580485
O O3 0.490697 0.574971 0.631784
O O4 0.000000 0.500000 0.500000
O O5 0.160116 0.764057 0.865453
O O6 0.470591 0.812883 0.905122
O O7 0.304235 0.915771 0.707313
O O8 0.000000 0.000000 0.000000
O O9 0.580717 0.839026 0.121296
O O10 0.150687 0.857288 0.191268
O O11 0.622625 0.623098 0.034971
O O12 0.595353 0.223287 0.623832
O O13 0.076816 0.368551 0.842072
O O14 0.286314 0.135954 0.678486
O O15 0.028758 0.598462 0.800846
O O16 0.116752 0.069887 0.528188
O O17 0.940736 0.214073 0.347569
#
# Coordination Sequence:
#
# PCOD9045941 Si02
#       8
#     2   2   2   2   2   2   2   2
#     4  12  22  40  67 100 141 172 212 271 337 402
#     4  10  24  49  66  92 133 178 234 280 315 382
#     4  10  24  42  64  98 126 177 227 271 331 388
#     4  11  23  41  67  98 136 175 210 277 341 394
#     4  12  23  39  67 103 133 173 214 274 343 402
#     4  11  23  42  65 103 136 169 220 266 342 403
#     4  10  24  45  66  91 135 179 221 283 320 385
#     4  12  25  42  70 100 136 176 222 270 332 401
#
# _framework density 26.142980000000001
#
# number of rings (size 3 to 8) (size 9 to 14) (size 15 to 20)
#    0.000    1.000    5.000    1.500    3.500    1.500 
#    4.500    0.625    0.000    0.000    0.000    0.000 
#    0.000    0.000    0.000    0.000    0.000    0.000 
#
# Total GULP energy -89638.016638 kJ/mol
# GULP energy per Si atom -5602.376040 kJ/mol
# Density = 2.608348 g / cm^3
# Si number density = 26.142980 Si / 1000 Ang^3
#
#
#
# Elastic Constant Matrix: (Units=GPa)
#
#
# Indices 1 2 3 4 5 6 
#
# 1 170.1488 46.1196 42.9370 -19.9141 17.9314 -1.2697
# 2 46.1196 85.3967 16.7528 -6.8656 1.4984 -3.7382
# 3 42.9370 16.7528 55.4363 -7.1479 18.2176 -12.0565
# 4 -19.9141 -6.8656 -7.1479 45.9814 -7.5546 6.0978
# 5 17.9314 1.4984 18.2176 -7.5546 59.9740 5.1835
# 6 -1.2697 -3.7382 -12.0565 6.0978 5.1835 46.8720
#
#
#
# Elastic Compliance Matrix: (Units=1/GPa)
#
#
# Indices 1 2 3 4 5 6 
#
# 1 0.008497 -0.003377 -0.005515 0.002498 -0.000315 -0.001748
# 2 -0.003377 0.013933 -0.001875 0.000490 0.001264 0.000334
# 3 -0.005515 -0.001875 0.026768 -0.000675 -0.007166 0.007467
# 4 0.002498 0.000490 -0.000675 0.023705 0.002730 -0.003453
# 5 -0.000315 0.001264 -0.007166 0.002730 0.019627 -0.004277
# 6 -0.001748 0.000334 0.007467 -0.003453 -0.004277 0.024157
#
#
# Mechanical properties :
#
#
# Convention : Reuss Voigt Hill
#
# Bulk Modulus (GPa) = 36.14606 58.06672 47.10639
# Shear Modulus (GPa) = 33.91174 44.24364 39.07769
#
# Velocity S-wave (km/s) = 3.60552 4.11831 3.87042
# Velocity P-wave (km/s) = 5.58475 6.69876 6.16696
#
# Compressibility (1/GPa) = 0.02766554
#
# Stress axis : x y z
#
# Youngs Moduli (GPa) = 117.69090 71.76975 37.35752
#
# Poissons Ratio (x) = 0.24237 0.20602
# Poissons Ratio (y) = 0.39745 0.07003
# Poissons Ratio (z) = 0.64906 0.13454
#
# Static dielectric constant tensor:
#      x y z
#    x 2.001260 -0.047240 0.048770 
#    y -0.047240 2.052540 -0.069570 
#    z 0.048770 -0.069570 2.165730 
# 
# From -- ./inp_files/71646.got.cif
#   From: 2010.05.17/outbox.cif.g08.bks.cpg/sg2_36_cif.got.tgz:71646.got - 2010.06.03 11:33:40.
