data_PCOD9045133
_publ_section_title
;
Structure prediction by ZEFSAII (Michael W. Deem and Ramdas Pophale) SiO2 
 PCOD9045133
Probable space group: P -1
;
_chemical_formula_sum "Si O2"
_cell_formula_units_Z 10
_cell_length_a 8.828358
_cell_length_b 4.979800
_cell_length_c 9.613014
_cell_angle_alpha 85.551485
_cell_angle_beta 107.993232
_cell_angle_gamma 81.379295
_cell_volume 393.948214
_symmetry_space_group_name_H-M "P -1"
_symmetry_group_IT_number 2
_symmetry_cell_setting 'triclinic'
loop_
_space_group_symop_operation_xyz
x,y,z
-x,-y,-z
loop_
_atom_site_type_symbol
_atom_site_label
_atom_site_fract_x
_atom_site_fract_y
_atom_site_fract_z
Si Si1 0.490934 0.115063 0.337309
Si Si2 0.839658 0.292047 0.094149
Si Si3 0.669544 0.581781 0.271590
Si Si4 0.166003 0.539823 0.207427
Si Si5 0.972457 0.826332 0.365226
O O1 0.608737 0.332163 0.338816
O O2 0.313488 0.289572 0.256868
O O3 0.500000 0.000000 0.500000
O O4 0.547588 0.859776 0.261398
O O5 0.695380 0.498105 0.120585
O O6 0.000468 0.424166 0.147458
O O7 0.875934 0.022841 0.209521
O O8 0.814299 0.264130 0.924679
O O9 0.847918 0.623343 0.371290
O O10 0.137483 0.695485 0.339033
O O11 0.000000 0.000000 0.500000
#
# Coordination Sequence:
#
# PCOD9045133 Si02
#       5
#     2   2   2   2   2
#     4  12  28  48  73 110 158 191 246 306 379 437
#     4  10  23  49  75 108 150 195 254 300 366 442
#     4  11  26  49  74 110 148 199 245 302 374 442
#     4  10  26  45  75 112 147 202 243 309 365 440
#     4  11  25  46  80 110 151 194 254 305 366 437
#
# _framework density 25.384049000000001
#
# number of rings (size 3 to 8) (size 9 to 14) (size 15 to 20)
#    0.000    1.200    2.000    1.200    8.400    3.200 
#    0.000    3.000    0.000    0.000    0.000    0.000 
#    0.000    0.000    0.000    0.000    0.000    0.000 
#
# Total GULP energy -56089.939758 kJ/mol
# GULP energy per Si atom -5608.993976 kJ/mol
# Density = 2.532627 g / cm^3
# Si number density = 25.384049 Si / 1000 Ang^3
#
#
#
# Elastic Constant Matrix: (Units=GPa)
#
#
# Indices 1 2 3 4 5 6 
#
# 1 150.5071 80.9289 74.8437 11.9957 -35.3551 -18.0716
# 2 80.9289 146.8398 60.7854 -1.7296 -30.3434 -4.7121
# 3 74.8437 60.7854 143.1219 -4.1887 -40.3554 -8.6548
# 4 11.9957 -1.7296 -4.1887 38.7136 -2.8138 -5.1797
# 5 -35.3551 -30.3434 -40.3554 -2.8138 37.1129 -0.0505
# 6 -18.0716 -4.7121 -8.6548 -5.1797 -0.0505 65.1409
#
#
#
# Elastic Compliance Matrix: (Units=1/GPa)
#
#
# Indices 1 2 3 4 5 6 
#
# 1 0.012256 -0.004505 -0.003302 -0.003743 0.004121 0.002341
# 2 -0.004505 0.010425 -0.001172 0.001894 0.003100 -0.000499
# 3 -0.003302 -0.001172 0.011910 0.003030 0.009078 0.000830
# 4 -0.003743 0.001894 0.003030 0.027880 0.003393 0.001721
# 5 0.004121 0.003100 0.009078 0.003393 0.043537 0.002877
# 6 0.002341 -0.000499 0.000830 0.001721 0.002877 0.016214
#
#
# Mechanical properties :
#
#
# Convention : Reuss Voigt Hill
#
# Bulk Modulus (GPa) = 60.12281 97.06500 78.59390
# Shear Modulus (GPa) = 34.31096 43.12085 38.71591
#
# Velocity S-wave (km/s) = 3.68050 4.12605 3.90963
# Velocity P-wave (km/s) = 6.46515 7.81157 7.17003
#
# Compressibility (1/GPa) = 0.01663262
#
# Stress axis : x y z
#
# Youngs Moduli (GPa) = 81.59102 95.91906 83.96349
#
# Poissons Ratio (x) = 0.43216 0.27722
# Poissons Ratio (y) = 0.36760 0.09844
# Poissons Ratio (z) = 0.26938 0.11246
#
# Static dielectric constant tensor:
#      x y z
#    x 1.989070 -0.005130 0.007020 
#    y -0.005130 2.037150 -0.017220 
#    z 0.007020 -0.017220 2.006700 
# 
# From -- ./inp_files/20547.got.cif
#   From: 2010.05.17/outbox.cif.g08.bks.cpg/sg2_11_cif.got.tgz:20547.got - 2010.06.03 11:33:40.
