data_PCOD9045922
_publ_section_title
;
Structure prediction by ZEFSAII (Michael W. Deem and Ramdas Pophale) SiO2 
 PCOD9045922
Probable space group: P -1
;
_chemical_formula_sum "Si O2"
_cell_formula_units_Z 15
_cell_length_a 21.834143
_cell_length_b 15.225323
_cell_length_c 12.076787
_cell_angle_alpha 151.026662
_cell_angle_beta 39.136803
_cell_angle_gamma 159.064882
_cell_volume 674.652482
_symmetry_space_group_name_H-M "P -1"
_symmetry_group_IT_number 2
_symmetry_cell_setting 'triclinic'
loop_
_space_group_symop_operation_xyz
x,y,z
-x,-y,-z
loop_
_atom_site_type_symbol
_atom_site_label
_atom_site_fract_x
_atom_site_fract_y
_atom_site_fract_z
Si Si1 0.554327 0.444042 0.018285
Si Si2 0.641530 0.664718 0.390809
Si Si3 0.430891 0.845447 0.045777
Si Si4 0.653614 0.205307 0.338552
Si Si5 0.000000 0.000000 0.000000
Si Si6 0.736638 0.742730 0.877669
Si Si7 0.096272 0.451636 0.189694
Si Si8 0.983080 0.303059 0.523022
O O1 0.729720 0.724444 0.003753
O O2 0.495408 0.143545 0.774090
O O3 0.575777 0.555643 0.234407
O O4 0.401589 0.322674 0.040673
O O5 0.500000 0.500000 0.500000
O O6 0.820200 0.056896 0.566114
O O7 0.674287 0.506779 0.198402
O O8 0.289049 0.756789 0.201204
O O9 0.597958 0.091648 0.164485
O O10 0.500000 0.000000 0.000000
O O11 0.668768 0.441857 0.602572
O O12 0.835598 0.400792 0.337797
O O13 0.022756 0.903985 0.752630
O O14 0.104078 0.337139 0.160445
O O15 0.933176 0.104209 0.967590
O O16 0.038102 0.571410 0.399605
#
# Coordination Sequence:
#
# PCOD9045922 Si02
#       8
#     2   2   2   2   1   2   2   2
#     4  10  24  42  64 105 139 180 235 285 362 416
#     4  11  24  46  71 100 146 189 240 297 355 422
#     4  11  26  49  70 106 140 189 242 299 354 431
#     4  11  24  44  69 101 139 180 235 292 357 420
#     4  12  24  44  68 106 146 180 236 284 356 422
#     4  11  22  42  69 101 142 181 228 295 355 431
#     4  12  25  45  72 103 145 185 240 286 360 425
#     4  12  25  46  70 107 140 191 233 295 355 425
#
# _framework density 22.23367
#
# number of rings (size 3 to 8) (size 9 to 14) (size 15 to 20)
#    0.000    0.800    4.000    2.400    5.600    1.067 
#    2.400    3.333    0.000    0.000    0.000    0.000 
#    0.000    0.000    0.000    0.000    0.000    0.000 
#
# Total GULP energy -83590.548695 kJ/mol
# GULP energy per Si atom -5572.703246 kJ/mol
# Density = 2.218307 g / cm^3
# Si number density = 22.233670 Si / 1000 Ang^3
#
#
#
# Elastic Constant Matrix: (Units=GPa)
#
#
# Indices 1 2 3 4 5 6 
#
# 1 100.5931 50.9696 24.6476 8.1658 -14.2307 -17.6391
# 2 50.9696 132.8980 21.2271 5.1471 16.8798 -12.1914
# 3 24.6476 21.2271 78.8459 10.1095 -23.6161 -1.5485
# 4 8.1658 5.1471 10.1095 30.0815 1.3894 0.7740
# 5 -14.2307 16.8798 -23.6161 1.3894 39.7379 3.4362
# 6 -17.6391 -12.1914 -1.5485 0.7740 3.4362 36.5839
#
#
#
# Elastic Compliance Matrix: (Units=1/GPa)
#
#
# Indices 1 2 3 4 5 6 
#
# 1 0.015381 -0.006278 -0.000261 -0.003491 0.007739 0.004660
# 2 -0.006278 0.012056 -0.004529 0.001593 -0.010266 0.001730
# 3 -0.000261 -0.004529 0.018707 -0.006006 0.013328 -0.001968
# 4 -0.003491 0.001593 -0.006006 0.036283 -0.006631 -0.001551
# 5 0.007739 -0.010266 0.013328 -0.006631 0.040692 -0.002808
# 6 0.004660 0.001730 -0.001968 -0.001551 -0.002808 0.030371
#
#
# Mechanical properties :
#
#
# Convention : Reuss Voigt Hill
#
# Bulk Modulus (GPa) = 41.64899 56.22506 48.93703
# Shear Modulus (GPa) = 27.22885 35.64685 31.43785
#
# Velocity S-wave (km/s) = 3.50332 4.00844 3.76437
# Velocity P-wave (km/s) = 5.92768 6.83862 6.39938
#
# Compressibility (1/GPa) = 0.02401019
#
# Stress axis : x y z
#
# Youngs Moduli (GPa) = 65.01504 82.94347 53.45509
#
# Poissons Ratio (x) = 0.52068 0.01396
# Poissons Ratio (y) = 0.40813 0.24208
# Poissons Ratio (z) = 0.01698 0.37562
#
# Static dielectric constant tensor:
#      x y z
#    x 1.620250 -0.030360 0.000640 
#    y -0.030360 1.821810 -0.011030 
#    z 0.000640 -0.011030 1.811380 
# 
# From -- ./inp_files/475213.got.cif
#   From: 2010.05.17/outbox.cif.g08.bks.cpg/sg2_238_cif.got.tgz:475213.got - 2010.06.03 11:33:40.
