data_PCOD9045082
_publ_section_title
;
Structure prediction by ZEFSAII (Michael W. Deem and Ramdas Pophale) SiO2 
 PCOD9045082
Probable space group: P -1
;
_chemical_formula_sum "Si O2"
_cell_formula_units_Z 16
_cell_length_a 7.506967
_cell_length_b 9.022107
_cell_length_c 14.488209
_cell_angle_alpha 103.743923
_cell_angle_beta 121.154445
_cell_angle_gamma 109.600601
_cell_volume 680.483966
_symmetry_space_group_name_H-M "P -1"
_symmetry_group_IT_number 2
_symmetry_cell_setting 'triclinic'
loop_
_space_group_symop_operation_xyz
x,y,z
-x,-y,-z
loop_
_atom_site_type_symbol
_atom_site_label
_atom_site_fract_x
_atom_site_fract_y
_atom_site_fract_z
Si Si1 0.049503 0.789388 0.317564
Si Si2 0.603661 0.721019 0.707696
Si Si3 0.916664 0.618631 0.447212
Si Si4 0.368490 0.098540 0.944230
Si Si5 0.651724 0.096888 0.770873
Si Si6 0.136211 0.252968 0.041267
Si Si7 0.490454 0.666583 0.140531
Si Si8 0.082927 0.143603 0.357566
O O1 0.056137 0.698298 0.399835
O O2 0.202658 0.806047 0.270649
O O3 0.753766 0.686523 0.203499
O O4 0.141176 0.999011 0.389650
O O5 0.380342 0.530758 0.661756
O O6 0.828121 0.779098 0.847992
O O7 0.694062 0.712727 0.628662
O O8 0.544959 0.880146 0.709079
O O9 0.962210 0.770093 0.554648
O O10 0.000000 0.500000 0.500000
O O11 0.561430 0.281316 0.965412
O O12 0.260123 0.165354 0.003196
O O13 0.151364 0.968305 0.792484
O O14 0.500000 0.000000 0.000000
O O15 0.486581 0.177272 0.762574
O O16 0.859407 0.165836 0.916956
O O17 0.282842 0.467479 0.089619
#
# Coordination Sequence:
#
# PCOD9045082 Si02
#       8
#     2   2   2   2   2   2   2   2
#     4  10  23  49  68  96 140 183 229 289 338 414
#     4  11  24  44  69  99 140 178 229 288 342 408
#     4  12  27  45  71  99 131 178 236 296 342 407
#     4  11  24  40  71 102 143 188 224 280 350 413
#     4  11  24  43  70 106 141 181 228 274 356 419
#     4  12  22  42  68 104 145 177 227 287 340 416
#     4  11  23  40  70 101 142 184 222 282 347 410
#     4  10  24  47  68  96 137 188 224 279 350 404
#
# _framework density 23.512675999999999
#
# number of rings (size 3 to 8) (size 9 to 14) (size 15 to 20)
#    0.000    1.000    5.000    2.625    7.000    1.000 
#    2.250    1.250    0.000    0.000    0.000    0.000 
#    0.000    0.000    0.000    0.000    0.000    0.000 
#
# Total GULP energy -89500.005815 kJ/mol
# GULP energy per Si atom -5593.750363 kJ/mol
# Density = 2.345916 g / cm^3
# Si number density = 23.512676 Si / 1000 Ang^3
#
#
#
# Elastic Constant Matrix: (Units=GPa)
#
#
# Indices 1 2 3 4 5 6 
#
# 1 70.4998 14.5908 8.6676 -6.4930 -13.4841 8.3110
# 2 14.5908 142.5863 31.6525 -19.8897 -3.8840 19.0698
# 3 8.6676 31.6525 61.4845 -3.6425 -7.7684 3.2127
# 4 -6.4930 -19.8897 -3.6425 40.7285 1.6033 -2.9099
# 5 -13.4841 -3.8840 -7.7684 1.6033 14.1641 -2.6413
# 6 8.3110 19.0698 3.2127 -2.9099 -2.6413 36.1875
#
#
#
# Elastic Compliance Matrix: (Units=1/GPa)
#
#
# Indices 1 2 3 4 5 6 
#
# 1 0.017881 -0.000895 0.000215 0.001625 0.016276 -0.002335
# 2 -0.000895 0.009074 -0.004359 0.003686 -0.001924 -0.004033
# 3 0.000215 -0.004359 0.019651 -0.000649 0.010082 0.001187
# 4 0.001625 0.003686 -0.000649 0.026574 -0.000840 -0.000183
# 5 0.016276 -0.001924 0.010082 -0.000840 0.091754 0.003010
# 6 -0.002335 -0.004033 0.001187 -0.000183 0.003010 0.030395
#
#
# Mechanical properties :
#
#
# Convention : Reuss Voigt Hill
#
# Bulk Modulus (GPa) = 27.37650 42.71028 35.04339
# Shear Modulus (GPa) = 22.97965 32.86000 27.91982
#
# Velocity S-wave (km/s) = 3.12962 3.74243 3.44966
# Velocity P-wave (km/s) = 4.97272 6.07277 5.55007
#
# Compressibility (1/GPa) = 0.03652768
#
# Stress axis : x y z
#
# Youngs Moduli (GPa) = 55.92453 110.20859 50.88706
#
# Poissons Ratio (x) = 0.09864 -0.01093
# Poissons Ratio (y) = 0.05006 0.22182
# Poissons Ratio (z) = -0.01201 0.48040
#
# Static dielectric constant tensor:
#      x y z
#    x 1.928980 0.032870 0.058310 
#    y 0.032870 1.886730 0.026280 
#    z 0.058310 0.026280 1.958620 
# 
# From -- ./inp_files/382699.got.cif
#   From: 2010.05.17/outbox.cif.g08.bks.cpg/sg2_192_cif.got.tgz:382699.got - 2010.06.03 11:33:40.
