data_PCOD9045613
_publ_section_title
;
Structure prediction by ZEFSAII (Michael W. Deem and Ramdas Pophale) SiO2 
 PCOD9045613
Probable space group: P -1
;
_chemical_formula_sum "Si O2"
_cell_formula_units_Z 14
_cell_length_a 12.430140
_cell_length_b 9.712913
_cell_length_c 13.525477
_cell_angle_alpha 87.362243
_cell_angle_beta 50.635700
_cell_angle_gamma 129.329900
_cell_volume 646.887688
_symmetry_space_group_name_H-M "P -1"
_symmetry_group_IT_number 2
_symmetry_cell_setting 'triclinic'
loop_
_space_group_symop_operation_xyz
x,y,z
-x,-y,-z
loop_
_atom_site_type_symbol
_atom_site_label
_atom_site_fract_x
_atom_site_fract_y
_atom_site_fract_z
Si Si1 0.664184 0.275119 0.426399
Si Si2 0.220923 0.572176 0.864853
Si Si3 0.467087 0.326049 0.080302
Si Si4 0.262804 0.911682 0.315860
Si Si5 0.342044 0.261037 0.671237
Si Si6 0.788154 0.718592 0.046862
Si Si7 0.140687 0.549517 0.272169
O O1 0.711830 0.389403 0.290069
O O2 0.488794 0.238743 0.586896
O O3 0.923570 0.442745 0.331152
O O4 0.500000 0.000000 0.500000
O O5 0.474136 0.834928 0.776638
O O6 0.000000 0.500000 0.000000
O O7 0.914195 0.683347 0.012736
O O8 0.539440 0.449309 0.140730
O O9 0.228152 0.014132 0.259069
O O10 0.500000 0.500000 0.000000
O O11 0.679618 0.401845 0.900175
O O12 0.020737 0.673593 0.541689
O O13 0.297552 0.804194 0.231638
O O14 0.500000 0.500000 0.500000
O O15 0.311971 0.282480 0.801406
O O16 0.023127 0.985025 0.834800
#
# Coordination Sequence:
#
# PCOD9045613 Si02
#       7
#     2   2   2   2   2   2   2
#     4  12  22  39  70  98 130 176 216 277 335 397
#     4  11  21  40  67  98 135 173 221 275 334 400
#     4  11  25  45  67  92 135 182 225 273 338 405
#     4  10  24  44  67  97 135 176 225 285 331 399
#     4  11  23  43  64  96 136 169 220 276 338 393
#     4  10  24  41  63  97 130 173 221 274 330 403
#     4  11  24  44  68 102 135 172 232 280 335 407
#
# _framework density 21.642087
#
# number of rings (size 3 to 8) (size 9 to 14) (size 15 to 20)
#    0.000    1.143    2.857    3.857    0.000    4.000 
#    2.571    0.000    0.000    0.000    0.000    0.000 
#    0.000    0.000    0.000    0.000    0.000    0.000 
#
# Total GULP energy -77989.442529 kJ/mol
# GULP energy per Si atom -5570.674466 kJ/mol
# Density = 2.159283 g / cm^3
# Si number density = 21.642087 Si / 1000 Ang^3
#
#
#
# Elastic Constant Matrix: (Units=GPa)
#
#
# Indices 1 2 3 4 5 6 
#
# 1 80.9708 34.2416 13.0698 -5.0337 9.9163 -19.7085
# 2 34.2416 123.1159 49.0423 12.4273 1.3022 -14.5679
# 3 13.0698 49.0423 67.0191 2.4374 7.9464 -9.4697
# 4 -5.0337 12.4273 2.4374 38.3683 -21.2087 8.7082
# 5 9.9163 1.3022 7.9464 -21.2087 24.1653 -2.4049
# 6 -19.7085 -14.5679 -9.4697 8.7082 -2.4049 36.8561
#
#
#
# Elastic Compliance Matrix: (Units=1/GPa)
#
#
# Indices 1 2 3 4 5 6 
#
# 1 0.016681 -0.004022 0.002205 -0.004127 -0.010159 0.008209
# 2 -0.004022 0.013386 -0.008452 -0.005138 -0.000588 0.002144
# 3 0.002205 -0.008452 0.023245 -0.007216 -0.013968 0.004604
# 4 -0.004127 -0.005138 -0.007216 0.064170 0.058930 -0.017409
# 5 -0.010159 -0.000588 -0.013968 0.058930 0.100239 -0.016636
# 6 0.008209 0.002144 0.004604 -0.017409 -0.016636 0.036580
#
#
# Mechanical properties :
#
#
# Convention : Reuss Voigt Hill
#
# Bulk Modulus (GPa) = 30.51209 51.53480 41.02344
# Shear Modulus (GPa) = 17.49690 31.52808 24.51249
#
# Velocity S-wave (km/s) = 2.84644 3.82094 3.36911
# Velocity P-wave (km/s) = 4.99320 6.58256 5.84218
#
# Compressibility (1/GPa) = 0.03277390
#
# Stress axis : x y z
#
# Youngs Moduli (GPa) = 59.94928 74.70261 43.01987
#
# Poissons Ratio (x) = 0.30047 -0.09485
# Poissons Ratio (y) = 0.24113 0.36359
# Poissons Ratio (z) = -0.13218 0.63137
#
# Static dielectric constant tensor:
#      x y z
#    x 1.737180 0.027820 -0.134890 
#    y 0.027820 1.788830 0.009860 
#    z -0.134890 0.009860 1.680690 
# 
# From -- ./inp_files/513213.got.cif
#   From: 2010.05.17/outbox.cif.g08.bks.cpg/sg2_257_cif.got.tgz:513213.got - 2010.06.03 11:33:40.
