data_PCOD9045647
_publ_section_title
;
Structure prediction by ZEFSAII (Michael W. Deem and Ramdas Pophale) SiO2 
 PCOD9045647
Probable space group: P -1
;
_chemical_formula_sum "Si O2"
_cell_formula_units_Z 14
_cell_length_a 9.886104
_cell_length_b 8.810506
_cell_length_c 7.938982
_cell_angle_alpha 86.839747
_cell_angle_beta 67.456078
_cell_angle_gamma 53.103176
_cell_volume 496.194664
_symmetry_space_group_name_H-M "P -1"
_symmetry_group_IT_number 2
_symmetry_cell_setting 'triclinic'
loop_
_space_group_symop_operation_xyz
x,y,z
-x,-y,-z
loop_
_atom_site_type_symbol
_atom_site_label
_atom_site_fract_x
_atom_site_fract_y
_atom_site_fract_z
Si Si1 0.758802 0.929260 0.851247
Si Si2 0.403752 0.747602 0.844686
Si Si3 0.938700 0.349902 0.715164
Si Si4 0.222584 0.373169 0.930039
Si Si5 0.732932 0.716160 0.567706
Si Si6 0.899473 0.080650 0.304753
Si Si7 0.461033 0.627971 0.346939
O O1 0.734131 0.852074 0.696256
O O2 0.717981 0.828973 0.017522
O O3 0.970884 0.855043 0.759187
O O4 0.632413 0.152545 0.962168
O O5 0.524937 0.785995 0.669609
O O6 0.209980 0.855097 0.825467
O O7 0.510222 0.517593 0.801270
O O8 0.856184 0.488619 0.581985
O O9 0.973280 0.150434 0.717797
O O10 0.747273 0.177376 0.523617
O O11 0.793380 0.498515 0.914622
O O12 0.851588 0.711300 0.359597
O O13 0.000000 0.500000 0.000000
O O14 0.378526 0.348179 0.740078
O O15 0.500000 0.500000 0.500000
#
# Coordination Sequence:
#
# PCOD9045647 Si02
#       7
#     2   2   2   2   2   2   2
#     4  11  24  44  70 102 139 184 232 285 349 415
#     4  11  23  44  71  99 141 177 234 291 345 401
#     4  10  24  44  69  97 143 185 230 275 361 405
#     4  11  22  40  69 101 138 180 232 285 344 410
#     4  10  25  44  71 100 144 184 230 288 346 418
#     4  11  24  43  73 102 137 181 237 289 345 411
#     4  10  24  41  65 104 140 175 223 289 347 404
#
# _framework density 28.214735000000001
#
# number of rings (size 3 to 8) (size 9 to 14) (size 15 to 20)
#    0.000    1.429    0.000    4.286   12.000    1.143 
#    0.000    3.571    0.000    0.000    0.000    0.000 
#    0.000    0.000    0.000    0.000    0.000    0.000 
#
# Total GULP energy -78486.784478 kJ/mol
# GULP energy per Si atom -5606.198891 kJ/mol
# Density = 2.815052 g / cm^3
# Si number density = 28.214735 Si / 1000 Ang^3
#
#
#
# Elastic Constant Matrix: (Units=GPa)
#
#
# Indices 1 2 3 4 5 6 
#
# 1 221.3442 37.1805 61.8327 5.5073 -41.3129 18.5323
# 2 37.1805 137.8396 39.5045 35.1102 10.4157 32.3242
# 3 61.8327 39.5045 158.9111 32.4352 -29.6412 20.5992
# 4 5.5073 35.1102 32.4352 50.5921 15.7119 0.7696
# 5 -41.3129 10.4157 -29.6412 15.7119 67.6832 -0.8269
# 6 18.5323 32.3242 20.5992 0.7696 -0.8269 45.3915
#
#
#
# Elastic Compliance Matrix: (Units=1/GPa)
#
#
# Indices 1 2 3 4 5 6 
#
# 1 0.005724 -0.001251 -0.001249 0.000093 0.003108 -0.000824
# 2 -0.001251 0.011249 -0.000049 -0.007239 -0.000926 -0.007372
# 3 -0.001249 -0.000049 0.009835 -0.007725 0.005301 -0.003691
# 4 0.000093 -0.007239 -0.007725 0.032621 -0.009689 0.007893
# 5 0.003108 -0.000926 0.005301 -0.009689 0.021355 -0.002462
# 6 -0.000824 -0.007372 -0.003691 0.007893 -0.002462 0.029113
#
#
# Mechanical properties :
#
#
# Convention : Reuss Voigt Hill
#
# Bulk Modulus (GPa) = 46.06283 88.34781 67.20532
# Shear Modulus (GPa) = 40.90633 58.03852 49.47242
#
# Velocity S-wave (km/s) = 3.81178 4.54037 4.19193
# Velocity P-wave (km/s) = 5.97781 7.67250 6.87755
#
# Compressibility (1/GPa) = 0.02170948
#
# Stress axis : x y z
#
# Youngs Moduli (GPa) = 174.71757 88.89644 101.67940
#
# Poissons Ratio (x) = 0.11124 0.12695
# Poissons Ratio (y) = 0.21863 0.00499
# Poissons Ratio (z) = 0.21814 0.00436
#
# Static dielectric constant tensor:
#      x y z
#    x 2.281100 -0.093530 0.049480 
#    y -0.093530 2.187170 -0.022140 
#    z 0.049480 -0.022140 2.247770 
# 
# From -- ./inp_files/265456.got.cif
#   From: 2010.05.17/outbox.cif.g08.bks.cpg/sg2_133_cif.got.tgz:265456.got - 2010.06.03 11:33:40.
