data_PCOD9045134
_publ_section_title
;
Structure prediction by ZEFSAII (Michael W. Deem and Ramdas Pophale) SiO2 
 PCOD9045134
Probable space group: P -1
;
_chemical_formula_sum "Si O2"
_cell_formula_units_Z 15
_cell_length_a 27.036781
_cell_length_b 12.190007
_cell_length_c 9.244447
_cell_angle_alpha 39.392833
_cell_angle_beta 38.213352
_cell_angle_gamma 20.073482
_cell_volume 638.115049
_symmetry_space_group_name_H-M "P -1"
_symmetry_group_IT_number 2
_symmetry_cell_setting 'triclinic'
loop_
_space_group_symop_operation_xyz
x,y,z
-x,-y,-z
loop_
_atom_site_type_symbol
_atom_site_label
_atom_site_fract_x
_atom_site_fract_y
_atom_site_fract_z
Si Si1 0.760144 0.130620 0.479426
Si Si2 0.219680 0.948072 0.875339
Si Si3 0.910810 0.486826 0.566358
Si Si4 0.676426 0.142959 0.960257
Si Si5 0.323740 0.267917 0.633732
Si Si6 0.168708 0.634407 0.923152
Si Si7 0.876708 0.249136 0.651470
Si Si8 0.500000 0.500000 0.500000
O O1 0.733096 0.149599 0.689690
O O2 0.733335 0.378772 0.244559
O O3 0.646255 0.231522 0.545108
O O4 0.935494 0.770536 0.436474
O O5 0.389169 0.644626 0.739477
O O6 0.132356 0.261286 0.675812
O O7 0.232984 0.962720 0.999513
O O8 0.148744 0.889655 0.073636
O O9 0.918570 0.323628 0.590716
O O10 0.800113 0.598365 0.823846
O O11 0.500000 0.500000 0.000000
O O12 0.694471 0.905221 0.144348
O O13 0.218721 0.521143 0.754427
O O14 0.265812 0.439133 0.436265
O O15 0.500000 0.000000 0.500000
O O16 0.000000 0.000000 0.000000
O O17 0.000000 0.000000 0.500000
#
# Coordination Sequence:
#
# PCOD9045134 Si02
#       8
#     2   2   2   2   2   2   2   1
#     4  11  25  48  76 104 149 200 255 324 382 464
#     4  12  27  48  76 114 156 198 258 321 391 463
#     4  11  26  48  75 113 150 203 253 322 387 468
#     4  12  24  47  74 110 158 199 261 319 388 462
#     4  12  27  45  78 116 153 214 266 321 392 473
#     4  10  23  49  75 110 156 205 260 322 396 467
#     4  12  26  49  78 113 156 205 267 322 390 471
#     4  12  28  46  74 112 146 202 252 318 396 470
#
# _framework density 23.506734000000002
#
# number of rings (size 3 to 8) (size 9 to 14) (size 15 to 20)
#    0.000    0.533    2.667    5.600    3.733    2.667 
#    0.000    2.000    0.000    0.000    0.000    0.000 
#    0.000    0.000    0.000    0.000    0.000    0.000 
#
# Total GULP energy -83561.482673 kJ/mol
# GULP energy per Si atom -5570.765512 kJ/mol
# Density = 2.345323 g / cm^3
# Si number density = 23.506734 Si / 1000 Ang^3
#
#
#
# Elastic Constant Matrix: (Units=GPa)
#
#
# Indices 1 2 3 4 5 6 
#
# 1 140.1584 70.6122 61.0964 -1.8776 16.2323 -13.5447
# 2 70.6122 76.7657 48.5535 -13.8090 -20.0765 -2.5378
# 3 61.0964 48.5535 170.8860 -20.2370 1.8382 4.3931
# 4 -1.8776 -13.8090 -20.2370 39.0820 8.5747 13.4623
# 5 16.2323 -20.0765 1.8382 8.5747 47.6129 -3.3618
# 6 -13.5447 -2.5378 4.3931 13.4623 -3.3618 41.0814
#
#
#
# Elastic Compliance Matrix: (Units=1/GPa)
#
#
# Indices 1 2 3 4 5 6 
#
# 1 0.024065 -0.026595 -0.002028 -0.008166 -0.017321 0.007767
# 2 -0.026595 0.048194 -0.003059 0.010516 0.027140 -0.006690
# 3 -0.002028 -0.003059 0.008102 0.004624 -0.001984 -0.003402
# 4 -0.008166 0.010516 0.004624 0.036426 -0.000545 -0.014519
# 5 -0.017321 0.027140 -0.001984 -0.000545 0.038492 -0.000493
# 6 0.007767 -0.006690 -0.003402 -0.014519 -0.000493 0.031570
#
#
# Mechanical properties :
#
#
# Convention : Reuss Voigt Hill
#
# Bulk Modulus (GPa) = 58.83636 83.14828 70.99232
# Shear Modulus (GPa) = 19.54051 39.39178 29.46615
#
# Velocity S-wave (km/s) = 2.88631 4.09805 3.54435
# Velocity P-wave (km/s) = 6.01595 7.60532 6.85684
#
# Compressibility (1/GPa) = 0.01699629
#
# Stress axis : x y z
#
# Youngs Moduli (GPa) = 41.55474 20.74968 123.41980
#
# Poissons Ratio (x) = 0.55184 0.25025
# Poissons Ratio (y) = 1.10516 0.37756
# Poissons Ratio (z) = 0.08426 0.06348
#
# Static dielectric constant tensor:
#      x y z
#    x 1.799750 0.013900 -0.039750 
#    y 0.013900 1.859560 -0.102760 
#    z -0.039750 -0.102760 1.835740 
# 
# From -- ./inp_files/357036.got.cif
#   From: 2010.05.17/outbox.cif.g08.bks.cpg/sg2_179_cif.got.tgz:357036.got - 2010.06.03 11:33:40.
