data_PCOD9045904
_publ_section_title
;
Structure prediction by ZEFSAII (Michael W. Deem and Ramdas Pophale) SiO2 
 PCOD9045904
Probable space group: P -1
;
_chemical_formula_sum "Si O2"
_cell_formula_units_Z 16
_cell_length_a 20.468660
_cell_length_b 10.961953
_cell_length_c 7.854414
_cell_angle_alpha 83.474833
_cell_angle_beta 110.664972
_cell_angle_gamma 153.943490
_cell_volume 629.401687
_symmetry_space_group_name_H-M "P -1"
_symmetry_group_IT_number 2
_symmetry_cell_setting 'triclinic'
loop_
_space_group_symop_operation_xyz
x,y,z
-x,-y,-z
loop_
_atom_site_type_symbol
_atom_site_label
_atom_site_fract_x
_atom_site_fract_y
_atom_site_fract_z
Si Si1 0.892075 0.735421 0.576198
Si Si2 0.518941 0.474057 0.329642
Si Si3 0.243165 0.303879 0.295918
Si Si4 0.832516 0.236278 0.017778
Si Si5 0.918030 0.629801 0.144433
Si Si6 0.566043 0.817382 0.245542
Si Si7 0.044513 0.424896 0.446113
Si Si8 0.365388 0.674971 0.880837
O O1 0.858382 0.740437 0.726234
O O2 0.966099 0.717899 0.650228
O O3 0.699546 0.412504 0.355429
O O4 0.000000 0.000000 0.500000
O O5 0.500000 0.500000 0.500000
O O6 0.410093 0.592497 0.278171
O O7 0.671382 0.618611 0.467545
O O8 0.336162 0.113523 0.154563
O O9 0.093728 0.962534 0.152842
O O10 0.804227 0.336991 0.998203
O O11 0.907658 0.297717 0.252291
O O12 0.000000 0.500000 0.000000
O O13 0.986883 0.675808 0.375473
O O14 0.803667 0.561980 0.113938
O O15 0.753091 0.184954 0.420296
O O16 0.576836 0.689391 0.248738
O O17 0.472140 0.724555 0.009142
O O18 0.500000 0.000000 0.000000
#
# Coordination Sequence:
#
# PCOD9045904 Si02
#       8
#     2   2   2   2   2   2   2   2
#     4  11  23  44  67  96 135 176 220 271 328 395
#     4  10  24  42  63  97 134 166 215 279 327 386
#     4  11  23  43  68  95 134 173 219 279 325 385
#     4  12  25  42  70 101 133 176 224 273 332 394
#     4  11  24  45  67  96 140 178 215 272 333 396
#     4  11  23  43  68  95 134 173 219 279 325 385
#     4  11  24  45  67  96 140 178 215 272 333 396
#     4  11  23  44  67  96 135 176 220 271 328 395
#
# _framework density 25.420968999999999
#
# number of rings (size 3 to 8) (size 9 to 14) (size 15 to 20)
#    0.000    1.000    5.000    4.125    3.500    2.000 
#    0.000    1.875    0.000    0.000    0.000    0.000 
#    0.000    0.000    0.000    0.000    0.000    0.000 
#
# Total GULP energy -89526.251465 kJ/mol
# GULP energy per Si atom -5595.390717 kJ/mol
# Density = 2.536311 g / cm^3
# Si number density = 25.420969 Si / 1000 Ang^3
#
#
#
# Elastic Constant Matrix: (Units=GPa)
#
#
# Indices 1 2 3 4 5 6 
#
# 1 123.9438 10.1277 12.7783 7.4282 -11.8497 -17.0295
# 2 10.1277 121.5836 32.3263 34.7198 -20.4805 6.4454
# 3 12.7783 32.3263 115.9200 21.8762 1.3876 -18.9948
# 4 7.4282 34.7198 21.8762 40.8190 -11.8314 -3.6483
# 5 -11.8497 -20.4805 1.3876 -11.8314 42.9004 -8.5823
# 6 -17.0295 6.4454 -18.9948 -3.6483 -8.5823 36.3679
#
#
#
# Elastic Compliance Matrix: (Units=1/GPa)
#
#
# Indices 1 2 3 4 5 6 
#
# 1 0.009134 -0.000510 -0.000116 0.000274 0.003386 0.005134
# 2 -0.000510 0.011917 -0.002338 -0.008393 0.002546 -0.003813
# 3 -0.000116 -0.002338 0.010895 -0.003782 -0.001479 0.005322
# 4 0.000274 -0.008393 -0.003782 0.036128 0.007145 0.004951
# 5 0.003386 0.002546 -0.001479 0.007145 0.029067 0.007938
# 6 0.005134 -0.003813 0.005322 0.004951 0.007938 0.035726
#
#
# Mechanical properties :
#
#
# Convention : Reuss Voigt Hill
#
# Bulk Modulus (GPa) = 38.43521 52.43468 45.43494
# Shear Modulus (GPa) = 33.90562 44.43181 39.16871
#
# Velocity S-wave (km/s) = 3.65604 4.18525 3.92957
# Velocity P-wave (km/s) = 5.74234 6.63524 6.20487
#
# Compressibility (1/GPa) = 0.02601781
#
# Stress axis : x y z
#
# Youngs Moduli (GPa) = 109.47600 83.91527 91.78502
#
# Poissons Ratio (x) = 0.04281 0.01062
# Poissons Ratio (y) = 0.05585 0.21463
# Poissons Ratio (z) = 0.01266 0.19623
#
# Static dielectric constant tensor:
#      x y z
#    x 1.970520 -0.061730 -0.284010 
#    y -0.061730 1.979590 -0.338450 
#    z -0.284010 -0.338450 0.808800 
# 
# From -- ./inp_files/463912.got.cif
#   From: 2010.05.17/outbox.cif.g08.bks.cpg/sg2_232_cif.got.tgz:463912.got - 2010.06.03 11:33:40.
