data_PCOD9045795
_publ_section_title
;
Structure prediction by ZEFSAII (Michael W. Deem and Ramdas Pophale) SiO2 
 PCOD9045795
Probable space group: P -1
;
_chemical_formula_sum "Si O2"
_cell_formula_units_Z 14
_cell_length_a 10.298948
_cell_length_b 17.261614
_cell_length_c 8.936757
_cell_angle_alpha 143.761243
_cell_angle_beta 132.517498
_cell_angle_gamma 34.653757
_cell_volume 533.677866
_symmetry_space_group_name_H-M "P -1"
_symmetry_group_IT_number 2
_symmetry_cell_setting 'triclinic'
loop_
_space_group_symop_operation_xyz
x,y,z
-x,-y,-z
loop_
_atom_site_type_symbol
_atom_site_label
_atom_site_fract_x
_atom_site_fract_y
_atom_site_fract_z
Si Si1 0.432272 0.890708 0.198333
Si Si2 0.550100 0.346746 0.634197
Si Si3 0.665541 0.550084 0.684950
Si Si4 0.912916 0.424422 0.213274
Si Si5 0.314066 0.090918 0.132872
Si Si6 0.322223 0.919328 0.464954
Si Si7 0.960813 0.321273 0.789568
O O1 0.303991 0.880008 0.218957
O O2 0.500000 0.000000 0.500000
O O3 0.310855 0.981099 0.086790
O O4 0.617096 0.696322 0.985444
O O5 0.404713 0.371485 0.413661
O O6 0.349066 0.477596 0.796986
O O7 0.713722 0.165011 0.561819
O O8 0.728150 0.365747 0.738760
O O9 0.500000 0.500000 0.500000
O O10 0.909377 0.381270 0.671960
O O11 0.000000 0.500000 0.500000
O O12 0.069509 0.229376 0.086721
O O13 0.980898 0.420073 0.087960
O O14 0.415452 0.164087 0.422362
O O15 0.500000 0.000000 0.000000
O O16 0.165069 0.122392 0.660306
#
# Coordination Sequence:
#
# PCOD9045795 Si02
#       7
#     2   2   2   2   2   2   2
#     4  10  24  41  70 102 140 185 231 299 353 416
#     4  11  24  46  71  98 141 191 240 286 360 428
#     4  10  24  46  69  98 144 188 237 290 353 426
#     4  12  25  40  71 101 141 183 237 296 354 425
#     4  11  22  43  67 103 141 182 232 292 361 422
#     4  11  22  44  71 100 142 181 239 290 355 428
#     4  11  25  44  70 103 140 189 238 296 352 424
#
# _framework density 26.233052000000001
#
# number of rings (size 3 to 8) (size 9 to 14) (size 15 to 20)
#    0.000    1.143    2.857    2.571    4.000    1.143 
#    0.000    6.429    0.000    0.000    0.000    0.000 
#    0.000    0.000    0.000    0.000    0.000    0.000 
#
# Total GULP energy -78116.604139 kJ/mol
# GULP energy per Si atom -5579.757438 kJ/mol
# Density = 2.617334 g / cm^3
# Si number density = 26.233052 Si / 1000 Ang^3
#
#
#
# Elastic Constant Matrix: (Units=GPa)
#
#
# Indices 1 2 3 4 5 6 
#
# 1 92.1124 46.4124 34.3815 -8.9985 -14.4082 20.3339
# 2 46.4124 185.6221 51.8811 0.6155 -10.1616 35.4093
# 3 34.3815 51.8811 86.2289 -7.3306 -26.6586 5.1664
# 4 -8.9985 0.6155 -7.3306 35.4445 1.4033 -12.2106
# 5 -14.4082 -10.1616 -26.6586 1.4033 44.7217 -13.3326
# 6 20.3339 35.4093 5.1664 -12.2106 -13.3326 64.7600
#
#
#
# Elastic Compliance Matrix: (Units=1/GPa)
#
#
# Indices 1 2 3 4 5 6 
#
# 1 0.014174 -0.001938 -0.003856 0.001930 0.001019 -0.002509
# 2 -0.001938 0.007970 -0.004949 -0.003106 -0.003027 -0.004563
# 3 -0.003856 -0.004949 0.019494 0.004586 0.010730 0.005435
# 4 0.001930 -0.003106 0.004586 0.032168 0.003905 0.007596
# 5 0.001019 -0.003027 0.010730 0.003905 0.030509 0.007496
# 6 -0.002509 -0.004563 0.005435 0.007596 0.007496 0.021267
#
#
# Mechanical properties :
#
#
# Convention : Reuss Voigt Hill
#
# Bulk Modulus (GPa) = 49.62373 69.92371 59.77372
# Shear Modulus (GPa) = 32.51287 44.40447 38.45867
#
# Velocity S-wave (km/s) = 3.52431 4.11870 3.83304
# Velocity P-wave (km/s) = 5.95975 7.02360 6.51343
#
# Compressibility (1/GPa) = 0.02015165
#
# Stress axis : x y z
#
# Youngs Moduli (GPa) = 70.55168 125.46624 51.29876
#
# Poissons Ratio (x) = 0.24318 0.19781
# Poissons Ratio (y) = 0.13674 0.25388
# Poissons Ratio (z) = 0.27204 0.62093
#
# Static dielectric constant tensor:
#      x y z
#    x 2.214890 0.061550 0.073440 
#    y 0.061550 2.096940 0.001610 
#    z 0.073440 0.001610 2.163630 
# 
# From -- ./inp_files/280165.got.cif
#   From: 2010.05.17/outbox.cif.g08.bks.cpg/sg2_141_cif.got.tgz:280165.got - 2010.06.03 11:33:40.
