data_PCOD9045657
_publ_section_title
;
Structure prediction by ZEFSAII (Michael W. Deem and Ramdas Pophale) SiO2 
 PCOD9045657
Probable space group: P -1
;
_chemical_formula_sum "Si O2"
_cell_formula_units_Z 16
_cell_length_a 6.541431
_cell_length_b 14.963313
_cell_length_c 7.567987
_cell_angle_alpha 110.122524
_cell_angle_beta 71.484090
_cell_angle_gamma 109.871435
_cell_volume 637.027400
_symmetry_space_group_name_H-M "P -1"
_symmetry_group_IT_number 2
_symmetry_cell_setting 'triclinic'
loop_
_space_group_symop_operation_xyz
x,y,z
-x,-y,-z
loop_
_atom_site_type_symbol
_atom_site_label
_atom_site_fract_x
_atom_site_fract_y
_atom_site_fract_z
Si Si1 0.928595 0.283450 0.531388
Si Si2 0.797634 0.423318 0.100139
Si Si3 0.938274 0.712814 0.109374
Si Si4 0.666875 0.929599 0.406581
Si Si5 0.580706 0.392817 0.757262
Si Si6 0.646758 0.600025 0.696996
Si Si7 0.101650 0.095881 0.315414
Si Si8 0.281727 0.184109 0.992795
O O1 0.937198 0.268084 0.728356
O O2 0.147980 0.368796 0.472783
O O3 0.970295 0.181531 0.383852
O O4 0.712363 0.322454 0.576015
O O5 0.617929 0.436336 0.302847
O O6 0.651770 0.396559 0.944156
O O7 0.000000 0.500000 0.000000
O O8 0.923477 0.345650 0.084309
O O9 0.687265 0.650576 0.190633
O O10 0.926249 0.806223 0.063899
O O11 0.730045 0.889086 0.551498
O O12 0.500000 0.000000 0.500000
O O13 0.575650 0.846356 0.225302
O O14 0.907400 0.997751 0.326678
O O15 0.663571 0.504808 0.740780
O O16 0.659296 0.709034 0.854470
O O17 0.239688 0.103874 0.102479
#
# Coordination Sequence:
#
# PCOD9045657 Si02
#       8
#     2   2   2   2   2   2   2   2
#     4  10  24  41  65  96 137 178 224 285 333 397
#     4  11  21  37  60  88 127 179 230 278 327 385
#     4  11  22  40  63  92 133 181 225 271 339 394
#     4  11  25  46  77 100 134 173 216 286 351 407
#     4  11  22  40  64  92 136 182 230 276 331 396
#     4  11  22  42  63  97 136 180 236 278 327 401
#     4  10  24  47  69 103 137 169 225 279 341 419
#     4  11  23  45  70  99 139 178 224 277 340 410
#
# _framework density 25.116658999999999
#
# number of rings (size 3 to 8) (size 9 to 14) (size 15 to 20)
#    0.000    1.250    3.750    1.875    1.750    1.000 
#   11.250    0.000    0.000    0.000    0.000    0.000 
#    0.000    0.000    0.000    0.000    0.000    0.000 
#
# Total GULP energy -89201.719213 kJ/mol
# GULP energy per Si atom -5575.107451 kJ/mol
# Density = 2.505949 g / cm^3
# Si number density = 25.116659 Si / 1000 Ang^3
#
#
#
# Elastic Constant Matrix: (Units=GPa)
#
#
# Indices 1 2 3 4 5 6 
#
# 1 99.5030 33.7493 38.5547 -3.1409 -19.5918 -5.0866
# 2 33.7493 109.3600 34.3885 -13.7647 -2.3516 -12.4133
# 3 38.5547 34.3885 90.0947 -19.5721 -1.0523 -6.2754
# 4 -3.1409 -13.7647 -19.5721 50.7996 -3.8732 -7.5135
# 5 -19.5918 -2.3516 -1.0523 -3.8732 39.6243 7.0311
# 6 -5.0866 -12.4133 -6.2754 -7.5135 7.0311 44.8258
#
#
#
# Elastic Compliance Matrix: (Units=1/GPa)
#
#
# Indices 1 2 3 4 5 6 
#
# 1 0.014371 -0.002946 -0.005395 -0.001657 0.006855 -0.001294
# 2 -0.002946 0.011425 -0.002387 0.002360 -0.001157 0.003072
# 3 -0.005395 -0.002387 0.015561 0.005156 -0.002269 0.002126
# 4 -0.001657 0.002360 0.005156 0.022999 0.000834 0.004912
# 5 0.006855 -0.001157 -0.002269 0.000834 0.029346 -0.004323
# 6 -0.001294 0.003072 0.002126 0.004912 -0.004323 0.024812
#
#
# Mechanical properties :
#
#
# Convention : Reuss Voigt Hill
#
# Bulk Modulus (GPa) = 50.25107 56.92696 53.58901
# Shear Modulus (GPa) = 34.10549 39.86763 36.98656
#
# Velocity S-wave (km/s) = 3.68894 3.98841 3.84160
# Velocity P-wave (km/s) = 6.18020 6.62753 6.40777
#
# Compressibility (1/GPa) = 0.01990008
#
# Stress axis : x y z
#
# Youngs Moduli (GPa) = 69.58376 87.52858 64.26336
#
# Poissons Ratio (x) = 0.25790 0.34672
# Poissons Ratio (y) = 0.20503 0.15337
# Poissons Ratio (z) = 0.37543 0.20890
#
# Static dielectric constant tensor:
#      x y z
#    x 2.067690 0.063250 -0.069600 
#    y 0.063250 2.114140 0.054500 
#    z -0.069600 0.054500 2.197600 
# 
# From -- ./inp_files/135485.got.cif
#   From: 2010.05.17/outbox.cif.g08.bks.cpg/sg2_68_cif.got.tgz:135485.got - 2010.06.03 11:33:40.
