data_PCOD9045747
_publ_section_title
;
Structure prediction by ZEFSAII (Michael W. Deem and Ramdas Pophale) SiO2 
 PCOD9045747
Probable space group: P -1
;
_chemical_formula_sum "Si O2"
_cell_formula_units_Z 16
_cell_length_a 15.161521
_cell_length_b 5.617270
_cell_length_c 14.354077
_cell_angle_alpha 92.013012
_cell_angle_beta 40.322569
_cell_angle_gamma 110.933103
_cell_volume 679.530793
_symmetry_space_group_name_H-M "P -1"
_symmetry_group_IT_number 2
_symmetry_cell_setting 'triclinic'
loop_
_space_group_symop_operation_xyz
x,y,z
-x,-y,-z
loop_
_atom_site_type_symbol
_atom_site_label
_atom_site_fract_x
_atom_site_fract_y
_atom_site_fract_z
Si Si1 0.589909 0.289804 0.488883
Si Si2 0.031444 0.276360 0.029301
Si Si3 0.613735 0.484236 0.272320
Si Si4 0.620231 0.012220 0.672863
Si Si5 0.822080 0.592649 0.602401
Si Si6 0.121941 0.741680 0.663028
Si Si7 0.122610 0.699899 0.269435
Si Si8 0.383255 0.212835 0.137892
O O1 0.643866 0.491536 0.359229
O O2 0.479425 0.345287 0.648767
O O3 0.746980 0.336656 0.413427
O O4 0.500000 0.000000 0.500000
O O5 0.916877 0.163766 0.209212
O O6 0.216550 0.413429 0.908342
O O7 0.000000 0.500000 0.000000
O O8 0.000000 0.000000 0.000000
O O9 0.500729 0.183428 0.312013
O O10 0.550078 0.858922 0.825780
O O11 0.681371 0.330064 0.657096
O O12 0.786691 0.056275 0.495079
O O13 0.858811 0.463158 0.661205
O O14 0.759391 0.777661 0.696547
O O15 0.977449 0.742115 0.416574
O O16 0.953056 0.495403 0.760463
O O17 0.293868 0.973012 0.130390
O O18 0.500000 0.500000 0.000000
#
# Coordination Sequence:
#
# PCOD9045747 Si02
#       8
#     2   2   2   2   2   2   2   2
#     4  11  22  42  69  99 136 187 239 300 364 433
#     4  12  28  50  70 109 155 195 244 320 380 432
#     4  11  25  41  69 102 140 186 243 298 369 440
#     4  10  24  41  68 103 129 187 247 283 353 453
#     4   9  20  43  64  95 138 170 229 293 351 426
#     4  11  23  45  74 103 142 193 248 302 362 451
#     4   9  21  41  66  99 129 182 234 285 354 439
#     4  11  24  42  66 101 142 180 222 297 367 424
#
# _framework density 23.545659000000001
#
# number of rings (size 3 to 8) (size 9 to 14) (size 15 to 20)
#    0.000    1.500    2.500    1.875    5.250    4.000 
#    4.500    0.000    0.000    0.000    0.000    0.000 
#    0.000    0.000    0.000    0.000    0.000    0.000 
#
# Total GULP energy -89156.348064 kJ/mol
# GULP energy per Si atom -5572.271754 kJ/mol
# Density = 2.349207 g / cm^3
# Si number density = 23.545659 Si / 1000 Ang^3
#
#
#
# Elastic Constant Matrix: (Units=GPa)
#
#
# Indices 1 2 3 4 5 6 
#
# 1 113.0281 52.5471 25.0279 -9.2842 -8.2398 26.6929
# 2 52.5471 100.0078 32.4602 3.4242 -1.4365 28.0403
# 3 25.0279 32.4602 92.4514 0.5794 6.1719 -3.7538
# 4 -9.2842 3.4242 0.5794 46.4495 -7.0020 -12.7005
# 5 -8.2398 -1.4365 6.1719 -7.0020 27.5007 0.8471
# 6 26.6929 28.0403 -3.7538 -12.7005 0.8471 33.9604
#
#
#
# Elastic Compliance Matrix: (Units=1/GPa)
#
#
# Indices 1 2 3 4 5 6 
#
# 1 0.013643 -0.004332 -0.002811 0.001996 0.005211 -0.006841
# 2 -0.004332 0.018599 -0.005916 -0.006271 -0.000135 -0.014948
# 3 -0.002811 -0.005916 0.014309 0.001624 -0.004238 0.009389
# 4 0.001996 -0.006271 0.001624 0.027094 0.006381 0.013761
# 5 0.005211 -0.000135 -0.004238 0.006381 0.040588 -0.003080
# 6 -0.006841 -0.014948 0.009389 0.013761 -0.003080 0.053427
#
#
# Mechanical properties :
#
#
# Convention : Reuss Voigt Hill
#
# Bulk Modulus (GPa) = 48.93867 58.39531 53.66699
# Shear Modulus (GPa) = 24.92670 34.61229 29.76949
#
# Velocity S-wave (km/s) = 3.25723 3.83823 3.55960
# Velocity P-wave (km/s) = 5.91403 6.67063 6.30369
#
# Compressibility (1/GPa) = 0.02043374
#
# Stress axis : x y z
#
# Youngs Moduli (GPa) = 73.29799 53.76504 69.88783
#
# Poissons Ratio (x) = 0.23289 0.19643
# Poissons Ratio (y) = 0.31749 0.41349
# Poissons Ratio (z) = 0.20602 0.31810
#
# Static dielectric constant tensor:
#      x y z
#    x 2.020620 -0.063410 0.020150 
#    y -0.063410 2.002180 -0.020730 
#    z 0.020150 -0.020730 1.915750 
# 
# From -- ./inp_files/369418.got.cif
#   From: 2010.05.17/outbox.cif.g08.bks.cpg/sg2_185_cif.got.tgz:369418.got - 2010.06.03 11:33:40.
