data_PCOD9045991
_publ_section_title
;
Structure prediction by ZEFSAII (Michael W. Deem and Ramdas Pophale) SiO2 
 PCOD9045991
Probable space group: P -1
;
_chemical_formula_sum "Si O2"
_cell_formula_units_Z 14
_cell_length_a 5.352122
_cell_length_b 11.777140
_cell_length_c 12.141306
_cell_angle_alpha 62.466415
_cell_angle_beta 117.961896
_cell_angle_gamma 113.701451
_cell_volume 582.396946
_symmetry_space_group_name_H-M "P -1"
_symmetry_group_IT_number 2
_symmetry_cell_setting 'triclinic'
loop_
_space_group_symop_operation_xyz
x,y,z
-x,-y,-z
loop_
_atom_site_type_symbol
_atom_site_label
_atom_site_fract_x
_atom_site_fract_y
_atom_site_fract_z
Si Si1 0.156262 0.477581 0.433078
Si Si2 0.613579 0.044902 0.699074
Si Si3 0.165419 0.733806 0.674369
Si Si4 0.248988 0.104446 0.389388
Si Si5 0.338840 0.077428 0.017499
Si Si6 0.005315 0.726397 0.176874
Si Si7 0.154283 0.476153 0.931586
O O1 0.500000 0.500000 0.500000
O O2 0.000000 0.500000 0.500000
O O3 0.035621 0.326446 0.443110
O O4 0.050626 0.587865 0.291147
O O5 0.372956 0.064773 0.550311
O O6 0.751031 0.171033 0.747621
O O7 0.839365 0.008636 0.671929
O O8 0.538945 0.931683 0.829716
O O9 0.479731 0.797741 0.660038
O O10 0.139242 0.603947 0.798758
O O11 0.001587 0.826533 0.663213
O O12 0.286478 0.216209 0.898919
O O13 0.500000 0.000000 0.000000
O O14 0.000000 0.000000 0.000000
O O15 0.982917 0.676966 0.066604
O O16 0.500000 0.500000 0.000000
O O17 0.000000 0.500000 0.000000
#
# Coordination Sequence:
#
# PCOD9045991 Si02
#       7
#     2   2   2   2   2   2   2
#     4  11  23  41  70 101 135 178 229 290 352 417
#     4  10  24  45  70 102 141 187 237 281 355 408
#     4  11  24  43  68 100 136 179 232 286 354 408
#     4  11  25  44  71 102 142 184 231 293 341 425
#     4  10  24  42  65  99 138 180 232 283 343 411
#     4  10  24  45  70 103 140 180 233 291 347 422
#     4  11  26  45  70 101 137 184 231 287 357 419
#
# _framework density 24.038588000000001
#
# number of rings (size 3 to 8) (size 9 to 14) (size 15 to 20)
#    0.000    1.429    0.000    3.429    4.000   16.000 
#    0.000    0.000    0.000    0.000    0.000    0.000 
#    0.000    0.000    0.000    0.000    0.000    0.000 
#
# Total GULP energy -77941.256583 kJ/mol
# GULP energy per Si atom -5567.232613 kJ/mol
# Density = 2.398387 g / cm^3
# Si number density = 24.038588 Si / 1000 Ang^3
#
#
#
# Elastic Constant Matrix: (Units=GPa)
#
#
# Indices 1 2 3 4 5 6 
#
# 1 183.0978 71.5632 57.0666 11.9018 -6.2475 -28.9397
# 2 71.5632 149.4208 42.1147 21.0454 -1.9647 -23.5431
# 3 57.0666 42.1147 123.1957 -1.2886 4.8846 -19.9158
# 4 11.9018 21.0454 -1.2886 51.3955 -9.9670 0.0693
# 5 -6.2475 -1.9647 4.8846 -9.9670 24.5559 -9.5062
# 6 -28.9397 -23.5431 -19.9158 0.0693 -9.5062 48.1647
#
#
#
# Elastic Compliance Matrix: (Units=1/GPa)
#
#
# Indices 1 2 3 4 5 6 
#
# 1 0.007811 -0.002498 -0.002391 -0.000189 0.003408 0.003156
# 2 -0.002498 0.009168 -0.001638 -0.003217 0.000012 0.002310
# 3 -0.002391 -0.001638 0.010124 0.001154 -0.001657 0.001621
# 4 -0.000189 -0.003217 0.001154 0.022555 0.008813 0.000498
# 5 0.003408 0.000012 -0.001657 0.008813 0.049830 0.011191
# 6 0.003156 0.002310 0.001621 0.000498 0.011191 0.026666
#
#
# Mechanical properties :
#
#
# Convention : Reuss Voigt Hill
#
# Bulk Modulus (GPa) = 71.17694 88.57813 79.87753
# Shear Modulus (GPa) = 34.74875 43.82123 39.28499
#
# Velocity S-wave (km/s) = 3.80615 4.27424 4.04697
# Velocity P-wave (km/s) = 6.99925 7.82861 7.42552
#
# Compressibility (1/GPa) = 0.01404949
#
# Stress axis : x y z
#
# Youngs Moduli (GPa) = 128.03204 109.07728 98.77308
#
# Poissons Ratio (x) = 0.27249 0.23615
# Poissons Ratio (y) = 0.31984 0.16174
# Poissons Ratio (z) = 0.30611 0.17862
#
# Static dielectric constant tensor:
#      x y z
#    x 1.879170 -0.024170 -0.057380 
#    y -0.024170 2.260340 0.141550 
#    z -0.057380 0.141550 2.081840 
# 
# From -- ./inp_files/364137.got.cif
#   From: 2010.05.17/outbox.cif.g08.bks.cpg/sg2_183_cif.got.tgz:364137.got - 2010.06.03 11:33:40.
