data_PCOD9045899
_publ_section_title
;
Structure prediction by ZEFSAII (Michael W. Deem and Ramdas Pophale) SiO2 
 PCOD9045899
Probable space group: P -1
;
_chemical_formula_sum "Si O2"
_cell_formula_units_Z 14
_cell_length_a 13.820790
_cell_length_b 7.759773
_cell_length_c 9.040620
_cell_angle_alpha 131.311741
_cell_angle_beta 69.490637
_cell_angle_gamma 83.624054
_cell_volume 595.903462
_symmetry_space_group_name_H-M "P -1"
_symmetry_group_IT_number 2
_symmetry_cell_setting 'triclinic'
loop_
_space_group_symop_operation_xyz
x,y,z
-x,-y,-z
loop_
_atom_site_type_symbol
_atom_site_label
_atom_site_fract_x
_atom_site_fract_y
_atom_site_fract_z
Si Si1 0.572101 0.359594 0.026901
Si Si2 0.739756 0.779588 0.621671
Si Si3 0.620296 0.769392 0.974828
Si Si4 0.159555 0.653925 0.233868
Si Si5 0.019989 0.978557 0.226060
Si Si6 0.447087 0.328408 0.504657
Si Si7 0.010822 0.361441 0.202826
O O1 0.477742 0.267962 0.085652
O O2 0.580530 0.554567 0.249400
O O3 0.500000 0.500000 0.000000
O O4 0.687129 0.082336 0.775323
O O5 0.705000 0.789201 0.817748
O O6 0.669081 0.657931 0.500348
O O7 0.878187 0.602844 0.423287
O O8 0.705668 0.523768 0.891791
O O9 0.548605 0.026618 0.258968
O O10 0.127087 0.786679 0.165646
O O11 0.099832 0.467260 0.175306
O O12 0.090182 0.873022 0.519881
O O13 0.990850 0.817634 0.030929
O O14 0.039284 0.189173 0.239871
O O15 0.500000 0.500000 0.500000
#
# Coordination Sequence:
#
# PCOD9045899 Si02
#       7
#     2   2   2   2   2   2   2
#     4  11  25  43  64  98 129 161 211 272 323 376
#     4  11  23  41  66  95 129 164 221 262 308 399
#     4  11  23  41  66  96 127 167 218 262 313 393
#     4  11  24  43  66  94 136 170 211 272 323 373
#     4  10  24  42  63  95 129 172 223 258 314 394
#     4  11  21  41  69  89 122 172 211 255 326 378
#     4  11  24  43  66  96 133 172 215 266 323 380
#
# _framework density 23.493738
#
# number of rings (size 3 to 8) (size 9 to 14) (size 15 to 20)
#    0.000    1.143    4.286    1.714    0.000   11.429 
#    0.000    0.000    0.000    0.000    0.000    0.000 
#    0.000    0.000    0.000    0.000    0.000    0.000 
#
# Total GULP energy -78407.307201 kJ/mol
# GULP energy per Si atom -5600.521943 kJ/mol
# Density = 2.344026 g / cm^3
# Si number density = 23.493738 Si / 1000 Ang^3
#
#
#
# Elastic Constant Matrix: (Units=GPa)
#
#
# Indices 1 2 3 4 5 6 
#
# 1 145.8803 38.6181 56.8306 11.5872 9.2296 -15.8385
# 2 38.6181 156.4530 42.5078 7.0532 10.0105 -29.0360
# 3 56.8306 42.5078 113.6940 4.9758 41.0498 -12.9967
# 4 11.5872 7.0532 4.9758 39.0614 -4.4452 -1.2874
# 5 9.2296 10.0105 41.0498 -4.4452 33.1205 -4.2432
# 6 -15.8385 -29.0360 -12.9967 -1.2874 -4.2432 29.9657
#
#
#
# Elastic Compliance Matrix: (Units=1/GPa)
#
#
# Indices 1 2 3 4 5 6 
#
# 1 0.009379 -0.000477 -0.006024 -0.001258 0.005156 0.002559
# 2 -0.000477 0.008466 -0.002751 -0.000602 0.001798 0.006986
# 3 -0.006024 -0.002751 0.022166 -0.003432 -0.025420 0.000017
# 4 -0.001258 -0.000602 -0.003432 0.027467 0.008426 -0.000363
# 5 0.005156 0.001798 -0.025420 0.008426 0.061166 0.002465
# 6 0.002559 0.006986 0.000017 -0.000363 0.002465 0.041835
#
#
# Mechanical properties :
#
#
# Convention : Reuss Voigt Hill
#
# Bulk Modulus (GPa) = 46.49654 76.88227 61.68940
# Shear Modulus (GPa) = 25.49074 38.96758 32.22916
#
# Velocity S-wave (km/s) = 3.29751 4.07705 3.70783
# Velocity P-wave (km/s) = 5.85936 7.41342 6.68172
#
# Compressibility (1/GPa) = 0.02150698
#
# Stress axis : x y z
#
# Youngs Moduli (GPa) = 106.61586 118.12645 45.11507
#
# Poissons Ratio (x) = 0.05632 0.27177
# Poissons Ratio (y) = 0.05083 0.12411
# Poissons Ratio (z) = 0.64226 0.32497
#
# Static dielectric constant tensor:
#      x y z
#    x 1.912070 0.086670 -0.024910 
#    y 0.086670 1.984540 -0.016390 
#    z -0.024910 -0.016390 1.845390 
# 
# From -- ./inp_files/187215.got.cif
#   From: 2010.05.17/outbox.cif.g08.bks.cpg/sg2_94_cif.got.tgz:187215.got - 2010.06.03 11:33:40.
