data_PCOD9045685
_publ_section_title
;
Structure prediction by ZEFSAII (Michael W. Deem and Ramdas Pophale) SiO2 
 PCOD9045685
Probable space group: P -1
;
_chemical_formula_sum "Si O2"
_cell_formula_units_Z 13
_cell_length_a 13.799503
_cell_length_b 14.209494
_cell_length_c 10.753231
_cell_angle_alpha 45.763008
_cell_angle_beta 43.970618
_cell_angle_gamma 20.148464
_cell_volume 502.124554
_symmetry_space_group_name_H-M "P -1"
_symmetry_group_IT_number 2
_symmetry_cell_setting 'triclinic'
loop_
_space_group_symop_operation_xyz
x,y,z
-x,-y,-z
loop_
_atom_site_type_symbol
_atom_site_label
_atom_site_fract_x
_atom_site_fract_y
_atom_site_fract_z
Si Si1 0.658324 0.867717 0.695978
Si Si2 0.800758 0.640190 0.173980
Si Si3 0.151516 0.002596 0.622164
Si Si4 0.758571 0.387362 0.391895
Si Si5 0.627561 0.144336 0.097697
Si Si6 0.000000 0.000000 0.000000
Si Si7 0.782853 0.341172 0.143155
O O1 0.685891 0.994370 0.508793
O O2 0.515958 0.877131 0.730045
O O3 0.973492 0.560196 0.734924
O O4 0.441141 0.055921 0.842401
O O5 0.654132 0.620314 0.304202
O O6 0.000000 0.500000 0.000000
O O7 0.968378 0.171703 0.507695
O O8 0.316367 0.727630 0.703402
O O9 0.937274 0.146342 0.801354
O O10 0.500000 0.500000 0.500000
O O11 0.917747 0.260794 0.226767
O O12 0.457944 0.353142 0.948995
O O13 0.660408 0.218716 0.109498
O O14 0.974654 0.851350 0.013281
#
# Coordination Sequence:
#
# PCOD9045685 Si02
#       7
#     2   2   2   2   2   1   2
#     4  11  23  41  62  95 129 168 215 265 319 380
#     4  11  23  38  62  95 135 170 206 257 322 389
#     4  10  24  41  66  96 132 171 221 270 321 379
#     4  11  21  38  65  97 131 168 213 263 317 383
#     4  11  24  43  69  94 129 169 214 263 323 387
#     4  10  24  46  68  94 126 172 222 272 322 380
#     4  11  23  42  65  97 131 170 209 260 324 387
#
# _framework density 25.889990999999998
#
# number of rings (size 3 to 8) (size 9 to 14) (size 15 to 20)
#    0.000    1.231    0.000    6.462    0.000   10.462 
#    0.000    0.000    0.000   10.154    0.000    0.000 
#    0.000    0.000    0.000    0.000    0.000    0.000 
#
# Total GULP energy -72521.997445 kJ/mol
# GULP energy per Si atom -5578.615188 kJ/mol
# Density = 2.583106 g / cm^3
# Si number density = 25.889991 Si / 1000 Ang^3
#
#
#
# Elastic Constant Matrix: (Units=GPa)
#
#
# Indices 1 2 3 4 5 6 
#
# 1 139.7951 22.9455 69.2116 -16.9437 -39.3149 -16.8147
# 2 22.9455 85.3361 9.4041 -4.4665 -4.1056 -2.3958
# 3 69.2116 9.4041 117.2149 -7.5776 -27.5281 -15.9151
# 4 -16.9437 -4.4665 -7.5776 28.8154 -0.9052 -3.7753
# 5 -39.3149 -4.1056 -27.5281 -0.9052 74.2884 10.1213
# 6 -16.8147 -2.3958 -15.9151 -3.7753 10.1213 28.7304
#
#
#
# Elastic Compliance Matrix: (Units=1/GPa)
#
#
# Indices 1 2 3 4 5 6 
#
# 1 0.012486 -0.002146 -0.005358 0.006191 0.004098 0.003530
# 2 -0.002146 0.012291 0.000259 0.000717 -0.000371 0.000137
# 3 -0.005358 0.000259 0.012500 0.000667 0.001352 0.003421
# 4 0.006191 0.000717 0.000667 0.039804 0.002924 0.008253
# 5 0.004098 -0.000371 0.001352 0.002924 0.016459 -0.002297
# 6 0.003530 0.000137 0.003421 0.008253 -0.002297 0.040673
#
#
# Mechanical properties :
#
#
# Convention : Reuss Voigt Hill
#
# Bulk Modulus (GPa) = 43.88802 60.60762 52.24782
# Shear Modulus (GPa) = 31.99008 42.41918 37.20463
#
# Velocity S-wave (km/s) = 3.51895 4.05216 3.79493
# Velocity P-wave (km/s) = 5.78785 6.73452 6.27905
#
# Compressibility (1/GPa) = 0.02278526
#
# Stress axis : x y z
#
# Youngs Moduli (GPa) = 80.08891 81.36354 80.00161
#
# Poissons Ratio (x) = 0.17465 0.42868
# Poissons Ratio (y) = 0.17191 -0.02075
# Poissons Ratio (z) = 0.42915 -0.02110
#
# Static dielectric constant tensor:
#      x y z
#    x 0.883730 -0.517970 0.040480 
#    y -0.517970 1.780930 0.040890 
#    z 0.040480 0.040890 2.113420 
# 
# From -- ./inp_files/454486.got.cif
#   From: 2010.05.17/outbox.cif.g08.bks.cpg/sg2_228_cif.got.tgz:454486.got - 2010.06.03 11:33:40.
