data_PCOD9045957
_publ_section_title
;
Structure prediction by ZEFSAII (Michael W. Deem and Ramdas Pophale) SiO2 
 PCOD9045957
Probable space group: P -1
;
_chemical_formula_sum "Si O2"
_cell_formula_units_Z 16
_cell_length_a 10.971681
_cell_length_b 9.620325
_cell_length_c 14.190695
_cell_angle_alpha 97.870794
_cell_angle_beta 30.177778
_cell_angle_gamma 83.275195
_cell_volume 657.179923
_symmetry_space_group_name_H-M "P -1"
_symmetry_group_IT_number 2
_symmetry_cell_setting 'triclinic'
loop_
_space_group_symop_operation_xyz
x,y,z
-x,-y,-z
loop_
_atom_site_type_symbol
_atom_site_label
_atom_site_fract_x
_atom_site_fract_y
_atom_site_fract_z
Si Si1 0.679096 0.478108 0.730822
Si Si2 0.498732 0.053090 0.347480
Si Si3 0.233677 0.226643 0.722765
Si Si4 0.051809 0.932955 0.352638
Si Si5 0.296028 0.759001 0.892788
Si Si6 0.055287 0.745799 0.630093
Si Si7 0.645745 0.638345 0.955576
Si Si8 0.375051 0.480671 0.678352
O O1 0.556029 0.641726 0.770177
O O2 0.913709 0.339551 0.500423
O O3 0.755982 0.507140 0.786541
O O4 0.430760 0.434312 0.909936
O O5 0.447774 0.155354 0.486863
O O6 0.669118 0.100449 0.165033
O O7 0.205809 0.094403 0.502731
O O8 0.645287 0.873584 0.271802
O O9 0.169748 0.407955 0.792182
O O10 0.982247 0.193136 0.860254
O O11 0.348976 0.779643 0.135651
O O12 0.000000 0.000000 0.500000
O O13 0.048372 0.069933 0.300502
O O14 0.274715 0.643684 0.816662
O O15 0.364397 0.656273 0.453439
O O16 0.858775 0.707242 0.824559
O O17 0.500000 0.500000 0.500000
#
# Coordination Sequence:
#
# PCOD9045957 Si02
#       8
#     2   2   2   2   2   2   2   2
#     4  10  24  42  65 101 131 171 228 287 332 402
#     4  11  25  45  68  94 139 175 222 286 329 401
#     4  11  23  46  67  99 134 175 228 271 341 402
#     4  12  25  46  66  98 139 180 227 281 336 401
#     4  11  24  41  72 100 129 177 222 272 343 404
#     4  11  24  45  67  97 136 180 225 278 346 403
#     4  11  24  43  69  95 132 181 228 276 340 403
#     4  11  23  44  68 101 137 171 217 285 338 395
#
# _framework density 24.346451999999999
#
# number of rings (size 3 to 8) (size 9 to 14) (size 15 to 20)
#    0.000    1.000    3.750    2.250    3.500    4.000 
#    4.500    0.000    0.000    0.000    0.000    0.000 
#    0.000    0.000    0.000    0.000    0.000    0.000 
#
# Total GULP energy -89572.024385 kJ/mol
# GULP energy per Si atom -5598.251524 kJ/mol
# Density = 2.429104 g / cm^3
# Si number density = 24.346452 Si / 1000 Ang^3
#
#
#
# Elastic Constant Matrix: (Units=GPa)
#
#
# Indices 1 2 3 4 5 6 
#
# 1 51.1841 17.2732 9.3835 -3.7943 -3.2713 1.4357
# 2 17.2732 109.7652 24.9843 -30.3003 1.6110 -1.0631
# 3 9.3835 24.9843 67.6676 -23.0131 -5.7590 7.0686
# 4 -3.7943 -30.3003 -23.0131 54.2294 0.2683 -7.0354
# 5 -3.2713 1.6110 -5.7590 0.2683 40.6299 -4.6371
# 6 1.4357 -1.0631 7.0686 -7.0354 -4.6371 25.9197
#
#
#
# Elastic Compliance Matrix: (Units=1/GPa)
#
#
# Indices 1 2 3 4 5 6 
#
# 1 0.021011 -0.003250 -0.001938 -0.001287 0.001457 -0.000857
# 2 -0.003250 0.011762 -0.002294 0.005726 -0.000783 0.002702
# 3 -0.001938 -0.002294 0.018434 0.006006 0.002166 -0.002996
# 4 -0.001287 0.005726 0.006006 0.024817 0.000994 0.005582
# 5 0.001457 -0.000783 0.002166 0.000994 0.025533 0.004134
# 6 -0.000857 0.002702 -0.002996 0.005582 0.004134 0.041811
#
#
# Mechanical properties :
#
#
# Convention : Reuss Voigt Hill
#
# Bulk Modulus (GPa) = 27.59102 36.87767 32.23434
# Shear Modulus (GPa) = 29.34055 35.95419 32.64737
#
# Velocity S-wave (km/s) = 3.47526 3.84705 3.66587
# Velocity P-wave (km/s) = 5.24028 5.90872 5.58451
#
# Compressibility (1/GPa) = 0.03624368
#
# Stress axis : x y z
#
# Youngs Moduli (GPa) = 47.59375 85.01868 54.24869
#
# Poissons Ratio (x) = 0.27633 0.10511
# Poissons Ratio (y) = 0.15469 0.12443
# Poissons Ratio (z) = 0.09222 0.19501
#
# Static dielectric constant tensor:
#      x y z
#    x 1.994780 0.044290 -0.014600 
#    y 0.044290 1.919230 -0.003130 
#    z -0.014600 -0.003130 1.958790 
# 
# From -- ./inp_files/84941.got.cif
#   From: 2010.05.17/outbox.cif.g08.bks.cpg/sg2_43_cif.got.tgz:84941.got - 2010.06.03 11:33:40.
