data_PCOD9045059
_publ_section_title
;
Structure prediction by ZEFSAII (Michael W. Deem and Ramdas Pophale) SiO2 
 PCOD9045059
Probable space group: P -1
;
_chemical_formula_sum "Si O2"
_cell_formula_units_Z 14
_cell_length_a 19.592309
_cell_length_b 7.505237
_cell_length_c 6.750048
_cell_angle_alpha 56.366922
_cell_angle_beta 47.547300
_cell_angle_gamma 76.117986
_cell_volume 595.085042
_symmetry_space_group_name_H-M "P -1"
_symmetry_group_IT_number 2
_symmetry_cell_setting 'triclinic'
loop_
_space_group_symop_operation_xyz
x,y,z
-x,-y,-z
loop_
_atom_site_type_symbol
_atom_site_label
_atom_site_fract_x
_atom_site_fract_y
_atom_site_fract_z
Si Si1 0.798808 0.206517 0.890199
Si Si2 0.511749 0.023855 0.227507
Si Si3 0.108150 0.567285 0.818596
Si Si4 0.036498 0.811243 0.153351
Si Si5 0.312034 0.157031 0.920376
Si Si6 0.831581 0.615377 0.829861
Si Si7 0.442818 0.617027 0.381028
O O1 0.827104 0.330975 0.550535
O O2 0.893534 0.137600 0.829558
O O3 0.776694 0.391669 0.968812
O O4 0.721448 0.992919 0.112971
O O5 0.500000 0.000000 0.500000
O O6 0.434912 0.835370 0.384791
O O7 0.513599 0.260669 0.982162
O O8 0.613884 0.956958 0.039369
O O9 0.099181 0.727436 0.917223
O O10 0.150219 0.389594 0.966290
O O11 0.000000 0.500000 0.000000
O O12 0.936996 0.653689 0.507618
O O13 0.000000 0.000000 0.000000
O O14 0.223728 0.190273 0.207632
O O15 0.359644 0.410165 0.618282
O O16 0.500000 0.500000 0.500000
#
# Coordination Sequence:
#
# PCOD9045059 Si02
#       7
#     2   2   2   2   2   2   2
#     4  11  24  43  64  97 138 183 236 291 343 395
#     4  10  23  48  78 105 137 182 227 277 355 436
#     4  11  20  40  67  84 129 189 237 284 332 399
#     4  11  23  40  62  92 130 192 242 277 340 409
#     4  11  26  41  70 109 137 179 225 289 352 412
#     4  11  24  42  62  98 138 180 237 287 341 402
#     4   9  22  48  73 104 141 173 224 281 344 437
#
# _framework density 23.526049
#
# number of rings (size 3 to 8) (size 9 to 14) (size 15 to 20)
#    0.000    1.429    2.857    1.714    6.000    3.429 
#    0.000    8.571    0.000    0.000    0.000    0.000 
#    0.000    0.000    0.000    0.000    0.000    0.000 
#
# Total GULP energy -78061.126067 kJ/mol
# GULP energy per Si atom -5575.794719 kJ/mol
# Density = 2.347250 g / cm^3
# Si number density = 23.526049 Si / 1000 Ang^3
#
#
#
# Elastic Constant Matrix: (Units=GPa)
#
#
# Indices 1 2 3 4 5 6 
#
# 1 113.2959 50.0890 43.9850 -7.4385 -0.2665 11.6417
# 2 50.0890 97.1469 27.2010 -8.1834 1.4553 10.1697
# 3 43.9850 27.2010 103.1067 -18.7830 28.0181 6.8190
# 4 -7.4385 -8.1834 -18.7830 39.7929 3.9277 -9.5923
# 5 -0.2665 1.4553 28.0181 3.9277 40.1998 -4.0154
# 6 11.6417 10.1697 6.8190 -9.5923 -4.0154 55.9230
#
#
#
# Elastic Compliance Matrix: (Units=1/GPa)
#
#
# Indices 1 2 3 4 5 6 
#
# 1 0.013485 -0.005444 -0.005820 -0.002058 0.004430 -0.001143
# 2 -0.005444 0.013575 -0.000983 0.001065 -0.000050 -0.001036
# 3 -0.005820 -0.000983 0.017487 0.008183 -0.013018 -0.000273
# 4 -0.002058 0.001065 0.008183 0.030588 -0.008356 0.003884
# 5 0.004430 -0.000050 -0.013018 -0.008356 0.034971 0.001752
# 6 -0.001143 -0.001036 -0.000273 0.003884 0.001752 0.019133
#
#
# Mechanical properties :
#
#
# Convention : Reuss Voigt Hill
#
# Bulk Modulus (GPa) = 49.86412 61.78882 55.82647
# Shear Modulus (GPa) = 31.16897 40.00144 35.58520
#
# Velocity S-wave (km/s) = 3.64383 4.12795 3.89342
# Velocity P-wave (km/s) = 6.24056 7.00293 6.63270
#
# Compressibility (1/GPa) = 0.02005450
#
# Stress axis : x y z
#
# Youngs Moduli (GPa) = 74.15533 73.66731 57.18603
#
# Poissons Ratio (x) = 0.40101 0.33281
# Poissons Ratio (y) = 0.40367 0.05620
# Poissons Ratio (z) = 0.43157 0.07239
#
# Static dielectric constant tensor:
#      x y z
#    x 2.066030 -0.055650 0.020000 
#    y -0.055650 1.962340 -0.039640 
#    z 0.020000 -0.039640 2.017650 
# 
# From -- ./inp_files/106207.got.cif
#   From: 2010.05.17/outbox.cif.g08.bks.cpg/sg2_54_cif.got.tgz:106207.got - 2010.06.03 11:33:40.
