data_PCOD9045175
_publ_section_title
;
Structure prediction by ZEFSAII (Michael W. Deem and Ramdas Pophale) SiO2 
 PCOD9045175
Probable space group: P -1
;
_chemical_formula_sum "Si O2"
_cell_formula_units_Z 16
_cell_length_a 9.870647
_cell_length_b 16.463491
_cell_length_c 7.892202
_cell_angle_alpha 91.847692
_cell_angle_beta 116.741295
_cell_angle_gamma 46.795683
_cell_volume 756.231240
_symmetry_space_group_name_H-M "P -1"
_symmetry_group_IT_number 2
_symmetry_cell_setting 'triclinic'
loop_
_space_group_symop_operation_xyz
x,y,z
-x,-y,-z
loop_
_atom_site_type_symbol
_atom_site_label
_atom_site_fract_x
_atom_site_fract_y
_atom_site_fract_z
Si Si1 0.621643 0.998616 0.264364
Si Si2 0.973612 0.364379 0.263321
Si Si3 0.483354 0.228961 0.593328
Si Si4 0.927808 0.789947 0.988531
Si Si5 0.768668 0.598056 0.264170
Si Si6 0.791842 0.014641 0.015165
Si Si7 0.871477 0.026246 0.598976
Si Si8 0.105334 0.272129 0.692020
O O1 0.654409 0.171364 0.530102
O O2 0.352409 0.108022 0.162178
O O3 0.762887 0.982366 0.496425
O O4 0.721049 0.869815 0.273124
O O5 0.236708 0.293702 0.400198
O O6 0.964445 0.296160 0.119057
O O7 0.948115 0.345670 0.442293
O O8 0.798277 0.510424 0.150252
O O9 0.431856 0.321735 0.703259
O O10 0.616718 0.109286 0.775916
O O11 0.951246 0.876481 0.033223
O O12 0.009681 0.711540 0.199467
O O13 0.778704 0.686091 0.204571
O O14 0.000000 0.500000 0.500000
O O15 0.675639 0.028253 0.125412
O O16 0.942482 0.031454 0.155930
O O17 0.000000 0.000000 0.500000
#
# Coordination Sequence:
#
# PCOD9045175 Si02
#       8
#     2   2   2   2   2   2   2   2
#     4  10  18  32  50  77 107 135 168 208 261 312
#     4  10  20  32  54  82 101 136 178 214 253 306
#     4  10  17  34  53  69 107 138 166 214 255 300
#     4  11  19  31  53  79 107 134 169 214 261 301
#     4   8  17  33  51  78 102 132 176 214 256 295
#     4  10  21  32  49  79 107 136 168 205 262 319
#     4  10  21  33  48  77 108 138 170 201 258 323
#     4   9  18  31  48  75 110 132 160 218 257 299
#
# _framework density 21.157548999999999
#
# number of rings (size 3 to 8) (size 9 to 14) (size 15 to 20)
#    0.000    2.500    1.250    4.875    1.750    1.500 
#    0.000    0.000    0.000    0.750    3.250   23.625 
#    0.000    0.000    0.000    0.000    0.000    0.000 
#
# Total GULP energy -89143.518015 kJ/mol
# GULP energy per Si atom -5571.469876 kJ/mol
# Density = 2.110939 g / cm^3
# Si number density = 21.157549 Si / 1000 Ang^3
#
#
#
# Elastic Constant Matrix: (Units=GPa)
#
#
# Indices 1 2 3 4 5 6 
#
# 1 52.5716 19.5081 21.7457 -0.6638 -8.1948 0.9784
# 2 19.5081 130.9317 38.6903 17.1792 -16.0506 0.7179
# 3 21.7457 38.6903 66.5494 29.2958 -6.5676 8.3388
# 4 -0.6638 17.1792 29.2958 30.9733 1.6345 0.0097
# 5 -8.1948 -16.0506 -6.5676 1.6345 27.7574 6.2357
# 6 0.9784 0.7179 8.3388 0.0097 6.2357 26.5681
#
#
#
# Elastic Compliance Matrix: (Units=1/GPa)
#
#
# Indices 1 2 3 4 5 6 
#
# 1 0.025911 -0.001328 -0.014446 0.014856 0.001877 0.003170
# 2 -0.001328 0.009811 -0.003968 -0.001952 0.004461 -0.000017
# 3 -0.014446 -0.003968 0.041231 -0.037557 0.008623 -0.014312
# 4 0.014856 -0.001952 -0.037557 0.069890 -0.012960 0.014310
# 5 0.001877 0.004461 0.008623 -0.012960 0.044985 -0.013450
# 6 0.003170 -0.000017 -0.014312 0.014310 -0.013450 0.045166
#
#
# Mechanical properties :
#
#
# Convention : Reuss Voigt Hill
#
# Bulk Modulus (GPa) = 26.68901 45.54900 36.11901
# Shear Modulus (GPa) = 17.30286 28.40034 22.85160
#
# Velocity S-wave (km/s) = 2.86284 3.66775 3.29000
# Velocity P-wave (km/s) = 4.85485 6.28584 5.61611
#
# Compressibility (1/GPa) = 0.03746860
#
# Stress axis : x y z
#
# Youngs Moduli (GPa) = 38.59334 101.92453 24.25343
#
# Poissons Ratio (x) = 0.13539 0.35037
# Poissons Ratio (y) = 0.05126 0.09624
# Poissons Ratio (z) = 0.55753 0.40444
#
# Static dielectric constant tensor:
#      x y z
#    x 1.844040 -0.006950 -0.013200 
#    y -0.006950 1.814540 0.033240 
#    z -0.013200 0.033240 1.811160 
# 
# From -- ./inp_files/317234.got.cif
#   From: 2010.05.17/outbox.cif.g08.bks.cpg/sg2_159_cif.got.tgz:317234.got - 2010.06.03 11:33:40.
