data_PCOD9045000
_publ_section_title
;
Structure prediction by ZEFSAII (Michael W. Deem and Ramdas Pophale) SiO2 
 PCOD9045000
Probable space group: P -1
;
_chemical_formula_sum "Si O2"
_cell_formula_units_Z 15
_cell_length_a 8.672780
_cell_length_b 19.422215
_cell_length_c 6.572016
_cell_angle_alpha 75.346428
_cell_angle_beta 119.749724
_cell_angle_gamma 135.618846
_cell_volume 662.743030
_symmetry_space_group_name_H-M "P -1"
_symmetry_group_IT_number 2
_symmetry_cell_setting 'triclinic'
loop_
_space_group_symop_operation_xyz
x,y,z
-x,-y,-z
loop_
_atom_site_type_symbol
_atom_site_label
_atom_site_fract_x
_atom_site_fract_y
_atom_site_fract_z
Si Si1 0.252910 0.602402 0.493755
Si Si2 0.000000 0.500000 0.000000
Si Si3 0.840008 0.882889 0.002263
Si Si4 0.928545 0.137802 0.177594
Si Si5 0.481132 0.044280 0.658104
Si Si6 0.540108 0.430801 0.006602
Si Si7 0.374414 0.790057 0.590991
Si Si8 0.090907 0.238425 0.603172
O O1 0.275916 0.691260 0.499359
O O2 0.000000 0.500000 0.500000
O O3 0.453306 0.616202 0.750688
O O4 0.224468 0.580921 0.253201
O O5 0.799112 0.491244 0.010423
O O6 0.547486 0.819459 0.875065
O O7 0.888891 0.858452 0.837628
O O8 0.912010 0.843059 0.244734
O O9 0.000000 0.000000 0.000000
O O10 0.087699 0.231193 0.362859
O O11 0.738110 0.043121 0.273768
O O12 0.736540 0.115770 0.902713
O O13 0.445550 0.114098 0.508180
O O14 0.500000 0.000000 0.500000
O O15 0.316395 0.341370 0.783902
O O16 0.500000 0.500000 0.000000
O O17 0.152751 0.781899 0.499780
#
# Coordination Sequence:
#
# PCOD9045000 Si02
#       8
#     2   1   2   2   2   2   2   2
#     4  10  23  48  72 107 144 184 238 305 368 440
#     4  10  24  48  76 110 140 188 252 294 370 458
#     4  12  27  45  70 104 150 193 245 305 359 438
#     4  11  24  44  70 103 144 192 248 291 362 434
#     4  11  22  45  70  99 147 193 242 296 360 431
#     4  11  25  50  77 107 152 192 238 313 379 443
#     4  12  24  46  74 101 151 190 237 311 366 430
#     4  12  25  46  72 109 144 190 247 299 372 439
#
# _framework density 22.633205
#
# number of rings (size 3 to 8) (size 9 to 14) (size 15 to 20)
#    0.000    0.800    4.000    3.200    3.733    2.667 
#    7.200    0.000    0.000    0.000    0.000    0.000 
#    0.000    0.000    0.000    0.000    0.000    0.000 
#
# Total GULP energy -83521.499307 kJ/mol
# GULP energy per Si atom -5568.099954 kJ/mol
# Density = 2.258169 g / cm^3
# Si number density = 22.633205 Si / 1000 Ang^3
#
#
#
# Elastic Constant Matrix: (Units=GPa)
#
#
# Indices 1 2 3 4 5 6 
#
# 1 121.5178 37.1349 66.5060 -2.5918 15.4827 -11.3320
# 2 37.1349 104.3309 48.0218 14.8452 -4.7985 -34.6164
# 3 66.5060 48.0218 173.0090 37.0419 14.3333 -26.7027
# 4 -2.5918 14.8452 37.0419 43.6688 -1.3592 2.8857
# 5 15.4827 -4.7985 14.3333 -1.3592 42.8764 7.0656
# 6 -11.3320 -34.6164 -26.7027 2.8857 7.0656 37.8998
#
#
#
# Elastic Compliance Matrix: (Units=1/GPa)
#
#
# Indices 1 2 3 4 5 6 
#
# 1 0.012797 -0.004579 -0.005762 0.007436 -0.002219 -0.004568
# 2 -0.004579 0.016993 0.001114 -0.008005 0.000378 0.015476
# 3 -0.005762 0.001114 0.011877 -0.011519 -0.003650 0.009221
# 4 0.007436 -0.008005 -0.011519 0.037075 0.004215 -0.016812
# 5 -0.002219 0.000378 -0.003650 0.004215 0.026875 -0.008221
# 6 -0.004568 0.015476 0.009221 -0.016812 -0.008221 0.048464
#
#
# Mechanical properties :
#
#
# Convention : Reuss Voigt Hill
#
# Bulk Modulus (GPa) = 43.07464 78.02033 60.54748
# Shear Modulus (GPa) = 27.73600 41.36868 34.55234
#
# Velocity S-wave (km/s) = 3.50445 4.27990 3.91144
# Velocity P-wave (km/s) = 5.95381 7.67918 6.87087
#
# Compressibility (1/GPa) = 0.02321552
#
# Stress axis : x y z
#
# Youngs Moduli (GPa) = 78.14254 58.84870 84.19415
#
# Poissons Ratio (x) = 0.26944 0.48510
# Poissons Ratio (y) = 0.35778 -0.09383
# Poissons Ratio (z) = 0.45023 -0.06558
#
# Static dielectric constant tensor:
#      x y z
#    x 1.881910 0.049570 0.052420 
#    y 0.049570 1.873290 0.027830 
#    z 0.052420 0.027830 1.941900 
# 
# From -- ./inp_files/47629.got.cif
#   From: 2010.05.17/outbox.cif.g08.bks.cpg/sg2_24_cif.got.tgz:47629.got - 2010.06.03 11:33:40.
