data_PCOD9045313
_publ_section_title
;
Structure prediction by ZEFSAII (Michael W. Deem and Ramdas Pophale) SiO2 
 PCOD9045313
Probable space group: P -1
;
_chemical_formula_sum "Si O2"
_cell_formula_units_Z 16
_cell_length_a 14.673864
_cell_length_b 10.133530
_cell_length_c 9.182658
_cell_angle_alpha 52.952446
_cell_angle_beta 39.859813
_cell_angle_gamma 58.880834
_cell_volume 694.517545
_symmetry_space_group_name_H-M "P -1"
_symmetry_group_IT_number 2
_symmetry_cell_setting 'triclinic'
loop_
_space_group_symop_operation_xyz
x,y,z
-x,-y,-z
loop_
_atom_site_type_symbol
_atom_site_label
_atom_site_fract_x
_atom_site_fract_y
_atom_site_fract_z
Si Si1 0.352407 0.730642 0.937735
Si Si2 0.969151 0.324556 0.722077
Si Si3 0.498277 0.383061 0.899378
Si Si4 0.260895 0.223666 0.949796
Si Si5 0.989404 0.323339 0.050312
Si Si6 0.316859 0.611836 0.612376
Si Si7 0.431381 0.875885 0.480268
Si Si8 0.246277 0.162700 0.343085
O O1 0.189018 0.708622 0.113588
O O2 0.386312 0.727464 0.069093
O O3 0.468889 0.574402 0.855345
O O4 0.396449 0.883789 0.688315
O O5 0.000000 0.500000 0.500000
O O6 0.984227 0.331750 0.874899
O O7 0.093883 0.195583 0.587039
O O8 0.565467 0.375646 0.662680
O O9 0.345148 0.313329 0.144854
O O10 0.126003 0.210863 0.018387
O O11 0.284606 0.421509 0.801672
O O12 0.405571 0.138489 0.759058
O O13 0.233442 0.154892 0.189585
O O14 0.000000 0.500000 0.000000
O O15 0.832848 0.283386 0.315974
O O16 0.372286 0.700772 0.625052
O O17 0.339295 0.010958 0.406747
#
# Coordination Sequence:
#
# PCOD9045313 Si02
#       8
#     2   2   2   2   2   2   2   2
#     4  11  25  43  69  97 129 172 221 268 327 386
#     4  12  24  43  68  96 136 170 212 273 328 391
#     4  11  24  41  69 102 124 170 224 270 321 391
#     4  11  23  42  68  98 129 175 218 275 320 385
#     4  10  24  39  68 101 125 166 221 268 326 380
#     4  11  21  42  69  94 129 166 225 271 316 391
#     4  12  24  44  66  94 134 177 218 273 326 388
#     4  12  27  42  65  99 135 173 217 268 339 387
#
# _framework density 23.037576000000001
#
# number of rings (size 3 to 8) (size 9 to 14) (size 15 to 20)
#    0.000    0.750    5.000    3.000    7.000    1.000 
#    0.000    0.625    0.000    0.000    0.000    0.000 
#    0.000    0.000    0.000    0.000    0.000    0.000 
#
# Total GULP energy -89466.846552 kJ/mol
# GULP energy per Si atom -5591.677910 kJ/mol
# Density = 2.298514 g / cm^3
# Si number density = 23.037576 Si / 1000 Ang^3
#
#
#
# Elastic Constant Matrix: (Units=GPa)
#
#
# Indices 1 2 3 4 5 6 
#
# 1 125.4871 33.7093 42.6319 8.2802 -2.9767 -44.2527
# 2 33.7093 75.0560 36.2417 15.8523 -3.3440 -31.1664
# 3 42.6319 36.2417 109.0352 19.1718 -3.9996 -19.6482
# 4 8.2802 15.8523 19.1718 40.2562 -15.9624 -9.3379
# 5 -2.9767 -3.3440 -3.9996 -15.9624 40.4772 2.0841
# 6 -44.2527 -31.1664 -19.6482 -9.3379 2.0841 45.9500
#
#
#
# Elastic Compliance Matrix: (Units=1/GPa)
#
#
# Indices 1 2 3 4 5 6 
#
# 1 0.013049 0.000248 -0.003383 0.001831 0.000769 0.011626
# 2 0.000248 0.021000 -0.004287 -0.003832 -0.000795 0.011907
# 3 -0.003383 -0.004287 0.012325 -0.004274 -0.000982 -0.001720
# 4 0.001831 -0.003832 -0.004274 0.033830 0.012549 0.003643
# 5 0.000769 -0.000795 -0.000982 0.012549 0.029497 0.000994
# 6 0.011626 0.011907 -0.001720 0.003643 0.000994 0.040995
#
#
# Mechanical properties :
#
#
# Convention : Reuss Voigt Hill
#
# Bulk Modulus (GPa) = 31.71630 59.41599 45.56614
# Shear Modulus (GPa) = 28.40123 38.46973 33.43548
#
# Velocity S-wave (km/s) = 3.51497 4.09084 3.81379
# Velocity P-wave (km/s) = 5.50185 6.93975 6.26221
#
# Compressibility (1/GPa) = 0.03152953
#
# Stress axis : x y z
#
# Youngs Moduli (GPa) = 76.63463 47.61884 81.13847
#
# Poissons Ratio (x) = -0.01181 0.27452
# Poissons Ratio (y) = -0.01901 0.34783
# Poissons Ratio (z) = 0.25928 0.20413
#
# Static dielectric constant tensor:
#      x y z
#    x 1.920700 0.014070 0.006310 
#    y 0.014070 1.931970 -0.027400 
#    z 0.006310 -0.027400 1.816600 
# 
# From -- ./inp_files/205618.got.cif
#   From: 2010.05.17/outbox.cif.g08.bks.cpg/sg2_103_cif.got.tgz:205618.got - 2010.06.03 11:33:40.
