data_PCOD9045177
_publ_section_title
;
Structure prediction by ZEFSAII (Michael W. Deem and Ramdas Pophale) SiO2 
 PCOD9045177
Probable space group: P -1
;
_chemical_formula_sum "Si O2"
_cell_formula_units_Z 14
_cell_length_a 6.708686
_cell_length_b 9.113478
_cell_length_c 9.662658
_cell_angle_alpha 96.078371
_cell_angle_beta 118.762370
_cell_angle_gamma 91.739844
_cell_volume 512.725344
_symmetry_space_group_name_H-M "P -1"
_symmetry_group_IT_number 2
_symmetry_cell_setting 'triclinic'
loop_
_space_group_symop_operation_xyz
x,y,z
-x,-y,-z
loop_
_atom_site_type_symbol
_atom_site_label
_atom_site_fract_x
_atom_site_fract_y
_atom_site_fract_z
Si Si1 0.555336 0.253288 0.654847
Si Si2 0.031793 0.594767 0.880308
Si Si3 0.429857 0.260910 0.310858
Si Si4 0.891060 0.029820 0.815671
Si Si5 0.152036 0.413360 0.643266
Si Si6 0.801193 0.870686 0.294451
Si Si7 0.562479 0.180607 0.046387
O O1 0.562865 0.291936 0.500339
O O2 0.791937 0.189932 0.775025
O O3 0.413869 0.387795 0.682396
O O4 0.376574 0.115696 0.639674
O O5 0.782383 0.640135 0.762740
O O6 0.130170 0.490645 0.788957
O O7 0.000000 0.500000 0.000000
O O8 0.211417 0.742085 0.942541
O O9 0.552910 0.246050 0.203334
O O10 0.308385 0.097326 0.275953
O O11 0.000000 0.000000 0.000000
O O12 0.042730 0.243292 0.596291
O O13 0.000000 0.500000 0.500000
O O14 0.942626 0.991663 0.262441
O O15 0.649494 0.780486 0.115235
O O16 0.500000 0.000000 0.000000
#
# Coordination Sequence:
#
# PCOD9045177 Si02
#       7
#     2   2   2   2   2   2   2
#     4  10  26  47  74 111 162 206 264 339 403 472
#     4  12  28  48  81 117 159 208 274 328 402 483
#     4  12  26  46  77 115 157 209 263 332 405 479
#     4  12  25  45  76 114 153 214 273 326 401 479
#     4  10  23  51  72 107 160 204 262 329 402 478
#     4  10  24  43  74 107 155 208 262 325 390 471
#     4  12  27  49  77 117 159 209 271 332 396 478
#
# _framework density 27.305067000000001
#
# number of rings (size 3 to 8) (size 9 to 14) (size 15 to 20)
#    0.857    0.000    2.857    3.000    2.000    5.143 
#    2.571    1.429    0.000    0.000    0.000    0.000 
#    0.000    0.000    0.000    0.000    0.000    0.000 
#
# Total GULP energy -78142.246430 kJ/mol
# GULP energy per Si atom -5581.589031 kJ/mol
# Density = 2.724292 g / cm^3
# Si number density = 27.305067 Si / 1000 Ang^3
#
#
#
# Elastic Constant Matrix: (Units=GPa)
#
#
# Indices 1 2 3 4 5 6 
#
# 1 168.5378 61.5890 58.7746 -16.1054 -18.1505 0.1512
# 2 61.5890 133.2874 54.5736 -34.2730 10.7710 -26.4281
# 3 58.7746 54.5736 157.1042 -30.4811 -34.4510 -25.0244
# 4 -16.1054 -34.2730 -30.4811 51.5576 -5.8680 -1.4310
# 5 -18.1505 10.7710 -34.4510 -5.8680 39.7213 -9.4711
# 6 0.1512 -26.4281 -25.0244 -1.4310 -9.4711 69.2986
#
#
#
# Elastic Compliance Matrix: (Units=1/GPa)
#
#
# Indices 1 2 3 4 5 6 
#
# 1 0.008119 -0.003906 -0.001347 -0.000542 0.003145 -0.001575
# 2 -0.003906 0.012938 -0.002979 0.004976 -0.006404 0.003094
# 3 -0.001347 -0.002979 0.013359 0.007277 0.014233 0.005786
# 4 -0.000542 0.004976 0.007277 0.028206 0.010440 0.006536
# 5 0.003145 -0.006404 0.014233 0.010440 0.044375 0.008971
# 6 -0.001575 0.003094 0.005786 0.006536 0.008971 0.019064
#
#
# Mechanical properties :
#
#
# Convention : Reuss Voigt Hill
#
# Bulk Modulus (GPa) = 55.70516 89.86710 72.78613
# Shear Modulus (GPa) = 33.66817 51.04830 42.35823
#
# Velocity S-wave (km/s) = 3.51527 4.32852 3.94292
# Velocity P-wave (km/s) = 6.07631 7.61349 6.88791
#
# Compressibility (1/GPa) = 0.01795166
#
# Stress axis : x y z
#
# Youngs Moduli (GPa) = 123.17175 77.29370 74.85761
#
# Poissons Ratio (x) = 0.30190 0.10083
# Poissons Ratio (y) = 0.48110 0.22299
# Poissons Ratio (z) = 0.16591 0.23024
#
# Static dielectric constant tensor:
#      x y z
#    x 1.315310 -0.110030 1.442110 
#    y -0.110030 2.283950 0.163080 
#    z 1.442110 0.163080 -0.230870 
# 
# From -- ./inp_files/159376.got.cif
#   From: 2010.05.17/outbox.cif.g08.bks.cpg/sg2_80_cif.got.tgz:159376.got - 2010.06.03 11:33:40.
