data_PCOD9045595
_publ_section_title
;
Structure prediction by ZEFSAII (Michael W. Deem and Ramdas Pophale) SiO2 
 PCOD9045595
Probable space group: P -1
;
_chemical_formula_sum "Si O2"
_cell_formula_units_Z 16
_cell_length_a 8.960864
_cell_length_b 7.362116
_cell_length_c 15.150924
_cell_angle_alpha 97.331756
_cell_angle_beta 142.699491
_cell_angle_gamma 75.435240
_cell_volume 581.753251
_symmetry_space_group_name_H-M "P -1"
_symmetry_group_IT_number 2
_symmetry_cell_setting 'triclinic'
loop_
_space_group_symop_operation_xyz
x,y,z
-x,-y,-z
loop_
_atom_site_type_symbol
_atom_site_label
_atom_site_fract_x
_atom_site_fract_y
_atom_site_fract_z
Si Si1 0.224812 0.206992 0.033947
Si Si2 0.489745 0.730251 0.426610
Si Si3 0.879978 0.220258 0.577533
Si Si4 0.585563 0.907995 0.711908
Si Si5 0.716506 0.129876 0.176053
Si Si6 0.672120 0.402467 0.823624
Si Si7 0.010424 0.315183 0.222917
Si Si8 0.241465 0.460800 0.748232
O O1 0.345800 0.053631 0.155022
O O2 0.416614 0.150780 0.038875
O O3 0.265722 0.409236 0.098614
O O4 0.923044 0.250186 0.897790
O O5 0.289146 0.715706 0.408351
O O6 0.492618 0.576761 0.342477
O O7 0.760249 0.709400 0.599523
O O8 0.430865 0.930831 0.359572
O O9 0.683693 0.143713 0.421004
O O10 0.020223 0.366148 0.608393
O O11 0.114192 0.051825 0.708922
O O12 0.824433 0.730983 0.788766
O O13 0.768925 0.318060 0.261791
O O14 0.848954 0.159855 0.148110
O O15 0.502664 0.353224 0.820286
O O16 0.814148 0.512017 0.169619
#
# Coordination Sequence:
#
# PCOD9045595 Si02
#       8
#     2   2   2   2   2   2   2   2
#     4  10  24  41  61  79 117 166 194 239 296 339
#     4  11  21  37  61  88 124 147 190 248 288 354
#     4  11  21  38  63  94 118 151 190 242 307 345
#     4  11  21  37  61  89 120 153 189 240 298 353
#     4   9  19  41  58  85 125 148 195 245 287 353
#     4  10  24  43  56  84 118 157 204 240 284 348
#     4   9  19  39  58  88 120 148 184 245 300 339
#     4   9  21  38  61  85 121 154 195 240 290 355
#
# _framework density 27.503067000000001
#
# number of rings (size 3 to 8) (size 9 to 14) (size 15 to 20)
#    0.750    1.250    2.500    0.750    5.250    3.500 
#    0.000    2.500    0.000    0.000    0.000    0.000 
#    0.000    0.000    0.000    0.000    0.000    0.000 
#
# Total GULP energy -89384.745236 kJ/mol
# GULP energy per Si atom -5586.546577 kJ/mol
# Density = 2.744047 g / cm^3
# Si number density = 27.503067 Si / 1000 Ang^3
#
#
#
# Elastic Constant Matrix: (Units=GPa)
#
#
# Indices 1 2 3 4 5 6 
#
# 1 132.5992 22.2946 64.4280 -20.4523 51.8519 0.7471
# 2 22.2946 93.5650 36.1145 -2.8776 21.1809 -0.5431
# 3 64.4280 36.1145 94.7717 -6.5956 30.5248 14.3761
# 4 -20.4523 -2.8776 -6.5956 41.0596 -0.7710 13.1063
# 5 51.8519 21.1809 30.5248 -0.7710 62.0807 2.0229
# 6 0.7471 -0.5431 14.3761 13.1063 2.0229 36.3110
#
#
#
# Elastic Compliance Matrix: (Units=1/GPa)
#
#
# Indices 1 2 3 4 5 6 
#
# 1 0.016045 0.001767 -0.008119 0.006237 -0.009974 0.001215
# 2 0.001767 0.013170 -0.005524 0.000050 -0.003335 0.002515
# 3 -0.008119 -0.005524 0.019756 0.001338 -0.000765 -0.008178
# 4 0.006237 0.000050 0.001338 0.031310 -0.005115 -0.011674
# 5 -0.009974 -0.003335 -0.000765 -0.005115 0.025861 0.000864
# 6 0.001215 0.002515 -0.008178 -0.011674 0.000864 0.034956
#
#
# Mechanical properties :
#
#
# Convention : Reuss Voigt Hill
#
# Bulk Modulus (GPa) = 39.65165 62.95669 51.30417
# Shear Modulus (GPa) = 28.85924 41.09683 34.97803
#
# Velocity S-wave (km/s) = 3.24282 3.86976 3.57008
# Velocity P-wave (km/s) = 5.33569 6.55036 5.97398
#
# Compressibility (1/GPa) = 0.02521963
#
# Stress axis : x y z
#
# Youngs Moduli (GPa) = 62.32664 75.93080 50.61725
#
# Poissons Ratio (x) = -0.13420 0.41095
# Poissons Ratio (y) = -0.11015 0.27962
# Poissons Ratio (z) = 0.50601 0.41945
#
# Static dielectric constant tensor:
#      x y z
#    x 2.192110 -0.041380 -0.009290 
#    y -0.041380 2.254120 -0.009170 
#    z -0.009290 -0.009170 2.103920 
# 
# From -- ./inp_files/557344.got.cif
#   From: 2010.05.17/outbox.cif.g08.bks.cpg/sg2_279_cif.got.tgz:557344.got - 2010.06.03 11:33:40.
