data_PCOD9045300
_publ_section_title
;
Structure prediction by ZEFSAII (Michael W. Deem and Ramdas Pophale) SiO2 
 PCOD9045300
Probable space group: P -1
;
_chemical_formula_sum "Si O2"
_cell_formula_units_Z 16
_cell_length_a 10.865524
_cell_length_b 11.656194
_cell_length_c 11.267869
_cell_angle_alpha 66.635977
_cell_angle_beta 145.255922
_cell_angle_gamma 114.237655
_cell_volume 736.783705
_symmetry_space_group_name_H-M "P -1"
_symmetry_group_IT_number 2
_symmetry_cell_setting 'triclinic'
loop_
_space_group_symop_operation_xyz
x,y,z
-x,-y,-z
loop_
_atom_site_type_symbol
_atom_site_label
_atom_site_fract_x
_atom_site_fract_y
_atom_site_fract_z
Si Si1 0.623350 0.620525 0.121351
Si Si2 0.975546 0.212656 0.556391
Si Si3 0.421324 0.325190 0.473176
Si Si4 0.953627 0.289042 0.235498
Si Si5 0.519896 0.851808 0.799279
Si Si6 0.319469 0.091154 0.337477
Si Si7 0.141743 0.971294 0.872875
Si Si8 0.618061 0.440864 0.806758
O O1 0.564698 0.602384 0.220860
O O2 0.884814 0.672309 0.305398
O O3 0.500000 0.500000 0.000000
O O4 0.528506 0.738344 0.943331
O O5 0.952309 0.259290 0.385359
O O6 0.732342 0.161870 0.431329
O O7 0.099429 0.090355 0.709103
O O8 0.421384 0.188029 0.478915
O O9 0.602852 0.369231 0.697294
O O10 0.409930 0.419736 0.315290
O O11 0.198674 0.324056 0.369300
O O12 0.855971 0.157824 0.144110
O O13 0.829884 0.404467 0.054246
O O14 0.671543 0.839532 0.811042
O O15 0.631843 0.980060 0.899910
O O16 0.500000 0.000000 0.500000
O O17 0.068172 0.046447 0.196521
#
# Coordination Sequence:
#
# PCOD9045300 Si02
#       8
#     2   2   2   2   2   2   2   2
#     4  11  24  43  67  93 130 171 217 273 332 392
#     4  11  22  42  62  97 131 169 215 271 325 395
#     4  10  24  42  65  94 132 170 223 272 321 383
#     4  11  22  40  66  97 130 174 216 264 333 388
#     4  11  23  42  63  96 130 171 218 264 329 390
#     4  11  22  42  67  94 134 175 216 269 328 391
#     4  10  24  39  66  95 135 172 217 271 323 390
#     4  11  22  43  66  94 129 172 222 272 321 390
#
# _framework density 21.716007999999999
#
# number of rings (size 3 to 8) (size 9 to 14) (size 15 to 20)
#    0.000    1.250    3.750    1.875    1.750    1.000 
#    0.000    1.250    0.000    0.000    0.000    0.000 
#    0.000    0.000    0.000    0.000    0.000    0.000 
#
# Total GULP energy -89257.842299 kJ/mol
# GULP energy per Si atom -5578.615144 kJ/mol
# Density = 2.166658 g / cm^3
# Si number density = 21.716008 Si / 1000 Ang^3
#
#
#
# Elastic Constant Matrix: (Units=GPa)
#
#
# Indices 1 2 3 4 5 6 
#
# 1 60.0270 17.7190 28.6582 -3.8764 -8.9304 18.5096
# 2 17.7190 66.5254 37.9864 13.8437 -2.8394 8.5378
# 3 28.6582 37.9864 85.5322 6.7550 -4.6403 1.5434
# 4 -3.8764 13.8437 6.7550 40.9305 8.3316 -11.5038
# 5 -8.9304 -2.8394 -4.6403 8.3316 27.3818 -7.1829
# 6 18.5096 8.5378 1.5434 -11.5038 -7.1829 23.6562
#
#
#
# Elastic Compliance Matrix: (Units=1/GPa)
#
#
# Indices 1 2 3 4 5 6 
#
# 1 0.027655 0.001492 -0.009123 -0.003209 0.002753 -0.022306
# 2 0.001492 0.024595 -0.010280 -0.010666 0.000783 -0.014322
# 3 -0.009123 -0.010280 0.019004 0.002330 0.001399 0.011167
# 4 -0.003209 -0.010666 0.002330 0.034631 -0.006790 0.020988
# 5 0.002753 0.000783 0.001399 -0.006790 0.041586 0.006797
# 6 -0.022306 -0.014322 0.011167 0.020988 0.006797 0.076436
#
#
# Mechanical properties :
#
#
# Convention : Reuss Voigt Hill
#
# Bulk Modulus (GPa) = 28.22315 42.31244 35.26779
# Shear Modulus (GPa) = 18.41343 26.90844 22.66093
#
# Velocity S-wave (km/s) = 2.91506 3.52391 3.23385
# Velocity P-wave (km/s) = 4.93506 6.00700 5.49722
#
# Compressibility (1/GPa) = 0.03543191
#
# Stress axis : x y z
#
# Youngs Moduli (GPa) = 36.15973 40.65814 52.62015
#
# Poissons Ratio (x) = -0.06065 0.48006
# Poissons Ratio (y) = -0.05394 0.54092
# Poissons Ratio (z) = 0.32989 0.41796
#
# Static dielectric constant tensor:
#      x y z
#    x 1.803410 0.008550 -0.003630 
#    y 0.008550 1.836890 0.008850 
#    z -0.003630 0.008850 1.835230 
# 
# From -- ./inp_files/70365.got.cif
#   From: 2010.05.17/outbox.cif.g08.bks.cpg/sg2_36_cif.got.tgz:70365.got - 2010.06.03 11:33:40.
