data_PCOD9045445
_publ_section_title
;
Structure prediction by ZEFSAII (Michael W. Deem and Ramdas Pophale) SiO2 
 PCOD9045445
Probable space group: P -1
;
_chemical_formula_sum "Si O2"
_cell_formula_units_Z 16
_cell_length_a 10.922415
_cell_length_b 18.558064
_cell_length_c 17.510561
_cell_angle_alpha 158.972551
_cell_angle_beta 151.211535
_cell_angle_gamma 31.331935
_cell_volume 599.767691
_symmetry_space_group_name_H-M "P -1"
_symmetry_group_IT_number 2
_symmetry_cell_setting 'triclinic'
loop_
_space_group_symop_operation_xyz
x,y,z
-x,-y,-z
loop_
_atom_site_type_symbol
_atom_site_label
_atom_site_fract_x
_atom_site_fract_y
_atom_site_fract_z
Si Si1 0.893143 0.929173 0.465750
Si Si2 0.651473 0.165699 0.714784
Si Si3 0.497448 0.226107 0.457011
Si Si4 0.707963 0.623215 0.966339
Si Si5 0.340460 0.918207 0.963430
Si Si6 0.149012 0.507859 0.788350
Si Si7 0.030587 0.306972 0.381167
Si Si8 0.240792 0.678951 0.523294
O O1 0.163715 0.788474 0.507355
O O2 0.806006 0.068924 0.630678
O O3 0.788118 0.097619 0.508111
O O4 0.711118 0.767853 0.184403
O O5 0.431677 0.371000 0.785123
O O6 0.500000 0.000000 0.500000
O O7 0.837824 0.255733 0.963673
O O8 0.525095 0.460477 0.707312
O O9 0.313318 0.187953 0.389556
O O10 0.377331 0.140092 0.231208
O O11 0.617361 0.768070 0.987407
O O12 0.000000 0.500000 0.000000
O O13 0.263854 0.853284 0.772885
O O14 0.147760 0.854473 0.859075
O O15 0.986041 0.434485 0.560923
O O16 0.009725 0.425498 0.702370
O O17 0.000000 0.500000 0.500000
O O18 0.500000 0.500000 0.500000
#
# Coordination Sequence:
#
# PCOD9045445 Si02
#       8
#     2   2   2   2   2   2   2   2
#     4  11  25  41  73 103 128 186 232 280 344 404
#     4  11  22  40  66  98 133 165 226 278 336 403
#     4  11  24  43  71 101 134 174 231 287 342 408
#     4  11  25  47  69  96 138 182 234 284 333 406
#     4  10  24  44  66 103 133 181 227 277 352 405
#     4  10  24  40  66  99 135 179 216 282 348 398
#     4  11  21  40  67  97 137 173 216 285 351 405
#     4  11  24  48  68  98 147 182 228 285 340 415
#
# _framework density 26.676995000000002
#
# number of rings (size 3 to 8) (size 9 to 14) (size 15 to 20)
#    0.000    1.250    3.750    1.125    3.500    3.000 
#    2.250    0.625    0.000    0.000    0.000    0.000 
#    0.000    0.000    0.000    0.000    0.000    0.000 
#
# Total GULP energy -89292.411126 kJ/mol
# GULP energy per Si atom -5580.775695 kJ/mol
# Density = 2.661628 g / cm^3
# Si number density = 26.676995 Si / 1000 Ang^3
#
#
#
# Elastic Constant Matrix: (Units=GPa)
#
#
# Indices 1 2 3 4 5 6 
#
# 1 18.7043 5.9310 23.7267 -1.9277 4.0684 10.6086
# 2 5.9310 131.0291 22.1481 -1.1033 -11.8342 -0.3648
# 3 23.7267 22.1481 239.2144 10.2461 -7.0035 11.5954
# 4 -1.9277 -1.1033 10.2461 44.3260 -0.0379 -11.5536
# 5 4.0684 -11.8342 -7.0035 -0.0379 34.2157 -6.3082
# 6 10.6086 -0.3648 11.5954 -11.5536 -6.3082 48.9539
#
#
#
# Elastic Compliance Matrix: (Units=1/GPa)
#
#
# Indices 1 2 3 4 5 6 
#
# 1 0.076032 -0.003663 -0.006845 0.000436 -0.014784 -0.016685
# 2 -0.003663 0.008185 -0.000390 0.000534 0.003468 0.001520
# 3 -0.006845 -0.000390 0.004998 -0.001412 0.001735 0.000187
# 4 0.000436 0.000534 -0.001412 0.024526 0.001007 0.006162
# 5 -0.014784 0.003468 0.001735 0.001007 0.033909 0.007426
# 6 -0.016685 0.001520 0.000187 0.006162 0.007426 0.026421
#
#
# Mechanical properties :
#
#
# Convention : Reuss Voigt Hill
#
# Bulk Modulus (GPa) = 14.83228 54.72883 34.78055
# Shear Modulus (GPa) = 22.90023 47.97524 35.43774
#
# Velocity S-wave (km/s) = 2.93307 4.24533 3.64868
# Velocity P-wave (km/s) = 4.12826 6.67760 5.55125
#
# Compressibility (1/GPa) = 0.06742051
#
# Stress axis : x y z
#
# Youngs Moduli (GPa) = 13.15241 122.16806 200.09716
#
# Poissons Ratio (x) = 0.44745 1.36965
# Poissons Ratio (y) = 0.04817 0.07796
# Poissons Ratio (z) = 0.09003 0.04760
#
# Static dielectric constant tensor:
#      x y z
#    x 1.685900 0.028710 -0.226280 
#    y 0.028710 2.240450 -0.034870 
#    z -0.226280 -0.034870 2.010410 
# 
# From -- ./inp_files/538900.got.cif
#   From: 2010.05.17/outbox.cif.g08.bks.cpg/sg2_270_cif.got.tgz:538900.got - 2010.06.03 11:33:40.
