data_PCOD9045178
_publ_section_title
;
Structure prediction by ZEFSAII (Michael W. Deem and Ramdas Pophale) SiO2 
 PCOD9045178
Probable space group: P -1
;
_chemical_formula_sum "Si O2"
_cell_formula_units_Z 16
_cell_length_a 14.321299
_cell_length_b 8.876557
_cell_length_c 9.152211
_cell_angle_alpha 56.273932
_cell_angle_beta 111.737183
_cell_angle_gamma 74.527828
_cell_volume 711.229819
_symmetry_space_group_name_H-M "P -1"
_symmetry_group_IT_number 2
_symmetry_cell_setting 'triclinic'
loop_
_space_group_symop_operation_xyz
x,y,z
-x,-y,-z
loop_
_atom_site_type_symbol
_atom_site_label
_atom_site_fract_x
_atom_site_fract_y
_atom_site_fract_z
Si Si1 0.110429 0.473842 0.750897
Si Si2 0.878245 0.223325 0.885238
Si Si3 0.861868 0.198507 0.240643
Si Si4 0.833893 0.645556 0.484005
Si Si5 0.520496 0.188597 0.400879
Si Si6 0.575572 0.383352 0.755042
Si Si7 0.633739 0.156931 0.175679
Si Si8 0.742745 0.040559 0.828177
O O1 0.163538 0.572818 0.831552
O O2 0.162801 0.431752 0.638722
O O3 0.957100 0.642277 0.565012
O O4 0.149929 0.229560 0.960813
O O5 0.858805 0.452254 0.712058
O O6 0.774592 0.217370 0.742075
O O7 0.877959 0.186739 0.079142
O O8 0.000000 0.000000 0.000000
O O9 0.747823 0.184161 0.225778
O O10 0.000000 0.000000 0.500000
O O11 0.708122 0.889921 0.325628
O O12 0.406214 0.432551 0.273558
O O13 0.558486 0.211932 0.250945
O O14 0.642119 0.097812 0.619688
O O15 0.500000 0.000000 0.500000
O O16 0.500000 0.500000 0.500000
O O17 0.682265 0.120932 0.911001
O O18 0.529306 0.333239 0.899804
#
# Coordination Sequence:
#
# PCOD9045178 Si02
#       8
#     2   2   2   2   2   2   2   2
#     4  11  23  43  66 106 150 187 233 282 351 451
#     4  12  25  42  71 105 153 196 233 281 359 445
#     4  12  26  42  71 108 151 192 234 285 355 443
#     4  11  24  41  69 106 149 188 232 281 361 448
#     4  11  29  48  74 105 137 184 260 314 357 415
#     4  10  23  51  72  94 135 190 245 307 357 418
#     4  12  25  47  75 104 146 189 235 306 368 420
#     4  11  24  46  73  99 146 193 231 298 368 423
#
# _framework density 22.496243
#
# number of rings (size 3 to 8) (size 9 to 14) (size 15 to 20)
#    0.000    0.750    5.000    1.125    8.750    0.500 
#    0.000    2.500    0.000    0.000    0.000    0.000 
#    0.000    0.000    0.000    0.000    0.000    0.000 
#
# Total GULP energy -89216.030584 kJ/mol
# GULP energy per Si atom -5576.001912 kJ/mol
# Density = 2.244504 g / cm^3
# Si number density = 22.496243 Si / 1000 Ang^3
#
#
#
# Elastic Constant Matrix: (Units=GPa)
#
#
# Indices 1 2 3 4 5 6 
#
# 1 72.5409 44.1787 29.1790 19.4744 -18.6141 5.4064
# 2 44.1787 155.0047 51.9420 5.8835 -15.8961 3.8379
# 3 29.1790 51.9420 110.1594 3.2686 -10.7087 3.8813
# 4 19.4744 5.8835 3.2686 42.0810 -0.2784 5.8270
# 5 -18.6141 -15.8961 -10.7087 -0.2784 33.4720 -4.4162
# 6 5.4064 3.8379 3.8813 5.8270 -4.4162 31.8501
#
#
#
# Elastic Compliance Matrix: (Units=1/GPa)
#
#
# Indices 1 2 3 4 5 6 
#
# 1 0.022417 -0.004115 -0.002789 -0.009533 0.009553 0.000099
# 2 -0.004115 0.008665 -0.002935 0.000932 0.000890 -0.000035
# 3 -0.002789 -0.002935 0.011252 0.000919 0.000579 -0.000632
# 4 -0.009533 0.000932 0.000919 0.028566 -0.004923 -0.004515
# 5 0.009553 0.000890 0.000579 -0.004923 0.036301 0.004135
# 6 0.000099 -0.000035 -0.000632 -0.004515 0.004135 0.032861
#
#
# Mechanical properties :
#
#
# Convention : Reuss Voigt Hill
#
# Bulk Modulus (GPa) = 44.14334 65.36715 54.75525
# Shear Modulus (GPa) = 29.88777 35.64098 32.76438
#
# Velocity S-wave (km/s) = 3.64891 3.98465 3.82047
# Velocity P-wave (km/s) = 6.11701 7.09154 6.62223
#
# Compressibility (1/GPa) = 0.02265347
#
# Stress axis : x y z
#
# Youngs Moduli (GPa) = 44.60961 115.40935 88.87356
#
# Poissons Ratio (x) = 0.47495 0.24789
# Poissons Ratio (y) = 0.18358 0.26088
# Poissons Ratio (z) = 0.12443 0.33877
#
# Static dielectric constant tensor:
#      x y z
#    x 1.539180 0.241820 0.360520 
#    y 0.241820 1.707830 -0.116330 
#    z 0.360520 -0.116330 1.829550 
# 
# From -- ./inp_files/297536.got.cif
#   From: 2010.05.17/outbox.cif.g08.bks.cpg/sg2_149_cif.got.tgz:297536.got - 2010.06.03 11:33:40.
