data_PCOD9045431
_publ_section_title
;
Structure prediction by ZEFSAII (Michael W. Deem and Ramdas Pophale) SiO2 
 PCOD9045431
Probable space group: P -1
;
_chemical_formula_sum "Si O2"
_cell_formula_units_Z 16
_cell_length_a 15.422230
_cell_length_b 9.198711
_cell_length_c 9.006796
_cell_angle_alpha 74.675778
_cell_angle_beta 49.833046
_cell_angle_gamma 101.648784
_cell_volume 812.652557
_symmetry_space_group_name_H-M "P -1"
_symmetry_group_IT_number 2
_symmetry_cell_setting 'triclinic'
loop_
_space_group_symop_operation_xyz
x,y,z
-x,-y,-z
loop_
_atom_site_type_symbol
_atom_site_label
_atom_site_fract_x
_atom_site_fract_y
_atom_site_fract_z
Si Si1 0.517786 0.763003 0.073540
Si Si2 0.529150 0.056906 0.200053
Si Si3 0.797768 0.821565 0.653950
Si Si4 0.291822 0.851553 0.738721
Si Si5 0.870349 0.511592 0.132907
Si Si6 0.050441 0.149498 0.236807
Si Si7 0.861876 0.958545 0.090275
Si Si8 0.725258 0.604271 0.496946
O O1 0.418830 0.564297 0.285954
O O2 0.523615 0.897378 0.155782
O O3 0.468112 0.809482 0.962757
O O4 0.661599 0.792510 0.875320
O O5 0.645859 0.130400 0.171956
O O6 0.400591 0.984227 0.466121
O O7 0.886263 0.800509 0.685736
O O8 0.769801 0.692062 0.584153
O O9 0.893887 0.022145 0.443671
O O10 0.238945 0.661149 0.781430
O O11 0.178602 0.900923 0.862487
O O12 0.816727 0.536558 0.342154
O O13 0.906047 0.680129 0.951668
O O14 0.000000 0.500000 0.000000
O O15 0.113478 0.048277 0.109480
O O16 0.748899 0.767313 0.323094
O O17 0.000000 0.000000 0.000000
#
# Coordination Sequence:
#
# PCOD9045431 Si02
#       8
#     2   2   2   2   2   2   2   2
#     4  11  23  43  63  95 125 172 208 258 319 378
#     4  10  24  40  66  89 134 167 205 259 320 380
#     4  11  23  41  67  88 130 165 211 262 319 371
#     4  11  22  43  64  96 127 165 212 258 317 373
#     4  11  25  41  67  93 128 164 210 261 311 381
#     4  10  24  42  63  96 124 162 216 265 312 374
#     4  11  21  41  69  92 124 168 210 260 316 373
#     4  11  23  41  65  95 121 163 219 253 311 381
#
# _framework density 19.688613
#
# number of rings (size 3 to 8) (size 9 to 14) (size 15 to 20)
#    0.000    1.250    2.500    3.375    3.500    0.000 
#    2.250    2.500    0.000    0.000    0.000    0.000 
#    0.000    0.000    0.000    0.000    0.000    0.000 
#
# Total GULP energy -89381.719453 kJ/mol
# GULP energy per Si atom -5586.357466 kJ/mol
# Density = 1.964380 g / cm^3
# Si number density = 19.688613 Si / 1000 Ang^3
#
#
#
# Elastic Constant Matrix: (Units=GPa)
#
#
# Indices 1 2 3 4 5 6 
#
# 1 54.8959 17.8218 19.6670 9.4088 -10.9665 7.9260
# 2 17.8218 74.8908 25.9279 9.8354 -13.1685 -1.0788
# 3 19.6670 25.9279 106.7831 -4.2282 -16.0616 -3.6862
# 4 9.4088 9.8354 -4.2282 40.8685 1.9425 0.6252
# 5 -10.9665 -13.1685 -16.0616 1.9425 26.3827 7.0219
# 6 7.9260 -1.0788 -3.6862 0.6252 7.0219 27.5116
#
#
#
# Elastic Compliance Matrix: (Units=1/GPa)
#
#
# Indices 1 2 3 4 5 6 
#
# 1 0.024547 -0.002399 -0.002963 -0.005716 0.010301 -0.010062
# 2 -0.002399 0.016461 -0.002840 -0.003977 0.005906 -0.000461
# 3 -0.002963 -0.002840 0.011296 0.002338 0.003722 0.001253
# 4 -0.005716 -0.003977 0.002338 0.027212 -0.005640 0.002625
# 5 0.010301 0.005906 0.003722 -0.005640 0.051902 -0.015356
# 6 -0.010062 -0.000461 0.001253 0.002625 -0.015356 0.043257
#
#
# Mechanical properties :
#
#
# Convention : Reuss Voigt Hill
#
# Bulk Modulus (GPa) = 27.85483 40.37815 34.11649
# Shear Modulus (GPa) = 24.62527 30.49610 27.56068
#
# Velocity S-wave (km/s) = 3.54041 3.93990 3.74549
# Velocity P-wave (km/s) = 5.55798 6.42262 6.00588
#
# Compressibility (1/GPa) = 0.03590042
#
# Stress axis : x y z
#
# Youngs Moduli (GPa) = 40.73833 60.75006 88.52886
#
# Poissons Ratio (x) = 0.14571 0.26229
# Poissons Ratio (y) = 0.09771 0.25144
# Poissons Ratio (z) = 0.12070 0.17254
#
# Static dielectric constant tensor:
#      x y z
#    x 1.687350 0.011340 0.011710 
#    y 0.011340 1.689190 -0.001720 
#    z 0.011710 -0.001720 1.714950 
# 
# From -- ./inp_files/209263.got.cif
#   From: 2010.05.17/outbox.cif.g08.bks.cpg/sg2_105_cif.got.tgz:209263.got - 2010.06.03 11:33:40.
