data_PCOD9045714
_publ_section_title
;
Structure prediction by ZEFSAII (Michael W. Deem and Ramdas Pophale) SiO2 
 PCOD9045714
Probable space group: P -1
;
_chemical_formula_sum "Si O2"
_cell_formula_units_Z 14
_cell_length_a 13.186439
_cell_length_b 11.339979
_cell_length_c 5.185052
_cell_angle_alpha 56.292390
_cell_angle_beta 82.125579
_cell_angle_gamma 110.791976
_cell_volume 544.546662
_symmetry_space_group_name_H-M "P -1"
_symmetry_group_IT_number 2
_symmetry_cell_setting 'triclinic'
loop_
_space_group_symop_operation_xyz
x,y,z
-x,-y,-z
loop_
_atom_site_type_symbol
_atom_site_label
_atom_site_fract_x
_atom_site_fract_y
_atom_site_fract_z
Si Si1 0.838323 0.795410 0.203449
Si Si2 0.594968 0.381662 0.035269
Si Si3 0.151978 0.704792 0.749652
Si Si4 0.579316 0.085280 0.619932
Si Si5 0.167763 0.520968 0.465417
Si Si6 0.001262 0.867057 0.473096
Si Si7 0.606888 0.638084 0.118710
O O1 0.885208 0.675424 0.223747
O O2 0.718521 0.735836 0.151503
O O3 0.867693 0.769791 0.519290
O O4 0.904192 0.996292 0.931370
O O5 0.603474 0.270559 0.383940
O O6 0.621084 0.545535 0.979159
O O7 0.695846 0.420082 0.741778
O O8 0.461907 0.278911 0.083790
O O9 0.284929 0.873291 0.508584
O O10 0.154818 0.605598 0.619810
O O11 0.057014 0.760423 0.668959
O O12 0.872605 0.409325 0.848385
O O13 0.500000 0.000000 0.500000
O O14 0.500000 0.000000 0.000000
O O15 0.000000 0.000000 0.500000
O O16 0.500000 0.500000 0.500000
#
# Coordination Sequence:
#
# PCOD9045714 Si02
#       7
#     2   2   2   2   2   2   2
#     4  11  26  48  77 105 150 197 255 314 366 450
#     4  10  24  41  67 114 147 185 242 308 373 446
#     4  11  27  49  75 108 151 194 255 310 380 446
#     4  11  24  42  69 104 147 193 239 298 371 449
#     4  11  24  48  79 107 145 190 251 316 368 445
#     4  11  30  51  72 108 153 201 251 312 377 451
#     4  11  23  42  76 108 144 193 246 306 383 435
#
# _framework density 25.709458999999999
#
# number of rings (size 3 to 8) (size 9 to 14) (size 15 to 20)
#    0.000    1.143    1.429    3.429   12.000    1.143 
#    0.000    0.000    0.000    0.000    0.000    0.000 
#    0.000    0.000    0.000    0.000    0.000    0.000 
#
# Total GULP energy -78146.583760 kJ/mol
# GULP energy per Si atom -5581.898840 kJ/mol
# Density = 2.565094 g / cm^3
# Si number density = 25.709459 Si / 1000 Ang^3
#
#
#
# Elastic Constant Matrix: (Units=GPa)
#
#
# Indices 1 2 3 4 5 6 
#
# 1 189.2219 78.0578 54.3140 4.8671 20.9711 25.5212
# 2 78.0578 151.3741 30.9409 24.8344 -13.8221 25.5007
# 3 54.3140 30.9409 111.3112 6.8238 0.0109 3.0780
# 4 4.8671 24.8344 6.8238 50.1781 3.2854 2.8583
# 5 20.9711 -13.8221 0.0109 3.2854 37.0778 -6.6992
# 6 25.5212 25.5007 3.0780 2.8583 -6.6992 58.2206
#
#
#
# Elastic Compliance Matrix: (Units=1/GPa)
#
#
# Indices 1 2 3 4 5 6 
#
# 1 0.009441 -0.004853 -0.003338 0.002621 -0.007899 -0.002874
# 2 -0.004853 0.010943 -0.000307 -0.005272 0.007005 -0.001585
# 3 -0.003338 -0.000307 0.010734 -0.001198 0.002117 0.001333
# 4 0.002621 -0.005272 -0.001198 0.022842 -0.005569 -0.000539
# 5 -0.007899 0.007005 0.002117 -0.005569 0.035378 0.004627
# 6 -0.002874 -0.001585 0.001333 -0.000539 0.004627 0.019618
#
#
# Mechanical properties :
#
#
# Convention : Reuss Voigt Hill
#
# Bulk Modulus (GPa) = 70.81593 86.50363 78.65978
# Shear Modulus (GPa) = 38.26715 48.33493 43.30104
#
# Velocity S-wave (km/s) = 3.86222 4.34065 4.10841
# Velocity P-wave (km/s) = 6.89155 7.67081 7.29160
#
# Compressibility (1/GPa) = 0.01412112
#
# Stress axis : x y z
#
# Youngs Moduli (GPa) = 105.92651 91.38281 93.15820
#
# Poissons Ratio (x) = 0.44348 0.31096
# Poissons Ratio (y) = 0.51406 0.02864
# Poissons Ratio (z) = 0.35358 0.02810
#
# Static dielectric constant tensor:
#      x y z
#    x 2.271790 0.273720 -0.439460 
#    y 0.273720 2.335660 -0.626790 
#    z -0.439460 -0.626790 3.610710 
# 
# From -- ./inp_files/69145.got.cif
#   From: 2010.05.17/outbox.cif.g08.bks.cpg/sg2_35_cif.got.tgz:69145.got - 2010.06.03 11:33:40.
