data_PCOD9045430
_publ_section_title
;
Structure prediction by ZEFSAII (Michael W. Deem and Ramdas Pophale) SiO2 
 PCOD9045430
Probable space group: P -1
;
_chemical_formula_sum "Si O2"
_cell_formula_units_Z 14
_cell_length_a 6.066175
_cell_length_b 12.949694
_cell_length_c 11.978299
_cell_angle_alpha 136.475416
_cell_angle_beta 111.099136
_cell_angle_gamma 73.499675
_cell_volume 604.174024
_symmetry_space_group_name_H-M "P -1"
_symmetry_group_IT_number 2
_symmetry_cell_setting 'triclinic'
loop_
_space_group_symop_operation_xyz
x,y,z
-x,-y,-z
loop_
_atom_site_type_symbol
_atom_site_label
_atom_site_fract_x
_atom_site_fract_y
_atom_site_fract_z
Si Si1 0.747060 0.999481 0.396317
Si Si2 0.503475 0.475737 0.346860
Si Si3 0.547603 0.259322 0.828992
Si Si4 0.996033 0.056981 0.822839
Si Si5 0.379314 0.159478 0.124541
Si Si6 0.669331 0.783263 0.577951
Si Si7 0.257329 0.497700 0.102919
O O1 0.622312 0.869820 0.338483
O O2 0.805058 0.948955 0.240978
O O3 0.566100 0.141420 0.463524
O O4 0.000000 0.000000 0.500000
O O5 0.500000 0.500000 0.500000
O O6 0.522286 0.294760 0.201245
O O7 0.679946 0.600591 0.427318
O O8 0.274067 0.507166 0.247937
O O9 0.781532 0.170213 0.841316
O O10 0.612305 0.367577 0.826642
O O11 0.411437 0.354048 0.974415
O O12 0.889474 0.889746 0.676016
O O13 0.117054 0.133094 0.010075
O O14 0.369568 0.191308 0.277928
O O15 0.500000 0.000000 0.000000
O O16 0.000000 0.500000 0.000000
#
# Coordination Sequence:
#
# PCOD9045430 Si02
#       7
#     2   2   2   2   2   2   2
#     4  11  24  39  65  96 137 178 226 283 345 403
#     4  10  24  43  68  99 139 178 224 291 348 409
#     4  10  24  40  66 107 129 182 233 281 343 416
#     4  11  23  43  69  99 133 179 231 287 337 417
#     4  11  21  44  72  93 132 182 230 280 344 418
#     4  10  24  42  66 100 135 178 229 279 354 407
#     4  11  23  43  72  99 142 179 231 286 345 417
#
# _framework density 23.172132999999999
#
# number of rings (size 3 to 8) (size 9 to 14) (size 15 to 20)
#    0.000    1.429    1.429    3.000    8.000    1.143 
#    0.000    0.714    0.000    0.000    0.000    0.000 
#    0.000    0.000    0.000    0.000    0.000    0.000 
#
# Total GULP energy -78086.496724 kJ/mol
# GULP energy per Si atom -5577.606909 kJ/mol
# Density = 2.311939 g / cm^3
# Si number density = 23.172133 Si / 1000 Ang^3
#
#
#
# Elastic Constant Matrix: (Units=GPa)
#
#
# Indices 1 2 3 4 5 6 
#
# 1 65.4358 37.9050 31.8205 12.1303 -1.2463 3.0454
# 2 37.9050 134.6023 72.0089 25.8084 17.6289 22.4026
# 3 31.8205 72.0089 121.7996 8.3976 14.5046 -0.7097
# 4 12.1303 25.8084 8.3976 71.4950 7.6660 7.7448
# 5 -1.2463 17.6289 14.5046 7.6660 15.6265 -2.8810
# 6 3.0454 22.4026 -0.7097 7.7448 -2.8810 25.2403
#
#
#
# Elastic Compliance Matrix: (Units=1/GPa)
#
#
# Indices 1 2 3 4 5 6 
#
# 1 0.021193 -0.006579 -0.003141 -0.003044 0.014589 0.005793
# 2 -0.006579 0.018524 -0.007182 -0.000945 -0.017530 -0.017561
# 3 -0.003141 -0.007182 0.013747 0.001307 -0.004399 0.006237
# 4 -0.003044 -0.000945 0.001307 0.016197 -0.009217 -0.004779
# 5 0.014589 -0.017530 -0.004399 -0.009217 0.098657 0.027764
# 6 0.005793 -0.017561 0.006237 -0.004779 0.027764 0.059317
#
#
# Mechanical properties :
#
#
# Convention : Reuss Voigt Hill
#
# Bulk Modulus (GPa) = 50.86581 67.25627 59.06104
# Shear Modulus (GPa) = 18.65713 34.47925 26.56819
#
# Velocity S-wave (km/s) = 2.84060 3.86160 3.38976
# Velocity P-wave (km/s) = 5.72343 6.99787 6.39249
#
# Compressibility (1/GPa) = 0.01965957
#
# Stress axis : x y z
#
# Youngs Moduli (GPa) = 47.18518 53.98318 72.74207
#
# Poissons Ratio (x) = 0.35517 0.22847
# Poissons Ratio (y) = 0.31044 0.52247
# Poissons Ratio (z) = 0.14820 0.38773
#
# Static dielectric constant tensor:
#      x y z
#    x 1.721080 0.302330 -0.322940 
#    y 0.302330 1.534580 0.389250 
#    z -0.322940 0.389250 1.532160 
# 
# From -- ./inp_files/71584.got.cif
#   From: 2010.05.17/outbox.cif.g08.bks.cpg/sg2_36_cif.got.tgz:71584.got - 2010.06.03 11:33:40.
