data_PCOD9045777
_publ_section_title
;
Structure prediction by ZEFSAII (Michael W. Deem and Ramdas Pophale) SiO2 
 PCOD9045777
Probable space group: P -1
;
_chemical_formula_sum "Si O2"
_cell_formula_units_Z 15
_cell_length_a 12.296693
_cell_length_b 8.558793
_cell_length_c 12.028115
_cell_angle_alpha 95.996320
_cell_angle_beta 35.936302
_cell_angle_gamma 74.179790
_cell_volume 584.349570
_symmetry_space_group_name_H-M "P -1"
_symmetry_group_IT_number 2
_symmetry_cell_setting 'triclinic'
loop_
_space_group_symop_operation_xyz
x,y,z
-x,-y,-z
loop_
_atom_site_type_symbol
_atom_site_label
_atom_site_fract_x
_atom_site_fract_y
_atom_site_fract_z
Si Si1 0.763380 0.056733 0.787192
Si Si2 0.088149 0.625531 0.413923
Si Si3 0.556415 0.691145 0.740421
Si Si4 0.855872 0.676981 0.295882
Si Si5 0.311658 0.260829 0.803897
Si Si6 0.828610 0.050792 0.411990
Si Si7 0.500000 0.500000 0.000000
Si Si8 0.145844 0.998510 0.977336
O O1 0.584763 0.121363 0.043681
O O2 0.618654 0.261934 0.857714
O O3 0.864370 0.845623 0.638949
O O4 0.008038 0.008771 0.621593
O O5 0.332423 0.500447 0.282827
O O6 0.235160 0.579282 0.179351
O O7 0.000000 0.500000 0.500000
O O8 0.751503 0.661909 0.496415
O O9 0.339153 0.772469 0.844185
O O10 0.690385 0.728306 0.328598
O O11 0.873777 0.854788 0.308361
O O12 0.095116 0.469386 0.047754
O O13 0.551232 0.200051 0.652532
O O14 0.270682 0.097782 0.854377
O O15 0.943664 0.126287 0.246061
O O16 0.000000 0.000000 0.000000
#
# Coordination Sequence:
#
# PCOD9045777 Si02
#       8
#     2   2   2   2   2   2   1   2
#     4  10  25  48  73 108 139 185 233 295 366 425
#     4  11  26  49  74 105 144 183 233 294 368 435
#     4  10  24  41  69 101 141 182 240 291 345 432
#     4  11  23  42  63 100 140 185 245 281 351 408
#     4  11  24  42  65  98 141 195 235 294 344 408
#     4  11  23  41  66  96 138 181 232 294 343 420
#     4  10  24  48  74 108 138 170 236 290 352 444
#     4  11  21  41  67  94 139 187 236 292 348 407
#
# _framework density 25.669567000000001
#
# number of rings (size 3 to 8) (size 9 to 14) (size 15 to 20)
#    0.000    1.333    2.667    1.600    5.600    5.333 
#    2.400    3.333    0.000    0.000    0.000    0.000 
#    0.000    0.000    0.000    0.000    0.000    0.000 
#
# Total GULP energy -83599.715293 kJ/mol
# GULP energy per Si atom -5573.314353 kJ/mol
# Density = 2.561114 g / cm^3
# Si number density = 25.669567 Si / 1000 Ang^3
#
#
#
# Elastic Constant Matrix: (Units=GPa)
#
#
# Indices 1 2 3 4 5 6 
#
# 1 95.7326 26.8923 38.7557 4.6039 -21.6149 -13.6750
# 2 26.8923 96.7144 70.0322 16.8125 3.1429 -9.8097
# 3 38.7557 70.0322 198.6188 13.7343 -8.6694 -0.3023
# 4 4.6039 16.8125 13.7343 56.0056 0.7040 -3.0889
# 5 -21.6149 3.1429 -8.6694 0.7040 52.3919 -0.6485
# 6 -13.6750 -9.8097 -0.3023 -3.0889 -0.6485 38.2957
#
#
#
# Elastic Compliance Matrix: (Units=1/GPa)
#
#
# Indices 1 2 3 4 5 6 
#
# 1 0.013628 -0.002424 -0.001567 0.000161 0.005560 0.004341
# 2 -0.002424 0.015438 -0.004871 -0.003055 -0.002657 0.002759
# 3 -0.001567 -0.004871 0.007108 -0.000259 0.000804 -0.001758
# 4 0.000161 -0.003055 -0.000259 0.018867 -0.000037 0.000794
# 5 0.005560 -0.002657 0.000804 -0.000037 0.021695 0.001676
# 6 0.004341 0.002759 -0.001758 0.000794 0.001676 0.028448
#
#
# Mechanical properties :
#
#
# Convention : Reuss Voigt Hill
#
# Bulk Modulus (GPa) = 54.19293 73.60292 63.89792
# Shear Modulus (GPa) = 38.74243 46.36434 42.55338
#
# Velocity S-wave (km/s) = 3.88915 4.25455 4.07595
# Velocity P-wave (km/s) = 6.42845 7.27120 6.86277
#
# Compressibility (1/GPa) = 0.01845259
#
# Stress axis : x y z
#
# Youngs Moduli (GPa) = 73.37579 64.77492 140.68089
#
# Poissons Ratio (x) = 0.15698 0.22039
# Poissons Ratio (y) = 0.17783 0.68526
# Poissons Ratio (z) = 0.11495 0.31552
#
# Static dielectric constant tensor:
#      x y z
#    x 2.262790 -0.056850 0.072240 
#    y -0.056850 1.896160 0.158400 
#    z 0.072240 0.158400 1.809140 
# 
# From -- ./inp_files/529867.got.cif
#   From: 2010.05.17/outbox.cif.g08.bks.cpg/sg2_265_cif.got.tgz:529867.got - 2010.06.03 11:33:40.
