data_PCOD9045581
_publ_section_title
;
Structure prediction by ZEFSAII (Michael W. Deem and Ramdas Pophale) SiO2 
 PCOD9045581
Probable space group: P -1
;
_chemical_formula_sum "Si O2"
_cell_formula_units_Z 13
_cell_length_a 4.867794
_cell_length_b 9.198936
_cell_length_c 14.542128
_cell_angle_alpha 121.767549
_cell_angle_beta 111.882058
_cell_angle_gamma 80.358118
_cell_volume 513.395629
_symmetry_space_group_name_H-M "P -1"
_symmetry_group_IT_number 2
_symmetry_cell_setting 'triclinic'
loop_
_space_group_symop_operation_xyz
x,y,z
-x,-y,-z
loop_
_atom_site_type_symbol
_atom_site_label
_atom_site_fract_x
_atom_site_fract_y
_atom_site_fract_z
Si Si1 0.547350 0.924618 0.380607
Si Si2 0.375383 0.444233 0.681360
Si Si3 0.927694 0.745218 0.741802
Si Si4 0.877865 0.966014 0.269014
Si Si5 0.567520 0.302728 0.963391
Si Si6 0.500000 0.500000 0.500000
Si Si7 0.777070 0.709006 0.907047
O O1 0.691838 0.741874 0.350305
O O2 0.765883 0.031228 0.375719
O O3 0.212483 0.905558 0.294634
O O4 0.500000 0.000000 0.500000
O O5 0.125235 0.577799 0.717761
O O6 0.407297 0.439464 0.573960
O O7 0.671344 0.521891 0.793115
O O8 0.656839 0.675638 0.622419
O O9 0.823532 0.807791 0.849500
O O10 0.114353 0.888224 0.758182
O O11 0.636636 0.817887 0.165702
O O12 0.500000 0.500000 0.000000
O O13 0.472056 0.247610 0.036767
O O14 0.918358 0.286597 0.997716
#
# Coordination Sequence:
#
# PCOD9045581 Si02
#       7
#     2   2   2   2   2   1   2
#     4  12  28  48  74 107 148 193 242 304 368 437
#     4  11  24  46  75 105 148 192 250 294 372 437
#     4  11  26  47  74 109 148 194 246 304 365 438
#     4  12  29  48  74 110 151 189 249 304 364 432
#     4  12  24  46  73 106 147 196 241 300 364 435
#     4  10  24  40  76 100 144 190 246 290 362 432
#     4  11  24  44  73 104 143 193 246 290 366 432
#
# _framework density 25.321603
#
# number of rings (size 3 to 8) (size 9 to 14) (size 15 to 20)
#    0.000    0.615    1.538    5.077   10.769    1.231 
#    0.000    0.000    0.000    0.000    0.000    0.000 
#    0.000    0.000    0.000    0.000    0.000    0.000 
#
# Total GULP energy -72597.361018 kJ/mol
# GULP energy per Si atom -5584.412386 kJ/mol
# Density = 2.526397 g / cm^3
# Si number density = 25.321603 Si / 1000 Ang^3
#
#
#
# Elastic Constant Matrix: (Units=GPa)
#
#
# Indices 1 2 3 4 5 6 
#
# 1 89.8349 45.6336 6.0765 -9.8840 -14.0925 12.3741
# 2 45.6336 94.8717 14.6281 10.9806 -10.6613 6.1720
# 3 6.0765 14.6281 82.8708 -20.9411 -8.9949 6.6736
# 4 -9.8840 10.9806 -20.9411 28.5100 15.9545 -8.2786
# 5 -14.0925 -10.6613 -8.9949 15.9545 35.1722 -9.8937
# 6 12.3741 6.1720 6.6736 -8.2786 -9.8937 42.8133
#
#
#
# Elastic Compliance Matrix: (Units=1/GPa)
#
#
# Indices 1 2 3 4 5 6 
#
# 1 0.017927 -0.010970 0.004102 0.013994 -0.002003 -0.001996
# 2 -0.010970 0.020958 -0.007655 -0.023593 0.010477 -0.000798
# 3 0.004102 -0.007655 0.017684 0.020353 -0.005431 -0.000158
# 4 0.013994 -0.023593 0.020353 0.083827 -0.033025 0.004762
# 5 -0.002003 0.010477 -0.005431 -0.033025 0.045536 0.004052
# 6 -0.001996 -0.000798 -0.000158 0.004762 0.004052 0.025931
#
#
# Mechanical properties :
#
#
# Convention : Reuss Voigt Hill
#
# Bulk Modulus (GPa) = 36.33662 44.47262 40.40462
# Shear Modulus (GPa) = 19.99328 34.71506 27.35417
#
# Velocity S-wave (km/s) = 2.81298 3.70667 3.29031
# Velocity P-wave (km/s) = 4.99317 5.99337 5.51599
#
# Compressibility (1/GPa) = 0.02752044
#
# Stress axis : x y z
#
# Youngs Moduli (GPa) = 55.78124 47.71535 56.54878
#
# Poissons Ratio (x) = 0.52346 -0.23194
# Poissons Ratio (y) = 0.61194 0.43290
# Poissons Ratio (z) = -0.22879 0.36528
#
# Static dielectric constant tensor:
#      x y z
#    x 1.994480 0.009850 -0.004690 
#    y 0.009850 2.026210 -0.063370 
#    z -0.004690 -0.063370 2.033140 
# 
# From -- ./inp_files/480863.got.cif
#   From: 2010.05.17/outbox.cif.g08.bks.cpg/sg2_241_cif.got.tgz:480863.got - 2010.06.03 11:33:40.
