data_PCOD9045567
_publ_section_title
;
Structure prediction by ZEFSAII (Michael W. Deem and Ramdas Pophale) SiO2 
 PCOD9045567
Probable space group: P -1
;
_chemical_formula_sum "Si O2"
_cell_formula_units_Z 15
_cell_length_a 9.126856
_cell_length_b 12.671269
_cell_length_c 8.965812
_cell_angle_alpha 130.472078
_cell_angle_beta 56.215569
_cell_angle_gamma 101.939637
_cell_volume 635.827713
_symmetry_space_group_name_H-M "P -1"
_symmetry_group_IT_number 2
_symmetry_cell_setting 'triclinic'
loop_
_space_group_symop_operation_xyz
x,y,z
-x,-y,-z
loop_
_atom_site_type_symbol
_atom_site_label
_atom_site_fract_x
_atom_site_fract_y
_atom_site_fract_z
Si Si1 0.893284 0.735180 0.180629
Si Si2 0.725556 0.268667 0.420773
Si Si3 0.307548 0.024541 0.713861
Si Si4 0.379184 0.349635 0.515409
Si Si5 0.500000 0.500000 0.000000
Si Si6 0.387321 0.229035 0.081103
Si Si7 0.063561 0.378595 0.234567
Si Si8 0.280095 0.651671 0.996554
O O1 0.825517 0.864355 0.219588
O O2 0.733872 0.714885 0.357477
O O3 0.951974 0.598776 0.910947
O O4 0.073157 0.733769 0.167801
O O5 0.590589 0.276209 0.362568
O O6 0.608908 0.396672 0.704963
O O7 0.923226 0.282404 0.269761
O O8 0.746598 0.122332 0.364719
O O9 0.500000 0.000000 0.500000
O O10 0.338205 0.086191 0.918824
O O11 0.320314 0.301578 0.343136
O O12 0.339030 0.520923 0.722782
O O13 0.333294 0.572011 0.048301
O O14 0.281251 0.328643 0.098230
O O15 0.594592 0.234976 0.970397
O O16 0.000000 0.500000 0.500000
#
# Coordination Sequence:
#
# PCOD9045567 Si02
#       8
#     2   2   2   2   1   2   2   2
#     4  11  25  43  69 102 145 180 236 293 350 418
#     4  11  24  44  75  97 146 180 234 284 363 408
#     4  11  24  49  69  98 144 193 232 284 348 430
#     4  11  23  42  69 104 139 182 232 307 345 404
#     4  10  24  40  74 104 126 178 230 288 356 406
#     4  11  25  42  68  99 142 183 239 284 350 422
#     4  11  24  41  71 105 136 184 233 293 352 419
#     4  11  23  42  70 102 143 181 237 295 358 398
#
# _framework density 23.591294999999999
#
# number of rings (size 3 to 8) (size 9 to 14) (size 15 to 20)
#    0.000    1.067    1.333    4.800   11.200    2.667 
#    0.000    4.000    0.000    0.000    0.000    0.000 
#    0.000    0.000    0.000    0.000    0.000    0.000 
#
# Total GULP energy -83533.771839 kJ/mol
# GULP energy per Si atom -5568.918123 kJ/mol
# Density = 2.353760 g / cm^3
# Si number density = 23.591295 Si / 1000 Ang^3
#
#
#
# Elastic Constant Matrix: (Units=GPa)
#
#
# Indices 1 2 3 4 5 6 
#
# 1 179.3908 51.4439 41.2959 -11.5985 -10.7051 -5.4697
# 2 51.4439 101.0762 1.5542 -8.4383 -13.7469 9.4398
# 3 41.2959 1.5542 45.8741 -5.6667 10.4061 -1.4417
# 4 -11.5985 -8.4383 -5.6667 26.3993 -7.3439 -1.3285
# 5 -10.7051 -13.7469 10.4061 -7.3439 44.4683 -8.1396
# 6 -5.4697 9.4398 -1.4417 -1.3285 -8.1396 34.3293
#
#
#
# Elastic Compliance Matrix: (Units=1/GPa)
#
#
# Indices 1 2 3 4 5 6 
#
# 1 0.009243 -0.004165 -0.008705 0.002116 0.003922 0.003264
# 2 -0.004165 0.012863 0.003132 0.003386 0.002174 -0.003423
# 3 -0.008705 0.003132 0.031609 0.001352 -0.008844 -0.002965
# 4 0.002116 0.003386 0.001352 0.042821 0.008903 0.003231
# 5 0.003922 0.002174 -0.008844 0.008903 0.028898 0.006852
# 6 0.003264 -0.003423 -0.002965 0.003231 0.006852 0.032216
#
#
# Mechanical properties :
#
#
# Convention : Reuss Voigt Hill
#
# Bulk Modulus (GPa) = 29.20768 57.21435 43.21101
# Shear Modulus (GPa) = 26.51921 36.50918 31.51420
#
# Velocity S-wave (km/s) = 3.35641 3.93818 3.65888
# Velocity P-wave (km/s) = 5.23720 6.70701 6.01715
#
# Compressibility (1/GPa) = 0.03423757
#
# Stress axis : x y z
#
# Youngs Moduli (GPa) = 108.18656 77.73970 31.63641
#
# Poissons Ratio (x) = 0.32382 0.27540
# Poissons Ratio (y) = 0.45065 -0.09907
# Poissons Ratio (z) = 0.94179 -0.24345
#
# Static dielectric constant tensor:
#      x y z
#    x 1.826580 0.009890 0.035100 
#    y 0.009890 2.135300 0.079840 
#    z 0.035100 0.079840 1.914650 
# 
# From -- ./inp_files/203964.got.cif
#   From: 2010.05.17/outbox.cif.g08.bks.cpg/sg2_102_cif.got.tgz:203964.got - 2010.06.03 11:33:40.
