data_PCOD9045662
_publ_section_title
;
Structure prediction by ZEFSAII (Michael W. Deem and Ramdas Pophale) SiO2 
 PCOD9045662
Probable space group: P -1
;
_chemical_formula_sum "Si O2"
_cell_formula_units_Z 16
_cell_length_a 14.003482
_cell_length_b 7.734693
_cell_length_c 16.228482
_cell_angle_alpha 125.886005
_cell_angle_beta 145.137218
_cell_angle_gamma 77.594510
_cell_volume 666.189198
_symmetry_space_group_name_H-M "P -1"
_symmetry_group_IT_number 2
_symmetry_cell_setting 'triclinic'
loop_
_space_group_symop_operation_xyz
x,y,z
-x,-y,-z
loop_
_atom_site_type_symbol
_atom_site_label
_atom_site_fract_x
_atom_site_fract_y
_atom_site_fract_z
Si Si1 0.570443 0.276589 0.089438
Si Si2 0.553947 0.402181 0.713448
Si Si3 0.966922 0.500146 0.330162
Si Si4 0.874804 0.995030 0.332652
Si Si5 0.265436 0.542563 0.312001
Si Si6 0.833113 0.752248 0.534356
Si Si7 0.625965 0.824801 0.767242
Si Si8 0.863895 0.424474 0.062343
O O1 0.737234 0.345321 0.157753
O O2 0.681092 0.513451 0.298484
O O3 0.362612 0.232791 0.898055
O O4 0.500000 0.000000 0.000000
O O5 0.621937 0.327073 0.658197
O O6 0.317424 0.197427 0.511884
O O7 0.586278 0.674434 0.783766
O O8 0.700775 0.442620 0.902408
O O9 0.099539 0.732370 0.554381
O O10 0.062681 0.335792 0.353845
O O11 0.964901 0.593088 0.263349
O O12 0.986012 0.033432 0.335839
O O13 0.000000 0.000000 0.500000
O O14 0.410941 0.707696 0.537156
O O15 0.259861 0.278920 0.232581
O O16 0.046255 0.485208 0.149190
O O17 0.750756 0.131650 0.936371
#
# Coordination Sequence:
#
# PCOD9045662 Si02
#       8
#     2   2   2   2   2   2   2   2
#     4  11  21  41  69  88 120 174 212 259 326 378
#     4  10  24  41  65  98 131 164 220 267 316 389
#     4  11  25  40  65  96 127 168 219 263 316 394
#     4  11  25  43  66  93 130 167 210 270 327 376
#     4   9  21  47  65  94 132 167 219 266 315 392
#     4  11  23  44  62  95 128 165 221 266 315 390
#     4   9  22  43  68  90 129 176 206 269 325 373
#     4  12  24  41  67  97 131 171 215 266 325 384
#
# _framework density 24.017199999999999
#
# number of rings (size 3 to 8) (size 9 to 14) (size 15 to 20)
#    0.750    0.750    2.500    2.250    5.250    2.500 
#    0.000    0.000    0.000    0.000    0.000    0.000 
#    0.000    0.000    0.000    0.000    0.000    0.000 
#
# Total GULP energy -89494.880052 kJ/mol
# GULP energy per Si atom -5593.430003 kJ/mol
# Density = 2.396254 g / cm^3
# Si number density = 24.017200 Si / 1000 Ang^3
#
#
#
# Elastic Constant Matrix: (Units=GPa)
#
#
# Indices 1 2 3 4 5 6 
#
# 1 100.6304 23.8190 39.7682 -18.7104 20.7565 10.9274
# 2 23.8190 64.2377 41.2031 -20.8594 -3.6963 8.3733
# 3 39.7682 41.2031 135.6943 -37.7849 15.5937 1.5724
# 4 -18.7104 -20.8594 -37.7849 49.2329 -8.7118 -11.3712
# 5 20.7565 -3.6963 15.5937 -8.7118 32.8134 -7.5969
# 6 10.9274 8.3733 1.5724 -11.3712 -7.5969 18.3259
#
#
#
# Elastic Compliance Matrix: (Units=1/GPa)
#
#
# Indices 1 2 3 4 5 6 
#
# 1 0.015760 -0.004164 -0.002650 -0.003769 -0.013720 -0.015294
# 2 -0.004164 0.022827 -0.005174 0.005692 0.009132 -0.000186
# 3 -0.002650 -0.005174 0.011777 0.007315 -0.000920 0.007091
# 4 -0.003769 0.005692 0.007315 0.036104 0.015590 0.027884
# 5 -0.013720 0.009132 -0.000920 0.015590 0.053035 0.035746
# 6 -0.015294 -0.000186 0.007091 0.027884 0.035746 0.095284
#
#
# Mechanical properties :
#
#
# Convention : Reuss Voigt Hill
#
# Bulk Modulus (GPa) = 37.89258 56.68257 47.28758
# Shear Modulus (GPa) = 18.68745 33.12593 25.90669
#
# Velocity S-wave (km/s) = 2.79245 3.71787 3.28788
# Velocity P-wave (km/s) = 5.11943 6.48707 5.84340
#
# Compressibility (1/GPa) = 0.02639039
#
# Stress axis : x y z
#
# Youngs Moduli (GPa) = 63.45081 43.80696 84.90773
#
# Poissons Ratio (x) = 0.18240 0.22501
# Poissons Ratio (y) = 0.26419 0.43928
# Poissons Ratio (z) = 0.16815 0.22664
#
# Static dielectric constant tensor:
#      x y z
#    x 1.942960 -0.065900 -0.015740 
#    y -0.065900 2.002270 0.034060 
#    z -0.015740 0.034060 1.883860 
# 
# From -- ./inp_files/572440.got.cif
#   From: 2010.05.17/outbox.cif.g08.bks.cpg/sg2_287_cif.got.tgz:572440.got - 2010.06.03 11:33:40.
