data_PCOD9045954
_publ_section_title
;
Structure prediction by ZEFSAII (Michael W. Deem and Ramdas Pophale) SiO2 
 PCOD9045954
Probable space group: P -1
;
_chemical_formula_sum "Si O2"
_cell_formula_units_Z 16
_cell_length_a 21.310250
_cell_length_b 5.142489
_cell_length_c 17.558482
_cell_angle_alpha 109.629868
_cell_angle_beta 159.628268
_cell_angle_gamma 71.488061
_cell_volume 630.882100
_symmetry_space_group_name_H-M "P -1"
_symmetry_group_IT_number 2
_symmetry_cell_setting 'triclinic'
loop_
_space_group_symop_operation_xyz
x,y,z
-x,-y,-z
loop_
_atom_site_type_symbol
_atom_site_label
_atom_site_fract_x
_atom_site_fract_y
_atom_site_fract_z
Si Si1 0.199077 0.389316 0.215280
Si Si2 0.395774 0.763757 0.587886
Si Si3 0.680929 0.186653 0.730669
Si Si4 0.022674 0.573126 0.445239
Si Si5 0.721156 0.051369 0.928062
Si Si6 0.119439 0.035408 0.402438
Si Si7 0.369195 0.459668 0.027637
Si Si8 0.358562 0.785904 0.786298
O O1 0.298522 0.503006 0.414316
O O2 0.294898 0.547292 0.268476
O O3 0.184581 0.061064 0.163005
O O4 0.000000 0.500000 0.000000
O O5 0.541443 0.871951 0.704043
O O6 0.246565 0.989289 0.468598
O O7 0.513561 0.670320 0.784453
O O8 0.717629 0.240080 0.866856
O O9 0.500000 0.000000 0.500000
O O10 0.074385 0.335761 0.417620
O O11 0.205588 0.741767 0.669443
O O12 0.000000 0.500000 0.500000
O O13 0.824451 0.689815 0.211343
O O14 0.687562 0.234449 0.982731
O O15 0.919675 0.916520 0.146715
O O16 0.234818 0.886479 0.584840
O O17 0.506010 0.455876 0.111804
O O18 0.500000 0.000000 0.000000
#
# Coordination Sequence:
#
# PCOD9045954 Si02
#       8
#     2   2   2   2   2   2   2   2
#     4  12  27  47  72 106 146 192 245 299 360 428
#     4  11  23  43  69  95 138 181 228 289 350 417
#     4  12  25  46  73 106 143 191 246 296 360 427
#     4  11  24  43  69  98 134 175 224 283 345 419
#     4  11  23  42  70  95 139 179 229 292 348 414
#     4  10  24  43  64 102 132 176 231 281 348 415
#     4  10  24  42  65 100 132 178 226 282 350 416
#     4  11  24  43  68  98 135 176 225 280 343 424
#
# _framework density 25.361315999999999
#
# number of rings (size 3 to 8) (size 9 to 14) (size 15 to 20)
#    0.000    1.000    1.250    4.500    1.750    8.000 
#    9.000    0.000    0.000    0.000    0.000    0.000 
#    0.000    0.000    0.000    0.000    0.000    0.000 
#
# Total GULP energy -89422.853243 kJ/mol
# GULP energy per Si atom -5588.928328 kJ/mol
# Density = 2.530359 g / cm^3
# Si number density = 25.361316 Si / 1000 Ang^3
#
#
#
# Elastic Constant Matrix: (Units=GPa)
#
#
# Indices 1 2 3 4 5 6 
#
# 1 119.3625 22.1514 66.4767 5.5019 9.6717 0.7009
# 2 22.1514 62.8044 18.6891 -2.8715 8.8130 -20.2815
# 3 66.4767 18.6891 184.6521 -12.9524 34.3364 -8.3280
# 4 5.5019 -2.8715 -12.9524 39.4097 0.0063 5.6748
# 5 9.6717 8.8130 34.3364 0.0063 40.8505 0.4861
# 6 0.7009 -20.2815 -8.3280 5.6748 0.4861 40.3084
#
#
#
# Elastic Compliance Matrix: (Units=1/GPa)
#
#
# Indices 1 2 3 4 5 6 
#
# 1 0.011616 -0.004070 -0.004460 -0.002985 0.001910 -0.002774
# 2 -0.004070 0.021316 0.000655 0.000771 -0.004315 0.010875
# 3 -0.004460 0.000655 0.008405 0.003179 -0.006172 0.001771
# 4 -0.002985 0.000771 0.003179 0.027284 -0.002103 -0.002719
# 5 0.001910 -0.004315 -0.006172 -0.002103 0.030189 -0.003547
# 6 -0.002774 0.010875 0.001771 -0.002719 -0.003547 0.031120
#
#
# Mechanical properties :
#
#
# Convention : Reuss Voigt Hill
#
# Bulk Modulus (GPa) = 39.08220 64.60593 51.84407
# Shear Modulus (GPa) = 32.42364 41.41384 36.91874
#
# Velocity S-wave (km/s) = 3.57945 4.04537 3.81952
# Velocity P-wave (km/s) = 5.70323 6.88110 6.31967
#
# Compressibility (1/GPa) = 0.02558709
#
# Stress axis : x y z
#
# Youngs Moduli (GPa) = 86.08834 46.91380 118.97247
#
# Poissons Ratio (x) = 0.19095 0.53056
# Poissons Ratio (y) = 0.35040 -0.07791
# Poissons Ratio (z) = 0.38391 -0.03072
#
# Static dielectric constant tensor:
#      x y z
#    x 2.065290 -0.071590 0.099210 
#    y -0.071590 2.112370 -0.039560 
#    z 0.099210 -0.039560 2.087930 
# 
# From -- ./inp_files/112462.got.cif
#   From: 2010.05.17/outbox.cif.g08.bks.cpg/sg2_57_cif.got.tgz:112462.got - 2010.06.03 11:33:40.
