data_PCOD9045225
_publ_section_title
;
Structure prediction by ZEFSAII (Michael W. Deem and Ramdas Pophale) SiO2 
 PCOD9045225
Probable space group: P -1
;
_chemical_formula_sum "Si O2"
_cell_formula_units_Z 16
_cell_length_a 16.940289
_cell_length_b 10.356864
_cell_length_c 5.211384
_cell_angle_alpha 90.965437
_cell_angle_beta 99.937605
_cell_angle_gamma 92.420567
_cell_volume 899.535686
_symmetry_space_group_name_H-M "P -1"
_symmetry_group_IT_number 2
_symmetry_cell_setting 'triclinic'
loop_
_space_group_symop_operation_xyz
x,y,z
-x,-y,-z
loop_
_atom_site_type_symbol
_atom_site_label
_atom_site_fract_x
_atom_site_fract_y
_atom_site_fract_z
Si Si1 0.668468 0.634375 0.534361
Si Si2 0.106398 0.651502 0.565503
Si Si3 0.805990 0.712774 0.940567
Si Si4 0.410666 0.451135 0.008923
Si Si5 0.042048 0.406837 0.223169
Si Si6 0.894868 0.947306 0.222619
Si Si7 0.079488 0.891552 0.253448
Si Si8 0.742112 0.460433 0.213863
O O1 0.735657 0.732727 0.694514
O O2 0.622960 0.647502 0.237883
O O3 0.721555 0.509668 0.491464
O O4 0.603814 0.605940 0.719436
O O5 0.084352 0.505303 0.453775
O O6 0.108512 0.751274 0.338029
O O7 0.191535 0.644229 0.750774
O O8 0.029784 0.680671 0.697099
O O9 0.888765 0.676457 0.853186
O O10 0.827498 0.835648 0.131364
O O11 0.777373 0.587627 0.087350
O O12 0.346465 0.564647 0.952674
O O13 0.500000 0.500000 0.000000
O O14 0.000000 0.500000 0.000000
O O15 0.982803 0.890128 0.226225
O O16 0.890906 0.009917 0.501839
O O17 0.892175 0.055142 0.002491
#
# Coordination Sequence:
#
# PCOD9045225 Si02
#       8
#     2   2   2   2   2   2   2   2
#     4   9  19  30  50  77 102 134 161 205 250 298
#     4  11  22  33  47  74 105 130 182 214 261 308
#     4  11  20  34  52  73 106 133 182 220 259 296
#     4   9  17  32  50  75 111 139 155 187 253 332
#     4  11  21  29  49  72  97 141 170 216 265 301
#     4  10  24  38  52  66  96 138 188 223 261 289
#     4  10  24  38  50  69  93 142 182 227 257 299
#     4   9  20  32  49  80 102 134 159 218 255 304
#
# _framework density 17.786954000000001
#
# number of rings (size 3 to 8) (size 9 to 14) (size 15 to 20)
#    0.750    1.250    2.500    1.125   10.500    0.000 
#    0.000    0.000    0.000    0.000    0.000    0.000 
#    0.000   14.000    0.000    0.000    0.000    0.000 
#
# Total GULP energy -89148.711159 kJ/mol
# GULP energy per Si atom -5571.794447 kJ/mol
# Density = 1.774647 g / cm^3
# Si number density = 17.786954 Si / 1000 Ang^3
#
#
#
# Elastic Constant Matrix: (Units=GPa)
#
#
# Indices 1 2 3 4 5 6 
#
# 1 96.9891 17.2660 17.5775 -0.6253 -0.2900 8.0236
# 2 17.2660 40.2478 6.7489 -2.8610 7.7776 2.5787
# 3 17.5775 6.7489 70.9431 1.6986 -3.8501 7.8397
# 4 -0.6253 -2.8610 1.6986 31.6455 0.1520 5.9735
# 5 -0.2900 7.7776 -3.8501 0.1520 26.2943 -0.2819
# 6 8.0236 2.5787 7.8397 5.9735 -0.2819 8.0984
#
#
#
# Elastic Compliance Matrix: (Units=1/GPa)
#
#
# Indices 1 2 3 4 5 6 
#
# 1 0.012258 -0.004406 -0.001414 0.001948 0.001105 -0.010771
# 2 -0.004406 0.029470 -0.001552 0.003982 -0.009088 -0.006769
# 3 -0.001414 -0.001552 0.016375 0.001809 0.002668 -0.015197
# 4 0.001948 0.003982 0.001809 0.038166 -0.001468 -0.033151
# 5 0.001105 -0.009088 0.002668 -0.001468 0.041149 0.001732
# 6 -0.010771 -0.006769 -0.015197 -0.033151 0.001732 0.175534
#
#
# Mechanical properties :
#
#
# Convention : Reuss Voigt Hill
#
# Bulk Modulus (GPa) = 23.06469 32.37389 27.71929
# Shear Modulus (GPa) = 14.61347 24.31347 19.46347
#
# Velocity S-wave (km/s) = 2.86944 3.70121 3.31154
# Velocity P-wave (km/s) = 4.89628 6.04199 5.49906
#
# Compressibility (1/GPa) = 0.04335631
#
# Stress axis : x y z
#
# Youngs Moduli (GPa) = 81.57878 33.93317 61.06936
#
# Poissons Ratio (x) = 0.14952 0.08638
# Poissons Ratio (y) = 0.35947 0.09480
# Poissons Ratio (z) = 0.11539 0.05267
#
# Static dielectric constant tensor:
#      x y z
#    x 1.643580 -0.006700 0.003140 
#    y -0.006700 1.613150 0.015730 
#    z 0.003140 0.015730 1.701210 
# 
# From -- ./inp_files/105180.got.cif
#   From: 2010.05.17/outbox.cif.g08.bks.cpg/sg2_53_cif.got.tgz:105180.got - 2010.06.03 11:33:40.
