data_PCOD9045254
_publ_section_title
;
Structure prediction by ZEFSAII (Michael W. Deem and Ramdas Pophale) SiO2 
 PCOD9045254
Probable space group: P -1
;
_chemical_formula_sum "Si O2"
_cell_formula_units_Z 14
_cell_length_a 18.327400
_cell_length_b 18.076464
_cell_length_c 12.088629
_cell_angle_alpha 151.290267
_cell_angle_beta 154.177143
_cell_angle_gamma 22.070864
_cell_volume 632.601466
_symmetry_space_group_name_H-M "P -1"
_symmetry_group_IT_number 2
_symmetry_cell_setting 'triclinic'
loop_
_space_group_symop_operation_xyz
x,y,z
-x,-y,-z
loop_
_atom_site_type_symbol
_atom_site_label
_atom_site_fract_x
_atom_site_fract_y
_atom_site_fract_z
Si Si1 0.363736 0.239194 0.633585
Si Si2 0.381939 0.040070 0.007981
Si Si3 0.209643 0.338816 0.792580
Si Si4 0.812898 0.281614 0.738853
Si Si5 0.913650 0.157677 0.475596
Si Si6 0.462346 0.525246 0.768469
Si Si7 0.256779 0.407070 0.463562
O O1 0.211113 0.305026 0.619159
O O2 0.272024 0.326420 0.500951
O O3 0.500000 0.000000 0.500000
O O4 0.484414 0.328542 0.943871
O O5 0.153073 0.087408 0.734691
O O6 0.312929 0.240552 0.234576
O O7 0.500000 0.000000 0.000000
O O8 0.560692 0.848803 0.081762
O O9 0.998547 0.385897 0.621993
O O10 0.169948 0.545703 0.020901
O O11 0.768025 0.253651 0.515139
O O12 0.638974 0.356902 0.698408
O O13 0.034738 0.048936 0.761305
O O14 0.775892 0.332792 0.428743
O O15 0.433173 0.435150 0.716482
#
# Coordination Sequence:
#
# PCOD9045254 Si02
#       7
#     2   2   2   2   2   2   2
#     4  11  25  48  75  96 136 185 241 284 337 408
#     4  12  26  41  69 107 144 180 226 284 349 414
#     4  11  25  44  73 100 136 190 231 281 348 407
#     4  10  24  38  66  99 138 178 230 272 339 416
#     4  11  24  40  68 102 144 179 230 276 342 419
#     4  11  26  44  70 102 140 180 227 288 352 397
#     4  12  25  47  70 103 141 182 231 289 343 406
#
# _framework density 22.130837
#
# number of rings (size 3 to 8) (size 9 to 14) (size 15 to 20)
#    0.000    0.857    2.857    3.000   14.000    1.143 
#    0.000    0.714    0.000    0.000    0.000    0.000 
#    0.000    0.000    0.000    0.000    0.000    0.000 
#
# Total GULP energy -78205.009579 kJ/mol
# GULP energy per Si atom -5586.072113 kJ/mol
# Density = 2.208047 g / cm^3
# Si number density = 22.130837 Si / 1000 Ang^3
#
#
#
# Elastic Constant Matrix: (Units=GPa)
#
#
# Indices 1 2 3 4 5 6 
#
# 1 114.2624 28.5836 32.2642 4.7700 -6.6306 -27.5191
# 2 28.5836 78.3604 26.7864 15.6541 -12.6685 -24.1013
# 3 32.2642 26.7864 64.5469 15.5299 -3.0118 -26.9587
# 4 4.7700 15.6541 15.5299 40.9710 -1.1687 -6.6773
# 5 -6.6306 -12.6685 -3.0118 -1.1687 35.4728 -2.7715
# 6 -27.5191 -24.1013 -26.9587 -6.6773 -2.7715 32.9872
#
#
#
# Elastic Compliance Matrix: (Units=1/GPa)
#
#
# Indices 1 2 3 4 5 6 
#
# 1 0.011540 -0.001007 -0.002507 0.001240 0.002194 0.007278
# 2 -0.001007 0.019348 -0.000955 -0.004715 0.007437 0.012186
# 3 -0.002507 -0.000955 0.026069 -0.006307 0.002560 0.017454
# 4 0.001240 -0.004715 -0.006307 0.028098 -0.001216 -0.001979
# 5 0.002194 0.007437 0.002560 -0.001216 0.032358 0.011828
# 6 0.007278 0.012186 0.017454 -0.001979 0.011828 0.060147
#
#
# Mechanical properties :
#
#
# Convention : Reuss Voigt Hill
#
# Bulk Modulus (GPa) = 20.82495 48.04870 34.43682
# Shear Modulus (GPa) = 24.69103 33.18855 28.93979
#
# Velocity S-wave (km/s) = 3.34381 3.87674 3.62009
# Velocity P-wave (km/s) = 4.93340 6.46507 5.75046
#
# Compressibility (1/GPa) = 0.04801933
#
# Stress axis : x y z
#
# Youngs Moduli (GPa) = 86.65569 51.68625 38.36037
#
# Poissons Ratio (x) = 0.05205 0.09615
# Poissons Ratio (y) = 0.08727 0.03662
# Poissons Ratio (z) = 0.21721 0.04934
#
# Static dielectric constant tensor:
#      x y z
#    x 1.827680 0.007950 0.022690 
#    y 0.007950 1.831070 -0.018170 
#    z 0.022690 -0.018170 1.835160 
# 
# From -- ./inp_files/84343.got.cif
#   From: 2010.05.17/outbox.cif.g08.bks.cpg/sg2_43_cif.got.tgz:84343.got - 2010.06.03 11:33:40.
