data_PCOD9045722
_publ_section_title
;
Structure prediction by ZEFSAII (Michael W. Deem and Ramdas Pophale) SiO2 
 PCOD9045722
Probable space group: P -1
;
_chemical_formula_sum "Si O2"
_cell_formula_units_Z 16
_cell_length_a 17.952195
_cell_length_b 7.220909
_cell_length_c 10.602331
_cell_angle_alpha 77.754248
_cell_angle_beta 149.570652
_cell_angle_gamma 112.447990
_cell_volume 622.879759
_symmetry_space_group_name_H-M "P -1"
_symmetry_group_IT_number 2
_symmetry_cell_setting 'triclinic'
loop_
_space_group_symop_operation_xyz
x,y,z
-x,-y,-z
loop_
_atom_site_type_symbol
_atom_site_label
_atom_site_fract_x
_atom_site_fract_y
_atom_site_fract_z
Si Si1 0.268163 0.018197 0.520233
Si Si2 0.274736 0.489013 0.238483
Si Si3 0.921153 0.921990 0.092996
Si Si4 0.402314 0.712198 0.140208
Si Si5 0.988240 0.348638 0.231871
Si Si6 0.678223 0.371739 0.432394
Si Si7 0.662155 0.908161 0.098372
Si Si8 0.130112 0.308531 0.690259
O O1 0.271971 0.822344 0.480284
O O2 0.089939 0.006598 0.255257
O O3 0.421119 0.215046 0.669642
O O4 0.302650 0.006307 0.721181
O O5 0.222774 0.247332 0.169088
O O6 0.106178 0.516194 0.970258
O O7 0.387257 0.624600 0.271870
O O8 0.338779 0.574803 0.456050
O O9 0.936745 0.799517 0.258968
O O10 0.895389 0.121091 0.073086
O O11 0.361065 0.914129 0.043584
O O12 0.274159 0.527172 0.898935
O O13 0.172236 0.441227 0.438265
O O14 0.004860 0.340105 0.408022
O O15 0.507064 0.291793 0.125437
O O16 0.797143 0.838115 0.252556
#
# Coordination Sequence:
#
# PCOD9045722 Si02
#       8
#     2   2   2   2   2   2   2   2
#     4  11  22  42  68 100 133 159 219 274 323 388
#     4  11  26  47  64  94 136 175 225 261 313 397
#     4  11  25  41  68 104 131 166 219 273 324 394
#     4  10  24  41  67  96 132 179 209 267 333 376
#     4  12  23  40  71  94 133 176 209 272 334 374
#     4  11  25  45  68  95 132 179 219 266 320 389
#     4  11  23  43  68 100 135 161 219 275 323 392
#     4  11  24  41  68 104 130 166 218 268 336 386
#
# _framework density 25.687138999999998
#
# number of rings (size 3 to 8) (size 9 to 14) (size 15 to 20)
#    0.000    1.000    2.500    4.500    3.500    4.500 
#    0.000    2.500    0.000    0.000    0.000    0.000 
#    0.000    0.000    0.000    0.000    0.000    0.000 
#
# Total GULP energy -89830.647026 kJ/mol
# GULP energy per Si atom -5614.415439 kJ/mol
# Density = 2.562867 g / cm^3
# Si number density = 25.687139 Si / 1000 Ang^3
#
#
#
# Elastic Constant Matrix: (Units=GPa)
#
#
# Indices 1 2 3 4 5 6 
#
# 1 101.1104 35.5159 23.3651 20.7855 -10.2333 17.5557
# 2 35.5159 119.4103 43.0381 31.3133 -10.5938 -0.8570
# 3 23.3651 43.0381 97.8714 16.0981 -10.2781 -5.0293
# 4 20.7855 31.3133 16.0981 41.5644 -3.9541 -0.0082
# 5 -10.2333 -10.5938 -10.2781 -3.9541 50.7525 13.8397
# 6 17.5557 -0.8570 -5.0293 -0.0082 13.8397 48.8215
#
#
#
# Elastic Compliance Matrix: (Units=1/GPa)
#
#
# Indices 1 2 3 4 5 6 
#
# 1 0.013142 -0.002030 -0.001527 -0.004150 0.003181 -0.005821
# 2 -0.002030 0.012098 -0.003649 -0.006613 0.000767 0.000348
# 3 -0.001527 -0.003649 0.012574 -0.001264 0.000967 0.001506
# 4 -0.004150 -0.006613 -0.001264 0.031570 -0.000384 0.001360
# 5 0.003181 0.000767 0.000967 -0.000384 0.022707 -0.007468
# 6 -0.005821 0.000348 0.001506 0.001360 -0.007468 0.024854
#
#
# Mechanical properties :
#
#
# Convention : Reuss Voigt Hill
#
# Bulk Modulus (GPa) = 42.73307 58.02561 50.37934
# Shear Modulus (GPa) = 35.93034 42.65921 39.29477
#
# Velocity S-wave (km/s) = 3.74407 4.07962 3.91544
# Velocity P-wave (km/s) = 5.94666 6.69548 6.33215
#
# Compressibility (1/GPa) = 0.02340108
#
# Stress axis : x y z
#
# Youngs Moduli (GPa) = 76.09325 82.65748 79.52982
#
# Poissons Ratio (x) = 0.16776 0.12147
# Poissons Ratio (y) = 0.15444 0.29024
# Poissons Ratio (z) = 0.11622 0.30165
#
# Static dielectric constant tensor:
#      x y z
#    x 1.996610 0.009610 0.022310 
#    y 0.009610 2.017230 -0.023490 
#    z 0.022310 -0.023490 1.989190 
# 
# From -- ./inp_files/328957.got.cif
#   From: 2010.05.17/outbox.cif.g08.bks.cpg/sg2_165_cif.got.tgz:328957.got - 2010.06.03 11:33:40.
