data_PCOD9045002
_publ_section_title
;
Structure prediction by ZEFSAII (Michael W. Deem and Ramdas Pophale) SiO2 
 PCOD9045002
Probable space group: P -1
;
_chemical_formula_sum "Si O2"
_cell_formula_units_Z 16
_cell_length_a 8.884146
_cell_length_b 20.542149
_cell_length_c 13.903845
_cell_angle_alpha 158.809037
_cell_angle_beta 111.701695
_cell_angle_gamma 57.006334
_cell_volume 685.059292
_symmetry_space_group_name_H-M "P -1"
_symmetry_group_IT_number 2
_symmetry_cell_setting 'triclinic'
loop_
_space_group_symop_operation_xyz
x,y,z
-x,-y,-z
loop_
_atom_site_type_symbol
_atom_site_label
_atom_site_fract_x
_atom_site_fract_y
_atom_site_fract_z
Si Si1 0.268951 0.194028 0.680747
Si Si2 0.577370 0.038936 0.973497
Si Si3 0.907576 0.308329 0.642131
Si Si4 0.610447 0.286439 0.661368
Si Si5 0.900553 0.877201 0.274384
Si Si6 0.751761 0.562904 0.355620
Si Si7 0.185830 0.752961 0.679541
Si Si8 0.205493 0.452023 0.440387
O O1 0.135555 0.215609 0.768117
O O2 0.146914 0.182682 0.546448
O O3 0.500000 0.000000 0.500000
O O4 0.221647 0.436326 0.997632
O O5 0.752808 0.779447 0.633979
O O6 0.646997 0.199153 0.215430
O O7 0.362893 0.198367 0.088978
O O8 0.500000 0.000000 0.000000
O O9 0.814646 0.210592 0.550108
O O10 0.848756 0.312909 0.523771
O O11 0.445450 0.359826 0.643208
O O12 0.685098 0.070371 0.444702
O O13 0.500000 0.500000 0.000000
O O14 0.000000 0.000000 0.500000
O O15 0.052391 0.666440 0.953210
O O16 0.722345 0.523679 0.404920
O O17 0.199452 0.602570 0.562908
O O18 0.000000 0.000000 0.000000
O O19 0.000000 0.500000 0.500000
#
# Coordination Sequence:
#
# PCOD9045002 Si02
#       8
#     2   2   2   2   2   2   2   2
#     4  11  26  49  76 110 151 192 247 311 392 453
#     4  10  23  48  72 108 148 201 256 309 382 452
#     4  11  26  47  75 108 155 191 247 318 379 452
#     4  12  24  46  77 113 147 197 256 316 384 461
#     4  12  25  46  76 110 144 196 256 307 386 457
#     4  11  26  45  78 107 156 197 253 325 378 454
#     4  12  27  48  75 111 156 205 261 316 382 460
#     4  11  26  48  75 109 152 205 260 310 385 455
#
# _framework density 23.355640999999999
#
# number of rings (size 3 to 8) (size 9 to 14) (size 15 to 20)
#    0.000    0.750    2.500    4.125    7.000    1.000 
#    4.500    0.000    0.000    0.000    0.000    0.000 
#    0.000    0.000    0.000    0.000    0.000    0.000 
#
# Total GULP energy -89262.404337 kJ/mol
# GULP energy per Si atom -5578.900271 kJ/mol
# Density = 2.330248 g / cm^3
# Si number density = 23.355641 Si / 1000 Ang^3
#
#
#
# Elastic Constant Matrix: (Units=GPa)
#
#
# Indices 1 2 3 4 5 6 
#
# 1 99.1188 37.0778 30.4321 -1.9880 -0.1135 1.9623
# 2 37.0778 166.0966 53.1962 3.0493 7.6526 1.4277
# 3 30.4321 53.1962 127.3635 18.8931 -13.1956 0.4545
# 4 -1.9880 3.0493 18.8931 46.3397 -2.9553 2.8363
# 5 -0.1135 7.6526 -13.1956 -2.9553 38.8468 12.3828
# 6 1.9623 1.4277 0.4545 2.8363 12.3828 52.1864
#
#
#
# Elastic Compliance Matrix: (Units=1/GPa)
#
#
# Indices 1 2 3 4 5 6 
#
# 1 0.011508 -0.001886 -0.002197 0.001534 -0.000090 -0.000424
# 2 -0.001886 0.007523 -0.003035 0.000463 -0.002640 0.000493
# 3 -0.002197 -0.003035 0.010659 -0.003934 0.004134 -0.000694
# 4 0.001534 0.000463 -0.003934 0.023364 0.000834 -0.001504
# 5 -0.000090 -0.002640 0.004134 0.000834 0.030001 -0.007124
# 6 -0.000424 0.000493 -0.000694 -0.001504 -0.007124 0.020943
#
#
# Mechanical properties :
#
#
# Convention : Reuss Voigt Hill
#
# Bulk Modulus (GPa) = 64.71472 70.44346 67.57909
# Shear Modulus (GPa) = 40.52359 45.59943 43.06151
#
# Velocity S-wave (km/s) = 4.16993 4.42338 4.29853
# Velocity P-wave (km/s) = 7.13814 7.50434 7.32353
#
# Compressibility (1/GPa) = 0.01545243
#
# Stress axis : x y z
#
# Youngs Moduli (GPa) = 86.89630 132.93287 93.81893
#
# Poissons Ratio (x) = 0.25065 0.20616
# Poissons Ratio (y) = 0.16385 0.28479
# Poissons Ratio (z) = 0.19095 0.40351
#
# Static dielectric constant tensor:
#      x y z
#    x 3.755840 0.062610 -0.136280 
#    y 0.062610 2.035040 -0.102500 
#    z -0.136280 -0.102500 2.018270 
# 
# From -- ./inp_files/508208.got.cif
#   From: 2010.05.17/outbox.cif.g08.bks.cpg/sg2_255_cif.got.tgz:508208.got - 2010.06.03 11:33:40.
