data_PCOD9045322
_publ_section_title
;
Structure prediction by ZEFSAII (Michael W. Deem and Ramdas Pophale) SiO2 
 PCOD9045322
Probable space group: P -1
;
_chemical_formula_sum "Si O2"
_cell_formula_units_Z 13
_cell_length_a 9.199403
_cell_length_b 15.570205
_cell_length_c 5.329481
_cell_angle_alpha 91.008422
_cell_angle_beta 122.117062
_cell_angle_gamma 124.705692
_cell_volume 471.943886
_symmetry_space_group_name_H-M "P -1"
_symmetry_group_IT_number 2
_symmetry_cell_setting 'triclinic'
loop_
_space_group_symop_operation_xyz
x,y,z
-x,-y,-z
loop_
_atom_site_type_symbol
_atom_site_label
_atom_site_fract_x
_atom_site_fract_y
_atom_site_fract_z
Si Si1 0.017296 0.756617 0.283234
Si Si2 0.765997 0.507994 0.873841
Si Si3 0.255247 0.286566 0.471406
Si Si4 0.232476 0.033759 0.112605
Si Si5 0.500000 0.000000 0.500000
Si Si6 0.437029 0.162737 0.793466
Si Si7 0.925735 0.398888 0.246261
O O1 0.905880 0.749640 0.439924
O O2 0.943895 0.629978 0.196725
O O3 0.858196 0.741459 0.908351
O O4 0.284371 0.873064 0.476541
O O5 0.498603 0.424071 0.705153
O O6 0.842500 0.558755 0.665133
O O7 0.802534 0.417466 0.919294
O O8 0.333291 0.213745 0.578542
O O9 0.286645 0.954229 0.096466
O O10 0.394777 0.078682 0.525678
O O11 0.306377 0.106925 0.933324
O O12 0.000000 0.000000 0.000000
O O13 0.712470 0.264093 0.104701
O O14 0.000000 0.500000 0.500000
#
# Coordination Sequence:
#
# PCOD9045322 Si02
#       7
#     2   2   2   2   1   2   2
#     4  12  27  46  69 106 147 194 244 309 372 439
#     4  10  24  42  68 104 143 187 242 305 378 442
#     4  11  25  45  75 106 144 191 245 304 380 450
#     4  12  27  50  76 108 146 199 248 308 368 435
#     4  12  30  48  78 108 152 196 260 300 368 444
#     4  11  25  45  75 103 147 187 246 303 370 442
#     4  10  24  39  70 104 140 188 241 303 382 453
#
# _framework density 27.545645
#
# number of rings (size 3 to 8) (size 9 to 14) (size 15 to 20)
#    0.000    0.923    0.000    5.077   15.077    3.692 
#    0.000    0.000    0.000    0.000    0.000    0.000 
#    0.000    0.000    0.000    0.000    0.000    0.000 
#
# Total GULP energy -72486.207321 kJ/mol
# GULP energy per Si atom -5575.862102 kJ/mol
# Density = 2.748295 g / cm^3
# Si number density = 27.545645 Si / 1000 Ang^3
#
#
#
# Elastic Constant Matrix: (Units=GPa)
#
#
# Indices 1 2 3 4 5 6 
#
# 1 165.8441 76.8558 61.5615 23.3592 6.0061 41.6329
# 2 76.8558 196.6362 65.4129 13.7626 1.3370 33.1829
# 3 61.5615 65.4129 128.4602 14.8935 -11.3915 23.9159
# 4 23.3592 13.7626 14.8935 58.1526 -14.5145 11.0778
# 5 6.0061 1.3370 -11.3915 -14.5145 59.7158 -11.0264
# 6 41.6329 33.1829 23.9159 11.0778 -11.0264 72.1675
#
#
#
# Elastic Compliance Matrix: (Units=1/GPa)
#
#
# Indices 1 2 3 4 5 6 
#
# 1 0.009301 -0.001914 -0.002756 -0.002569 -0.002706 -0.003591
# 2 -0.001914 0.006867 -0.002371 -0.000167 -0.000703 -0.001349
# 3 -0.002756 -0.002371 0.010638 -0.000429 0.002173 -0.000447
# 4 -0.002569 -0.000167 -0.000429 0.019701 0.004862 -0.000581
# 5 -0.002706 -0.000703 0.002173 0.004862 0.019250 0.003359
# 6 -0.003591 -0.001349 -0.000447 -0.000581 0.003359 0.017299
#
#
# Mechanical properties :
#
#
# Convention : Reuss Voigt Hill
#
# Bulk Modulus (GPa) = 78.59542 99.84454 89.21998
# Shear Modulus (GPa) = 49.31863 57.14786 53.23325
#
# Velocity S-wave (km/s) = 4.23594 4.55979 4.40084
# Velocity P-wave (km/s) = 7.24700 8.00299 7.63436
#
# Compressibility (1/GPa) = 0.01272339
#
# Stress axis : x y z
#
# Youngs Moduli (GPa) = 107.51109 145.63202 93.99951
#
# Poissons Ratio (x) = 0.27879 0.25908
# Poissons Ratio (y) = 0.20581 0.22287
# Poissons Ratio (z) = 0.29632 0.34528
#
# Static dielectric constant tensor:
#      x y z
#    x 2.796920 -0.289060 -0.129030 
#    y -0.289060 2.474520 -0.030120 
#    z -0.129030 -0.030120 2.454690 
# 
# From -- ./inp_files/44788.got.cif
#   From: 2010.05.17/outbox.cif.g08.bks.cpg/sg2_23_cif.got.tgz:44788.got - 2010.06.03 11:33:40.
