data_PCOD9045771
_publ_section_title
;
Structure prediction by ZEFSAII (Michael W. Deem and Ramdas Pophale) SiO2 
 PCOD9045771
Probable space group: P -1
;
_chemical_formula_sum "Si O2"
_cell_formula_units_Z 16
_cell_length_a 23.307512
_cell_length_b 5.340922
_cell_length_c 10.610008
_cell_angle_alpha 70.452911
_cell_angle_beta 147.515588
_cell_angle_gamma 102.621209
_cell_volume 663.145019
_symmetry_space_group_name_H-M "P -1"
_symmetry_group_IT_number 2
_symmetry_cell_setting 'triclinic'
loop_
_space_group_symop_operation_xyz
x,y,z
-x,-y,-z
loop_
_atom_site_type_symbol
_atom_site_label
_atom_site_fract_x
_atom_site_fract_y
_atom_site_fract_z
Si Si1 0.826210 0.525965 0.567177
Si Si2 0.397375 0.089264 0.624453
Si Si3 0.065418 0.137275 0.454142
Si Si4 0.585896 0.704704 0.098572
Si Si5 0.995611 0.709700 0.242211
Si Si6 0.196301 0.854679 0.207502
Si Si7 0.621569 0.563963 0.710266
Si Si8 0.258191 0.989551 0.019223
O O1 0.881874 0.787493 0.594253
O O2 0.701829 0.580406 0.284295
O O3 0.900219 0.318030 0.650835
O O4 0.835634 0.415079 0.744942
O O5 0.391139 0.179693 0.741322
O O6 0.366914 0.326194 0.429243
O O7 0.309665 0.889516 0.475349
O O8 0.517952 0.938467 0.851634
O O9 0.980205 0.397813 0.282268
O O10 0.021861 0.859029 0.394542
O O11 0.159052 0.124395 0.731574
O O12 0.500000 0.500000 0.000000
O O13 0.894175 0.899325 0.968487
O O14 0.217718 0.887418 0.094909
O O15 0.500000 0.500000 0.500000
O O16 0.691529 0.280279 0.911323
O O17 0.658742 0.797561 0.828367
#
# Coordination Sequence:
#
# PCOD9045771 Si02
#       8
#     2   2   2   2   2   2   2   2
#     4  10  24  41  68  99 135 175 228 276 336 399
#     4  10  25  40  65 101 131 178 224 276 341 395
#     4  10  25  44  66 101 134 173 232 271 345 391
#     4  11  22  41  66  96 134 176 220 278 334 405
#     4  10  25  43  71 101 132 182 223 283 337 396
#     4  11  23  46  68  98 140 174 229 279 336 405
#     4  11  25  43  70  96 137 179 230 274 337 399
#     4  11  25  46  67 101 134 183 222 285 332 404
#
# _framework density 24.12745
#
# number of rings (size 3 to 8) (size 9 to 14) (size 15 to 20)
#    0.750    0.750    1.250    2.250    5.250    5.500 
#    0.000    0.000    0.000    0.000    0.000    0.000 
#    0.000    0.000    0.000    0.000    0.000    0.000 
#
# Total GULP energy -89409.689239 kJ/mol
# GULP energy per Si atom -5588.105577 kJ/mol
# Density = 2.407253 g / cm^3
# Si number density = 24.127450 Si / 1000 Ang^3
#
#
#
# Elastic Constant Matrix: (Units=GPa)
#
#
# Indices 1 2 3 4 5 6 
#
# 1 52.5872 20.7727 4.5507 -0.2783 5.9538 13.3892
# 2 20.7727 93.5932 4.7610 6.3984 -6.6606 3.0949
# 3 4.5507 4.7610 96.3221 -11.7305 3.0196 -4.4566
# 4 -0.2783 6.3984 -11.7305 42.1036 -12.8565 2.9361
# 5 5.9538 -6.6606 3.0196 -12.8565 40.4008 -3.8620
# 6 13.3892 3.0949 -4.4566 2.9361 -3.8620 18.2353
#
#
#
# Elastic Compliance Matrix: (Units=1/GPa)
#
#
# Indices 1 2 3 4 5 6 
#
# 1 0.027668 -0.005838 -0.001791 -0.000074 -0.006958 -0.021224
# 2 -0.005838 0.012196 -0.000447 -0.001382 0.002743 0.002911
# 3 -0.001791 -0.000447 0.011014 0.003079 0.000704 0.003736
# 4 -0.000074 -0.001382 0.003079 0.027413 0.008118 -0.001653
# 5 -0.006958 0.002743 0.000704 0.008118 0.029697 0.009798
# 6 -0.021224 0.002911 0.003736 -0.001653 0.009798 0.073183
#
#
# Mechanical properties :
#
#
# Convention : Reuss Voigt Hill
#
# Bulk Modulus (GPa) = 28.79619 33.63015 31.21317
# Shear Modulus (GPa) = 23.93496 34.30916 29.12206
#
# Velocity S-wave (km/s) = 3.15306 3.77503 3.47797
# Velocity P-wave (km/s) = 5.02162 5.74194 5.39382
#
# Compressibility (1/GPa) = 0.03472682
#
# Stress axis : x y z
#
# Youngs Moduli (GPa) = 36.14225 81.99118 90.79078
#
# Poissons Ratio (x) = 0.47867 0.16265
# Poissons Ratio (y) = 0.21100 0.04055
# Poissons Ratio (z) = 0.06475 0.03662
#
# Static dielectric constant tensor:
#      x y z
#    x 1.972830 0.057200 0.019680 
#    y 0.057200 1.983830 -0.004590 
#    z 0.019680 -0.004590 1.917630 
# 
# From -- ./inp_files/476008.got.cif
#   From: 2010.05.17/outbox.cif.g08.bks.cpg/sg2_239_cif.got.tgz:476008.got - 2010.06.03 11:33:40.
