data_PCOD9045985
_publ_section_title
;
Structure prediction by ZEFSAII (Michael W. Deem and Ramdas Pophale) SiO2 
 PCOD9045985
Probable space group: P -1
;
_chemical_formula_sum "Si O2"
_cell_formula_units_Z 16
_cell_length_a 11.687262
_cell_length_b 9.007616
_cell_length_c 9.667327
_cell_angle_alpha 80.713826
_cell_angle_beta 55.320793
_cell_angle_gamma 59.465011
_cell_volume 709.043899
_symmetry_space_group_name_H-M "P -1"
_symmetry_group_IT_number 2
_symmetry_cell_setting 'triclinic'
loop_
_space_group_symop_operation_xyz
x,y,z
-x,-y,-z
loop_
_atom_site_type_symbol
_atom_site_label
_atom_site_fract_x
_atom_site_fract_y
_atom_site_fract_z
Si Si1 0.864780 0.936175 0.745753
Si Si2 0.972671 0.394426 0.846662
Si Si3 0.598502 0.178665 0.341681
Si Si4 0.323393 0.227115 0.043297
Si Si5 0.913035 0.173586 0.128727
Si Si6 0.332945 0.207174 0.722183
Si Si7 0.096359 0.736440 0.362781
Si Si8 0.566341 0.597281 0.844254
O O1 0.703296 0.928327 0.867540
O O2 0.967067 0.852477 0.826823
O O3 0.968920 0.821928 0.560958
O O4 0.842498 0.127412 0.725556
O O5 0.856099 0.597029 0.863834
O O6 0.987093 0.288026 0.712318
O O7 0.146036 0.345380 0.794688
O O8 0.886810 0.332400 0.026259
O O9 0.750227 0.187028 0.295147
O O10 0.451488 0.237898 0.539717
O O11 0.544489 0.296988 0.223810
O O12 0.649117 0.980701 0.295800
O O13 0.414896 0.272519 0.086806
O O14 0.378915 0.205222 0.850326
O O15 0.000000 0.000000 0.000000
O O16 0.254918 0.548644 0.310667
O O17 0.500000 0.500000 0.000000
#
# Coordination Sequence:
#
# PCOD9045985 Si02
#       8
#     2   2   2   2   2   2   2   2
#     4  11  23  41  70 101 126 171 236 277 321 384
#     4  11  22  41  71  95 135 174 225 271 334 396
#     4  11  25  43  67  99 137 181 215 275 352 390
#     4  11  25  42  70 100 130 177 226 278 330 400
#     4  12  21  42  72  92 128 179 223 273 326 405
#     4  11  24  42  66 104 136 170 226 284 331 397
#     4  10  24  42  65  98 134 176 225 271 330 401
#     4  11  27  46  66  94 142 183 213 273 347 407
#
# _framework density 22.565597
#
# number of rings (size 3 to 8) (size 9 to 14) (size 15 to 20)
#    0.000    1.000    3.750    1.875    5.250    2.500 
#    2.250    1.875    0.000    0.000    0.000    0.000 
#    0.000    0.000    0.000    0.000    0.000    0.000 
#
# Total GULP energy -89636.898766 kJ/mol
# GULP energy per Si atom -5602.306173 kJ/mol
# Density = 2.251424 g / cm^3
# Si number density = 22.565597 Si / 1000 Ang^3
#
#
#
# Elastic Constant Matrix: (Units=GPa)
#
#
# Indices 1 2 3 4 5 6 
#
# 1 68.9938 8.5868 16.3600 2.7417 -4.1007 29.1272
# 2 8.5868 77.3686 19.7590 2.1418 -3.5851 4.0083
# 3 16.3600 19.7590 85.2167 0.1885 -0.6680 20.8168
# 4 2.7417 2.1418 0.1885 29.8737 4.8489 -2.8379
# 5 -4.1007 -3.5851 -0.6680 4.8489 40.5239 3.2923
# 6 29.1272 4.0083 20.8168 -2.8379 3.2923 32.1220
#
#
#
# Elastic Compliance Matrix: (Units=1/GPa)
#
#
# Indices 1 2 3 4 5 6 
#
# 1 0.025283 -0.001547 0.001609 -0.005402 0.005107 -0.024777
# 2 -0.001547 0.013930 -0.003325 -0.000840 0.000988 0.001644
# 3 0.001609 -0.003325 0.014873 -0.001226 0.001147 -0.010909
# 4 -0.005402 -0.000840 -0.001226 0.035872 -0.005710 0.009552
# 5 0.005107 0.000988 0.001147 -0.005710 0.026693 -0.008738
# 6 -0.024777 0.001644 -0.010909 0.009552 -0.008738 0.062202
#
#
# Mechanical properties :
#
#
# Convention : Reuss Voigt Hill
#
# Bulk Modulus (GPa) = 21.02573 35.66564 28.34569
# Shear Modulus (GPa) = 24.84688 32.96213 28.90451
#
# Velocity S-wave (km/s) = 3.32188 3.82609 3.58286
# Velocity P-wave (km/s) = 4.90418 5.94628 5.45019
#
# Compressibility (1/GPa) = 0.04756078
#
# Stress axis : x y z
#
# Youngs Moduli (GPa) = 39.55194 71.78834 67.23466
#
# Poissons Ratio (x) = 0.11107 -0.10820
# Poissons Ratio (y) = 0.06120 0.22354
# Poissons Ratio (z) = -0.06365 0.23868
#
# Static dielectric constant tensor:
#      x y z
#    x 1.802940 -0.004310 -0.013870 
#    y -0.004310 1.842850 0.011460 
#    z -0.013870 0.011460 1.813320 
# 
# From -- ./inp_files/243416.got.cif
#   From: 2010.05.17/outbox.cif.g08.bks.cpg/sg2_122_cif.got.tgz:243416.got - 2010.06.03 11:33:40.
