data_PCOD9045534
_publ_section_title
;
Structure prediction by ZEFSAII (Michael W. Deem and Ramdas Pophale) SiO2 
 PCOD9045534
Probable space group: P -1
;
_chemical_formula_sum "Si O2"
_cell_formula_units_Z 10
_cell_length_a 6.593029
_cell_length_b 8.883015
_cell_length_c 8.851992
_cell_angle_alpha 66.041291
_cell_angle_beta 126.378191
_cell_angle_gamma 105.408562
_cell_volume 381.213543
_symmetry_space_group_name_H-M "P -1"
_symmetry_group_IT_number 2
_symmetry_cell_setting 'triclinic'
loop_
_space_group_symop_operation_xyz
x,y,z
-x,-y,-z
loop_
_atom_site_type_symbol
_atom_site_label
_atom_site_fract_x
_atom_site_fract_y
_atom_site_fract_z
Si Si1 0.782962 0.968705 0.576826
Si Si2 0.200796 0.358392 0.117804
Si Si3 0.560992 0.887855 0.213723
Si Si4 0.056002 0.773196 0.224956
Si Si5 0.343022 0.483897 0.594112
O O1 0.839453 0.780440 0.715413
O O2 0.739990 0.986486 0.372273
O O3 0.500000 0.000000 0.500000
O O4 0.953805 0.085306 0.711529
O O5 0.481671 0.431960 0.234169
O O6 0.000000 0.500000 0.000000
O O7 0.157862 0.268601 0.975340
O O8 0.296417 0.835367 0.202487
O O9 0.672647 0.709300 0.301498
O O10 0.500000 0.000000 0.000000
O O11 0.118619 0.602532 0.405243
O O12 0.500000 0.500000 0.500000
#
# Coordination Sequence:
#
# PCOD9045534 Si02
#       5
#     2   2   2   2   2
#     4  10  19  35  55  81 113 138 178 230 265 315
#     4  12  18  31  61  85 102 140 192 223 257 317
#     4  10  19  34  55  80 112 146 175 218 278 321
#     4  10  20  35  59  80 106 143 183 225 265 315
#     4  10  17  34  54  78 109 136 187 218 261 314
#
# _framework density 26.232016000000002
#
# number of rings (size 3 to 8) (size 9 to 14) (size 15 to 20)
#    0.000    1.600   10.000    0.600    0.000    0.000 
#    0.000    2.000    0.000    1.200    0.000    0.000 
#    0.000    0.000    0.000    0.000    0.000    0.000 
#
# Total GULP energy -56050.314941 kJ/mol
# GULP energy per Si atom -5605.031494 kJ/mol
# Density = 2.617231 g / cm^3
# Si number density = 26.232016 Si / 1000 Ang^3
#
#
#
# Elastic Constant Matrix: (Units=GPa)
#
#
# Indices 1 2 3 4 5 6 
#
# 1 64.7456 27.1830 37.8645 -4.5454 -13.8360 -10.7171
# 2 27.1830 163.7128 97.0351 8.2140 -19.5810 4.2575
# 3 37.8645 97.0351 229.7713 4.0141 -12.6346 -3.1942
# 4 -4.5454 8.2140 4.0141 94.2038 6.6912 2.3225
# 5 -13.8360 -19.5810 -12.6346 6.6912 34.9875 1.3306
# 6 -10.7171 4.2575 -3.1942 2.3225 1.3306 55.0639
#
#
#
# Elastic Compliance Matrix: (Units=1/GPa)
#
#
# Indices 1 2 3 4 5 6 
#
# 1 0.019171 -0.001270 -0.002266 0.000634 0.005797 0.003531
# 2 -0.001270 0.008762 -0.003303 -0.000899 0.003425 -0.001161
# 3 -0.002266 -0.003303 0.006094 -0.000047 -0.000542 0.000183
# 4 0.000634 -0.000899 -0.000047 0.010898 -0.002346 -0.000213
# 5 0.005797 0.003425 -0.000542 -0.002346 0.033038 0.000133
# 6 0.003531 -0.001161 0.000183 -0.000213 0.000133 0.018954
#
#
# Mechanical properties :
#
#
# Convention : Reuss Voigt Hill
#
# Bulk Modulus (GPa) = 49.14390 86.93275 68.03833
# Shear Modulus (GPa) = 42.59679 56.59417 49.59548
#
# Velocity S-wave (km/s) = 4.03407 4.64987 4.35287
# Velocity P-wave (km/s) = 6.36186 7.87657 7.15938
#
# Compressibility (1/GPa) = 0.02034840
#
# Stress axis : x y z
#
# Youngs Moduli (GPa) = 52.16099 114.13112 164.09499
#
# Poissons Ratio (x) = 0.14500 0.37184
# Poissons Ratio (y) = 0.06627 0.54200
# Poissons Ratio (z) = 0.11820 0.37697
#
# Static dielectric constant tensor:
#      x y z
#    x 2.747280 0.287070 -0.003900 
#    y 0.287070 2.119580 0.027120 
#    z -0.003900 0.027120 1.966570 
# 
# From -- ./inp_files/144236.got.cif
#   From: 2010.05.17/outbox.cif.g08.bks.cpg/sg2_73_cif.got.tgz:144236.got - 2010.06.03 11:33:40.
