data_PCOD9045843
_publ_section_title
;
Structure prediction by ZEFSAII (Michael W. Deem and Ramdas Pophale) SiO2 
 PCOD9045843
Probable space group: P -1
;
_chemical_formula_sum "Si O2"
_cell_formula_units_Z 10
_cell_length_a 6.907052
_cell_length_b 9.063370
_cell_length_c 11.709885
_cell_angle_alpha 142.990213
_cell_angle_beta 76.053726
_cell_angle_gamma 88.424684
_cell_volume 396.744233
_symmetry_space_group_name_H-M "P -1"
_symmetry_group_IT_number 2
_symmetry_cell_setting 'triclinic'
loop_
_space_group_symop_operation_xyz
x,y,z
-x,-y,-z
loop_
_atom_site_type_symbol
_atom_site_label
_atom_site_fract_x
_atom_site_fract_y
_atom_site_fract_z
Si Si1 0.371433 0.775673 0.505836
Si Si2 0.864534 0.406726 0.868749
Si Si3 0.350183 0.080894 0.900124
Si Si4 0.229879 0.068913 0.464192
Si Si5 0.222820 0.313586 0.290968
O O1 0.603107 0.794503 0.499976
O O2 0.349612 0.498447 0.344529
O O3 0.254483 0.928456 0.730524
O O4 0.296910 0.917719 0.483419
O O5 0.010887 0.306851 0.673518
O O6 0.808988 0.149565 0.745589
O O7 0.665333 0.663442 0.015734
O O8 0.000000 0.500000 0.000000
O O9 0.593555 0.906851 0.796570
O O10 0.205796 0.164742 0.085694
O O11 0.000000 0.500000 0.500000
#
# Coordination Sequence:
#
# PCOD9045843 Si02
#       5
#     2   2   2   2   2
#     4  11  23  46  70 109 148 185 242 303 362 432
#     4  11  22  44  71 110 146 191 241 291 367 438
#     4  11  25  46  72 109 138 196 249 289 365 432
#     4  10  24  41  73 108 153 186 226 311 367 423
#     4  11  27  50  73 101 148 196 246 303 352 431
#
# _framework density 25.205155999999999
#
# number of rings (size 3 to 8) (size 9 to 14) (size 15 to 20)
#    0.000    1.200    4.000    0.600    2.800    3.200 
#    7.200    0.000    0.000    0.000    0.000    0.000 
#    0.000    0.000    0.000    0.000    0.000    0.000 
#
# Total GULP energy -55834.942841 kJ/mol
# GULP energy per Si atom -5583.494284 kJ/mol
# Density = 2.514779 g / cm^3
# Si number density = 25.205156 Si / 1000 Ang^3
#
#
#
# Elastic Constant Matrix: (Units=GPa)
#
#
# Indices 1 2 3 4 5 6 
#
# 1 128.0424 45.3650 55.2432 5.0756 0.0963 11.7219
# 2 45.3650 93.9770 24.2169 7.4388 -2.4883 0.1336
# 3 55.2432 24.2169 108.5630 -1.2902 11.3255 -5.4776
# 4 5.0756 7.4388 -1.2902 49.4500 -13.2165 -1.8841
# 5 0.0963 -2.4883 11.3255 -13.2165 55.0511 2.8323
# 6 11.7219 0.1336 -5.4776 -1.8841 2.8323 29.6041
#
#
#
# Elastic Compliance Matrix: (Units=1/GPa)
#
#
# Indices 1 2 3 4 5 6 
#
# 1 0.012467 -0.004433 -0.005790 -0.000699 0.001117 -0.006139
# 2 -0.004433 0.013060 -0.000634 -0.001385 0.000321 0.001460
# 3 -0.005790 -0.000634 0.012848 0.000464 -0.002806 0.004971
# 4 -0.000699 -0.001385 0.000464 0.021910 0.005037 0.001282
# 5 0.001117 0.000321 -0.002806 0.005037 0.020096 -0.002565
# 6 -0.006139 0.001460 0.004971 0.001282 -0.002565 0.037450
#
#
# Mechanical properties :
#
#
# Convention : Reuss Voigt Hill
#
# Bulk Modulus (GPa) = 60.01569 64.47026 62.24298
# Shear Modulus (GPa) = 34.45944 40.53820 37.49882
#
# Velocity S-wave (km/s) = 3.70152 4.01475 3.86131
# Velocity P-wave (km/s) = 6.49083 6.86474 6.68040
#
# Compressibility (1/GPa) = 0.01666231
#
# Stress axis : x y z
#
# Youngs Moduli (GPa) = 80.20997 76.56947 77.83352
#
# Poissons Ratio (x) = 0.33940 0.45065
# Poissons Ratio (y) = 0.35554 0.04934
# Poissons Ratio (z) = 0.46441 0.04854
#
# Static dielectric constant tensor:
#      x y z
#    x 1.997290 -0.031260 -0.045910 
#    y -0.031260 2.060850 -0.047400 
#    z -0.045910 -0.047400 2.122040 
# 
# From -- ./inp_files/383662.got.cif
#   From: 2010.05.17/outbox.cif.g08.bks.cpg/sg2_192_cif.got.tgz:383662.got - 2010.06.03 11:33:40.
