data_PCOD9045627
_publ_section_title
;
Structure prediction by ZEFSAII (Michael W. Deem and Ramdas Pophale) SiO2 
 PCOD9045627
Probable space group: P -1
;
_chemical_formula_sum "Si O2"
_cell_formula_units_Z 14
_cell_length_a 8.751845
_cell_length_b 14.465748
_cell_length_c 15.975474
_cell_angle_alpha 150.725085
_cell_angle_beta 48.626278
_cell_angle_gamma 112.709312
_cell_volume 634.332494
_symmetry_space_group_name_H-M "P -1"
_symmetry_group_IT_number 2
_symmetry_cell_setting 'triclinic'
loop_
_space_group_symop_operation_xyz
x,y,z
-x,-y,-z
loop_
_atom_site_type_symbol
_atom_site_label
_atom_site_fract_x
_atom_site_fract_y
_atom_site_fract_z
Si Si1 0.580508 0.385320 0.243379
Si Si2 0.777217 0.446512 0.646836
Si Si3 0.290161 0.328376 0.977464
Si Si4 0.894193 0.966494 0.264818
Si Si5 0.777127 0.713423 0.432890
Si Si6 0.319274 0.214684 0.287548
Si Si7 0.796203 0.005600 0.521261
O O1 0.405848 0.436258 0.268757
O O2 0.652465 0.569896 0.363804
O O3 0.436147 0.366205 0.357828
O O4 0.832202 0.157458 0.961515
O O5 0.772148 0.228432 0.504049
O O6 0.055985 0.346050 0.447230
O O7 0.715309 0.616510 0.879427
O O8 0.227981 0.142398 0.828989
O O9 0.555778 0.242528 0.782400
O O10 0.063969 0.549688 0.197269
O O11 0.890126 0.913805 0.322710
O O12 0.713358 0.829457 0.638666
O O13 0.713518 0.868267 0.498663
O O14 0.500000 0.000000 0.000000
O O15 0.000000 0.000000 0.500000
#
# Coordination Sequence:
#
# PCOD9045627 Si02
#       7
#     2   2   2   2   2   2   2
#     4  11  23  43  68  96 131 171 218 267 324 389
#     4  11  23  42  67 100 131 171 218 264 331 383
#     4  10  24  41  64  93 135 168 217 262 321 385
#     4  11  24  43  65  98 135 173 214 269 320 386
#     4  10  25  44  65  96 129 174 215 267 329 384
#     4  11  22  42  69  92 133 167 214 274 327 379
#     4  12  24  41  69  97 132 172 219 266 321 389
#
# _framework density 22.070443999999998
#
# number of rings (size 3 to 8) (size 9 to 14) (size 15 to 20)
#    0.000    1.143    1.429    4.714    2.000    5.714 
#    0.000    0.714    0.000    0.000    0.000    0.000 
#    0.000    0.000    0.000    0.000    0.000    0.000 
#
# Total GULP energy -78260.629297 kJ/mol
# GULP energy per Si atom -5590.044950 kJ/mol
# Density = 2.202021 g / cm^3
# Si number density = 22.070444 Si / 1000 Ang^3
#
#
#
# Elastic Constant Matrix: (Units=GPa)
#
#
# Indices 1 2 3 4 5 6 
#
# 1 104.8576 6.7761 48.2033 -3.6564 -1.7464 7.3248
# 2 6.7761 91.5323 10.9565 5.4315 7.9693 -1.4677
# 3 48.2033 10.9565 78.0662 -9.3955 0.3150 15.7435
# 4 -3.6564 5.4315 -9.3955 18.8672 10.8157 2.6238
# 5 -1.7464 7.9693 0.3150 10.8157 43.1008 2.3112
# 6 7.3248 -1.4677 15.7435 2.6238 2.3112 28.7198
#
#
#
# Elastic Compliance Matrix: (Units=1/GPa)
#
#
# Indices 1 2 3 4 5 6 
#
# 1 0.013484 0.000176 -0.009042 -0.002868 0.001209 0.001691
# 2 0.000176 0.011649 -0.002788 -0.004401 -0.001160 0.002574
# 3 -0.009042 -0.002788 0.022701 0.013535 -0.002808 -0.011291
# 4 -0.002868 -0.004401 0.013535 0.071744 -0.016755 -0.012119
# 5 0.001209 -0.001160 -0.002808 -0.016755 0.027664 0.000476
# 6 0.001691 0.002574 -0.011291 -0.012119 0.000476 0.041778
#
#
# Mechanical properties :
#
#
# Convention : Reuss Voigt Hill
#
# Bulk Modulus (GPa) = 40.77032 45.14755 42.95894
# Shear Modulus (GPa) = 22.67547 32.03892 27.35719
#
# Velocity S-wave (km/s) = 3.20881 3.81421 3.52453
# Velocity P-wave (km/s) = 5.67816 6.31649 6.00581
#
# Compressibility (1/GPa) = 0.02452765
#
# Stress axis : x y z
#
# Youngs Moduli (GPa) = 74.16293 85.84304 44.05042
#
# Poissons Ratio (x) = -0.01512 0.39829
# Poissons Ratio (y) = -0.01306 0.12280
# Poissons Ratio (z) = 0.67056 0.23931
#
# Static dielectric constant tensor:
#      x y z
#    x 1.788890 0.048050 0.008960 
#    y 0.048050 1.845970 0.039300 
#    z 0.008960 0.039300 1.821860 
# 
# From -- ./inp_files/181035.got.cif
#   From: 2010.05.17/outbox.cif.g08.bks.cpg/sg2_91_cif.got.tgz:181035.got - 2010.06.03 11:33:40.
