data_PCOD9045643
_publ_section_title
;
Structure prediction by ZEFSAII (Michael W. Deem and Ramdas Pophale) SiO2 
 PCOD9045643
Probable space group: P -1
;
_chemical_formula_sum "Si O2"
_cell_formula_units_Z 16
_cell_length_a 21.448711
_cell_length_b 9.468736
_cell_length_c 8.831381
_cell_angle_alpha 64.179131
_cell_angle_beta 150.446445
_cell_angle_gamma 117.217144
_cell_volume 783.800490
_symmetry_space_group_name_H-M "P -1"
_symmetry_group_IT_number 2
_symmetry_cell_setting 'triclinic'
loop_
_space_group_symop_operation_xyz
x,y,z
-x,-y,-z
loop_
_atom_site_type_symbol
_atom_site_label
_atom_site_fract_x
_atom_site_fract_y
_atom_site_fract_z
Si Si1 0.755160 0.834383 0.362768
Si Si2 0.383540 0.902710 0.202095
Si Si3 0.611808 0.410715 0.837328
Si Si4 0.026975 0.892675 0.748669
Si Si5 0.371904 0.520811 0.809707
Si Si6 0.882638 0.908747 0.897883
Si Si7 0.873203 0.566789 0.154865
Si Si8 0.795942 0.329792 0.843968
O O1 0.701326 0.660798 0.265265
O O2 0.769130 0.849849 0.566979
O O3 0.896792 0.871079 0.576201
O O4 0.677355 0.966443 0.078174
O O5 0.409245 0.763176 0.206432
O O6 0.283147 0.807853 0.154132
O O7 0.500000 0.000000 0.500000
O O8 0.500000 0.500000 0.500000
O O9 0.604087 0.412930 0.001422
O O10 0.752852 0.508063 0.039862
O O11 0.070151 0.727531 0.877236
O O12 0.000000 0.000000 0.500000
O O13 0.137074 0.976272 0.058916
O O14 0.288757 0.632144 0.492968
O O15 0.500000 0.500000 0.000000
O O16 0.912118 0.754122 0.120210
O O17 0.000000 0.000000 0.000000
O O18 0.000000 0.500000 0.500000
O O19 0.823818 0.489035 0.927258
#
# Coordination Sequence:
#
# PCOD9045643 Si02
#       8
#     2   2   2   2   2   2   2   2
#     4  11  24  44  68  95 143 182 220 289 350 408
#     4  11  24  47  70  98 136 185 230 282 349 420
#     4  11  27  45  75 105 138 187 240 283 354 425
#     4  11  23  41  67 102 137 176 231 280 349 417
#     4  12  26  48  70 101 142 180 238 295 343 416
#     4  10  24  41  64  99 139 179 222 282 347 409
#     4  11  24  44  72 101 142 185 231 282 347 420
#     4  11  24  43  68 102 138 179 229 288 349 411
#
# _framework density 20.413357999999999
#
# number of rings (size 3 to 8) (size 9 to 14) (size 15 to 20)
#    0.000    1.000    2.500    3.750   10.500    2.500 
#    0.000    1.250    0.000    0.000    0.000    0.000 
#    0.000    0.000    0.000    0.000    0.000    0.000 
#
# Total GULP energy -89331.170444 kJ/mol
# GULP energy per Si atom -5583.198153 kJ/mol
# Density = 2.036690 g / cm^3
# Si number density = 20.413358 Si / 1000 Ang^3
#
#
#
# Elastic Constant Matrix: (Units=GPa)
#
#
# Indices 1 2 3 4 5 6 
#
# 1 106.2986 17.3508 51.6610 -0.3053 -16.3479 -18.4805
# 2 17.3508 81.2672 21.2892 -7.8200 -9.3905 -3.3005
# 3 51.6610 21.2892 130.1087 -20.6360 -9.0338 -3.2624
# 4 -0.3053 -7.8200 -20.6360 43.8960 -2.3644 -2.5175
# 5 -16.3479 -9.3905 -9.0338 -2.3644 37.3816 4.4266
# 6 -18.4805 -3.3005 -3.2624 -2.5175 4.4266 25.1624
#
#
#
# Elastic Compliance Matrix: (Units=1/GPa)
#
#
# Indices 1 2 3 4 5 6 
#
# 1 0.014229 -0.001065 -0.005311 -0.001893 0.003508 0.008816
# 2 -0.001065 0.013379 -0.001258 0.001958 0.002651 0.000539
# 3 -0.005311 -0.001258 0.010720 0.004675 0.000520 -0.002300
# 4 -0.001893 0.001958 0.004675 0.025528 0.002215 0.001637
# 5 0.003508 0.002651 0.000520 0.002215 0.029450 -0.001968
# 6 0.008816 0.000539 -0.002300 0.001637 -0.001968 0.046499
#
#
# Mechanical properties :
#
#
# Convention : Reuss Voigt Hill
#
# Bulk Modulus (GPa) = 43.36613 55.36407 49.36510
# Shear Modulus (GPa) = 30.71990 36.44622 33.58306
#
# Velocity S-wave (km/s) = 3.88350 4.23000 4.06045
# Velocity P-wave (km/s) = 6.43420 7.14405 6.79840
#
# Compressibility (1/GPa) = 0.02305947
#
# Stress axis : x y z
#
# Youngs Moduli (GPa) = 70.27726 74.74549 93.27928
#
# Poissons Ratio (x) = 0.07964 0.49543
# Poissons Ratio (y) = 0.07488 0.11734
# Poissons Ratio (z) = 0.37326 0.09402
#
# Static dielectric constant tensor:
#      x y z
#    x 1.645470 0.059990 -0.014310 
#    y 0.059990 1.707840 0.059360 
#    z -0.014310 0.059360 1.741910 
# 
# From -- ./inp_files/189055.got.cif
#   From: 2010.05.17/outbox.cif.g08.bks.cpg/sg2_95_cif.got.tgz:189055.got - 2010.06.03 11:33:40.
