data_PCOD9045468
_publ_section_title
;
Structure prediction by ZEFSAII (Michael W. Deem and Ramdas Pophale) SiO2 
 PCOD9045468
Probable space group: P -1
;
_chemical_formula_sum "Si O2"
_cell_formula_units_Z 14
_cell_length_a 15.692108
_cell_length_b 9.500170
_cell_length_c 6.592344
_cell_angle_alpha 134.314644
_cell_angle_beta 60.394748
_cell_angle_gamma 118.932169
_cell_volume 596.007476
_symmetry_space_group_name_H-M "P -1"
_symmetry_group_IT_number 2
_symmetry_cell_setting 'triclinic'
loop_
_space_group_symop_operation_xyz
x,y,z
-x,-y,-z
loop_
_atom_site_type_symbol
_atom_site_label
_atom_site_fract_x
_atom_site_fract_y
_atom_site_fract_z
Si Si1 0.645796 0.207367 0.987878
Si Si2 0.277157 0.100072 0.709373
Si Si3 0.907657 0.823363 0.798606
Si Si4 0.007406 0.740722 0.976287
Si Si5 0.842990 0.494449 0.229814
Si Si6 0.404276 0.538928 0.031853
Si Si7 0.602230 0.094652 0.355110
O O1 0.578245 0.322158 0.047794
O O2 0.690739 0.048875 0.641583
O O3 0.741005 0.371995 0.127371
O O4 0.586573 0.103916 0.146804
O O5 0.318170 0.033342 0.806898
O O6 0.161269 0.093810 0.872794
O O7 0.334548 0.328876 0.838254
O O8 0.979612 0.718472 0.746050
O O9 0.838225 0.664033 0.573540
O O10 0.965266 0.014986 0.795365
O O11 0.100823 0.658686 0.872382
O O12 0.914724 0.615626 0.090879
O O13 0.357399 0.678801 0.380279
O O14 0.500000 0.500000 0.000000
O O15 0.500000 0.000000 0.500000
#
# Coordination Sequence:
#
# PCOD9045468 Si02
#       7
#     2   2   2   2   2   2   2
#     4  11  27  43  70  99 138 180 224 286 342 400
#     4  11  25  44  67  99 139 175 231 280 339 405
#     4  11  23  42  69 100 138 183 224 275 335 395
#     4  10  24  40  68 102 138 178 227 278 328 398
#     4  11  23  44  67 102 138 178 228 274 337 401
#     4  11  24  46  68  99 130 176 228 280 339 409
#     4  11  24  47  67  98 133 174 226 283 342 404
#
# _framework density 23.489639
#
# number of rings (size 3 to 8) (size 9 to 14) (size 15 to 20)
#    0.000    1.143    1.429    3.429    0.000   16.571 
#    0.000    0.000    0.000    0.000    0.000    0.000 
#    0.000    0.000    0.000    0.000    0.000    0.000 
#
# Total GULP energy -78304.323124 kJ/mol
# GULP energy per Si atom -5593.165937 kJ/mol
# Density = 2.343618 g / cm^3
# Si number density = 23.489639 Si / 1000 Ang^3
#
#
#
# Elastic Constant Matrix: (Units=GPa)
#
#
# Indices 1 2 3 4 5 6 
#
# 1 110.5527 66.8158 25.8952 -0.3595 8.6852 -15.1278
# 2 66.8158 172.6292 63.9309 0.7262 8.1182 -19.4200
# 3 25.8952 63.9309 84.0615 4.8017 20.6862 -8.6533
# 4 -0.3595 0.7262 4.8017 40.5142 0.7509 8.8075
# 5 8.6852 8.1182 20.6862 0.7509 36.3978 5.9823
# 6 -15.1278 -19.4200 -8.6533 8.8075 5.9823 52.4947
#
#
#
# Elastic Compliance Matrix: (Units=1/GPa)
#
#
# Indices 1 2 3 4 5 6 
#
# 1 0.012171 -0.004557 0.000609 -0.000329 -0.002601 0.002274
# 2 -0.004557 0.010057 -0.006793 0.000332 0.002543 0.000942
# 3 0.000609 -0.006793 0.019804 -0.002580 -0.010248 0.002528
# 4 -0.000329 0.000332 -0.002580 0.026026 0.001749 -0.004963
# 5 -0.002601 0.002543 -0.010248 0.001749 0.034252 -0.005695
# 6 0.002274 0.000942 0.002528 -0.004963 -0.005695 0.021952
#
#
# Mechanical properties :
#
#
# Convention : Reuss Voigt Hill
#
# Bulk Modulus (GPa) = 48.65899 75.61416 62.13658
# Shear Modulus (GPa) = 32.76689 39.92143 36.34416
#
# Velocity S-wave (km/s) = 3.73896 4.12701 3.93777
# Velocity P-wave (km/s) = 6.27692 7.41417 6.86912
#
# Compressibility (1/GPa) = 0.02055119
#
# Stress axis : x y z
#
# Youngs Moduli (GPa) = 82.16034 99.43190 50.49539
#
# Poissons Ratio (x) = 0.45312 -0.03076
# Poissons Ratio (y) = 0.37441 0.34300
# Poissons Ratio (z) = -0.05006 0.67542
#
# Static dielectric constant tensor:
#      x y z
#    x 1.919940 0.005330 0.010510 
#    y 0.005330 1.896000 0.002280 
#    z 0.010510 0.002280 1.896420 
# 
# From -- ./inp_files/107757.got.cif
#   From: 2010.05.17/outbox.cif.g08.bks.cpg/sg2_54_cif.got.tgz:107757.got - 2010.06.03 11:33:40.
