data_PCOD9045144
_publ_section_title
;
Structure prediction by ZEFSAII (Michael W. Deem and Ramdas Pophale) SiO2 
 PCOD9045144
Probable space group: P -1
;
_chemical_formula_sum "Si O2"
_cell_formula_units_Z 14
_cell_length_a 8.024586
_cell_length_b 11.337448
_cell_length_c 14.314921
_cell_angle_alpha 32.903149
_cell_angle_beta 136.644179
_cell_angle_gamma 124.831923
_cell_volume 482.987708
_symmetry_space_group_name_H-M "P -1"
_symmetry_group_IT_number 2
_symmetry_cell_setting 'triclinic'
loop_
_space_group_symop_operation_xyz
x,y,z
-x,-y,-z
loop_
_atom_site_type_symbol
_atom_site_label
_atom_site_fract_x
_atom_site_fract_y
_atom_site_fract_z
Si Si1 0.721355 0.414989 0.516085
Si Si2 0.290135 0.512198 0.161488
Si Si3 0.526670 0.007261 0.260170
Si Si4 0.077532 0.973576 0.724293
Si Si5 0.617863 0.280183 0.293055
Si Si6 0.033800 0.569062 0.210199
Si Si7 0.835817 0.935671 0.097955
O O1 0.546480 0.571450 0.275028
O O2 0.568008 0.207512 0.595257
O O3 0.770582 0.500952 0.581593
O O4 0.982675 0.288486 0.679891
O O5 0.405263 0.359909 0.225849
O O6 0.129585 0.476537 0.211632
O O7 0.125768 0.713891 0.914021
O O8 0.798609 0.956485 0.365694
O O9 0.523792 0.180689 0.226239
O O10 0.364212 0.070911 0.059798
O O11 0.805245 0.089535 0.542093
O O12 0.217042 0.033146 0.835152
O O13 0.790183 0.468286 0.210829
O O14 0.037974 0.836310 0.026594
#
# Coordination Sequence:
#
# PCOD9045144 Si02
#       7
#     2   2   2   2   2   2   2
#     4  11  23  49  77 109 154 204 253 318 378 453
#     4  11  26  47  79 114 153 204 255 312 388 451
#     4  11  25  46  79 109 156 200 249 322 387 442
#     4  11  25  49  76 115 149 199 265 312 373 465
#     4  12  27  51  78 113 159 199 249 323 385 456
#     4  10  24  47  76 113 153 199 259 310 381 463
#     4  10  23  49  79 110 150 203 257 316 376 455
#
# _framework density 28.986243999999999
#
# number of rings (size 3 to 8) (size 9 to 14) (size 15 to 20)
#    0.000    1.143    1.429    3.857    4.000    5.143 
#    2.571    3.571    0.000    0.000    0.000    0.000 
#    0.000    0.000    0.000    0.000    0.000    0.000 
#
# Total GULP energy -78552.441318 kJ/mol
# GULP energy per Si atom -5610.888666 kJ/mol
# Density = 2.892027 g / cm^3
# Si number density = 28.986244 Si / 1000 Ang^3
#
#
#
# Elastic Constant Matrix: (Units=GPa)
#
#
# Indices 1 2 3 4 5 6 
#
# 1 220.8446 79.8874 58.2569 -8.2419 32.1007 -34.9286
# 2 79.8874 180.6083 51.0562 3.9528 -9.1938 -39.4572
# 3 58.2569 51.0562 210.2785 0.3552 21.0387 -14.1243
# 4 -8.2419 3.9528 0.3552 47.1250 4.8339 -9.1162
# 5 32.1007 -9.1938 21.0387 4.8339 50.6572 -2.3289
# 6 -34.9286 -39.4572 -14.1243 -9.1162 -2.3289 62.7837
#
#
#
# Elastic Compliance Matrix: (Units=1/GPa)
#
#
# Indices 1 2 3 4 5 6 
#
# 1 0.006731 -0.002621 -0.000630 0.002283 -0.004600 0.002117
# 2 -0.002621 0.008029 -0.001394 -0.000888 0.003933 0.003291
# 3 -0.000630 -0.001394 0.005480 0.000177 -0.002149 -0.000048
# 4 0.002283 -0.000888 0.000177 0.022830 -0.003679 0.003930
# 5 -0.004600 0.003933 -0.002149 -0.003679 0.024604 -0.000192
# 6 0.002117 0.003291 -0.000048 0.003930 -0.000192 0.019726
#
#
# Mechanical properties :
#
#
# Convention : Reuss Voigt Hill
#
# Bulk Modulus (GPa) = 91.32540 110.01472 100.67006
# Shear Modulus (GPa) = 49.83032 60.28190 55.05611
#
# Velocity S-wave (km/s) = 4.15070 4.56529 4.36292
# Velocity P-wave (km/s) = 7.38553 8.11330 7.75795
#
# Compressibility (1/GPa) = 0.01094986
#
# Stress axis : x y z
#
# Youngs Moduli (GPa) = 148.56924 124.54976 182.47742
#
# Poissons Ratio (x) = 0.32643 0.11494
# Poissons Ratio (y) = 0.38938 0.25443
# Poissons Ratio (z) = 0.09358 0.17366
#
# Static dielectric constant tensor:
#      x y z
#    x 2.186880 0.067630 -0.006830 
#    y 0.067630 2.288040 -0.057820 
#    z -0.006830 -0.057820 2.352840 
# 
# From -- ./inp_files/591826.got.cif
#   From: 2010.05.17/outbox.cif.g08.bks.cpg/sg2_296_cif.got.tgz:591826.got - 2010.06.03 11:33:40.
