data_PCOD9045715
_publ_section_title
;
Structure prediction by ZEFSAII (Michael W. Deem and Ramdas Pophale) SiO2 
 PCOD9045715
Probable space group: P -1
;
_chemical_formula_sum "Si O2"
_cell_formula_units_Z 16
_cell_length_a 21.212416
_cell_length_b 17.588201
_cell_length_c 6.669907
_cell_angle_alpha 62.990755
_cell_angle_beta 65.979893
_cell_angle_gamma 18.187361
_cell_volume 689.332588
_symmetry_space_group_name_H-M "P -1"
_symmetry_group_IT_number 2
_symmetry_cell_setting 'triclinic'
loop_
_space_group_symop_operation_xyz
x,y,z
-x,-y,-z
loop_
_atom_site_type_symbol
_atom_site_label
_atom_site_fract_x
_atom_site_fract_y
_atom_site_fract_z
Si Si1 0.778061 0.048119 0.427644
Si Si2 0.778314 0.418712 0.661999
Si Si3 0.509562 0.619995 0.974056
Si Si4 0.768837 0.174270 0.663722
Si Si5 0.517175 0.091152 0.521846
Si Si6 0.759660 0.381150 0.299809
Si Si7 0.262656 0.232724 0.764501
Si Si8 0.174721 0.190082 0.240537
O O1 0.823140 0.912961 0.666763
O O2 0.986621 0.837659 0.315461
O O3 0.634717 0.190613 0.256204
O O4 0.716505 0.190957 0.497434
O O5 0.722321 0.391040 0.859016
O O6 0.654571 0.642355 0.648415
O O7 0.727562 0.477474 0.419586
O O8 0.392119 0.674702 0.148350
O O9 0.578163 0.593583 0.117376
O O10 0.759637 0.285075 0.501563
O O11 0.005836 0.876451 0.764828
O O12 0.416609 0.131561 0.731712
O O13 0.657113 0.887931 0.412139
O O14 0.664960 0.973963 0.603149
O O15 0.042623 0.529761 0.725777
O O16 0.241995 0.170233 0.992311
#
# Coordination Sequence:
#
# PCOD9045715 Si02
#       8
#     2   2   2   2   2   2   2   2
#     4  11  24  41  64  96 136 167 219 267 323 380
#     4  11  24  41  64  95 134 169 212 275 314 390
#     4  12  23  41  67  97 125 176 215 266 325 381
#     4  10  24  44  66  95 132 174 216 269 314 389
#     4  11  22  42  64  94 126 162 216 265 325 379
#     4  10  24  45  65  95 134 171 219 263 325 377
#     4  10  24  41  67  91 125 165 214 270 321 381
#     4  11  22  42  64  94 125 169 211 265 323 384
#
# _framework density 23.210857000000001
#
# number of rings (size 3 to 8) (size 9 to 14) (size 15 to 20)
#    0.000    1.250    2.500    2.625    1.750    2.000 
#    0.000    3.750    0.000    0.000    0.000    0.000 
#    0.000    0.000    0.000    0.000    0.000    0.000 
#
# Total GULP energy -89203.901735 kJ/mol
# GULP energy per Si atom -5575.243858 kJ/mol
# Density = 2.315803 g / cm^3
# Si number density = 23.210857 Si / 1000 Ang^3
#
#
#
# Elastic Constant Matrix: (Units=GPa)
#
#
# Indices 1 2 3 4 5 6 
#
# 1 109.7855 35.2342 32.3477 5.8940 -17.1507 -5.8734
# 2 35.2342 114.3338 42.6738 18.5859 -20.7061 -25.8818
# 3 32.3477 42.6738 89.4369 15.2472 -20.7426 -14.3706
# 4 5.8940 18.5859 15.2472 28.5497 -16.9324 -8.8829
# 5 -17.1507 -20.7061 -20.7426 -16.9324 49.3943 5.0935
# 6 -5.8734 -25.8818 -14.3706 -8.8829 5.0935 58.8414
#
#
#
# Elastic Compliance Matrix: (Units=1/GPa)
#
#
# Indices 1 2 3 4 5 6 
#
# 1 0.010897 -0.002362 -0.002678 0.001983 0.002402 -0.000514
# 2 -0.002362 0.012493 -0.003572 -0.003870 0.001209 0.003698
# 3 -0.002678 -0.003572 0.015230 -0.003282 0.002725 0.001150
# 4 0.001983 -0.003870 -0.003282 0.048280 0.013848 0.003784
# 5 0.002402 0.001209 0.002725 0.013848 0.027358 0.001159
# 6 -0.000514 0.003698 0.001150 0.003784 0.001159 0.019322
#
#
# Mechanical properties :
#
#
# Convention : Reuss Voigt Hill
#
# Bulk Modulus (GPa) = 46.73877 59.34084 53.03980
# Shear Modulus (GPa) = 31.65850 40.91044 36.28447
#
# Velocity S-wave (km/s) = 3.69718 4.20284 3.95809
# Velocity P-wave (km/s) = 6.19724 7.01236 6.61737
#
# Compressibility (1/GPa) = 0.02139552
#
# Stress axis : x y z
#
# Youngs Moduli (GPa) = 91.76786 80.04699 65.65948
#
# Poissons Ratio (x) = 0.18911 0.17581
# Poissons Ratio (y) = 0.21680 0.23454
# Poissons Ratio (z) = 0.24572 0.28593
#
# Static dielectric constant tensor:
#      x y z
#    x 1.856990 0.012720 -0.002110 
#    y 0.012720 1.889580 -0.010730 
#    z -0.002110 -0.010730 1.918070 
# 
# From -- ./inp_files/120013.got.cif
#   From: 2010.05.17/outbox.cif.g08.bks.cpg/sg2_61_cif.got.tgz:120013.got - 2010.06.03 11:33:40.
