data_PCOD9045616
_publ_section_title
;
Structure prediction by ZEFSAII (Michael W. Deem and Ramdas Pophale) SiO2 
 PCOD9045616
Probable space group: P -1
;
_chemical_formula_sum "Si O2"
_cell_formula_units_Z 10
_cell_length_a 10.684124
_cell_length_b 5.323749
_cell_length_c 14.077896
_cell_angle_alpha 102.407222
_cell_angle_beta 140.510472
_cell_angle_gamma 96.580462
_cell_volume 443.756447
_symmetry_space_group_name_H-M "P -1"
_symmetry_group_IT_number 2
_symmetry_cell_setting 'triclinic'
loop_
_space_group_symop_operation_xyz
x,y,z
-x,-y,-z
loop_
_atom_site_type_symbol
_atom_site_label
_atom_site_fract_x
_atom_site_fract_y
_atom_site_fract_z
Si Si1 0.803016 0.586894 0.393103
Si Si2 0.618663 0.907344 0.977908
Si Si3 0.036703 0.128642 0.687077
Si Si4 0.035515 0.194275 0.128544
Si Si5 0.759264 0.164845 0.670347
O O1 0.861729 0.798957 0.533898
O O2 0.000000 0.500000 0.500000
O O3 0.837833 0.759741 0.329070
O O4 0.566379 0.317518 0.218426
O O5 0.769179 0.799122 0.117507
O O6 0.804760 0.142341 0.038750
O O7 0.500000 0.000000 0.000000
O O8 0.880010 0.258568 0.645963
O O9 0.841027 0.939608 0.741898
O O10 0.166488 0.531629 0.208949
O O11 0.000000 0.000000 0.000000
O O12 0.500000 0.000000 0.500000
#
# Coordination Sequence:
#
# PCOD9045616 Si02
#       5
#     2   2   2   2   2
#     4  11  22  39  65  99 131 175 226 278 337 410
#     4  11  22  42  69  94 141 175 221 283 345 399
#     4  10  24  41  63  99 134 174 231 274 346 402
#     4  11  26  46  69 104 135 179 233 277 345 409
#     4  11  25  46  72  95 138 181 226 284 341 405
#
# _framework density 22.534884999999999
#
# number of rings (size 3 to 8) (size 9 to 14) (size 15 to 20)
#    0.000    1.200    2.000    3.000    5.600    3.200 
#    0.000    0.000    0.000    0.000    0.000    0.000 
#    0.000    0.000    0.000    0.000    0.000    0.000 
#
# Total GULP energy -55782.667694 kJ/mol
# GULP energy per Si atom -5578.266769 kJ/mol
# Density = 2.248359 g / cm^3
# Si number density = 22.534885 Si / 1000 Ang^3
#
#
#
# Elastic Constant Matrix: (Units=GPa)
#
#
# Indices 1 2 3 4 5 6 
#
# 1 104.7130 1.4088 34.9153 15.6724 11.5429 -12.9428
# 2 1.4088 46.7975 41.6071 19.2335 7.9295 -10.3480
# 3 34.9153 41.6071 170.4271 30.1160 20.7264 -8.5087
# 4 15.6724 19.2335 30.1160 41.1156 0.1561 -6.9267
# 5 11.5429 7.9295 20.7264 0.1561 45.2233 8.2494
# 6 -12.9428 -10.3480 -8.5087 -6.9267 8.2494 30.6616
#
#
#
# Elastic Compliance Matrix: (Units=1/GPa)
#
#
# Indices 1 2 3 4 5 6 
#
# 1 0.012173 0.005644 -0.002227 -0.004530 -0.004254 0.006546
# 2 0.005644 0.035534 -0.006251 -0.012190 -0.006906 0.011744
# 3 -0.002227 -0.006251 0.008528 -0.002583 -0.002107 -0.000700
# 4 -0.004530 -0.012190 -0.002583 0.033567 0.004426 -0.000351
# 5 -0.004254 -0.006906 -0.002107 0.004426 0.027381 -0.011078
# 6 0.006546 0.011744 -0.000700 -0.000351 -0.011078 0.042048
#
#
# Mechanical properties :
#
#
# Convention : Reuss Voigt Hill
#
# Bulk Modulus (GPa) = 19.77621 53.08886 36.43253
# Shear Modulus (GPa) = 27.50980 39.66720 33.58850
#
# Velocity S-wave (km/s) = 3.49774 4.20009 3.86490
# Velocity P-wave (km/s) = 5.01070 6.86518 6.00990
#
# Compressibility (1/GPa) = 0.05056581
#
# Stress axis : x y z
#
# Youngs Moduli (GPa) = 82.15158 28.14241 117.26483
#
# Poissons Ratio (x) = -0.15883 0.26114
# Poissons Ratio (y) = -0.46363 0.73300
# Poissons Ratio (z) = 0.18294 0.17591
#
# Static dielectric constant tensor:
#      x y z
#    x 1.939750 0.067440 -0.090670 
#    y 0.067440 1.998880 -0.000310 
#    z -0.090670 -0.000310 1.855500 
# 
# From -- ./inp_files/509413.got.cif
#   From: 2010.05.17/outbox.cif.g08.bks.cpg/sg2_255_cif.got.tgz:509413.got - 2010.06.03 11:33:40.
