data_PCOD9045536
_publ_section_title
;
Structure prediction by ZEFSAII (Michael W. Deem and Ramdas Pophale) SiO2 
 PCOD9045536
Probable space group: P -1
;
_chemical_formula_sum "Si O2"
_cell_formula_units_Z 16
_cell_length_a 11.517452
_cell_length_b 21.928457
_cell_length_c 5.148423
_cell_angle_alpha 68.914419
_cell_angle_beta 106.631436
_cell_angle_gamma 145.411680
_cell_volume 688.596090
_symmetry_space_group_name_H-M "P -1"
_symmetry_group_IT_number 2
_symmetry_cell_setting 'triclinic'
loop_
_space_group_symop_operation_xyz
x,y,z
-x,-y,-z
loop_
_atom_site_type_symbol
_atom_site_label
_atom_site_fract_x
_atom_site_fract_y
_atom_site_fract_z
Si Si1 0.566976 0.472411 0.391467
Si Si2 0.168546 0.347102 0.105303
Si Si3 0.108622 0.078512 0.700930
Si Si4 0.387029 0.013647 0.025802
Si Si5 0.774073 0.368289 0.327351
Si Si6 0.557886 0.226043 0.899693
Si Si7 0.118315 0.891098 0.559679
Si Si8 0.814596 0.509033 0.834707
O O1 0.500000 0.500000 0.500000
O O2 0.372229 0.389585 0.203949
O O3 0.616657 0.428779 0.645917
O O4 0.774293 0.589717 0.215751
O O5 0.144459 0.398768 0.199135
O O6 0.979273 0.217771 0.225985
O O7 0.345748 0.164810 0.757212
O O8 0.057142 0.133003 0.583245
O O9 0.000000 0.000000 0.500000
O O10 0.000000 0.000000 0.000000
O O11 0.246648 0.975608 0.753229
O O12 0.534656 0.137750 0.001089
O O13 0.255495 0.941052 0.312414
O O14 0.500000 0.000000 0.000000
O O15 0.725196 0.324494 0.652155
O O16 0.994586 0.437771 0.274925
O O17 0.615908 0.270418 0.162275
O O18 0.770285 0.444014 0.152074
#
# Coordination Sequence:
#
# PCOD9045536 Si02
#       8
#     2   2   2   2   2   2   2   2
#     4   9  21  43  65  95 141 172 232 285 337 406
#     4  10  24  40  71 102 139 182 229 286 352 413
#     4  12  23  47  70  98 142 178 234 295 335 406
#     4  12  28  47  71 105 148 180 239 289 346 421
#     4  11  28  43  73 101 137 187 230 280 355 411
#     4  12  26  47  72 102 139 186 237 287 348 408
#     4  12  26  45  74 108 138 193 229 287 359 411
#     4  10  25  45  66 100 142 176 230 289 340 423
#
# _framework density 23.235682000000001
#
# number of rings (size 3 to 8) (size 9 to 14) (size 15 to 20)
#    0.000    1.000    2.500    1.875   12.250    3.000 
#    0.000    0.000    0.000    0.000    0.000    0.000 
#    0.000    0.000    0.000    0.000    0.000    0.000 
#
# Total GULP energy -89473.922571 kJ/mol
# GULP energy per Si atom -5592.120161 kJ/mol
# Density = 2.318280 g / cm^3
# Si number density = 23.235682 Si / 1000 Ang^3
#
#
#
# Elastic Constant Matrix: (Units=GPa)
#
#
# Indices 1 2 3 4 5 6 
#
# 1 81.4934 29.7960 16.7762 -6.9810 12.3508 -2.9169
# 2 29.7960 68.6656 12.7061 -0.5676 3.3589 -14.1568
# 3 16.7762 12.7061 101.2131 -8.4314 -20.4754 0.5168
# 4 -6.9810 -0.5676 -8.4314 43.2887 0.6950 2.5250
# 5 12.3508 3.3589 -20.4754 0.6950 46.6625 0.5784
# 6 -2.9169 -14.1568 0.5168 2.5250 0.5784 32.0877
#
#
#
# Elastic Compliance Matrix: (Units=1/GPa)
#
#
# Indices 1 2 3 4 5 6 
#
# 1 0.016093 -0.006529 -0.002667 0.002155 -0.004974 -0.001454
# 2 -0.006529 0.019377 -0.001615 -0.001579 -0.000453 0.008114
# 3 -0.002667 -0.001615 0.011908 0.001853 0.006037 -0.001401
# 4 0.002155 -0.001579 0.001853 0.023929 0.000030 -0.002414
# 5 -0.004974 -0.000453 0.006037 0.000030 0.025443 -0.001210
# 6 -0.001454 0.008114 -0.001401 -0.002414 -0.001210 0.034846
#
#
# Mechanical properties :
#
#
# Convention : Reuss Voigt Hill
#
# Bulk Modulus (GPa) = 38.82492 41.10321 39.96407
# Shear Modulus (GPa) = 30.90159 37.21403 34.05781
#
# Velocity S-wave (km/s) = 3.65076 4.00633 3.83267
# Velocity P-wave (km/s) = 5.87505 6.25532 6.06816
#
# Compressibility (1/GPa) = 0.02575665
#
# Stress axis : x y z
#
# Youngs Moduli (GPa) = 62.13713 51.60747 83.97857
#
# Poissons Ratio (x) = 0.33692 0.22399
# Poissons Ratio (y) = 0.40567 0.13562
# Poissons Ratio (z) = 0.16574 0.08335
#
# Static dielectric constant tensor:
#      x y z
#    x 1.949590 0.088370 0.033680 
#    y 0.088370 2.009220 0.069570 
#    z 0.033680 0.069570 1.879020 
# 
# From -- ./inp_files/84230.got.cif
#   From: 2010.05.17/outbox.cif.g08.bks.cpg/sg2_43_cif.got.tgz:84230.got - 2010.06.03 11:33:40.
