data_PCOD9045337
_publ_section_title
;
Structure prediction by ZEFSAII (Michael W. Deem and Ramdas Pophale) SiO2 
 PCOD9045337
Probable space group: P -1
;
_chemical_formula_sum "Si O2"
_cell_formula_units_Z 16
_cell_length_a 13.956860
_cell_length_b 9.857081
_cell_length_c 8.608268
_cell_angle_alpha 42.639622
_cell_angle_beta 97.789465
_cell_angle_gamma 74.522828
_cell_volume 665.786498
_symmetry_space_group_name_H-M "P -1"
_symmetry_group_IT_number 2
_symmetry_cell_setting 'triclinic'
loop_
_space_group_symop_operation_xyz
x,y,z
-x,-y,-z
loop_
_atom_site_type_symbol
_atom_site_label
_atom_site_fract_x
_atom_site_fract_y
_atom_site_fract_z
Si Si1 0.174436 0.275715 0.582881
Si Si2 0.287472 0.528742 0.459859
Si Si3 0.411709 0.917874 0.593448
Si Si4 0.241312 0.428597 0.008132
Si Si5 0.930944 0.086515 0.748754
Si Si6 0.569060 0.537352 0.177241
Si Si7 0.084064 0.324725 0.873284
Si Si8 0.827469 0.143739 0.137688
O O1 0.279792 0.310347 0.584185
O O2 0.135833 0.257715 0.765888
O O3 0.055187 0.509777 0.299424
O O4 0.203121 0.050535 0.678268
O O5 0.399643 0.466053 0.632361
O O6 0.246060 0.711562 0.153972
O O7 0.179912 0.661161 0.445342
O O8 0.421793 0.709066 0.658456
O O9 0.500000 0.000000 0.500000
O O10 0.296036 0.176860 0.322728
O O11 0.452002 0.768336 0.890034
O O12 0.197829 0.653985 0.918582
O O13 0.336671 0.434902 0.918973
O O14 0.138749 0.446108 0.873023
O O15 0.884632 0.920853 0.835129
O O16 0.034108 0.026597 0.710188
O O17 0.000000 0.000000 0.000000
#
# Coordination Sequence:
#
# PCOD9045337 Si02
#       8
#     2   2   2   2   2   2   2   2
#     4  11  20  35  57  82 119 164 209 237 274 350
#     4  11  20  38  62  87 117 165 209 240 282 355
#     4   9  21  42  68  91 116 143 199 255 299 363
#     4  11  24  39  58  92 126 153 193 256 307 342
#     4  10  17  34  53  80 117 163 206 238 272 342
#     4  10  21  40  69  92 108 155 204 242 301 365
#     4  11  19  35  59  82 117 169 208 238 280 344
#     4  11  24  36  53  88 131 160 197 249 296 336
#
# _framework density 24.031727
#
# number of rings (size 3 to 8) (size 9 to 14) (size 15 to 20)
#    0.000    1.500    6.250    1.500    0.000    2.000 
#    0.000    0.625    0.000    7.500    0.000    0.000 
#    0.000    0.000    0.000    0.000    0.000    0.000 
#
# Total GULP energy -89353.117475 kJ/mol
# GULP energy per Si atom -5584.569842 kJ/mol
# Density = 2.397703 g / cm^3
# Si number density = 24.031727 Si / 1000 Ang^3
#
#
#
# Elastic Constant Matrix: (Units=GPa)
#
#
# Indices 1 2 3 4 5 6 
#
# 1 52.5114 27.4197 12.1569 -1.1975 -6.8216 21.7843
# 2 27.4197 140.4172 42.6569 -23.0907 2.2880 42.4209
# 3 12.1569 42.6569 67.7376 -12.4236 -0.9382 11.1884
# 4 -1.1975 -23.0907 -12.4236 37.3073 13.4888 -5.5381
# 5 -6.8216 2.2880 -0.9382 13.4888 33.2841 -8.6634
# 6 21.7843 42.4209 11.1884 -5.5381 -8.6634 44.8031
#
#
#
# Elastic Compliance Matrix: (Units=1/GPa)
#
#
# Indices 1 2 3 4 5 6 
#
# 1 0.025028 -0.002210 -0.002326 -0.004361 0.004603 -0.009145
# 2 -0.002210 0.014021 -0.005188 0.007996 -0.007776 -0.011421
# 3 -0.002326 -0.005188 0.018790 0.003415 -0.000540 0.001668
# 4 -0.004361 0.007996 0.003415 0.038621 -0.018319 -0.005071
# 5 0.004603 -0.007776 -0.000540 -0.018319 0.041815 0.011081
# 6 -0.009145 -0.011421 0.001668 -0.005071 0.011081 0.038679
#
#
# Mechanical properties :
#
#
# Convention : Reuss Voigt Hill
#
# Bulk Modulus (GPa) = 26.04669 47.23703 36.64186
# Shear Modulus (GPa) = 23.90067 34.97440 29.43753
#
# Velocity S-wave (km/s) = 3.15706 3.81903 3.50372
# Velocity P-wave (km/s) = 4.91441 6.25663 5.62569
#
# Compressibility (1/GPa) = 0.03839259
#
# Stress axis : x y z
#
# Youngs Moduli (GPa) = 39.95487 71.32165 53.21855
#
# Poissons Ratio (x) = 0.15764 0.12376
# Poissons Ratio (y) = 0.08831 0.27608
# Poissons Ratio (z) = 0.09292 0.37000
#
# Static dielectric constant tensor:
#      x y z
#    x 1.962040 0.006400 -0.019000 
#    y 0.006400 1.936450 0.025100 
#    z -0.019000 0.025100 1.991320 
# 
# From -- ./inp_files/328490.got.cif
#   From: 2010.05.17/outbox.cif.g08.bks.cpg/sg2_165_cif.got.tgz:328490.got - 2010.06.03 11:33:40.
