data_PCOD9045565
_publ_section_title
;
Structure prediction by ZEFSAII (Michael W. Deem and Ramdas Pophale) SiO2 
 PCOD9045565
Probable space group: P -1
;
_chemical_formula_sum "Si O2"
_cell_formula_units_Z 16
_cell_length_a 11.400912
_cell_length_b 5.176787
_cell_length_c 30.515648
_cell_angle_alpha 121.578577
_cell_angle_beta 27.445148
_cell_angle_gamma 107.959230
_cell_volume 648.664947
_symmetry_space_group_name_H-M "P -1"
_symmetry_group_IT_number 2
_symmetry_cell_setting 'triclinic'
loop_
_space_group_symop_operation_xyz
x,y,z
-x,-y,-z
loop_
_atom_site_type_symbol
_atom_site_label
_atom_site_fract_x
_atom_site_fract_y
_atom_site_fract_z
Si Si1 0.382513 0.117423 0.267823
Si Si2 0.597883 0.230866 0.860264
Si Si3 0.640375 0.751496 0.488801
Si Si4 0.349265 0.985424 0.002504
Si Si5 0.795952 0.670369 0.531323
Si Si6 0.883924 0.632853 0.311436
Si Si7 0.793518 0.164089 0.241957
Si Si8 0.553256 0.695080 0.255716
O O1 0.088091 0.362457 0.408654
O O2 0.566229 0.333971 0.224617
O O3 0.349218 0.009925 0.220254
O O4 0.524133 0.804267 0.224386
O O5 0.400728 0.603221 0.944923
O O6 0.882810 0.274295 0.779491
O O7 0.478812 0.111843 0.930962
O O8 0.500000 0.500000 0.500000
O O9 0.727760 0.716308 0.506455
O O10 0.892951 0.672874 0.364158
O O11 0.410442 0.107924 0.584937
O O12 0.500000 0.000000 0.000000
O O13 0.020562 0.181748 0.135130
O O14 0.535391 0.612520 0.634923
O O15 0.729831 0.034518 0.604858
O O16 0.888242 0.279013 0.265569
O O17 0.783243 0.805036 0.210949
#
# Coordination Sequence:
#
# PCOD9045565 Si02
#       8
#     2   2   2   2   2   2   2   2
#     4  12  25  49  70 109 145 187 240 288 369 415
#     4  12  29  45  77 102 145 191 234 301 353 427
#     4  11  22  39  61 108 149 186 221 293 366 445
#     4  12  27  51  72 108 142 189 241 295 355 428
#     4  10  24  40  74 102 147 186 235 296 349 439
#     4  11  25  40  68 105 149 184 236 289 373 428
#     4  10  25  45  71 105 136 191 239 293 356 420
#     4  10  26  45  73 106 143 191 236 299 348 430
#
# _framework density 24.666048
#
# number of rings (size 3 to 8) (size 9 to 14) (size 15 to 20)
#    0.750    0.250    2.500    2.625   10.500    1.000 
#    0.000    3.750    0.000    0.000    0.000    0.000 
#    0.000    0.000    0.000    0.000    0.000    0.000 
#
# Total GULP energy -89477.778829 kJ/mol
# GULP energy per Si atom -5592.361177 kJ/mol
# Density = 2.460991 g / cm^3
# Si number density = 24.666048 Si / 1000 Ang^3
#
#
#
# Elastic Constant Matrix: (Units=GPa)
#
#
# Indices 1 2 3 4 5 6 
#
# 1 80.0586 38.9145 26.2141 -6.1437 9.4831 -3.3906
# 2 38.9145 92.8680 41.6486 -26.2338 6.4787 3.2456
# 3 26.2141 41.6486 130.6038 -34.7597 -0.6735 0.6546
# 4 -6.1437 -26.2338 -34.7597 38.8961 6.1166 5.9659
# 5 9.4831 6.4787 -0.6735 6.1166 26.3632 -3.2917
# 6 -3.3906 3.2456 0.6546 5.9659 -3.2917 42.6922
#
#
#
# Elastic Compliance Matrix: (Units=1/GPa)
#
#
# Indices 1 2 3 4 5 6 
#
# 1 0.016784 -0.006991 -0.002193 -0.003856 -0.003207 0.002190
# 2 -0.006991 0.017941 -0.001354 0.011162 -0.004998 -0.003844
# 3 -0.002193 -0.001354 0.010883 0.008835 -0.000842 -0.001538
# 4 -0.003856 0.011162 0.008835 0.043743 -0.012322 -0.008353
# 5 -0.003207 -0.004998 -0.000842 -0.012322 0.043805 0.005238
# 6 0.002190 -0.003844 -0.001538 -0.008353 0.005238 0.025484
#
#
# Mechanical properties :
#
#
# Convention : Reuss Voigt Hill
#
# Bulk Modulus (GPa) = 40.76349 57.45388 49.10869
# Shear Modulus (GPa) = 26.61079 34.70719 30.65899
#
# Velocity S-wave (km/s) = 3.28814 3.75518 3.52939
# Velocity P-wave (km/s) = 5.56577 6.49193 6.04661
#
# Compressibility (1/GPa) = 0.02453175
#
# Stress axis : x y z
#
# Youngs Moduli (GPa) = 59.58034 55.73904 91.88371
#
# Poissons Ratio (x) = 0.38970 0.20150
# Poissons Ratio (y) = 0.41656 0.12439
# Poissons Ratio (z) = 0.13066 0.07546
#
# Static dielectric constant tensor:
#      x y z
#    x 1.947950 0.006520 -0.010000 
#    y 0.006520 1.961270 0.025960 
#    z -0.010000 0.025960 2.014310 
# 
# From -- ./inp_files/617868.got.cif
#   From: 2010.05.17/outbox.cif.g08.bks.cpg/sg2_309_cif.got.tgz:617868.got - 2010.06.03 11:33:40.
