data_PCOD9045467
_publ_section_title
;
Structure prediction by ZEFSAII (Michael W. Deem and Ramdas Pophale) SiO2 
 PCOD9045467
Probable space group: P -1
;
_chemical_formula_sum "Si O2"
_cell_formula_units_Z 16
_cell_length_a 5.311769
_cell_length_b 13.692539
_cell_length_c 14.864538
_cell_angle_alpha 139.055873
_cell_angle_beta 66.045387
_cell_angle_gamma 104.140678
_cell_volume 643.938399
_symmetry_space_group_name_H-M "P -1"
_symmetry_group_IT_number 2
_symmetry_cell_setting 'triclinic'
loop_
_space_group_symop_operation_xyz
x,y,z
-x,-y,-z
loop_
_atom_site_type_symbol
_atom_site_label
_atom_site_fract_x
_atom_site_fract_y
_atom_site_fract_z
Si Si1 0.324123 0.261697 0.918307
Si Si2 0.540460 0.078160 0.296178
Si Si3 0.846950 0.899874 0.798480
Si Si4 0.717457 0.522673 0.774387
Si Si5 0.631200 0.710756 0.386119
Si Si6 0.264621 0.520541 0.623122
Si Si7 0.050717 0.667418 0.139749
Si Si8 0.600414 0.223073 0.102993
O O1 0.122503 0.237788 0.847284
O O2 0.625240 0.313186 0.886246
O O3 0.395673 0.101037 0.843745
O O4 0.178154 0.396185 0.095837
O O5 0.451335 0.129970 0.445270
O O6 0.307361 0.131764 0.294154
O O7 0.828790 0.146073 0.283005
O O8 0.682729 0.831574 0.855688
O O9 0.792346 0.078579 0.944749
O O10 0.597687 0.364707 0.691967
O O11 0.473656 0.650772 0.872498
O O12 0.938590 0.506002 0.648786
O O13 0.666646 0.598928 0.389267
O O14 0.898461 0.707096 0.283212
O O15 0.500000 0.500000 0.500000
O O16 0.270913 0.688455 0.774676
O O17 0.000000 0.500000 0.000000
#
# Coordination Sequence:
#
# PCOD9045467 Si02
#       8
#     2   2   2   2   2   2   2   2
#     4  12  26  47  78 103 143 184 241 300 354 418
#     4  12  27  46  71 104 145 188 235 293 361 426
#     4  11  25  44  70 102 145 191 239 291 356 423
#     4  11  24  44  71 104 141 189 244 293 354 429
#     4  11  28  43  71 106 144 189 238 295 360 431
#     4  11  25  43  70 103 150 190 239 294 357 421
#     4  12  26  48  77 110 138 186 240 300 355 421
#     4  10  24  40  68 102 137 192 245 295 345 426
#
# _framework density 24.847097999999999
#
# number of rings (size 3 to 8) (size 9 to 14) (size 15 to 20)
#    0.000    0.750    2.500    3.375   10.500    3.000 
#    0.000    0.000    0.000    0.000    0.000    0.000 
#    0.000    0.000    0.000    0.000    0.000    0.000 
#
# Total GULP energy -89572.641039 kJ/mol
# GULP energy per Si atom -5598.290065 kJ/mol
# Density = 2.479054 g / cm^3
# Si number density = 24.847098 Si / 1000 Ang^3
#
#
#
# Elastic Constant Matrix: (Units=GPa)
#
#
# Indices 1 2 3 4 5 6 
#
# 1 111.0263 25.8201 37.5286 -11.6353 -9.3777 16.3222
# 2 25.8201 51.3595 14.1367 -22.4195 -3.9577 11.2997
# 3 37.5286 14.1367 138.5218 -25.2892 2.5658 26.2446
# 4 -11.6353 -22.4195 -25.2892 46.0228 14.0403 -8.3641
# 5 -9.3777 -3.9577 2.5658 14.0403 30.7571 -15.0867
# 6 16.3222 11.2997 26.2446 -8.3641 -15.0867 50.4238
#
#
#
# Elastic Compliance Matrix: (Units=1/GPa)
#
#
# Indices 1 2 3 4 5 6 
#
# 1 0.011496 -0.005916 -0.003165 -0.003055 0.004438 0.000073
# 2 -0.005916 0.029220 0.002784 0.015743 -0.008397 -0.005983
# 3 -0.003165 0.002784 0.010513 0.007652 -0.008018 -0.006201
# 4 -0.003055 0.015743 0.007652 0.037749 -0.019811 -0.006187
# 5 0.004438 -0.008397 -0.008018 -0.019811 0.050574 0.016464
# 6 0.000073 -0.005983 -0.006201 -0.006187 0.016464 0.028276
#
#
# Mechanical properties :
#
#
# Convention : Reuss Voigt Hill
#
# Bulk Modulus (GPa) = 25.88312 50.65317 38.26814
# Shear Modulus (GPa) = 25.86654 40.33555 33.10104
#
# Velocity S-wave (km/s) = 3.23000 4.03345 3.65388
# Velocity P-wave (km/s) = 4.93458 6.49014 5.76507
#
# Compressibility (1/GPa) = 0.03863522
#
# Stress axis : x y z
#
# Youngs Moduli (GPa) = 86.98341 34.22329 95.12324
#
# Poissons Ratio (x) = 0.20247 0.30103
# Poissons Ratio (y) = 0.51462 -0.26482
# Poissons Ratio (z) = 0.27527 -0.09528
#
# Static dielectric constant tensor:
#      x y z
#    x 2.043940 -0.033210 0.036640 
#    y -0.033210 1.992470 -0.032610 
#    z 0.036640 -0.032610 1.957470 
# 
# From -- ./inp_files/100007.got.cif
#   From: 2010.05.17/outbox.cif.g08.bks.cpg/sg2_51_cif.got.tgz:100007.got - 2010.06.03 11:33:40.
