data_PCOD9045552
_publ_section_title
;
Structure prediction by ZEFSAII (Michael W. Deem and Ramdas Pophale) SiO2 
 PCOD9045552
Probable space group: P -1
;
_chemical_formula_sum "Si O2"
_cell_formula_units_Z 15
_cell_length_a 9.100623
_cell_length_b 10.953689
_cell_length_c 11.287845
_cell_angle_alpha 46.421227
_cell_angle_beta 51.014945
_cell_angle_gamma 68.518942
_cell_volume 629.056756
_symmetry_space_group_name_H-M "P -1"
_symmetry_group_IT_number 2
_symmetry_cell_setting 'triclinic'
loop_
_space_group_symop_operation_xyz
x,y,z
-x,-y,-z
loop_
_atom_site_type_symbol
_atom_site_label
_atom_site_fract_x
_atom_site_fract_y
_atom_site_fract_z
Si Si1 0.404928 0.587978 0.702886
Si Si2 0.330285 0.835509 0.940023
Si Si3 0.500000 0.500000 0.500000
Si Si4 0.779923 0.507473 0.637536
Si Si5 0.142858 0.279754 0.121458
Si Si6 0.208184 0.831226 0.750218
Si Si7 0.253786 0.185881 0.370139
Si Si8 0.364866 0.115401 0.921070
O O1 0.323462 0.555965 0.635792
O O2 0.625974 0.552057 0.584442
O O3 0.402924 0.768928 0.642399
O O4 0.303188 0.442593 0.936459
O O5 0.197628 0.812409 0.907635
O O6 0.543086 0.836734 0.778689
O O7 0.296901 0.001878 0.918245
O O8 0.294039 0.676348 0.151678
O O9 0.452106 0.297614 0.706704
O O10 0.751669 0.647306 0.658407
O O11 0.000000 0.500000 0.500000
O O12 0.119144 0.202391 0.314908
O O13 0.940994 0.302844 0.152680
O O14 0.216182 0.153776 0.071585
O O15 0.195016 0.019879 0.588535
O O16 0.500000 0.000000 0.000000
#
# Coordination Sequence:
#
# PCOD9045552 Si02
#       8
#     2   2   1   2   2   2   2   2
#     4  11  23  47  71 104 147 194 249 303 382 440
#     4  12  24  48  77 103 151 198 246 312 376 449
#     4  10  24  40  72 104 144 194 250 302 372 458
#     4  12  28  46  75 109 146 195 254 313 378 451
#     4  11  25  46  72 107 147 199 243 308 370 456
#     4  12  27  42  75 113 145 191 254 305 371 457
#     4  12  24  48  75 104 149 200 246 303 377 447
#     4  11  23  44  74 106 149 199 252 306 385 441
#
# _framework density 23.845224000000002
#
# number of rings (size 3 to 8) (size 9 to 14) (size 15 to 20)
#    0.000    0.533    4.000    4.000    3.733    3.733 
#    0.000    0.000    0.000    0.000    0.000    0.000 
#    0.000    0.000    0.000    0.000    0.000    0.000 
#
# Total GULP energy -83634.149747 kJ/mol
# GULP energy per Si atom -5575.609983 kJ/mol
# Density = 2.379095 g / cm^3
# Si number density = 23.845224 Si / 1000 Ang^3
#
#
#
# Elastic Constant Matrix: (Units=GPa)
#
#
# Indices 1 2 3 4 5 6 
#
# 1 64.2270 5.0210 -1.4766 -19.8931 -0.8961 -0.4284
# 2 5.0210 154.9924 20.3558 -17.9667 0.0920 25.2495
# 3 -1.4766 20.3558 83.1678 -27.6632 2.0820 -8.6788
# 4 -19.8931 -17.9667 -27.6632 28.1123 -1.7826 -4.5849
# 5 -0.8961 0.0920 2.0820 -1.7826 29.1137 1.6281
# 6 -0.4284 25.2495 -8.6788 -4.5849 1.6281 39.0439
#
#
#
# Elastic Compliance Matrix: (Units=1/GPa)
#
#
# Indices 1 2 3 4 5 6 
#
# 1 0.025000 0.000228 0.010785 0.029510 0.001473 0.005928
# 2 0.000228 0.007798 -0.001482 0.002898 0.000548 -0.005052
# 3 0.010785 -0.001482 0.024435 0.032412 -0.000003 0.010314
# 4 0.029510 0.002898 0.032412 0.093096 0.003362 0.016447
# 5 0.001473 0.000548 -0.000003 0.003362 0.034675 -0.001390
# 6 0.005928 -0.005052 0.010314 0.016447 -0.001390 0.033227
#
#
# Mechanical properties :
#
#
# Convention : Reuss Voigt Hill
#
# Bulk Modulus (GPa) = 13.10677 38.90973 26.00825
# Shear Modulus (GPa) = 22.26179 37.81978 30.04078
#
# Velocity S-wave (km/s) = 3.05879 3.98685 3.55325
# Velocity P-wave (km/s) = 4.24070 6.12750 5.26924
#
# Compressibility (1/GPa) = 0.07629644
#
# Stress axis : x y z
#
# Youngs Moduli (GPa) = 39.99966 128.24207 40.92430
#
# Poissons Ratio (x) = -0.02921 -0.44139
# Poissons Ratio (y) = -0.00911 0.06064
# Poissons Ratio (z) = -0.43142 0.19001
#
# Static dielectric constant tensor:
#      x y z
#    x 1.974960 -0.272670 -0.151080 
#    y -0.272670 2.039880 0.106280 
#    z -0.151080 0.106280 1.897680 
# 
# From -- ./inp_files/391821.got.cif
#   From: 2010.05.17/outbox.cif.g08.bks.cpg/sg2_196_cif.got.tgz:391821.got - 2010.06.03 11:33:40.
