data_PCOD9045504
_publ_section_title
;
Structure prediction by ZEFSAII (Michael W. Deem and Ramdas Pophale) SiO2 
 PCOD9045504
Probable space group: P -1
;
_chemical_formula_sum "Si O2"
_cell_formula_units_Z 12
_cell_length_a 5.416197
_cell_length_b 16.427726
_cell_length_c 10.065243
_cell_angle_alpha 45.004647
_cell_angle_beta 73.970078
_cell_angle_gamma 88.355477
_cell_volume 590.128464
_symmetry_space_group_name_H-M "P -1"
_symmetry_group_IT_number 2
_symmetry_cell_setting 'triclinic'
loop_
_space_group_symop_operation_xyz
x,y,z
-x,-y,-z
loop_
_atom_site_type_symbol
_atom_site_label
_atom_site_fract_x
_atom_site_fract_y
_atom_site_fract_z
Si Si1 0.277618 0.587781 0.821119
Si Si2 0.385528 0.345670 0.085517
Si Si3 0.203766 0.998297 0.093337
Si Si4 0.983960 0.361271 0.647473
Si Si5 0.965519 0.264319 0.477497
Si Si6 0.645532 0.748177 0.091717
O O1 0.359067 0.661406 0.859084
O O2 0.272681 0.677082 0.599607
O O3 0.436035 0.487243 0.884293
O O4 0.000000 0.500000 0.000000
O O5 0.163753 0.300677 0.282804
O O6 0.327542 0.275172 0.041004
O O7 0.104822 0.875408 0.328634
O O8 0.236942 0.116034 0.040058
O O9 0.500000 0.000000 0.000000
O O10 0.000000 0.000000 0.000000
O O11 0.067401 0.325608 0.530680
O O12 0.672233 0.292220 0.787405
O O13 0.000000 0.500000 0.500000
O O14 0.180885 0.324766 0.766800
#
# Coordination Sequence:
#
# PCOD9045504 Si02
#       6
#     2   2   2   2   2   2
#     4   9  21  41  65  98 142 177 223 280 354 414
#     4  10  24  40  70 100 140 176 231 289 353 404
#     4  12  25  49  70  98 141 188 232 289 342 412
#     4  12  27  43  71 104 141 179 233 287 350 416
#     4  11  24  42  72  96 136 185 236 270 356 408
#     4  12  26  47  68 104 141 180 231 294 343 407
#
# _framework density 20.334555999999999
#
# number of rings (size 3 to 8) (size 9 to 14) (size 15 to 20)
#    0.000    1.000    3.333    1.500   16.333    0.667 
#    0.000    0.833    0.000    0.000    0.000    0.000 
#    0.000    0.000    0.000    0.000    0.000    0.000 
#
# Total GULP energy -66968.259879 kJ/mol
# GULP energy per Si atom -5580.688323 kJ/mol
# Density = 2.028827 g / cm^3
# Si number density = 20.334556 Si / 1000 Ang^3
#
#
#
# Elastic Constant Matrix: (Units=GPa)
#
#
# Indices 1 2 3 4 5 6 
#
# 1 106.1467 34.1393 50.6062 8.4394 0.1700 20.3555
# 2 34.1393 190.5773 74.4185 5.8244 -0.1435 25.5838
# 3 50.6062 74.4185 146.8279 -9.9196 6.8149 5.2861
# 4 8.4394 5.8244 -9.9196 48.6790 -3.3211 5.2355
# 5 0.1700 -0.1435 6.8149 -3.3211 28.8487 5.5281
# 6 20.3555 25.5838 5.2861 5.2355 5.5281 33.3817
#
#
#
# Elastic Compliance Matrix: (Units=1/GPa)
#
#
# Indices 1 2 3 4 5 6 
#
# 1 0.013213 0.000657 -0.004873 -0.002367 0.002298 -0.007798
# 2 0.000657 0.007474 -0.003974 -0.001078 0.001930 -0.005650
# 3 -0.004873 -0.003974 0.010677 0.002818 -0.003029 0.004386
# 4 -0.002367 -0.001078 0.002818 0.022026 0.002263 -0.002006
# 5 0.002298 0.001930 -0.003029 0.002263 0.037349 -0.008941
# 6 -0.007798 -0.005650 0.004386 -0.002006 -0.008941 0.040143
#
#
# Mechanical properties :
#
#
# Convention : Reuss Voigt Hill
#
# Bulk Modulus (GPa) = 66.73359 84.65333 75.69346
# Shear Modulus (GPa) = 32.83947 41.14107 36.99027
#
# Velocity S-wave (km/s) = 4.02301 4.50289 4.26970
# Velocity P-wave (km/s) = 7.38028 8.29188 7.84933
#
# Compressibility (1/GPa) = 0.01498496
#
# Stress axis : x y z
#
# Youngs Moduli (GPa) = 75.68525 133.79547 93.65810
#
# Poissons Ratio (x) = -0.08786 0.45636
# Poissons Ratio (y) = -0.04970 0.37216
# Poissons Ratio (z) = 0.36878 0.53165
#
# Static dielectric constant tensor:
#      x y z
#    x 2.031470 -0.039560 0.016150 
#    y -0.039560 1.716670 0.001520 
#    z 0.016150 0.001520 1.720340 
# 
# From -- ./inp_files/18506.got.cif
#   From: 2010.05.17/outbox.cif.g08.bks.cpg/sg2_10_cif.got.tgz:18506.got - 2010.06.03 11:33:40.
