data_PCOD9045207
_publ_section_title
;
Structure prediction by ZEFSAII (Michael W. Deem and Ramdas Pophale) SiO2 
 PCOD9045207
Probable space group: P -1
;
_chemical_formula_sum "Si O2"
_cell_formula_units_Z 15
_cell_length_a 8.704126
_cell_length_b 22.015335
_cell_length_c 18.757538
_cell_angle_alpha 160.826386
_cell_angle_beta 49.305554
_cell_angle_gamma 140.182523
_cell_volume 708.326946
_symmetry_space_group_name_H-M "P -1"
_symmetry_group_IT_number 2
_symmetry_cell_setting 'triclinic'
loop_
_space_group_symop_operation_xyz
x,y,z
-x,-y,-z
loop_
_atom_site_type_symbol
_atom_site_label
_atom_site_fract_x
_atom_site_fract_y
_atom_site_fract_z
Si Si1 0.711534 0.035510 0.771585
Si Si2 0.275273 0.993325 0.025389
Si Si3 0.321513 0.602687 0.729563
Si Si4 0.000000 0.500000 0.500000
Si Si5 0.260585 0.410193 0.021929
Si Si6 0.525749 0.581470 0.396172
Si Si7 0.236977 0.771770 0.515418
Si Si8 0.780815 0.821287 0.072883
O O1 0.712416 0.839457 0.593444
O O2 0.466494 0.893172 0.636706
O O3 0.685107 0.195602 0.009983
O O4 0.986924 0.220984 0.857514
O O5 0.057877 0.921909 0.068561
O O6 0.424077 0.250612 0.232607
O O7 0.135602 0.783164 0.778467
O O8 0.500000 0.000000 0.000000
O O9 0.351428 0.473824 0.640914
O O10 0.042876 0.418082 0.572934
O O11 0.283069 0.560625 0.474918
O O12 0.265446 0.622384 0.284956
O O13 0.500000 0.500000 0.000000
O O14 0.259441 0.283918 0.953547
O O15 0.421876 0.389846 0.152850
O O16 0.242413 0.972533 0.698820
#
# Coordination Sequence:
#
# PCOD9045207 Si02
#       8
#     2   2   2   1   2   2   2   2
#     4  11  22  44  70  96 136 168 216 269 326 387
#     4  11  24  40  61  96 135 181 224 262 312 378
#     4  11  24  39  67  97 135 182 220 253 319 389
#     4  10  24  36  62  88 134 176 224 260 306 368
#     4  11  26  48  73  97 124 169 218 275 344 398
#     4  11  22  42  66  95 136 182 217 265 318 379
#     4  11  24  43  69 101 132 170 218 274 324 395
#     4  11  24  44  66  97 135 172 223 271 328 385
#
# _framework density 21.176660999999999
#
# number of rings (size 3 to 8) (size 9 to 14) (size 15 to 20)
#    0.000    1.067    4.000    2.400    3.733    4.800 
#    0.000    0.667    0.000    0.000    0.000    0.000 
#    0.000    0.000    0.000    0.000    0.000    0.000 
#
# Total GULP energy -83707.683250 kJ/mol
# GULP energy per Si atom -5580.512217 kJ/mol
# Density = 2.112846 g / cm^3
# Si number density = 21.176661 Si / 1000 Ang^3
#
#
#
# Elastic Constant Matrix: (Units=GPa)
#
#
# Indices 1 2 3 4 5 6 
#
# 1 97.9825 47.4066 59.2829 18.5158 7.5064 0.5796
# 2 47.4066 133.8996 56.7247 20.7468 4.3333 13.8626
# 3 59.2829 56.7247 165.5189 24.5043 -4.1280 0.7965
# 4 18.5158 20.7468 24.5043 21.7594 2.6154 3.8416
# 5 7.5064 4.3333 -4.1280 2.6154 53.4811 15.7563
# 6 0.5796 13.8626 0.7965 3.8416 15.7563 23.0774
#
#
#
# Elastic Compliance Matrix: (Units=1/GPa)
#
#
# Indices 1 2 3 4 5 6 
#
# 1 0.015417 -0.003397 -0.003515 -0.006425 -0.003359 0.005138
# 2 -0.003397 0.010728 -0.001734 -0.004401 0.001663 -0.006702
# 3 -0.003515 -0.001734 0.008739 -0.005504 0.001331 0.000836
# 4 -0.006425 -0.004401 -0.005504 0.063146 -0.000050 -0.007482
# 5 -0.003359 0.001663 0.001331 -0.000050 0.024311 -0.017551
# 6 0.005138 -0.006702 0.000836 -0.007482 -0.017551 0.060429
#
#
# Mechanical properties :
#
#
# Convention : Reuss Voigt Hill
#
# Bulk Modulus (GPa) = 56.84726 80.46994 68.65860
# Shear Modulus (GPa) = 24.28042 35.26271 29.77156
#
# Velocity S-wave (km/s) = 3.38977 4.08507 3.75356
# Velocity P-wave (km/s) = 6.49795 7.76739 7.16085
#
# Compressibility (1/GPa) = 0.01759100
#
# Stress axis : x y z
#
# Youngs Moduli (GPa) = 64.86213 93.21618 114.42895
#
# Poissons Ratio (x) = 0.31666 0.40222
# Poissons Ratio (y) = 0.22034 0.19847
# Poissons Ratio (z) = 0.22799 0.16168
#
# Static dielectric constant tensor:
#      x y z
#    x 1.786670 -0.016880 0.030230 
#    y -0.016880 1.779500 0.012360 
#    z 0.030230 0.012360 1.798230 
# 
# From -- ./inp_files/562743.got.cif
#   From: 2010.05.17/outbox.cif.g08.bks.cpg/sg2_282_cif.got.tgz:562743.got - 2010.06.03 11:33:40.
