data_PCOD9045585
_publ_section_title
;
Structure prediction by ZEFSAII (Michael W. Deem and Ramdas Pophale) SiO2 
 PCOD9045585
Probable space group: P -1
;
_chemical_formula_sum "Si O2"
_cell_formula_units_Z 14
_cell_length_a 8.920793
_cell_length_b 18.091208
_cell_length_c 8.661780
_cell_angle_alpha 117.947747
_cell_angle_beta 63.513076
_cell_angle_gamma 150.789599
_cell_volume 600.427234
_symmetry_space_group_name_H-M "P -1"
_symmetry_group_IT_number 2
_symmetry_cell_setting 'triclinic'
loop_
_space_group_symop_operation_xyz
x,y,z
-x,-y,-z
loop_
_atom_site_type_symbol
_atom_site_label
_atom_site_fract_x
_atom_site_fract_y
_atom_site_fract_z
Si Si1 0.741528 0.979543 0.358433
Si Si2 0.126349 0.796830 0.626550
Si Si3 0.642819 0.321205 0.734309
Si Si4 0.673944 0.162096 0.095407
Si Si5 0.715770 0.503879 0.354840
Si Si6 0.273654 0.460627 0.964864
Si Si7 0.392877 0.216295 0.397214
O O1 0.845140 0.091751 0.297207
O O2 0.027058 0.079362 0.436498
O O3 0.445966 0.894487 0.500835
O O4 0.624359 0.841734 0.214019
O O5 0.125800 0.765223 0.769743
O O6 0.828702 0.635958 0.517539
O O7 0.551156 0.279221 0.554350
O O8 0.955663 0.405954 0.713102
O O9 0.698725 0.437898 0.871680
O O10 0.474947 0.163432 0.218812
O O11 0.921277 0.280116 0.961610
O O12 0.500000 0.000000 0.000000
O O13 0.627862 0.488013 0.205866
O O14 0.518201 0.351669 0.385946
O O15 0.500000 0.500000 0.000000
#
# Coordination Sequence:
#
# PCOD9045585 Si02
#       7
#     2   2   2   2   2   2   2
#     4  10  24  40  77 100 138 175 238 275 342 409
#     4  10  24  47  70 103 138 188 223 283 351 406
#     4  11  23  46  72  97 144 178 233 278 344 415
#     4  12  28  45  71 101 144 175 232 292 346 403
#     4  11  24  46  72  95 143 182 230 277 346 409
#     4  12  30  45  68 105 139 183 228 291 347 403
#     4  12  24  44  74 106 130 189 233 281 341 414
#
# _framework density 23.316731999999998
#
# number of rings (size 3 to 8) (size 9 to 14) (size 15 to 20)
#    0.000    0.857    4.286    2.143   12.000    0.571 
#    0.000    1.429    0.000    0.000    0.000    0.000 
#    0.000    0.000    0.000    0.000    0.000    0.000 
#
# Total GULP energy -78307.901504 kJ/mol
# GULP energy per Si atom -5593.421536 kJ/mol
# Density = 2.326366 g / cm^3
# Si number density = 23.316732 Si / 1000 Ang^3
#
#
#
# Elastic Constant Matrix: (Units=GPa)
#
#
# Indices 1 2 3 4 5 6 
#
# 1 93.4960 45.6396 8.0489 -7.5657 -7.1598 -19.5399
# 2 45.6396 144.1020 34.2216 19.7996 -15.9302 -27.5055
# 3 8.0489 34.2216 46.5149 -0.9679 -16.4177 -8.2862
# 4 -7.5657 19.7996 -0.9679 30.1394 -8.3266 -4.6440
# 5 -7.1598 -15.9302 -16.4177 -8.3266 31.8064 11.1324
# 6 -19.5399 -27.5055 -8.2862 -4.6440 11.1324 53.6420
#
#
#
# Elastic Compliance Matrix: (Units=1/GPa)
#
#
# Indices 1 2 3 4 5 6 
#
# 1 0.014918 -0.005913 0.003816 0.009248 0.003731 0.003018
# 2 -0.005913 0.012581 -0.009210 -0.010598 -0.003497 0.002683
# 3 0.003816 -0.009210 0.033876 0.012781 0.017281 -0.000579
# 4 0.009248 -0.010598 0.012781 0.047268 0.015469 0.000791
# 5 0.003731 -0.003497 0.017281 0.015469 0.045556 -0.005880
# 6 0.003018 0.002683 -0.000579 0.000791 -0.005880 0.022316
#
#
# Mechanical properties :
#
#
# Convention : Reuss Voigt Hill
#
# Bulk Modulus (GPa) = 25.79892 51.10370 38.45131
# Shear Modulus (GPa) = 23.57917 36.19775 29.88846
#
# Velocity S-wave (km/s) = 3.18347 3.94437 3.58417
# Velocity P-wave (km/s) = 4.95996 6.53520 5.80130
#
# Compressibility (1/GPa) = 0.03876132
#
# Stress axis : x y z
#
# Youngs Moduli (GPa) = 67.03107 79.48391 29.51925
#
# Poissons Ratio (x) = 0.47001 -0.11264
# Poissons Ratio (y) = 0.39637 0.27187
# Poissons Ratio (z) = -0.25578 0.73204
#
# Static dielectric constant tensor:
#      x y z
#    x 1.903580 -0.000680 -0.068080 
#    y -0.000680 1.915200 0.013000 
#    z -0.068080 0.013000 1.896870 
# 
# From -- ./inp_files/190946.got.cif
#   From: 2010.05.17/outbox.cif.g08.bks.cpg/sg2_96_cif.got.tgz:190946.got - 2010.06.03 11:33:40.
