data_PCOD9045160
_publ_section_title
;
Structure prediction by ZEFSAII (Michael W. Deem and Ramdas Pophale) SiO2 
 PCOD9045160
Probable space group: P -1
;
_chemical_formula_sum "Si O2"
_cell_formula_units_Z 14
_cell_length_a 13.028393
_cell_length_b 15.769577
_cell_length_c 9.796168
_cell_angle_alpha 36.537051
_cell_angle_beta 63.826407
_cell_angle_gamma 38.361551
_cell_volume 639.081066
_symmetry_space_group_name_H-M "P -1"
_symmetry_group_IT_number 2
_symmetry_cell_setting 'triclinic'
loop_
_space_group_symop_operation_xyz
x,y,z
-x,-y,-z
loop_
_atom_site_type_symbol
_atom_site_label
_atom_site_fract_x
_atom_site_fract_y
_atom_site_fract_z
Si Si1 0.857290 0.845096 0.124314
Si Si2 0.648032 0.327391 0.513441
Si Si3 0.171072 0.096427 0.629584
Si Si4 0.802863 0.496615 0.806510
Si Si5 0.544994 0.001218 0.260506
Si Si6 0.628288 0.399354 0.922749
Si Si7 0.826561 0.457652 0.166996
O O1 0.792616 0.058372 0.819219
O O2 0.928912 0.802757 0.292376
O O3 0.663274 0.948271 0.131327
O O4 0.017416 0.612887 0.235869
O O5 0.500000 0.500000 0.500000
O O6 0.518436 0.409153 0.356754
O O7 0.748522 0.377280 0.354415
O O8 0.345483 0.032079 0.632844
O O9 0.025706 0.280634 0.357494
O O10 0.264508 0.850095 0.865859
O O11 0.605579 0.777987 0.527435
O O12 0.778404 0.368282 0.918166
O O13 0.840354 0.451713 0.003171
O O14 0.329082 0.270954 0.041676
O O15 0.500000 0.500000 0.000000
#
# Coordination Sequence:
#
# PCOD9045160 Si02
#       7
#     2   2   2   2   2   2   2
#     4  10  24  44  68  97 136 178 220 281 327 402
#     4  12  21  42  70  95 133 175 224 272 332 395
#     4  10  24  44  71  93 136 175 234 259 340 400
#     4  12  26  42  69 101 141 169 227 283 334 393
#     4  10  23  50  66  96 141 180 220 272 335 411
#     4  12  24  43  67 105 137 175 221 288 333 390
#     4  12  24  43  72 100 128 186 222 277 338 394
#
# _framework density 21.906454
#
# number of rings (size 3 to 8) (size 9 to 14) (size 15 to 20)
#    0.857    0.000    5.714    1.714    4.000    2.857 
#    2.571    1.429    0.000    0.000    0.000    0.000 
#    0.000    0.000    0.000    0.000    0.000    0.000 
#
# Total GULP energy -78280.369728 kJ/mol
# GULP energy per Si atom -5591.454981 kJ/mol
# Density = 2.185659 g / cm^3
# Si number density = 21.906454 Si / 1000 Ang^3
#
#
#
# Elastic Constant Matrix: (Units=GPa)
#
#
# Indices 1 2 3 4 5 6 
#
# 1 37.1398 4.6673 13.4977 -3.0888 7.5710 -0.5923
# 2 4.6673 84.4267 3.1664 19.9150 -8.2726 2.6662
# 3 13.4977 3.1664 78.8905 2.2707 7.2655 9.3672
# 4 -3.0888 19.9150 2.2707 35.9286 -0.5281 2.1493
# 5 7.5710 -8.2726 7.2655 -0.5281 25.9313 -0.3118
# 6 -0.5923 2.6662 9.3672 2.1493 -0.3118 20.1526
#
#
#
# Elastic Compliance Matrix: (Units=1/GPa)
#
#
# Indices 1 2 3 4 5 6 
#
# 1 0.031403 -0.003622 -0.004913 0.004706 -0.008815 0.003048
# 2 -0.003622 0.014569 -0.000120 -0.008237 0.005559 -0.001014
# 3 -0.004913 -0.000120 0.014621 -0.000910 -0.002802 -0.006871
# 4 0.004706 -0.008237 -0.000910 0.032929 -0.003099 -0.001909
# 5 -0.008815 0.005559 -0.002802 -0.003099 0.043648 0.001313
# 6 0.003048 -0.001014 -0.006871 -0.001909 0.001313 0.053263
#
#
# Mechanical properties :
#
#
# Convention : Reuss Voigt Hill
#
# Bulk Modulus (GPa) = 23.10298 27.01330 25.05814
# Shear Modulus (GPa) = 22.50530 28.34421 25.42475
#
# Velocity S-wave (km/s) = 3.20869 3.60095 3.41046
# Velocity P-wave (km/s) = 4.92916 5.44491 5.19344
#
# Compressibility (1/GPa) = 0.04328446
#
# Stress axis : x y z
#
# Youngs Moduli (GPa) = 31.84423 68.63910 68.39372
#
# Poissons Ratio (x) = 0.24860 0.33601
# Poissons Ratio (y) = 0.11533 0.00818
# Poissons Ratio (z) = 0.15645 0.00821
#
# Static dielectric constant tensor:
#      x y z
#    x 1.906200 -0.125980 -0.030340 
#    y -0.125980 1.856900 -0.006140 
#    z -0.030340 -0.006140 1.797570 
# 
# From -- ./inp_files/310763.got.cif
#   From: 2010.05.17/outbox.cif.g08.bks.cpg/sg2_156_cif.got.tgz:310763.got - 2010.06.03 11:33:40.
