data_PCOD9045977
_publ_section_title
;
Structure prediction by ZEFSAII (Michael W. Deem and Ramdas Pophale) SiO2 
 PCOD9045977
Probable space group: P -1
;
_chemical_formula_sum "Si O2"
_cell_formula_units_Z 16
_cell_length_a 8.547259
_cell_length_b 13.613459
_cell_length_c 8.773753
_cell_angle_alpha 69.910473
_cell_angle_beta 88.504889
_cell_angle_gamma 125.974671
_cell_volume 740.225645
_symmetry_space_group_name_H-M "P -1"
_symmetry_group_IT_number 2
_symmetry_cell_setting 'triclinic'
loop_
_space_group_symop_operation_xyz
x,y,z
-x,-y,-z
loop_
_atom_site_type_symbol
_atom_site_label
_atom_site_fract_x
_atom_site_fract_y
_atom_site_fract_z
Si Si1 0.094910 0.769649 0.960644
Si Si2 0.874173 0.297963 0.515396
Si Si3 0.816694 0.674613 0.729102
Si Si4 0.103304 0.465728 0.725014
Si Si5 0.556399 0.556477 0.293064
Si Si6 0.449479 0.032353 0.645004
Si Si7 0.178046 0.119104 0.534389
Si Si8 0.081660 0.142923 0.855142
O O1 0.917775 0.718660 0.868351
O O2 0.307652 0.893658 0.817611
O O3 0.061670 0.637131 0.089033
O O4 0.053113 0.825626 0.077975
O O5 0.839576 0.389713 0.370917
O O6 0.663367 0.157003 0.644747
O O7 0.997719 0.274656 0.414202
O O8 0.011300 0.389461 0.605841
O O9 0.638114 0.519599 0.770324
O O10 0.727745 0.748130 0.638739
O O11 0.295275 0.473690 0.746790
O O12 0.500000 0.500000 0.500000
O O13 0.688000 0.718482 0.197573
O O14 0.323462 0.085940 0.594358
O O15 0.500000 0.000000 0.500000
O O16 0.080648 0.127770 0.683020
O O17 0.000000 0.000000 0.500000
O O18 0.000000 0.000000 0.000000
#
# Coordination Sequence:
#
# PCOD9045977 Si02
#       8
#     2   2   2   2   2   2   2   2
#     4  11  24  44  67 100 142 172 227 295 336 398
#     4  11  23  43  69  93 134 182 230 271 342 418
#     4  12  22  42  71  98 132 181 230 279 337 405
#     4  10  24  42  65  96 133 176 225 290 341 397
#     4  11  21  39  70  96 128 180 226 277 329 409
#     4  12  24  42  69 100 134 183 223 273 342 413
#     4  12  22  41  72  99 133 179 226 276 340 407
#     4  11  22  39  64 100 134 164 218 287 333 387
#
# _framework density 21.615030999999998
#
# number of rings (size 3 to 8) (size 9 to 14) (size 15 to 20)
#    0.000    0.750    6.250    1.500    0.000    3.000 
#    0.000    1.250    0.000    0.000    0.000    0.000 
#    0.000    0.000    0.000    0.000    0.000    0.000 
#
# Total GULP energy -89372.693305 kJ/mol
# GULP energy per Si atom -5585.793332 kJ/mol
# Density = 2.156583 g / cm^3
# Si number density = 21.615031 Si / 1000 Ang^3
#
#
#
# Elastic Constant Matrix: (Units=GPa)
#
#
# Indices 1 2 3 4 5 6 
#
# 1 56.9823 19.2063 28.8084 1.8385 -7.0725 8.8758
# 2 19.2063 120.7904 36.4500 -14.9979 -8.4094 16.9699
# 3 28.8084 36.4500 101.5158 -20.5857 -5.8157 -8.1679
# 4 1.8385 -14.9979 -20.5857 50.5995 -4.0521 -2.5276
# 5 -7.0725 -8.4094 -5.8157 -4.0521 32.6924 -7.0819
# 6 8.8758 16.9699 -8.1679 -2.5276 -7.0819 32.1795
#
#
#
# Elastic Compliance Matrix: (Units=1/GPa)
#
#
# Indices 1 2 3 4 5 6 
#
# 1 0.023338 -0.000661 -0.007911 -0.004582 0.001125 -0.008209
# 2 -0.000661 0.010608 -0.003788 0.001384 0.000763 -0.006097
# 3 -0.007911 -0.003788 0.015626 0.006215 0.002872 0.009266
# 4 -0.004582 0.001384 0.006215 0.023471 0.004448 0.004934
# 5 0.001125 0.000763 0.002872 0.004448 0.033780 0.007800
# 6 -0.008209 -0.006097 0.009266 0.004934 0.007800 0.041011
#
#
# Mechanical properties :
#
#
# Convention : Reuss Voigt Hill
#
# Bulk Modulus (GPa) = 40.23628 49.80200 45.01914
# Shear Modulus (GPa) = 27.64939 36.08253 31.86596
#
# Velocity S-wave (km/s) = 3.58043 4.09017 3.84376
# Velocity P-wave (km/s) = 5.97897 6.73769 6.36964
#
# Compressibility (1/GPa) = 0.02485319
#
# Stress axis : x y z
#
# Youngs Moduli (GPa) = 42.84930 94.26523 63.99672
#
# Poissons Ratio (x) = 0.06231 0.50625
# Poissons Ratio (y) = 0.02833 0.24240
# Poissons Ratio (z) = 0.33896 0.35704
#
# Static dielectric constant tensor:
#      x y z
#    x 1.791040 -0.030900 0.020460 
#    y -0.030900 1.892050 -0.042390 
#    z 0.020460 -0.042390 1.833080 
# 
# From -- ./inp_files/200865.got.cif
#   From: 2010.05.17/outbox.cif.g08.bks.cpg/sg2_101_cif.got.tgz:200865.got - 2010.06.03 11:33:40.
