data_PCOD9045452
_publ_section_title
;
Structure prediction by ZEFSAII (Michael W. Deem and Ramdas Pophale) SiO2 
 PCOD9045452
Probable space group: P -1
;
_chemical_formula_sum "Si O2"
_cell_formula_units_Z 16
_cell_length_a 9.511383
_cell_length_b 15.263108
_cell_length_c 9.100800
_cell_angle_alpha 101.390655
_cell_angle_beta 76.818360
_cell_angle_gamma 142.538855
_cell_volume 782.104231
_symmetry_space_group_name_H-M "P -1"
_symmetry_group_IT_number 2
_symmetry_cell_setting 'triclinic'
loop_
_space_group_symop_operation_xyz
x,y,z
-x,-y,-z
loop_
_atom_site_type_symbol
_atom_site_label
_atom_site_fract_x
_atom_site_fract_y
_atom_site_fract_z
Si Si1 0.471089 0.919505 0.119494
Si Si2 0.220439 0.265591 0.466722
Si Si3 0.080955 0.940451 0.007054
Si Si4 0.817836 0.348796 0.075226
Si Si5 0.459454 0.468607 0.744746
Si Si6 0.172278 0.369311 0.039764
Si Si7 0.364269 0.144183 0.291838
Si Si8 0.696216 0.051294 0.569514
O O1 0.316024 0.894303 0.264540
O O2 0.726490 0.009296 0.131474
O O3 0.340377 0.767721 0.053604
O O4 0.500000 0.000000 0.000000
O O5 0.319087 0.331625 0.629530
O O6 0.385774 0.398233 0.358407
O O7 0.237655 0.171437 0.384682
O O8 0.957249 0.172917 0.488302
O O9 0.212217 0.022353 0.158642
O O10 0.000000 0.000000 0.000000
O O11 0.893441 0.768723 0.997358
O O12 0.624539 0.290562 0.216648
O O13 0.954969 0.329399 0.101543
O O14 0.000000 0.500000 0.000000
O O15 0.637981 0.519199 0.842659
O O16 0.280926 0.439585 0.876089
O O17 0.378703 0.082853 0.402604
O O18 0.500000 0.000000 0.500000
#
# Coordination Sequence:
#
# PCOD9045452 Si02
#       8
#     2   2   2   2   2   2   2   2
#     4  11  21  45  67  95 130 175 225 281 340 386
#     4  11  24  44  64  93 142 173 221 264 348 410
#     4  11  22  37  74 100 128 166 230 288 335 392
#     4  11  22  39  72  98 134 175 227 283 340 396
#     4  10  24  40  67  93 131 184 211 271 343 401
#     4  11  21  42  67  97 131 170 238 274 330 397
#     4  11  23  43  63 101 138 174 219 285 342 395
#     4  12  26  42  69  97 129 186 225 275 340 398
#
# _framework density 20.457632
#
# number of rings (size 3 to 8) (size 9 to 14) (size 15 to 20)
#    0.000    1.000    3.750    3.375    5.250    4.000 
#    2.250    0.625    0.000    0.000    0.000    0.000 
#    0.000    0.000    0.000    0.000    0.000    0.000 
#
# Total GULP energy -89284.591601 kJ/mol
# GULP energy per Si atom -5580.286975 kJ/mol
# Density = 2.041107 g / cm^3
# Si number density = 20.457632 Si / 1000 Ang^3
#
#
#
# Elastic Constant Matrix: (Units=GPa)
#
#
# Indices 1 2 3 4 5 6 
#
# 1 126.9926 31.6860 34.0359 -3.7793 -16.6754 8.5683
# 2 31.6860 108.4985 26.7614 -8.3821 1.1602 6.8216
# 3 34.0359 26.7614 78.5929 8.4161 -11.0663 10.4291
# 4 -3.7793 -8.3821 8.4161 28.3324 2.6007 0.7859
# 5 -16.6754 1.1602 -11.0663 2.6007 36.2125 -2.3726
# 6 8.5683 6.8216 10.4291 0.7859 -2.3726 31.3961
#
#
#
# Elastic Compliance Matrix: (Units=1/GPa)
#
#
# Indices 1 2 3 4 5 6 
#
# 1 0.009749 -0.001957 -0.003084 0.001348 0.003448 -0.000984
# 2 -0.001957 0.011125 -0.003670 0.004401 -0.002760 -0.000983
# 3 -0.003084 -0.003670 0.017105 -0.006864 0.004185 -0.003555
# 4 0.001348 0.004401 -0.006864 0.039235 -0.004459 -0.000363
# 5 0.003448 -0.002760 0.004185 -0.004459 0.030937 0.000718
# 6 -0.000984 -0.000983 -0.003555 -0.000363 0.000718 0.033577
#
#
# Mechanical properties :
#
#
# Convention : Reuss Voigt Hill
#
# Bulk Modulus (GPa) = 48.64602 55.45006 52.04804
# Shear Modulus (GPa) = 30.12020 33.96158 32.04089
#
# Velocity S-wave (km/s) = 3.84125 4.07884 3.96183
# Velocity P-wave (km/s) = 6.59576 7.02469 6.81360
#
# Compressibility (1/GPa) = 0.02055667
#
# Stress axis : x y z
#
# Youngs Moduli (GPa) = 102.57912 89.88936 58.46336
#
# Poissons Ratio (x) = 0.17594 0.18028
# Poissons Ratio (y) = 0.20077 0.21455
# Poissons Ratio (z) = 0.31631 0.32988
#
# Static dielectric constant tensor:
#      x y z
#    x 1.769590 0.008510 0.011660 
#    y 0.008510 1.777500 -0.035550 
#    z 0.011660 -0.035550 1.826170 
# 
# From -- ./inp_files/207722.got.cif
#   From: 2010.05.17/outbox.cif.g08.bks.cpg/sg2_104_cif.got.tgz:207722.got - 2010.06.03 11:33:40.
