data_PCOD9045130
_publ_section_title
;
Structure prediction by ZEFSAII (Michael W. Deem and Ramdas Pophale) SiO2 
 PCOD9045130
Probable space group: P -1
;
_chemical_formula_sum "Si O2"
_cell_formula_units_Z 16
_cell_length_a 9.140367
_cell_length_b 11.608448
_cell_length_c 12.863459
_cell_angle_alpha 57.934217
_cell_angle_beta 112.780826
_cell_angle_gamma 66.863725
_cell_volume 685.569508
_symmetry_space_group_name_H-M "P -1"
_symmetry_group_IT_number 2
_symmetry_cell_setting 'triclinic'
loop_
_space_group_symop_operation_xyz
x,y,z
-x,-y,-z
loop_
_atom_site_type_symbol
_atom_site_label
_atom_site_fract_x
_atom_site_fract_y
_atom_site_fract_z
Si Si1 0.260051 0.678939 0.917871
Si Si2 0.461322 0.015328 0.687168
Si Si3 0.515506 0.473627 0.299239
Si Si4 0.165568 0.511531 0.583274
Si Si5 0.880992 0.688775 0.801004
Si Si6 0.247449 0.418703 0.374940
Si Si7 0.941169 0.905669 0.413205
Si Si8 0.700316 0.794024 0.079542
O O1 0.156101 0.893841 0.757248
O O2 0.069998 0.685248 0.835048
O O3 0.500000 0.500000 0.000000
O O4 0.318126 0.630708 0.079871
O O5 0.367174 0.231983 0.577533
O O6 0.035371 0.235715 0.591534
O O7 0.648917 0.898551 0.699367
O O8 0.252866 0.038537 0.589979
O O9 0.594906 0.555456 0.348128
O O10 0.427305 0.413070 0.380021
O O11 0.766805 0.268567 0.401988
O O12 0.260688 0.384781 0.780013
O O13 0.000000 0.500000 0.500000
O O14 0.817769 0.645148 0.703077
O O15 0.000000 0.500000 0.000000
O O16 0.987065 0.656586 0.223812
O O17 0.401004 0.128766 0.102392
O O18 0.500000 0.000000 0.000000
#
# Coordination Sequence:
#
# PCOD9045130 Si02
#       8
#     2   2   2   2   2   2   2   2
#     4  12  25  42  69 108 154 192 245 298 364 451
#     4  12  24  44  76 103 151 197 245 300 371 448
#     4  10  24  44  71 105 147 185 248 302 373 432
#     4  10  23  49  75 102 139 185 253 310 364 433
#     4  12  24  44  72 110 154 202 241 290 382 443
#     4  12  25  48  70 110 153 196 245 309 364 461
#     4  10  24  41  71 103 144 192 241 301 362 433
#     4  12  26  45  79 105 137 194 254 314 376 437
#
# _framework density 23.338258
#
# number of rings (size 3 to 8) (size 9 to 14) (size 15 to 20)
#    0.750    0.000    3.750    3.375    3.500    0.500 
#    0.000    1.250    0.000    0.000    0.000    0.000 
#    0.000    0.000    0.000    0.000    0.000    0.000 
#
# Total GULP energy -89269.343443 kJ/mol
# GULP energy per Si atom -5579.333965 kJ/mol
# Density = 2.328514 g / cm^3
# Si number density = 23.338258 Si / 1000 Ang^3
#
#
#
# Elastic Constant Matrix: (Units=GPa)
#
#
# Indices 1 2 3 4 5 6 
#
# 1 222.7894 45.9827 59.5041 1.8088 16.1132 26.1687
# 2 45.9827 97.7185 34.3533 -6.5964 4.7680 10.7756
# 3 59.5041 34.3533 109.9231 -8.3785 -7.7926 10.0995
# 4 1.8088 -6.5964 -8.3785 37.9990 -2.8586 5.9166
# 5 16.1132 4.7680 -7.7926 -2.8586 49.8974 -11.3645
# 6 26.1687 10.7756 10.0995 5.9166 -11.3645 49.8566
#
#
#
# Elastic Compliance Matrix: (Units=1/GPa)
#
#
# Indices 1 2 3 4 5 6 
#
# 1 0.006123 -0.001471 -0.002876 -0.000957 -0.002997 -0.002883
# 2 -0.001471 0.012325 -0.002855 0.001759 -0.001471 -0.001857
# 3 -0.002876 -0.002855 0.011953 0.002498 0.003245 0.000148
# 4 -0.000957 0.001759 0.002498 0.027846 0.001357 -0.003379
# 5 -0.002997 -0.001471 0.003245 0.001357 0.023182 0.006357
# 6 -0.002883 -0.001857 0.000148 -0.003379 0.006357 0.023792
#
#
# Mechanical properties :
#
#
# Convention : Reuss Voigt Hill
#
# Bulk Modulus (GPa) = 62.50857 78.90125 70.70491
# Shear Modulus (GPa) = 40.01364 46.92331 43.46848
#
# Velocity S-wave (km/s) = 4.14515 4.48881 4.32040
# Velocity P-wave (km/s) = 7.05348 7.79403 7.43299
#
# Compressibility (1/GPa) = 0.01599781
#
# Stress axis : x y z
#
# Youngs Moduli (GPa) = 163.30759 81.13837 83.66120
#
# Poissons Ratio (x) = 0.11935 0.24058
# Poissons Ratio (y) = 0.24022 0.23886
# Poissons Ratio (z) = 0.46961 0.23165
#
# Static dielectric constant tensor:
#      x y z
#    x 1.878150 -0.058190 0.018130 
#    y -0.058190 2.064420 0.010620 
#    z 0.018130 0.010620 2.027130 
# 
# From -- ./inp_files/500202.got.cif
#   From: 2010.05.17/outbox.cif.g08.bks.cpg/sg2_251_cif.got.tgz:500202.got - 2010.06.03 11:33:40.
