data_PCOD9045379
_publ_section_title
;
Structure prediction by ZEFSAII (Michael W. Deem and Ramdas Pophale) SiO2 
 PCOD9045379
Probable space group: P -1
;
_chemical_formula_sum "Si O2"
_cell_formula_units_Z 16
_cell_length_a 5.239646
_cell_length_b 22.282000
_cell_length_c 12.507677
_cell_angle_alpha 139.853283
_cell_angle_beta 80.085406
_cell_angle_gamma 78.454598
_cell_volume 790.855981
_symmetry_space_group_name_H-M "P -1"
_symmetry_group_IT_number 2
_symmetry_cell_setting 'triclinic'
loop_
_space_group_symop_operation_xyz
x,y,z
-x,-y,-z
loop_
_atom_site_type_symbol
_atom_site_label
_atom_site_fract_x
_atom_site_fract_y
_atom_site_fract_z
Si Si1 0.604657 0.685601 0.452509
Si Si2 0.221021 0.999891 0.076015
Si Si3 0.099047 0.583619 0.570973
Si Si4 0.518529 0.759173 0.783078
Si Si5 0.098110 0.457350 0.055347
Si Si6 0.649534 0.359184 0.187077
Si Si7 0.781835 0.323221 0.893476
Si Si8 0.033224 0.777805 0.478185
O O1 0.422387 0.738726 0.646749
O O2 0.360900 0.696252 0.397815
O O3 0.865599 0.560697 0.283353
O O4 0.783237 0.745552 0.482404
O O5 0.365735 0.887337 0.978433
O O6 0.061691 0.105338 0.306841
O O7 0.500000 0.000000 0.000000
O O8 0.000000 0.000000 0.000000
O O9 0.422135 0.491936 0.373077
O O10 0.093179 0.641688 0.761107
O O11 0.000000 0.500000 0.500000
O O12 0.884619 0.683557 0.646377
O O13 0.454136 0.702171 0.807477
O O14 0.445364 0.414641 0.999665
O O15 0.000000 0.500000 0.000000
O O16 0.013390 0.365609 0.947857
O O17 0.725595 0.302040 0.989923
O O18 0.916969 0.233208 0.668052
#
# Coordination Sequence:
#
# PCOD9045379 Si02
#       8
#     2   2   2   2   2   2   2   2
#     4  12  24  38  66  95 132 165 219 264 330 392
#     4  12  25  45  69  98 129 170 225 286 334 384
#     4   9  21  41  60  93 127 173 222 260 322 387
#     4  11  24  40  67  93 129 172 217 282 327 388
#     4  12  23  40  61  99 131 179 215 257 330 404
#     4  10  24  40  63  97 132 177 216 267 332 396
#     4  12  25  41  64  93 144 171 215 270 322 407
#     4  12  23  44  62  96 129 171 212 273 331 383
#
# _framework density 20.231242000000002
#
# number of rings (size 3 to 8) (size 9 to 14) (size 15 to 20)
#    0.000    0.750    5.000    1.875   12.250    0.000 
#    0.000    0.625    0.000    0.750    0.000    0.000 
#    0.000    0.000    0.000    0.000    0.000    0.000 
#
# Total GULP energy -89254.194063 kJ/mol
# GULP energy per Si atom -5578.387129 kJ/mol
# Density = 2.018519 g / cm^3
# Si number density = 20.231242 Si / 1000 Ang^3
#
#
#
# Elastic Constant Matrix: (Units=GPa)
#
#
# Indices 1 2 3 4 5 6 
#
# 1 84.4673 23.4900 12.9852 0.3109 10.8464 0.0713
# 2 23.4900 95.1740 45.6223 -16.1502 1.9375 -0.0091
# 3 12.9852 45.6223 149.6926 -14.3037 9.0857 -0.1735
# 4 0.3109 -16.1502 -14.3037 47.8537 -5.8557 -4.1184
# 5 10.8464 1.9375 9.0857 -5.8557 23.0267 -2.2326
# 6 0.0713 -0.0091 -0.1735 -4.1184 -2.2326 22.7683
#
#
#
# Elastic Compliance Matrix: (Units=1/GPa)
#
#
# Indices 1 2 3 4 5 6 
#
# 1 0.013740 -0.003697 0.000138 -0.002236 -0.006893 -0.001124
# 2 -0.003697 0.013814 -0.003693 0.004059 0.003168 0.001034
# 3 0.000138 -0.003693 0.008037 0.000817 -0.002724 -0.000060
# 4 -0.002236 0.004059 0.000817 0.023804 0.006927 0.005000
# 5 -0.006893 0.003168 -0.002724 0.006927 0.049840 0.006142
# 6 -0.001124 0.001034 -0.000060 0.005000 0.006142 0.045431
#
#
# Mechanical properties :
#
#
# Convention : Reuss Voigt Hill
#
# Bulk Modulus (GPa) = 47.41858 54.83652 51.12755
# Shear Modulus (GPa) = 28.37730 35.21217 31.79473
#
# Velocity S-wave (km/s) = 3.74926 4.17644 3.96860
# Velocity P-wave (km/s) = 6.49860 7.10074 6.80633
#
# Compressibility (1/GPa) = 0.02108878
#
# Stress axis : x y z
#
# Youngs Moduli (GPa) = 72.78046 72.39074 124.42304
#
# Poissons Ratio (x) = 0.26760 -0.01719
# Poissons Ratio (y) = 0.26904 0.45946
# Poissons Ratio (z) = -0.01006 0.26732
#
# Static dielectric constant tensor:
#      x y z
#    x 1.728910 -0.114750 -0.072920 
#    y -0.114750 1.597000 -0.092190 
#    z -0.072920 -0.092190 1.764950 
# 
# From -- ./inp_files/370452.got.cif
#   From: 2010.05.17/outbox.cif.g08.bks.cpg/sg2_186_cif.got.tgz:370452.got - 2010.06.03 11:33:40.
