data_PCOD9045754
_publ_section_title
;
Structure prediction by ZEFSAII (Michael W. Deem and Ramdas Pophale) SiO2 
 PCOD9045754
Probable space group: P -1
;
_chemical_formula_sum "Si O2"
_cell_formula_units_Z 13
_cell_length_a 18.770985
_cell_length_b 5.467100
_cell_length_c 10.263568
_cell_angle_alpha 109.105151
_cell_angle_beta 144.316418
_cell_angle_gamma 86.394101
_cell_volume 539.753320
_symmetry_space_group_name_H-M "P -1"
_symmetry_group_IT_number 2
_symmetry_cell_setting 'triclinic'
loop_
_space_group_symop_operation_xyz
x,y,z
-x,-y,-z
loop_
_atom_site_type_symbol
_atom_site_label
_atom_site_fract_x
_atom_site_fract_y
_atom_site_fract_z
Si Si1 0.000000 0.000000 0.000000
Si Si2 0.020999 0.460391 0.302537
Si Si3 0.585133 0.815552 0.551119
Si Si4 0.886982 0.713152 0.320887
Si Si5 0.302842 0.193204 0.564089
Si Si6 0.632472 0.790403 0.893236
Si Si7 0.686272 0.197110 0.261631
O O1 0.029632 0.759008 0.923826
O O2 0.855030 0.903867 0.693198
O O3 0.071990 0.369108 0.494945
O O4 0.153958 0.703696 0.494304
O O5 0.898136 0.527705 0.184154
O O6 0.651157 0.879674 0.520252
O O7 0.678354 0.860354 0.823906
O O8 0.496498 0.486097 0.352314
O O9 0.500000 0.000000 0.500000
O O10 0.743986 0.716690 0.118859
O O11 0.000000 0.000000 0.500000
O O12 0.346415 0.527917 0.709958
O O13 0.349426 0.031639 0.716862
O O14 0.625285 0.049011 0.009044
#
# Coordination Sequence:
#
# PCOD9045754 Si02
#       7
#     1   2   2   2   2   2   2
#     4  10  24  42  70 102 150 184 228 308 362 438
#     4  10  24  41  68 112 143 188 238 298 374 430
#     4  11  30  48  71 107 143 201 246 303 366 429
#     4  11  23  41  75 106 141 191 244 298 363 435
#     4  11  28  47  74 109 147 194 245 297 377 432
#     4  11  26  47  74 102 148 191 249 307 356 441
#     4  11  25  48  75 106 143 189 244 303 365 440
#
# _framework density 24.085075
#
# number of rings (size 3 to 8) (size 9 to 14) (size 15 to 20)
#    0.000    1.231    1.538    1.846   12.923    3.692 
#    0.000    0.000    0.000    0.000    0.000    0.000 
#    0.000    0.000    0.000    0.000    0.000    0.000 
#
# Total GULP energy -72464.299808 kJ/mol
# GULP energy per Si atom -5574.176908 kJ/mol
# Density = 2.403026 g / cm^3
# Si number density = 24.085075 Si / 1000 Ang^3
#
#
#
# Elastic Constant Matrix: (Units=GPa)
#
#
# Indices 1 2 3 4 5 6 
#
# 1 102.5361 42.7695 23.6467 19.5193 -26.2395 5.0751
# 2 42.7695 112.3338 36.3860 12.3059 -26.7321 -2.0409
# 3 23.6467 36.3860 92.6727 29.9114 -32.4846 -10.1644
# 4 19.5193 12.3059 29.9114 34.6545 -18.9440 -12.7791
# 5 -26.2395 -26.7321 -32.4846 -18.9440 39.4239 2.2247
# 6 5.0751 -2.0409 -10.1644 -12.7791 2.2247 40.5149
#
#
#
# Elastic Compliance Matrix: (Units=1/GPa)
#
#
# Indices 1 2 3 4 5 6 
#
# 1 0.013664 -0.003878 0.001300 -0.006253 0.004746 -0.003814
# 2 -0.003878 0.012153 -0.003164 0.003620 0.004725 0.001187
# 3 0.001300 -0.003164 0.018128 -0.010341 0.008660 0.000489
# 4 -0.006253 0.003620 -0.010341 0.053282 0.014564 0.014377
# 5 0.004746 0.004725 0.008660 0.014564 0.045642 0.003904
# 6 -0.003814 0.001187 0.000489 0.014377 0.003904 0.029663
#
#
# Mechanical properties :
#
#
# Convention : Reuss Voigt Hill
#
# Bulk Modulus (GPa) = 30.80697 57.01632 43.91165
# Shear Modulus (GPa) = 25.66239 36.56800 31.11519
#
# Velocity S-wave (km/s) = 3.26772 3.90074 3.59818
# Velocity P-wave (km/s) = 5.20154 6.63416 5.96104
#
# Compressibility (1/GPa) = 0.03246018
#
# Stress axis : x y z
#
# Youngs Moduli (GPa) = 73.18308 82.28532 55.16186
#
# Poissons Ratio (x) = 0.31913 -0.07170
# Poissons Ratio (y) = 0.28383 0.17454
# Poissons Ratio (z) = -0.09512 0.26037
#
# Static dielectric constant tensor:
#      x y z
#    x 2.501640 0.040770 0.145800 
#    y 0.040770 2.033280 0.026580 
#    z 0.145800 0.026580 1.905840 
# 
# From -- ./inp_files/28851.got.cif
#   From: 2010.05.17/outbox.cif.g08.bks.cpg/sg2_15_cif.got.tgz:28851.got - 2010.06.03 11:33:40.
