data_PCOD9045116
_publ_section_title
;
Structure prediction by ZEFSAII (Michael W. Deem and Ramdas Pophale) SiO2 
 PCOD9045116
Probable space group: P -1
;
_chemical_formula_sum "Si O2"
_cell_formula_units_Z 12
_cell_length_a 9.943657
_cell_length_b 4.958236
_cell_length_c 11.283651
_cell_angle_alpha 50.649534
_cell_angle_beta 85.109228
_cell_angle_gamma 94.716346
_cell_volume 421.865843
_symmetry_space_group_name_H-M "P -1"
_symmetry_group_IT_number 2
_symmetry_cell_setting 'triclinic'
loop_
_space_group_symop_operation_xyz
x,y,z
-x,-y,-z
loop_
_atom_site_type_symbol
_atom_site_label
_atom_site_fract_x
_atom_site_fract_y
_atom_site_fract_z
Si Si1 0.438171 0.333478 0.753783
Si Si2 0.998406 0.807567 0.180241
Si Si3 0.259239 0.444479 0.223476
Si Si4 0.056705 0.138720 0.585693
Si Si5 0.257053 0.825477 0.555593
Si Si6 0.360737 0.556664 0.934512
O O1 0.594626 0.384392 0.774359
O O2 0.395020 0.668049 0.598720
O O3 0.347838 0.318241 0.886240
O O4 0.390800 0.972655 0.787777
O O5 0.136414 0.636298 0.222862
O O6 0.986306 0.042900 0.234028
O O7 0.862449 0.499995 0.298944
O O8 0.000000 0.000000 0.000000
O O9 0.250031 0.028274 0.374883
O O10 0.258394 0.479229 0.071863
O O11 0.000000 0.500000 0.500000
O O12 0.218129 0.138026 0.556351
O O13 0.000000 0.000000 0.500000
O O14 0.500000 0.500000 0.000000
#
# Coordination Sequence:
#
# PCOD9045116 Si02
#       6
#     2   2   2   2   2   2
#     4  11  26  49  77 114 154 204 258 325 394 474
#     4  12  28  51  82 119 158 209 270 331 395 473
#     4  11  23  49  77 112 153 209 256 326 399 466
#     4  12  25  53  77 112 160 211 258 327 397 471
#     4  12  26  49  78 113 161 196 273 319 398 465
#     4  10  23  49  73 109 152 202 253 316 388 471
#
# _framework density 28.445060999999999
#
# number of rings (size 3 to 8) (size 9 to 14) (size 15 to 20)
#    0.000    0.667    3.333    4.000    4.667    0.667 
#   30.000    4.167    0.000    0.000    0.000    0.000 
#    0.000    0.000    0.000    0.000    0.000    0.000 
#
# Total GULP energy -67074.871731 kJ/mol
# GULP energy per Si atom -5589.572644 kJ/mol
# Density = 2.838032 g / cm^3
# Si number density = 28.445061 Si / 1000 Ang^3
#
#
#
# Elastic Constant Matrix: (Units=GPa)
#
#
# Indices 1 2 3 4 5 6 
#
# 1 127.7129 15.2846 50.1925 -11.1143 19.4374 -12.1115
# 2 15.2846 114.0166 34.8347 10.9162 7.0350 -21.4008
# 3 50.1925 34.8347 171.7287 0.9568 20.1267 12.0338
# 4 -11.1143 10.9162 0.9568 56.6885 -2.7808 3.7331
# 5 19.4374 7.0350 20.1267 -2.7808 71.5632 -4.3655
# 6 -12.1115 -21.4008 12.0338 3.7331 -4.3655 34.6145
#
#
#
# Elastic Compliance Matrix: (Units=1/GPa)
#
#
# Indices 1 2 3 4 5 6 
#
# 1 0.009768 0.000398 -0.003075 0.001528 -0.001501 0.004379
# 2 0.000398 0.011515 -0.003045 -0.002653 0.000038 0.008608
# 3 -0.003075 -0.003045 0.007923 0.000168 -0.001448 -0.005914
# 4 0.001528 -0.002653 0.000168 0.018671 0.000333 -0.003136
# 5 -0.001501 0.000038 -0.001448 0.000333 0.014910 0.001846
# 6 0.004379 0.008608 -0.005914 -0.003136 0.001846 0.038371
#
#
# Mechanical properties :
#
#
# Convention : Reuss Voigt Hill
#
# Bulk Modulus (GPa) = 56.30146 68.23129 62.26638
# Shear Modulus (GPa) = 42.18637 53.44967 47.81802
#
# Velocity S-wave (km/s) = 3.85526 4.33950 4.10453
# Velocity P-wave (km/s) = 6.29709 7.01053 6.66337
#
# Compressibility (1/GPa) = 0.01776153
#
# Stress axis : x y z
#
# Youngs Moduli (GPa) = 102.37902 86.84317 126.21833
#
# Poissons Ratio (x) = -0.03459 0.38814
# Poissons Ratio (y) = -0.04078 0.38435
# Poissons Ratio (z) = 0.31483 0.26445
#
# Static dielectric constant tensor:
#      x y z
#    x 2.353880 0.119890 -0.054400 
#    y 0.119890 2.399480 -0.042730 
#    z -0.054400 -0.042730 2.412980 
# 
# From -- ./inp_files/488046.got.cif
#   From: 2010.05.17/outbox.cif.g08.bks.cpg/sg2_245_cif.got.tgz:488046.got - 2010.06.03 11:33:40.
