data_PCOD9045041
_publ_section_title
;
Structure prediction by ZEFSAII (Michael W. Deem and Ramdas Pophale) SiO2 
 PCOD9045041
Probable space group: P -1
;
_chemical_formula_sum "Si O2"
_cell_formula_units_Z 14
_cell_length_a 5.044510
_cell_length_b 20.762057
_cell_length_c 13.143991
_cell_angle_alpha 24.126689
_cell_angle_beta 96.126286
_cell_angle_gamma 86.688944
_cell_volume 517.116547
_symmetry_space_group_name_H-M "P -1"
_symmetry_group_IT_number 2
_symmetry_cell_setting 'triclinic'
loop_
_space_group_symop_operation_xyz
x,y,z
-x,-y,-z
loop_
_atom_site_type_symbol
_atom_site_label
_atom_site_fract_x
_atom_site_fract_y
_atom_site_fract_z
Si Si1 0.385307 0.633577 0.945353
Si Si2 0.096434 0.067640 0.574538
Si Si3 0.000000 0.500000 0.500000
Si Si4 0.501912 0.464425 0.399938
Si Si5 0.072495 0.236196 0.992604
Si Si6 0.332060 0.888276 0.193761
Si Si7 0.500000 0.000000 0.500000
Si Si8 0.322400 0.316534 0.317190
O O1 0.591091 0.632203 0.862676
O O2 0.184261 0.833057 0.650888
O O3 0.515115 0.579373 0.138640
O O4 0.237615 0.496542 0.113406
O O5 0.114685 0.212998 0.441594
O O6 0.368237 0.017348 0.585035
O O7 0.054633 0.901162 0.850405
O O8 0.223133 0.563914 0.481489
O O9 0.766046 0.706792 0.170494
O O10 0.180784 0.567688 0.286494
O O11 0.540056 0.283855 0.617856
O O12 0.218648 0.168807 0.203362
O O13 0.413112 0.818041 0.414023
O O14 0.500000 0.000000 0.000000
O O15 0.000000 0.000000 0.000000
#
# Coordination Sequence:
#
# PCOD9045041 Si02
#       8
#     2   2   1   2   2   2   1   2
#     4  10  23  48  75 113 154 202 263 338 413 481
#     4  12  25  43  77 112 157 198 270 331 406 495
#     4  12  30  48  78 108 162 216 272 330 420 500
#     4  11  27  51  78 111 159 214 268 342 423 496
#     4  12  28  48  72 111 156 215 264 337 407 495
#     4  11  29  53  84 116 159 217 280 346 418 503
#     4  12  26  46  76 112 156 210 262 328 410 496
#     4  10  25  46  78 113 151 205 265 342 407 486
#
# _framework density 27.073201000000001
#
# number of rings (size 3 to 8) (size 9 to 14) (size 15 to 20)
#    0.000    0.857    1.429    3.000   12.000    2.286 
#    5.143    0.000    0.000    0.000    0.000    0.000 
#    0.000    0.000    0.000    0.000    0.000    0.000 
#
# Total GULP energy -78017.640661 kJ/mol
# GULP energy per Si atom -5572.688619 kJ/mol
# Density = 2.701158 g / cm^3
# Si number density = 27.073201 Si / 1000 Ang^3
#
#
#
# Elastic Constant Matrix: (Units=GPa)
#
#
# Indices 1 2 3 4 5 6 
#
# 1 80.1550 13.4064 48.1293 -4.0749 -17.2364 5.4968
# 2 13.4064 72.7108 53.1444 7.7157 -10.7896 4.6310
# 3 48.1293 53.1444 220.9487 2.0295 -12.1638 24.7448
# 4 -4.0749 7.7157 2.0295 68.8046 17.5279 -7.9695
# 5 -17.2364 -10.7896 -12.1638 17.5279 58.5054 -16.9754
# 6 5.4968 4.6310 24.7448 -7.9695 -16.9754 31.2722
#
#
#
# Elastic Compliance Matrix: (Units=1/GPa)
#
#
# Indices 1 2 3 4 5 6 
#
# 1 0.015296 0.000163 -0.003399 0.000125 0.004504 0.002454
# 2 0.000163 0.017532 -0.004262 -0.002545 0.003782 0.002152
# 3 -0.003399 -0.004262 0.006766 -0.000045 -0.001860 -0.005146
# 4 0.000125 -0.002545 -0.000045 0.016264 -0.004746 0.001959
# 5 0.004504 0.003782 -0.001860 -0.004746 0.023544 0.011691
# 6 0.002454 0.002152 -0.005146 0.001959 0.011691 0.042145
#
#
# Mechanical properties :
#
#
# Convention : Reuss Voigt Hill
#
# Bulk Modulus (GPa) = 40.65315 67.01941 53.83628
# Shear Modulus (GPa) = 34.54381 48.99207 41.76794
#
# Velocity S-wave (km/s) = 3.57591 4.25857 3.93208
# Velocity P-wave (km/s) = 5.66552 6.99923 6.36739
#
# Compressibility (1/GPa) = 0.02459834
#
# Stress axis : x y z
#
# Youngs Moduli (GPa) = 65.37532 57.03743 147.80092
#
# Poissons Ratio (x) = -0.00930 0.50240
# Poissons Ratio (y) = -0.01066 0.62992
# Poissons Ratio (z) = 0.22222 0.24309
#
# Static dielectric constant tensor:
#      x y z
#    x 3.553200 0.418280 -0.330310 
#    y 0.418280 1.930470 -0.352210 
#    z -0.330310 -0.352210 1.998860 
# 
# From -- ./inp_files/126860.got.cif
#   From: 2010.05.17/outbox.cif.g08.bks.cpg/sg2_64_cif.got.tgz:126860.got - 2010.06.03 11:33:40.
