data_PCOD9045255
_publ_section_title
;
Structure prediction by ZEFSAII (Michael W. Deem and Ramdas Pophale) SiO2 
 PCOD9045255
Probable space group: P -1
;
_chemical_formula_sum "Si O2"
_cell_formula_units_Z 14
_cell_length_a 5.205596
_cell_length_b 26.864635
_cell_length_c 5.230656
_cell_angle_alpha 99.793476
_cell_angle_beta 60.753262
_cell_angle_gamma 101.739637
_cell_volume 622.747572
_symmetry_space_group_name_H-M "P -1"
_symmetry_group_IT_number 2
_symmetry_cell_setting 'triclinic'
loop_
_space_group_symop_operation_xyz
x,y,z
-x,-y,-z
loop_
_atom_site_type_symbol
_atom_site_label
_atom_site_fract_x
_atom_site_fract_y
_atom_site_fract_z
Si Si1 0.183579 0.520219 0.677927
Si Si2 0.545103 0.178602 0.105995
Si Si3 0.849640 0.020263 0.341233
Si Si4 0.023934 0.729089 0.843506
Si Si5 0.717199 0.358756 0.221120
Si Si6 0.853489 0.140636 0.424352
Si Si7 0.562706 0.300710 0.736923
O O1 0.500000 0.500000 0.500000
O O2 0.234102 0.581528 0.713033
O O3 0.000000 0.500000 0.500000
O O4 0.000000 0.500000 0.000000
O O5 0.710975 0.236243 0.111948
O O6 0.676750 0.151202 0.262339
O O7 0.188148 0.171390 0.283975
O O8 0.666408 0.155642 0.770453
O O9 0.890378 0.081400 0.371228
O O10 0.500000 0.000000 0.500000
O O11 0.000000 0.000000 0.500000
O O12 0.000000 0.000000 0.000000
O O13 0.997317 0.669848 0.892131
O O14 0.706839 0.741984 0.088603
O O15 0.143972 0.725741 0.494943
O O16 0.620322 0.341247 0.970660
O O17 0.514227 0.329628 0.518570
#
# Coordination Sequence:
#
# PCOD9045255 Si02
#       7
#     2   2   2   2   2   2   2
#     4  12  28  46  73 101 138 176 223 280 348 402
#     4  12  26  43  69  96 143 175 229 276 352 402
#     4  12  24  44  72 100 138 182 237 282 339 402
#     4  10  26  40  68  92 131 175 221 271 332 404
#     4  10  26  42  69  94 133 168 227 267 334 402
#     4  12  26  45  68 104 139 183 225 290 339 402
#     4  10  24  38  67  90 129 162 228 262 332 382
#
# _framework density 22.481020999999998
#
# number of rings (size 3 to 8) (size 9 to 14) (size 15 to 20)
#    0.857    0.000    0.000    6.000   10.000    0.000 
#    0.000    0.000    0.000    0.000    0.000    0.000 
#    0.000    0.000    0.000    0.000    0.000    0.000 
#
# Total GULP energy -78266.886719 kJ/mol
# GULP energy per Si atom -5590.491909 kJ/mol
# Density = 2.242985 g / cm^3
# Si number density = 22.481021 Si / 1000 Ang^3
#
#
#
# Elastic Constant Matrix: (Units=GPa)
#
#
# Indices 1 2 3 4 5 6 
#
# 1 112.8840 18.8961 77.7256 -9.5895 3.5457 1.4887
# 2 18.8961 126.9434 43.5153 8.1703 8.8201 -4.4917
# 3 77.7256 43.5153 205.6960 -8.3082 12.4942 12.9287
# 4 -9.5895 8.1703 -8.3082 35.4930 9.0385 3.7671
# 5 3.5457 8.8201 12.4942 9.0385 47.7620 -4.6167
# 6 1.4887 -4.4917 12.9287 3.7671 -4.6167 39.4576
#
#
#
# Elastic Compliance Matrix: (Units=1/GPa)
#
#
# Indices 1 2 3 4 5 6 
#
# 1 0.012190 -0.000398 -0.004476 0.002263 -0.000017 0.000743
# 2 -0.000398 0.008865 -0.001926 -0.002691 -0.000414 0.001864
# 3 -0.004476 -0.001926 0.007318 0.001711 -0.001823 -0.002825
# 4 0.002263 -0.002691 0.001711 0.032004 -0.006637 -0.004784
# 5 -0.000017 -0.000414 -0.001823 -0.006637 0.023124 0.003890
# 6 0.000743 0.001864 -0.002825 -0.004784 0.003890 0.027365
#
#
# Mechanical properties :
#
#
# Convention : Reuss Voigt Hill
#
# Bulk Modulus (GPa) = 67.69299 80.64416 74.16858
# Shear Modulus (GPa) = 38.64258 44.90161 41.77209
#
# Velocity S-wave (km/s) = 4.15046 4.47398 4.31525
# Velocity P-wave (km/s) = 7.29006 7.91446 7.60866
#
# Compressibility (1/GPa) = 0.01477258
#
# Stress axis : x y z
#
# Youngs Moduli (GPa) = 82.03115 112.80552 136.65357
#
# Poissons Ratio (x) = 0.04493 0.61172
# Poissons Ratio (y) = 0.03267 0.26313
# Poissons Ratio (z) = 0.36721 0.21721
#
# Static dielectric constant tensor:
#      x y z
#    x 1.850520 -0.036720 -0.041300 
#    y -0.036720 1.832370 -0.015940 
#    z -0.041300 -0.015940 1.874920 
# 
# From -- ./inp_files/14587.got.cif
#   From: 2010.05.17/outbox.cif.g08.bks.cpg/sg2_8_cif.got.tgz:14587.got - 2010.06.03 11:33:40.
