data_PCOD9045792
_publ_section_title
;
Structure prediction by ZEFSAII (Michael W. Deem and Ramdas Pophale) SiO2 
 PCOD9045792
Probable space group: P -1
;
_chemical_formula_sum "Si O2"
_cell_formula_units_Z 16
_cell_length_a 8.301849
_cell_length_b 9.033719
_cell_length_c 15.028342
_cell_angle_alpha 69.361999
_cell_angle_beta 139.611249
_cell_angle_gamma 99.400787
_cell_volume 673.096187
_symmetry_space_group_name_H-M "P -1"
_symmetry_group_IT_number 2
_symmetry_cell_setting 'triclinic'
loop_
_space_group_symop_operation_xyz
x,y,z
-x,-y,-z
loop_
_atom_site_type_symbol
_atom_site_label
_atom_site_fract_x
_atom_site_fract_y
_atom_site_fract_z
Si Si1 0.309477 0.583682 0.328764
Si Si2 0.885449 0.719242 0.737982
Si Si3 0.878910 0.850587 0.090605
Si Si4 0.439624 0.667480 0.993754
Si Si5 0.380524 0.412461 0.722365
Si Si6 0.839003 0.876363 0.860424
Si Si7 0.695172 0.945919 0.464797
Si Si8 0.971861 0.241926 0.510696
O O1 0.500000 0.500000 0.500000
O O2 0.459465 0.608226 0.296859
O O3 0.124699 0.459412 0.256796
O O4 0.132274 0.740875 0.256102
O O5 0.834048 0.737922 0.816661
O O6 0.686319 0.843483 0.572145
O O7 0.163869 0.752634 0.829455
O O8 0.637189 0.787240 0.038088
O O9 0.871308 0.824798 0.986301
O O10 0.930253 0.030466 0.085719
O O11 0.451294 0.622587 0.112205
O O12 0.500000 0.500000 0.000000
O O13 0.224065 0.593854 0.623701
O O14 0.175711 0.293304 0.653500
O O15 0.570859 0.993438 0.707986
O O16 0.874037 0.827192 0.497935
O O17 0.824658 0.100414 0.506975
#
# Coordination Sequence:
#
# PCOD9045792 Si02
#       8
#     2   2   2   2   2   2   2   2
#     4  12  26  46  75 101 142 181 230 289 345 410
#     4  12  26  43  71 105 135 181 237 281 344 413
#     4  11  27  47  71  99 141 184 228 280 356 404
#     4  12  27  45  73 100 144 180 232 288 341 410
#     4  11  25  44  71 103 135 182 235 280 343 408
#     4  11  26  47  71 101 140 183 229 288 344 413
#     4  11  24  44  70 101 142 177 228 284 351 401
#     4  10  24  41  70 101 139 174 229 282 343 408
#
# _framework density 23.770747
#
# number of rings (size 3 to 8) (size 9 to 14) (size 15 to 20)
#    0.000    0.750    1.250    4.875   12.250    2.500 
#    0.000    0.000    0.000    0.000    0.000    0.000 
#    0.000    0.000    0.000    0.000    0.000    0.000 
#
# Total GULP energy -89633.659367 kJ/mol
# GULP energy per Si atom -5602.103710 kJ/mol
# Density = 2.371664 g / cm^3
# Si number density = 23.770747 Si / 1000 Ang^3
#
#
#
# Elastic Constant Matrix: (Units=GPa)
#
#
# Indices 1 2 3 4 5 6 
#
# 1 65.9850 5.3212 8.8700 7.7034 9.5385 14.7178
# 2 5.3212 76.2048 -10.9596 9.7898 -3.4363 10.6990
# 3 8.8700 -10.9596 92.6825 4.1631 0.0015 4.5740
# 4 7.7034 9.7898 4.1631 22.0147 -5.3891 3.8488
# 5 9.5385 -3.4363 0.0015 -5.3891 42.6969 2.6921
# 6 14.7178 10.6990 4.5740 3.8488 2.6921 36.9112
#
#
#
# Elastic Compliance Matrix: (Units=1/GPa)
#
#
# Indices 1 2 3 4 5 6 
#
# 1 0.018017 0.000018 -0.001147 -0.006111 -0.004411 -0.006088
# 2 0.000018 0.014822 0.002224 -0.006159 0.000663 -0.003985
# 3 -0.001147 0.002224 0.011339 -0.002444 0.000212 -0.001353
# 4 -0.006111 -0.006159 -0.002444 0.052906 0.007645 -0.001549
# 5 -0.004411 0.000663 0.000212 0.007645 0.025495 -0.001116
# 6 -0.006088 -0.003985 -0.001353 -0.001549 -0.001116 0.031085
#
#
# Mechanical properties :
#
#
# Convention : Reuss Voigt Hill
#
# Bulk Modulus (GPa) = 21.56692 26.81504 24.19098
# Shear Modulus (GPa) = 29.95283 35.76728 32.86005
#
# Velocity S-wave (km/s) = 3.55360 3.88322 3.72206
# Velocity P-wave (km/s) = 5.09215 5.60456 5.35449
#
# Compressibility (1/GPa) = 0.04636732
#
# Stress axis : x y z
#
# Youngs Moduli (GPa) = 55.50414 67.46814 88.19225
#
# Poissons Ratio (x) = -0.00120 0.10117
# Poissons Ratio (y) = -0.00099 -0.19616
# Poissons Ratio (z) = 0.06367 -0.15007
#
# Static dielectric constant tensor:
#      x y z
#    x 1.903820 -0.000520 0.016710 
#    y -0.000520 1.871510 -0.003970 
#    z 0.016710 -0.003970 1.869840 
# 
# From -- ./inp_files/494756.got.cif
#   From: 2010.05.17/outbox.cif.g08.bks.cpg/sg2_248_cif.got.tgz:494756.got - 2010.06.03 11:33:40.
