data_PCOD9045821
_publ_section_title
;
Structure prediction by ZEFSAII (Michael W. Deem and Ramdas Pophale) SiO2 
 PCOD9045821
Probable space group: P -1
;
_chemical_formula_sum "Si O2"
_cell_formula_units_Z 16
_cell_length_a 5.234131
_cell_length_b 14.514081
_cell_length_c 11.286521
_cell_angle_alpha 70.206339
_cell_angle_beta 61.906957
_cell_angle_gamma 68.675959
_cell_volume 689.846441
_symmetry_space_group_name_H-M "P -1"
_symmetry_group_IT_number 2
_symmetry_cell_setting 'triclinic'
loop_
_space_group_symop_operation_xyz
x,y,z
-x,-y,-z
loop_
_atom_site_type_symbol
_atom_site_label
_atom_site_fract_x
_atom_site_fract_y
_atom_site_fract_z
Si Si1 0.034456 0.264045 0.115867
Si Si2 0.158976 0.491871 0.595586
Si Si3 0.117787 0.819637 0.363982
Si Si4 0.326626 0.520679 0.907087
Si Si5 0.153663 0.292720 0.340270
Si Si6 0.399610 0.343748 0.800344
Si Si7 0.539004 0.056019 0.624523
Si Si8 0.322057 0.876738 0.677654
O O1 0.746899 0.360099 0.147508
O O2 0.195805 0.270308 0.202283
O O3 0.938672 0.158772 0.183226
O O4 0.222619 0.287961 0.953779
O O5 0.500000 0.500000 0.500000
O O6 0.966104 0.588677 0.666155
O O7 0.197828 0.391856 0.710620
O O8 0.000000 0.500000 0.500000
O O9 0.079150 0.760528 0.519899
O O10 0.306201 0.734922 0.273514
O O11 0.306858 0.900205 0.321281
O O12 0.796858 0.875250 0.356243
O O13 0.469628 0.441082 0.809312
O O14 0.500000 0.500000 0.000000
O O15 0.000000 0.500000 0.000000
O O16 0.454638 0.229136 0.362137
O O17 0.732373 0.062401 0.460227
O O18 0.492819 0.943330 0.689921
#
# Coordination Sequence:
#
# PCOD9045821 Si02
#       8
#     2   2   2   2   2   2   2   2
#     4  11  24  43  67 102 142 180 231 288 350 413
#     4  12  28  45  70 105 148 189 233 280 344 420
#     4  11  24  44  70 100 135 182 234 286 354 416
#     4  10  24  42  63  96 141 185 224 270 335 416
#     4  11  24  43  70 102 138 184 235 285 345 419
#     4  11  26  46  69 107 145 189 227 290 349 420
#     4  10  24  45  71  98 133 179 237 297 346 408
#     4  10  24  41  72 100 134 176 239 296 348 404
#
# _framework density 23.193565
#
# number of rings (size 3 to 8) (size 9 to 14) (size 15 to 20)
#    0.000    1.250    3.750    0.000   10.500    5.500 
#    0.000    1.250    0.000    0.000    0.000    0.000 
#    0.000    0.000    0.000    0.000    0.000    0.000 
#
# Total GULP energy -89478.785388 kJ/mol
# GULP energy per Si atom -5592.424087 kJ/mol
# Density = 2.314078 g / cm^3
# Si number density = 23.193565 Si / 1000 Ang^3
#
#
#
# Elastic Constant Matrix: (Units=GPa)
#
#
# Indices 1 2 3 4 5 6 
#
# 1 117.3488 32.4512 45.6663 -2.9273 10.7997 -4.2187
# 2 32.4512 107.0563 42.1487 -2.9272 -9.5461 -12.1540
# 3 45.6663 42.1487 142.1608 -13.0005 -4.0994 5.2871
# 4 -2.9273 -2.9272 -13.0005 42.6495 3.5222 -6.7979
# 5 10.7997 -9.5461 -4.0994 3.5222 27.2420 -4.8760
# 6 -4.2187 -12.1540 5.2871 -6.7979 -4.8760 42.8512
#
#
#
# Elastic Compliance Matrix: (Units=1/GPa)
#
#
# Indices 1 2 3 4 5 6 
#
# 1 0.010906 -0.002679 -0.002860 0.000171 -0.005707 0.000044
# 2 -0.002679 0.012219 -0.002753 0.000015 0.005678 0.004190
# 3 -0.002860 -0.002753 0.009046 0.002014 0.000957 -0.001750
# 4 0.000171 0.000015 0.002014 0.024817 -0.002352 0.003442
# 5 -0.005707 0.005678 0.000957 -0.002352 0.042371 0.005379
# 6 0.000044 0.004190 -0.001750 0.003442 0.005379 0.025903
#
#
# Mechanical properties :
#
#
# Convention : Reuss Voigt Hill
#
# Bulk Modulus (GPa) = 64.15230 67.45537 65.80383
# Shear Modulus (GPa) = 34.00384 38.96853 36.48618
#
# Velocity S-wave (km/s) = 3.83311 4.10340 3.97056
# Velocity P-wave (km/s) = 6.87822 7.18313 7.03233
#
# Compressibility (1/GPa) = 0.01558791
#
# Stress axis : x y z
#
# Youngs Moduli (GPa) = 91.68870 81.83804 110.54634
#
# Poissons Ratio (x) = 0.21927 0.31613
# Poissons Ratio (y) = 0.24566 0.30433
# Poissons Ratio (z) = 0.26220 0.22530
#
# Static dielectric constant tensor:
#      x y z
#    x 1.927620 0.005510 0.000120 
#    y 0.005510 1.912680 -0.039710 
#    z 0.000120 -0.039710 1.916800 
# 
# From -- ./inp_files/366854.got.cif
#   From: 2010.05.17/outbox.cif.g08.bks.cpg/sg2_184_cif.got.tgz:366854.got - 2010.06.03 11:33:40.
