data_PCOD9045687
_publ_section_title
;
Structure prediction by ZEFSAII (Michael W. Deem and Ramdas Pophale) SiO2 
 PCOD9045687
Probable space group: P -1
;
_chemical_formula_sum "Si O2"
_cell_formula_units_Z 16
_cell_length_a 8.368686
_cell_length_b 17.889019
_cell_length_c 12.573854
_cell_angle_alpha 135.751162
_cell_angle_beta 33.117857
_cell_angle_gamma 122.672884
_cell_volume 708.669071
_symmetry_space_group_name_H-M "P -1"
_symmetry_group_IT_number 2
_symmetry_cell_setting 'triclinic'
loop_
_space_group_symop_operation_xyz
x,y,z
-x,-y,-z
loop_
_atom_site_type_symbol
_atom_site_label
_atom_site_fract_x
_atom_site_fract_y
_atom_site_fract_z
Si Si1 0.835527 0.622151 0.231335
Si Si2 0.218956 0.692667 0.735421
Si Si3 0.791295 0.236865 0.955083
Si Si4 0.220529 0.641472 0.234122
Si Si5 0.841163 0.001308 0.778729
Si Si6 0.095487 0.067982 0.917746
Si Si7 0.840214 0.514586 0.715682
Si Si8 0.667218 0.164571 0.732097
O O1 0.486135 0.637420 0.456090
O O2 0.942049 0.700229 0.163135
O O3 0.961788 0.657021 0.308473
O O4 0.000000 0.500000 0.000000
O O5 0.983038 0.610245 0.790126
O O6 0.329231 0.710725 0.812725
O O7 0.082104 0.809563 0.880435
O O8 0.867997 0.110895 0.813210
O O9 0.603244 0.234229 0.947954
O O10 0.112450 0.595676 0.355822
O O11 0.346053 0.753871 0.276795
O O12 0.488146 0.553133 0.949851
O O13 0.030554 0.003562 0.782850
O O14 0.000240 0.901104 0.519116
O O15 0.500000 0.000000 0.000000
O O16 0.431120 0.085036 0.768144
O O17 0.000000 0.000000 0.000000
O O18 0.000000 0.500000 0.500000
#
# Coordination Sequence:
#
# PCOD9045687 Si02
#       8
#     2   2   2   2   2   2   2   2
#     4  11  24  44  68 101 135 183 227 286 343 404
#     4  11  25  45  68 104 137 176 241 282 337 415
#     4  10  25  42  73  95 141 177 227 280 350 399
#     4  10  24  41  66  97 138 173 226 273 343 401
#     4  11  25  44  71 102 136 180 229 282 345 417
#     4  11  25  44  69 103 138 183 232 281 350 410
#     4  11  23  44  67  98 138 182 221 282 343 406
#     4  11  23  46  68 102 137 181 227 288 346 412
#
# _framework density 22.577534
#
# number of rings (size 3 to 8) (size 9 to 14) (size 15 to 20)
#    0.000    1.250    1.250    3.000    8.750    6.000 
#    0.000    0.000    0.000    0.000    0.000    0.000 
#    0.000    0.000    0.000    0.000    0.000    0.000 
#
# Total GULP energy -89395.567864 kJ/mol
# GULP energy per Si atom -5587.222992 kJ/mol
# Density = 2.252615 g / cm^3
# Si number density = 22.577534 Si / 1000 Ang^3
#
#
#
# Elastic Constant Matrix: (Units=GPa)
#
#
# Indices 1 2 3 4 5 6 
#
# 1 71.6520 34.2762 27.5609 -18.5857 13.1910 3.4900
# 2 34.2762 170.3500 42.4141 -28.4590 13.4484 -24.4669
# 3 27.5609 42.4141 116.7385 -15.9121 1.2922 -5.0958
# 4 -18.5857 -28.4590 -15.9121 36.3657 1.0318 8.7526
# 5 13.1910 13.4484 1.2922 1.0318 33.4258 -7.5320
# 6 3.4900 -24.4669 -5.0958 8.7526 -7.5320 40.9458
#
#
#
# Elastic Compliance Matrix: (Units=1/GPa)
#
#
# Indices 1 2 3 4 5 6 
#
# 1 0.020609 -0.002109 -0.003010 0.009530 -0.009061 -0.007095
# 2 -0.002109 0.007976 -0.001736 0.003565 -0.001592 0.003675
# 3 -0.003010 -0.001736 0.010097 0.001363 0.001560 0.000471
# 4 0.009530 0.003565 0.001363 0.037950 -0.008254 -0.008143
# 5 -0.009061 -0.001592 0.001560 -0.008254 0.036230 0.008444
# 6 -0.007095 0.003675 0.000471 -0.008143 0.008444 0.030576
#
#
# Mechanical properties :
#
#
# Convention : Reuss Voigt Hill
#
# Bulk Modulus (GPa) = 40.04513 63.02697 51.53605
# Shear Modulus (GPa) = 30.21697 39.11340 34.66518
#
# Velocity S-wave (km/s) = 3.66234 4.16673 3.92265
# Velocity P-wave (km/s) = 5.97150 7.15019 6.58726
#
# Compressibility (1/GPa) = 0.02497182
#
# Stress axis : x y z
#
# Youngs Moduli (GPa) = 48.52358 125.37823 99.04337
#
# Poissons Ratio (x) = 0.26441 0.29809
# Poissons Ratio (y) = 0.10233 0.17194
# Poissons Ratio (z) = 0.14604 0.21765
#
# Static dielectric constant tensor:
#      x y z
#    x 1.875530 -0.001830 0.025000 
#    y -0.001830 1.887220 0.013400 
#    z 0.025000 0.013400 1.833390 
# 
# From -- ./inp_files/218163.got.cif
#   From: 2010.05.17/outbox.cif.g08.bks.cpg/sg2_110_cif.got.tgz:218163.got - 2010.06.03 11:33:40.
