data_PCOD9045988
_publ_section_title
;
Structure prediction by ZEFSAII (Michael W. Deem and Ramdas Pophale) SiO2 
 PCOD9045988
Probable space group: P -1
;
_chemical_formula_sum "Si O2"
_cell_formula_units_Z 16
_cell_length_a 13.298529
_cell_length_b 10.455326
_cell_length_c 10.842360
_cell_angle_alpha 135.945757
_cell_angle_beta 100.960786
_cell_angle_gamma 109.194591
_cell_volume 752.852293
_symmetry_space_group_name_H-M "P -1"
_symmetry_group_IT_number 2
_symmetry_cell_setting 'triclinic'
loop_
_space_group_symop_operation_xyz
x,y,z
-x,-y,-z
loop_
_atom_site_type_symbol
_atom_site_label
_atom_site_fract_x
_atom_site_fract_y
_atom_site_fract_z
Si Si1 0.644564 0.691557 0.740476
Si Si2 0.066647 0.936596 0.064204
Si Si3 0.448925 0.146118 0.735723
Si Si4 0.061748 0.233570 0.828983
Si Si5 0.399657 0.003480 0.896646
Si Si6 0.904683 0.414473 0.536947
Si Si7 0.347318 0.621961 0.272776
Si Si8 0.845935 0.033284 0.446729
O O1 0.500000 0.500000 0.500000
O O2 0.663606 0.544337 0.737979
O O3 0.770459 0.864070 0.792206
O O4 0.644692 0.875829 0.949557
O O5 0.031498 0.946769 0.202572
O O6 0.987834 0.652000 0.811485
O O7 0.000000 0.000000 0.000000
O O8 0.473896 0.172212 0.906787
O O9 0.566184 0.345859 0.802994
O O10 0.418897 0.894054 0.527040
O O11 0.310778 0.099408 0.647520
O O12 0.958524 0.217736 0.705958
O O13 0.128922 0.147427 0.708103
O O14 0.194944 0.494315 0.100298
O O15 0.254701 0.721987 0.629296
O O16 0.500000 0.000000 0.000000
O O17 0.882142 0.194464 0.446772
O O18 0.000000 0.500000 0.500000
#
# Coordination Sequence:
#
# PCOD9045988 Si02
#       8
#     2   2   2   2   2   2   2   2
#     4  12  27  44  66  99 134 172 221 270 325 393
#     4  12  25  42  69  97 131 176 216 273 329 381
#     4  10  24  43  68  93 130 173 214 267 326 381
#     4  11  23  43  66  97 132 167 219 266 325 387
#     4  11  24  44  68  99 132 173 217 268 326 391
#     4  11  22  43  68  96 132 170 216 270 324 386
#     4  11  23  45  66  95 131 170 217 268 322 389
#     4  10  24  42  65  99 129 169 217 267 322 388
#
# _framework density 21.252507999999999
#
# number of rings (size 3 to 8) (size 9 to 14) (size 15 to 20)
#    0.000    1.000    2.500    4.500    3.500    5.000 
#    4.500    0.000    0.000    0.000    0.000    0.000 
#    0.000    0.000    0.000    0.000    0.000    0.000 
#
# Total GULP energy -89446.018338 kJ/mol
# GULP energy per Si atom -5590.376146 kJ/mol
# Density = 2.120414 g / cm^3
# Si number density = 21.252508 Si / 1000 Ang^3
#
#
#
# Elastic Constant Matrix: (Units=GPa)
#
#
# Indices 1 2 3 4 5 6 
#
# 1 92.7609 35.7179 16.1921 -5.6553 20.5608 16.0829
# 2 35.7179 83.8866 16.5212 -12.6060 32.9290 25.5095
# 3 16.1921 16.5212 74.9919 -0.5646 33.0918 0.6711
# 4 -5.6553 -12.6060 -0.5646 31.8752 -9.5785 5.7397
# 5 20.5608 32.9290 33.0918 -9.5785 34.8698 -0.3776
# 6 16.0829 25.5095 0.6711 5.7397 -0.3776 48.5723
#
#
#
# Elastic Compliance Matrix: (Units=1/GPa)
#
#
# Indices 1 2 3 4 5 6 
#
# 1 0.013577 -0.002526 0.000206 0.000262 -0.005779 -0.003248
# 2 -0.002526 0.030615 0.009753 0.003991 -0.035755 -0.016126
# 3 0.000206 0.009753 0.027518 -0.005839 -0.037106 -0.005169
# 4 0.000262 0.003991 -0.005839 0.037627 0.011883 -0.006456
# 5 -0.005779 -0.035755 -0.037106 0.011883 0.104552 0.020613
# 6 -0.003248 -0.016126 -0.005169 -0.006456 0.020613 0.031127
#
#
# Mechanical properties :
#
#
# Convention : Reuss Voigt Hill
#
# Bulk Modulus (GPa) = 11.55062 43.16687 27.35875
# Shear Modulus (GPa) = 19.30432 35.27734 27.29083
#
# Velocity S-wave (km/s) = 3.01712 4.07862 3.58735
# Velocity P-wave (km/s) = 4.19334 6.52194 5.48269
#
# Compressibility (1/GPa) = 0.08657545
#
# Stress axis : x y z
#
# Youngs Moduli (GPa) = 73.65355 32.66387 36.34011
#
# Poissons Ratio (x) = 0.08252 -0.00749
# Poissons Ratio (y) = 0.18606 -0.35442
# Poissons Ratio (z) = -0.01518 -0.31857
#
# Static dielectric constant tensor:
#      x y z
#    x 1.724260 0.001220 0.071110 
#    y 0.001220 1.696660 0.059360 
#    z 0.071110 0.059360 1.659050 
# 
# From -- ./inp_files/429092.got.cif
#   From: 2010.05.17/outbox.cif.g08.bks.cpg/sg2_215_cif.got.tgz:429092.got - 2010.06.03 11:33:40.
