data_PCOD9045716
_publ_section_title
;
Structure prediction by ZEFSAII (Michael W. Deem and Ramdas Pophale) SiO2 
 PCOD9045716
Probable space group: P -1
;
_chemical_formula_sum "Si O2"
_cell_formula_units_Z 16
_cell_length_a 5.105307
_cell_length_b 27.416511
_cell_length_c 9.871498
_cell_angle_alpha 39.547715
_cell_angle_beta 114.797805
_cell_angle_gamma 100.817033
_cell_volume 776.309908
_symmetry_space_group_name_H-M "P -1"
_symmetry_group_IT_number 2
_symmetry_cell_setting 'triclinic'
loop_
_space_group_symop_operation_xyz
x,y,z
-x,-y,-z
loop_
_atom_site_type_symbol
_atom_site_label
_atom_site_fract_x
_atom_site_fract_y
_atom_site_fract_z
Si Si1 0.898902 0.156102 0.186262
Si Si2 0.370633 0.084933 0.228231
Si Si3 0.297928 0.123155 0.584034
Si Si4 0.254685 0.038030 0.027957
Si Si5 0.369088 0.477336 0.379127
Si Si6 0.645711 0.319428 0.891090
Si Si7 0.671680 0.540335 0.063496
Si Si8 0.325351 0.301176 0.144958
O O1 0.660833 0.110244 0.184428
O O2 0.183642 0.139113 0.187468
O O3 0.993021 0.134483 0.409112
O O4 0.732687 0.245518 0.969859
O O5 0.177525 0.077712 0.070842
O O6 0.500000 0.000000 0.500000
O O7 0.381981 0.208088 0.399005
O O8 0.481994 0.040791 0.735452
O O9 0.299043 0.100544 0.790412
O O10 0.000000 0.000000 0.000000
O O11 0.500000 0.500000 0.500000
O O12 0.429550 0.384781 0.615241
O O13 0.577037 0.503915 0.257897
O O14 0.028771 0.513431 0.188071
O O15 0.491048 0.305619 0.028599
O O16 0.970526 0.332749 0.973717
O O17 0.500000 0.500000 0.000000
O O18 0.591167 0.635879 0.865683
#
# Coordination Sequence:
#
# PCOD9045716 Si02
#       8
#     2   2   2   2   2   2   2   2
#     4  11  24  43  65  97 128 169 221 278 339 381
#     4  12  24  41  66  94 131 166 218 281 338 389
#     4  10  24  41  67  92 130 176 229 271 328 411
#     4  11  25  42  65  94 129 179 227 267 331 409
#     4  12  22  44  72 101 131 178 236 275 332 409
#     4  11  23  40  73  99 129 172 233 283 325 400
#     4  12  25  43  69 106 144 181 222 282 351 408
#     4  11  22  42  68  99 131 178 226 277 338 404
#
# _framework density 20.610325
#
# number of rings (size 3 to 8) (size 9 to 14) (size 15 to 20)
#    0.000    0.750    3.750    4.125    7.000    0.000 
#    2.250    1.250    0.000    0.000    0.000    0.000 
#    0.000    0.000    0.000    0.000    0.000    0.000 
#
# Total GULP energy -89227.216197 kJ/mol
# GULP energy per Si atom -5576.701012 kJ/mol
# Density = 2.056342 g / cm^3
# Si number density = 20.610325 Si / 1000 Ang^3
#
#
#
# Elastic Constant Matrix: (Units=GPa)
#
#
# Indices 1 2 3 4 5 6 
#
# 1 61.9413 -11.2108 1.0270 -8.3416 -5.9050 -5.8240
# 2 -11.2108 86.0213 28.8995 -3.9302 -10.4246 -1.8672
# 3 1.0270 28.8995 76.8226 -21.7316 -6.6378 -12.3213
# 4 -8.3416 -3.9302 -21.7316 34.6822 -2.5133 4.7839
# 5 -5.9050 -10.4246 -6.6378 -2.5133 27.5197 0.2183
# 6 -5.8240 -1.8672 -12.3213 4.7839 0.2183 32.8545
#
#
#
# Elastic Compliance Matrix: (Units=1/GPa)
#
#
# Indices 1 2 3 4 5 6 
#
# 1 0.018240 0.003009 0.001151 0.005456 0.005806 0.003003
# 2 0.003009 0.014324 -0.005258 -0.000523 0.004760 -0.000580
# 3 0.001151 -0.005258 0.019421 0.011375 0.003935 0.005506
# 4 0.005456 -0.000523 0.011375 0.037781 0.007170 -0.000345
# 5 0.005806 0.004760 0.003935 0.007170 0.040979 0.001459
# 6 0.003003 -0.000580 0.005506 -0.000345 0.001459 0.033042
#
#
# Mechanical properties :
#
#
# Convention : Reuss Voigt Hill
#
# Bulk Modulus (GPa) = 20.08551 29.13517 24.61034
# Shear Modulus (GPa) = 27.38515 32.74925 30.06720
#
# Velocity S-wave (km/s) = 3.64910 3.99052 3.82362
# Velocity P-wave (km/s) = 5.24606 5.94972 5.60893
#
# Compressibility (1/GPa) = 0.04978714
#
# Stress axis : x y z
#
# Youngs Moduli (GPa) = 54.82377 69.81237 51.49136
#
# Poissons Ratio (x) = -0.21003 -0.05927
# Poissons Ratio (y) = -0.16494 0.27077
# Poissons Ratio (z) = -0.06310 0.36711
#
# Static dielectric constant tensor:
#      x y z
#    x 2.361200 0.004260 0.748670 
#    y 0.004260 1.828420 -0.120910 
#    z 0.748670 -0.120910 2.740810 
# 
# From -- ./inp_files/143096.got.cif
#   From: 2010.05.17/outbox.cif.g08.bks.cpg/sg2_72_cif.got.tgz:143096.got - 2010.06.03 11:33:40.
