data_PCOD9045089
_publ_section_title
;
Structure prediction by ZEFSAII (Michael W. Deem and Ramdas Pophale) SiO2 
 PCOD9045089
Probable space group: P -1
;
_chemical_formula_sum "Si O2"
_cell_formula_units_Z 16
_cell_length_a 9.028877
_cell_length_b 12.248631
_cell_length_c 18.324761
_cell_angle_alpha 47.160027
_cell_angle_beta 94.433127
_cell_angle_gamma 133.018327
_cell_volume 752.727470
_symmetry_space_group_name_H-M "P -1"
_symmetry_group_IT_number 2
_symmetry_cell_setting 'triclinic'
loop_
_space_group_symop_operation_xyz
x,y,z
-x,-y,-z
loop_
_atom_site_type_symbol
_atom_site_label
_atom_site_fract_x
_atom_site_fract_y
_atom_site_fract_z
Si Si1 0.632767 0.283477 0.259115
Si Si2 0.339784 0.021779 0.081349
Si Si3 0.701801 0.526258 0.291350
Si Si4 0.816341 0.711093 0.589038
Si Si5 0.775253 0.633806 0.456574
Si Si6 0.405434 0.248118 0.127967
Si Si7 0.194129 0.606083 0.195191
Si Si8 0.729052 0.318654 0.522295
O O1 0.559709 0.317686 0.312210
O O2 0.598508 0.355676 0.153878
O O3 0.949893 0.486528 0.195887
O O4 0.431768 0.966929 0.380217
O O5 0.281056 0.792549 0.179864
O O6 0.036053 0.846685 0.136303
O O7 0.456415 0.188507 0.085727
O O8 0.550463 0.215877 0.932048
O O9 0.515111 0.509201 0.314835
O O10 0.740869 0.438432 0.397849
O O11 0.882940 0.740268 0.494390
O O12 0.898683 0.630767 0.669063
O O13 0.000000 0.000000 0.500000
O O14 0.500000 0.500000 0.500000
O O15 0.615219 0.338923 0.567251
O O16 0.061961 0.923912 0.286355
O O17 0.500000 0.500000 0.000000
O O18 0.000000 0.500000 0.500000
#
# Coordination Sequence:
#
# PCOD9045089 Si02
#       8
#     2   2   2   2   2   2   2   2
#     4  11  25  44  71 103 136 187 237 282 362 409
#     4  10  23  49  69  97 140 180 242 275 359 409
#     4  11  23  45  68 106 140 186 228 286 353 423
#     4  12  26  42  70 103 142 177 230 287 349 406
#     4  12  26  47  68 109 139 181 235 288 355 409
#     4  12  27  47  73 101 142 189 233 295 354 427
#     4  10  26  46  71 104 136 184 232 296 338 428
#     4  12  23  42  73 101 139 180 228 291 346 420
#
# _framework density 21.256031
#
# number of rings (size 3 to 8) (size 9 to 14) (size 15 to 20)
#    0.000    0.750    3.750    1.875    8.750    1.000 
#   11.250    0.000    0.000    0.000    0.000    0.000 
#    0.000    0.000    0.000    0.000    0.000    0.000 
#
# Total GULP energy -89213.829403 kJ/mol
# GULP energy per Si atom -5575.864338 kJ/mol
# Density = 2.120765 g / cm^3
# Si number density = 21.256031 Si / 1000 Ang^3
#
#
#
# Elastic Constant Matrix: (Units=GPa)
#
#
# Indices 1 2 3 4 5 6 
#
# 1 114.0989 44.5763 37.0717 19.5044 10.7138 -0.7108
# 2 44.5763 160.5566 30.3502 14.4977 16.3249 -22.0958
# 3 37.0717 30.3502 56.3209 4.9020 4.1516 -3.1070
# 4 19.5044 14.4977 4.9020 20.7137 -4.4227 -1.3461
# 5 10.7138 16.3249 4.1516 -4.4227 43.1338 3.6081
# 6 -0.7108 -22.0958 -3.1070 -1.3461 3.6081 49.9255
#
#
#
# Elastic Compliance Matrix: (Units=1/GPa)
#
#
# Indices 1 2 3 4 5 6 
#
# 1 0.013832 -0.001233 -0.007265 -0.011213 -0.003348 -0.000861
# 2 -0.001233 0.008354 -0.002853 -0.004490 -0.003344 0.003623
# 3 -0.007265 -0.002853 0.023714 0.003436 0.000943 0.000134
# 4 -0.011213 -0.004490 0.003436 0.063393 0.010737 -0.001000
# 5 -0.003348 -0.003344 0.000943 0.010737 0.026550 -0.003098
# 6 -0.000861 0.003623 0.000134 -0.001000 -0.003098 0.021826
#
#
# Mechanical properties :
#
#
# Convention : Reuss Voigt Hill
#
# Bulk Modulus (GPa) = 43.10741 61.66364 52.38552
# Shear Modulus (GPa) = 26.58101 37.35315 31.96708
#
# Velocity S-wave (km/s) = 3.54010 4.19656 3.88223
# Velocity P-wave (km/s) = 6.08554 7.24944 6.69284
#
# Compressibility (1/GPa) = 0.02319787
#
# Stress axis : x y z
#
# Youngs Moduli (GPa) = 72.29486 119.70427 42.16928
#
# Poissons Ratio (x) = 0.14754 0.30637
# Poissons Ratio (y) = 0.08911 0.12032
# Poissons Ratio (z) = 0.52524 0.34155
#
# Static dielectric constant tensor:
#      x y z
#    x 1.743990 0.008890 -0.050180 
#    y 0.008890 1.786960 -0.043230 
#    z -0.050180 -0.043230 1.786180 
# 
# From -- ./inp_files/558455.got.cif
#   From: 2010.05.17/outbox.cif.g08.bks.cpg/sg2_280_cif.got.tgz:558455.got - 2010.06.03 11:33:40.
