data_PCOD9045923
_publ_section_title
;
Structure prediction by ZEFSAII (Michael W. Deem and Ramdas Pophale) SiO2 
 PCOD9045923
Probable space group: P -1
;
_chemical_formula_sum "Si O2"
_cell_formula_units_Z 15
_cell_length_a 12.298448
_cell_length_b 13.694318
_cell_length_c 11.576923
_cell_angle_alpha 148.000564
_cell_angle_beta 129.843033
_cell_angle_gamma 41.328088
_cell_volume 682.256549
_symmetry_space_group_name_H-M "P -1"
_symmetry_group_IT_number 2
_symmetry_cell_setting 'triclinic'
loop_
_space_group_symop_operation_xyz
x,y,z
-x,-y,-z
loop_
_atom_site_type_symbol
_atom_site_label
_atom_site_fract_x
_atom_site_fract_y
_atom_site_fract_z
Si Si1 0.000000 0.000000 0.500000
Si Si2 0.931415 0.560167 0.693372
Si Si3 0.972341 0.804810 0.758798
Si Si4 0.518418 0.635826 0.901668
Si Si5 0.417137 0.032023 0.099292
Si Si6 0.900084 0.455282 0.982336
Si Si7 0.639711 0.157390 0.512491
Si Si8 0.622224 0.087409 0.694396
O O1 0.037927 0.795566 0.237165
O O2 0.186208 0.957371 0.549878
O O3 0.993621 0.663935 0.744072
O O4 0.916202 0.367411 0.434877
O O5 0.758074 0.753765 0.810169
O O6 0.058609 0.478938 0.802522
O O7 0.787270 0.907155 0.688017
O O8 0.000000 0.000000 0.000000
O O9 0.705431 0.582294 0.958023
O O10 0.533948 0.409452 0.662793
O O11 0.406853 0.827769 0.930434
O O12 0.458854 0.718333 0.074122
O O13 0.529107 0.059946 0.298894
O O14 0.500000 0.000000 0.000000
O O15 0.000000 0.500000 0.000000
O O16 0.664736 0.141092 0.651591
O O17 0.500000 0.000000 0.500000
#
# Coordination Sequence:
#
# PCOD9045923 Si02
#       8
#     1   2   2   2   2   2   2   2
#     4  10  24  42  64 106 134 176 234 286 344 412
#     4  11  25  45  68 100 142 181 233 282 361 428
#     4  11  27  44  71 102 141 185 230 296 363 420
#     4  11  24  43  69 104 133 180 239 288 351 415
#     4  12  25  46  68 100 144 189 226 290 352 425
#     4  11  24  42  71  99 137 184 233 288 348 421
#     4  11  25  43  72 102 138 180 237 292 348 420
#     4  12  23  46  74 103 140 183 239 298 358 420
#
# _framework density 21.985863999999999
#
# number of rings (size 3 to 8) (size 9 to 14) (size 15 to 20)
#    0.000    0.800    2.667    3.600    7.467    1.600 
#    0.000    0.000    0.000    0.000    0.000    0.000 
#    0.000    0.000    0.000    0.000    0.000    0.000 
#
# Total GULP energy -83670.630943 kJ/mol
# GULP energy per Si atom -5578.042063 kJ/mol
# Density = 2.193582 g / cm^3
# Si number density = 21.985864 Si / 1000 Ang^3
#
#
#
# Elastic Constant Matrix: (Units=GPa)
#
#
# Indices 1 2 3 4 5 6 
#
# 1 38.9525 4.8984 10.2884 7.2025 -6.5817 -1.4818
# 2 4.8984 41.6442 11.8351 7.8455 2.8942 2.5837
# 3 10.2884 11.8351 104.5917 25.8752 -3.2190 12.3879
# 4 7.2025 7.8455 25.8752 38.8317 -4.9691 -8.8381
# 5 -6.5817 2.8942 -3.2190 -4.9691 36.7646 7.4712
# 6 -1.4818 2.5837 12.3879 -8.8381 7.4712 38.8989
#
#
#
# Elastic Compliance Matrix: (Units=1/GPa)
#
#
# Indices 1 2 3 4 5 6 
#
# 1 0.027744 -0.002590 -0.001591 -0.002931 0.004597 0.000187
# 2 -0.002590 0.025900 -0.001402 -0.004610 -0.002869 -0.001869
# 3 -0.001591 -0.001402 0.013001 -0.009423 0.000999 -0.006441
# 4 -0.002931 -0.004610 -0.009423 0.036247 0.001654 0.011113
# 5 0.004597 -0.002869 0.000999 0.001654 0.029630 -0.005268
# 6 0.000187 -0.001869 -0.006441 0.011113 -0.005268 0.031427
#
#
# Mechanical properties :
#
#
# Convention : Reuss Voigt Hill
#
# Bulk Modulus (GPa) = 18.02524 26.58135 22.30329
# Shear Modulus (GPa) = 25.82519 33.44348 29.63433
#
# Velocity S-wave (km/s) = 3.43100 3.90440 3.67533
# Velocity P-wave (km/s) = 4.88999 5.69581 5.30822
#
# Compressibility (1/GPa) = 0.05547778
#
# Stress axis : x y z
#
# Youngs Moduli (GPa) = 36.04354 38.60999 76.91794
#
# Poissons Ratio (x) = 0.10000 0.12241
# Poissons Ratio (y) = 0.09335 0.10786
# Poissons Ratio (z) = 0.05736 0.05414
#
# Static dielectric constant tensor:
#      x y z
#    x 1.899380 -0.104770 -0.018470 
#    y -0.104770 1.938720 0.045970 
#    z -0.018470 0.045970 1.797980 
# 
# From -- ./inp_files/433563.got.cif
#   From: 2010.05.17/outbox.cif.g08.bks.cpg/sg2_217_cif.got.tgz:433563.got - 2010.06.03 11:33:40.
