data_PCOD9045529
_publ_section_title
;
Structure prediction by ZEFSAII (Michael W. Deem and Ramdas Pophale) SiO2 
 PCOD9045529
Probable space group: P -1
;
_chemical_formula_sum "Si O2"
_cell_formula_units_Z 16
_cell_length_a 6.105324
_cell_length_b 8.262105
_cell_length_c 23.249460
_cell_angle_alpha 55.387867
_cell_angle_beta 81.563522
_cell_angle_gamma 115.565686
_cell_volume 739.563398
_symmetry_space_group_name_H-M "P -1"
_symmetry_group_IT_number 2
_symmetry_cell_setting 'triclinic'
loop_
_space_group_symop_operation_xyz
x,y,z
-x,-y,-z
loop_
_atom_site_type_symbol
_atom_site_label
_atom_site_fract_x
_atom_site_fract_y
_atom_site_fract_z
Si Si1 0.372067 0.670597 0.313572
Si Si2 0.684649 0.652443 0.406144
Si Si3 0.845248 0.430056 0.248161
Si Si4 0.813896 0.570307 0.960429
Si Si5 0.665596 0.486702 0.857409
Si Si6 0.775084 0.826706 0.159011
Si Si7 0.705284 0.936445 0.734293
Si Si8 0.746213 0.279208 0.413003
O O1 0.548546 0.736166 0.351816
O O2 0.537593 0.693296 0.246208
O O3 0.069686 0.393700 0.390870
O O4 0.309670 0.867881 0.270375
O O5 0.500000 0.500000 0.500000
O O6 0.694223 0.457089 0.409462
O O7 0.015181 0.898710 0.350433
O O8 0.934277 0.708450 0.185008
O O9 0.573980 0.246264 0.255705
O O10 0.751677 0.316409 0.337701
O O11 0.097474 0.440998 0.212258
O O12 0.749329 0.448175 0.923707
O O13 0.500000 0.500000 0.000000
O O14 0.029610 0.875882 0.897062
O O15 0.000000 0.500000 0.000000
O O16 0.373520 0.264784 0.880195
O O17 0.700162 0.740928 0.813255
O O18 0.500000 0.000000 0.500000
#
# Coordination Sequence:
#
# PCOD9045529 Si02
#       8
#     2   2   2   2   2   2   2   2
#     4  11  23  45  68  97 137 193 245 302 365 438
#     4  11  25  40  59  91 136 189 239 304 374 427
#     4  11  23  44  71 104 136 192 246 297 362 433
#     4  12  32  52  80 119 157 196 241 313 391 456
#     4  11  26  47  78 107 145 194 244 298 366 459
#     4  11  25  47  79 105 146 192 250 304 361 467
#     4  10  24  40  70  97 132 183 251 292 361 434
#     4  11  26  38  63 100 143 184 240 307 363 417
#
# _framework density 21.634384000000001
#
# number of rings (size 3 to 8) (size 9 to 14) (size 15 to 20)
#    0.000    1.000    2.500    2.250   14.000    2.500 
#    0.000    0.000    0.000    0.000    0.000    0.000 
#    0.000    0.000    0.000    0.000    0.000    0.000 
#
# Total GULP energy -89315.226203 kJ/mol
# GULP energy per Si atom -5582.201638 kJ/mol
# Density = 2.158514 g / cm^3
# Si number density = 21.634384 Si / 1000 Ang^3
#
#
#
# Elastic Constant Matrix: (Units=GPa)
#
#
# Indices 1 2 3 4 5 6 
#
# 1 73.9694 17.2457 24.8174 -11.9294 7.6625 6.8774
# 2 17.2457 67.2526 33.0595 1.4165 9.1020 1.3600
# 3 24.8174 33.0595 58.5696 0.5428 1.7088 5.9030
# 4 -11.9294 1.4165 0.5428 42.3412 7.6872 2.1530
# 5 7.6625 9.1020 1.7088 7.6872 27.8008 1.5990
# 6 6.8774 1.3600 5.9030 2.1530 1.5990 30.9033
#
#
#
# Elastic Compliance Matrix: (Units=1/GPa)
#
#
# Indices 1 2 3 4 5 6 
#
# 1 0.017839 -0.000451 -0.006911 0.006349 -0.005941 -0.002765
# 2 -0.000451 0.021754 -0.012080 0.000384 -0.006463 0.001758
# 3 -0.006911 -0.012080 0.027016 -0.002657 0.005117 -0.003170
# 4 0.006349 0.000384 -0.002657 0.027199 -0.009098 -0.002346
# 5 -0.005941 -0.006463 0.005117 -0.009098 0.041977 -0.000909
# 6 -0.002765 0.001758 -0.003170 -0.002346 -0.000909 0.033713
#
#
# Mechanical properties :
#
#
# Convention : Reuss Voigt Hill
#
# Bulk Modulus (GPa) = 36.06925 38.89296 37.48111
# Shear Modulus (GPa) = 22.97525 28.52032 25.74779
#
# Velocity S-wave (km/s) = 3.26234 3.63476 3.45357
# Velocity P-wave (km/s) = 5.55867 5.96923 5.76761
#
# Compressibility (1/GPa) = 0.02772444
#
# Stress axis : x y z
#
# Youngs Moduli (GPa) = 56.05539 45.96777 37.01534
#
# Poissons Ratio (x) = 0.02073 0.25583
# Poissons Ratio (y) = 0.02528 0.44716
# Poissons Ratio (z) = 0.38742 0.55531
#
# Static dielectric constant tensor:
#      x y z
#    x 1.840160 0.021630 -0.000980 
#    y 0.021630 1.795740 -0.014640 
#    z -0.000980 -0.014640 1.732460 
# 
# From -- ./inp_files/46513.got.cif
#   From: 2010.05.17/outbox.cif.g08.bks.cpg/sg2_24_cif.got.tgz:46513.got - 2010.06.03 11:33:40.
