data_PCOD9045887
_publ_section_title
;
Structure prediction by ZEFSAII (Michael W. Deem and Ramdas Pophale) SiO2 
 PCOD9045887
Probable space group: P -1
;
_chemical_formula_sum "Si O2"
_cell_formula_units_Z 16
_cell_length_a 8.615173
_cell_length_b 18.146324
_cell_length_c 8.451963
_cell_angle_alpha 57.738840
_cell_angle_beta 88.563001
_cell_angle_gamma 131.639624
_cell_volume 667.469678
_symmetry_space_group_name_H-M "P -1"
_symmetry_group_IT_number 2
_symmetry_cell_setting 'triclinic'
loop_
_space_group_symop_operation_xyz
x,y,z
-x,-y,-z
loop_
_atom_site_type_symbol
_atom_site_label
_atom_site_fract_x
_atom_site_fract_y
_atom_site_fract_z
Si Si1 0.781846 0.014448 0.047657
Si Si2 0.224264 0.785726 0.164958
Si Si3 0.536967 0.934644 0.685972
Si Si4 0.500024 0.495555 0.313198
Si Si5 0.216843 0.550592 0.663493
Si Si6 0.631982 0.833845 0.546035
Si Si7 0.759317 0.457184 0.681761
Si Si8 0.942353 0.829443 0.427806
O O1 0.484537 0.881438 0.146307
O O2 0.773780 0.963301 0.272245
O O3 0.848626 0.146199 0.907390
O O4 0.986786 0.080347 0.831478
O O5 0.990171 0.625894 0.425298
O O6 0.306631 0.811341 0.953019
O O7 0.581537 0.867189 0.663218
O O8 0.500000 0.000000 0.500000
O O9 0.780551 0.074182 0.626684
O O10 0.500000 0.500000 0.500000
O O11 0.728837 0.529369 0.221140
O O12 0.255139 0.334672 0.427880
O O13 0.452808 0.577723 0.184195
O O14 0.381734 0.680105 0.637911
O O15 0.926220 0.459978 0.767632
O O16 0.333224 0.618539 0.402438
O O17 0.815961 0.833367 0.559265
#
# Coordination Sequence:
#
# PCOD9045887 Si02
#       8
#     2   2   2   2   2   2   2   2
#     4  10  18  31  54  81 104 135 177 231 271 318
#     4  10  19  32  52  80 106 140 182 222 268 322
#     4  11  23  35  51  76 111 149 182 211 266 335
#     4   9  18  32  53  83 109 132 177 227 272 322
#     4   9  20  31  54  85 102 141 178 224 271 323
#     4  11  20  36  52  79 112 137 182 221 270 332
#     4  10  17  34  55  77 112 137 175 226 278 312
#     4  10  21  34  54  81 108 141 174 229 280 310
#
# _framework density 23.971129000000001
#
# number of rings (size 3 to 8) (size 9 to 14) (size 15 to 20)
#    0.000    2.000    3.750    0.750    1.750    0.000 
#    0.000    0.625    0.000    0.000    0.000    5.250 
#    0.000    0.000    0.000    0.000    0.000    0.000 
#
# Total GULP energy -89272.570650 kJ/mol
# GULP energy per Si atom -5579.535666 kJ/mol
# Density = 2.391657 g / cm^3
# Si number density = 23.971129 Si / 1000 Ang^3
#
#
#
# Elastic Constant Matrix: (Units=GPa)
#
#
# Indices 1 2 3 4 5 6 
#
# 1 128.8934 26.9196 12.3303 -7.6011 -3.1131 -21.6055
# 2 26.9196 98.8662 10.1605 -8.6871 -5.0528 -9.1245
# 3 12.3303 10.1605 44.0287 -0.7903 -1.9805 -6.3786
# 4 -7.6011 -8.6871 -0.7903 21.3238 -11.1058 -9.1486
# 5 -3.1131 -5.0528 -1.9805 -11.1058 23.1824 3.2230
# 6 -21.6055 -9.1245 -6.3786 -9.1486 3.2230 45.3504
#
#
#
# Elastic Compliance Matrix: (Units=1/GPa)
#
#
# Indices 1 2 3 4 5 6 
#
# 1 0.009507 -0.001177 -0.001348 0.006934 0.003496 0.005253
# 2 -0.001177 0.011966 -0.001563 0.008883 0.006158 0.002981
# 3 -0.001348 -0.001563 0.023970 0.002023 0.002124 0.002672
# 4 0.006934 0.008883 0.002023 0.081877 0.039612 0.019078
# 5 0.003496 0.006158 0.002124 0.039612 0.063174 0.006705
# 6 0.005253 0.002981 0.002672 0.019078 0.006705 0.028901
#
#
# Mechanical properties :
#
#
# Convention : Reuss Voigt Hill
#
# Bulk Modulus (GPa) = 26.83432 41.17877 34.00654
# Shear Modulus (GPa) = 20.83379 32.79650 26.81515
#
# Velocity S-wave (km/s) = 2.95128 3.70289 3.34824
# Velocity P-wave (km/s) = 4.77830 5.95799 5.40045
#
# Compressibility (1/GPa) = 0.03726571
#
# Stress axis : x y z
#
# Youngs Moduli (GPa) = 105.18443 83.56787 41.71936
#
# Poissons Ratio (x) = 0.09838 0.05624
# Poissons Ratio (y) = 0.12383 0.06522
# Poissons Ratio (z) = 0.14179 0.13065
#
# Static dielectric constant tensor:
#      x y z
#    x 2.036460 -0.034220 -0.012190 
#    y -0.034220 1.951290 0.004470 
#    z -0.012190 0.004470 1.883640 
# 
# From -- ./inp_files/169605.got.cif
#   From: 2010.05.17/outbox.cif.g08.bks.cpg/sg2_85_cif.got.tgz:169605.got - 2010.06.03 11:33:40.
