data_PCOD9045726
_publ_section_title
;
Structure prediction by ZEFSAII (Michael W. Deem and Ramdas Pophale) SiO2 
 PCOD9045726
Probable space group: P -1
;
_chemical_formula_sum "Si O2"
_cell_formula_units_Z 12
_cell_length_a 6.603890
_cell_length_b 12.749806
_cell_length_c 15.372605
_cell_angle_alpha 37.142419
_cell_angle_beta 62.441879
_cell_angle_gamma 86.933188
_cell_volume 559.912709
_symmetry_space_group_name_H-M "P -1"
_symmetry_group_IT_number 2
_symmetry_cell_setting 'triclinic'
loop_
_space_group_symop_operation_xyz
x,y,z
-x,-y,-z
loop_
_atom_site_type_symbol
_atom_site_label
_atom_site_fract_x
_atom_site_fract_y
_atom_site_fract_z
Si Si1 0.749899 0.270329 0.232395
Si Si2 0.321762 0.871665 0.479364
Si Si3 0.449460 0.275135 0.683628
Si Si4 0.912351 0.208350 0.603996
Si Si5 0.111821 0.099408 0.048000
Si Si6 0.545265 0.428115 0.297364
O O1 0.836546 0.198826 0.348597
O O2 0.520849 0.303629 0.296340
O O3 0.613701 0.092853 0.302589
O O4 0.000000 0.500000 0.000000
O O5 0.187733 0.888633 0.409079
O O6 0.363053 0.683300 0.580872
O O7 0.500000 0.500000 0.500000
O O8 0.743796 0.305306 0.599256
O O9 0.310316 0.189194 0.863579
O O10 0.209975 0.073564 0.804883
O O11 0.250059 0.377245 0.418206
O O12 0.834667 0.028846 0.808982
O O13 0.205094 0.322112 0.925260
#
# Coordination Sequence:
#
# PCOD9045726 Si02
#       6
#     2   2   2   2   2   2
#     4   9  21  42  69  89 132 177 214 258 323 383
#     4   9  22  42  65  93 131 177 209 264 322 374
#     4  11  26  47  68  90 135 173 212 265 328 385
#     4  12  24  40  68  98 132 163 221 269 318 383
#     4  11  25  42  67  99 127 171 218 263 325 385
#     4  10  24  41  67  97 130 170 219 265 320 377
#
# _framework density 21.431912000000001
#
# number of rings (size 3 to 8) (size 9 to 14) (size 15 to 20)
#    1.000    0.667    0.000    3.500    4.667    8.667 
#    0.000    1.667    0.000    0.000    0.000    0.000 
#    0.000    0.000    0.000    0.000    0.000    0.000 
#
# Total GULP energy -66902.534871 kJ/mol
# GULP energy per Si atom -5575.211239 kJ/mol
# Density = 2.138313 g / cm^3
# Si number density = 21.431912 Si / 1000 Ang^3
#
#
#
# Elastic Constant Matrix: (Units=GPa)
#
#
# Indices 1 2 3 4 5 6 
#
# 1 87.1799 33.1196 55.8149 -2.7154 11.3806 0.7619
# 2 33.1196 61.6296 37.4903 -15.1441 11.0798 6.5190
# 3 55.8149 37.4903 169.5067 -12.4115 6.2568 4.3033
# 4 -2.7154 -15.1441 -12.4115 43.0728 -3.5015 7.1095
# 5 11.3806 11.0798 6.2568 -3.5015 25.8759 10.0706
# 6 0.7619 6.5190 4.3033 7.1095 10.0706 39.0222
#
#
#
# Elastic Compliance Matrix: (Units=1/GPa)
#
#
# Indices 1 2 3 4 5 6 
#
# 1 0.017495 -0.007019 -0.004358 -0.003620 -0.005438 0.003375
# 2 -0.007019 0.024493 -0.002274 0.007839 -0.004216 -0.004044
# 3 -0.004358 -0.002274 0.007917 0.001520 0.001610 -0.001101
# 4 -0.003620 0.007839 0.001520 0.027823 0.004617 -0.007667
# 5 -0.005438 -0.004216 0.001610 0.004617 0.047979 -0.012590
# 6 0.003375 -0.004044 -0.001101 -0.007667 -0.012590 0.031004
#
#
# Mechanical properties :
#
#
# Convention : Reuss Voigt Hill
#
# Bulk Modulus (GPa) = 44.24205 63.46285 53.85245
# Shear Modulus (GPa) = 26.10310 34.38693 30.24502
#
# Velocity S-wave (km/s) = 3.49371 4.00993 3.76069
# Velocity P-wave (km/s) = 6.07968 7.14948 6.63617
#
# Compressibility (1/GPa) = 0.02260293
#
# Stress axis : x y z
#
# Youngs Moduli (GPa) = 57.15846 40.82759 126.30695
#
# Poissons Ratio (x) = 0.28659 0.55048
# Poissons Ratio (y) = 0.40122 0.28717
# Poissons Ratio (z) = 0.24911 0.09283
#
# Static dielectric constant tensor:
#      x y z
#    x 1.769580 -0.006200 0.007200 
#    y -0.006200 1.881510 0.047800 
#    z 0.007200 0.047800 1.756390 
# 
# From -- ./inp_files/483481.got.cif
#   From: 2010.05.17/outbox.cif.g08.bks.cpg/sg2_242_cif.got.tgz:483481.got - 2010.06.03 11:33:40.
