data_PCOD9045583
_publ_section_title
;
Structure prediction by ZEFSAII (Michael W. Deem and Ramdas Pophale) SiO2 
 PCOD9045583
Probable space group: P -1
;
_chemical_formula_sum "Si O2"
_cell_formula_units_Z 14
_cell_length_a 8.658636
_cell_length_b 9.181955
_cell_length_c 8.908179
_cell_angle_alpha 132.256371
_cell_angle_beta 93.085940
_cell_angle_gamma 83.915767
_cell_volume 521.091793
_symmetry_space_group_name_H-M "P -1"
_symmetry_group_IT_number 2
_symmetry_cell_setting 'triclinic'
loop_
_space_group_symop_operation_xyz
x,y,z
-x,-y,-z
loop_
_atom_site_type_symbol
_atom_site_label
_atom_site_fract_x
_atom_site_fract_y
_atom_site_fract_z
Si Si1 0.217899 0.586298 0.330471
Si Si2 0.822341 0.124907 0.753777
Si Si3 0.500000 0.500000 0.500000
Si Si4 0.839637 0.855803 0.075568
Si Si5 0.701673 0.535685 0.337248
Si Si6 0.000000 0.500000 0.500000
Si Si7 0.655759 0.867148 0.370531
Si Si8 0.357451 0.883830 0.963355
O O1 0.196488 0.716675 0.271066
O O2 0.385877 0.595000 0.416661
O O3 0.099025 0.642343 0.498900
O O4 0.186461 0.363451 0.131632
O O5 0.989677 0.131049 0.840829
O O6 0.791978 0.922684 0.528992
O O7 0.688278 0.153939 0.893572
O O8 0.640205 0.656900 0.564045
O O9 0.713251 0.904522 0.234109
O O10 0.794357 0.003919 0.040814
O O11 0.653623 0.635933 0.248996
O O12 0.610875 0.343862 0.252353
O O13 0.879995 0.476190 0.333577
O O14 0.500000 0.000000 0.500000
O O15 0.500000 0.000000 0.000000
#
# Coordination Sequence:
#
# PCOD9045583 Si02
#       8
#     2   2   1   2   2   1   2   2
#     4  11  24  49  80 113 161 201 264 326 407 472
#     4  12  27  48  77 113 158 207 266 329 403 476
#     4  10  24  40  76 104 144 194 254 308 386 456
#     4  12  27  48  77 113 158 207 266 329 403 476
#     4  11  25  44  73 103 154 195 255 320 397 459
#     4  10  24  42  82 112 142 200 256 318 398 464
#     4  12  28  47  75 114 157 206 266 329 402 476
#     4  12  28  47  75 114 157 206 266 329 402 476
#
# _framework density 26.866665999999999
#
# number of rings (size 3 to 8) (size 9 to 14) (size 15 to 20)
#    0.000    0.571    0.000    6.429   14.000    0.000 
#    0.000    4.286    0.000    0.000    0.000    0.000 
#    0.000    0.000    0.000    0.000    0.000    0.000 
#
# Total GULP energy -78078.111754 kJ/mol
# GULP energy per Si atom -5577.007982 kJ/mol
# Density = 2.680552 g / cm^3
# Si number density = 26.866666 Si / 1000 Ang^3
#
#
#
# Elastic Constant Matrix: (Units=GPa)
#
#
# Indices 1 2 3 4 5 6 
#
# 1 126.1219 58.8386 29.0010 -13.9864 12.5412 5.9014
# 2 58.8386 201.4434 40.9194 -27.1502 0.5709 3.0391
# 3 29.0010 40.9194 88.1540 -9.4807 -2.7303 0.1730
# 4 -13.9864 -27.1502 -9.4807 50.8636 9.4147 1.4156
# 5 12.5412 0.5709 -2.7303 9.4147 47.7173 -15.7571
# 6 5.9014 3.0391 0.1730 1.4156 -15.7571 41.4677
#
#
#
# Elastic Compliance Matrix: (Units=1/GPa)
#
#
# Indices 1 2 3 4 5 6 
#
# 1 0.010259 -0.002202 -0.002253 0.002082 -0.004184 -0.002950
# 2 -0.002202 0.006342 -0.001960 0.002459 -0.000194 -0.000301
# 3 -0.002253 -0.001960 0.013091 0.000449 0.001608 0.001005
# 4 0.002082 0.002459 0.000449 0.022891 -0.006270 -0.003642
# 5 -0.004184 -0.000194 0.001608 -0.006270 0.027052 0.011096
# 6 -0.002950 -0.000301 0.001005 -0.003642 0.011096 0.028894
#
#
# Mechanical properties :
#
#
# Convention : Reuss Voigt Hill
#
# Bulk Modulus (GPa) = 59.30576 74.80413 67.05494
# Shear Modulus (GPa) = 39.37639 47.14039 43.25839
#
# Velocity S-wave (km/s) = 3.83250 4.19334 4.01698
# Velocity P-wave (km/s) = 6.45802 7.16580 6.82110
#
# Compressibility (1/GPa) = 0.01686177
#
# Stress axis : x y z
#
# Youngs Moduli (GPa) = 97.47453 157.67909 76.38840
#
# Poissons Ratio (x) = 0.34719 0.17209
# Poissons Ratio (y) = 0.21463 0.14976
# Poissons Ratio (z) = 0.21959 0.30912
#
# Static dielectric constant tensor:
#      x y z
#    x 2.172060 0.035950 -0.071990 
#    y 0.035950 2.163250 0.066980 
#    z -0.071990 0.066980 2.234030 
# 
# From -- ./inp_files/160231.got.cif
#   From: 2010.05.17/outbox.cif.g08.bks.cpg/sg2_81_cif.got.tgz:160231.got - 2010.06.03 11:33:40.
