data_PCOD9045881
_publ_section_title
;
Structure prediction by ZEFSAII (Michael W. Deem and Ramdas Pophale) SiO2 
 PCOD9045881
Probable space group: P -1
;
_chemical_formula_sum "Si O2"
_cell_formula_units_Z 14
_cell_length_a 10.646113
_cell_length_b 11.080147
_cell_length_c 6.995802
_cell_angle_alpha 116.263797
_cell_angle_beta 132.208499
_cell_angle_gamma 66.558078
_cell_volume 541.834581
_symmetry_space_group_name_H-M "P -1"
_symmetry_group_IT_number 2
_symmetry_cell_setting 'triclinic'
loop_
_space_group_symop_operation_xyz
x,y,z
-x,-y,-z
loop_
_atom_site_type_symbol
_atom_site_label
_atom_site_fract_x
_atom_site_fract_y
_atom_site_fract_z
Si Si1 0.469123 0.728056 0.234021
Si Si2 0.258125 0.512005 0.711793
Si Si3 0.939757 0.854431 0.654548
Si Si4 0.253745 0.865656 0.446288
Si Si5 0.097386 0.232574 0.025486
Si Si6 0.905352 0.611652 0.208820
Si Si7 0.302885 0.947881 0.972916
O O1 0.647376 0.630531 0.375146
O O2 0.375638 0.765134 0.364784
O O3 0.372887 0.630725 0.931373
O O4 0.454211 0.869071 0.201675
O O5 0.863131 0.765402 0.355584
O O6 0.093224 0.564996 0.455525
O O7 0.126159 0.890623 0.814277
O O8 0.789876 0.520411 0.141266
O O9 0.817800 0.997674 0.648647
O O10 0.079058 0.806144 0.273271
O O11 0.332173 0.908601 0.754042
O O12 0.119188 0.367647 0.026459
O O13 0.051830 0.230337 0.200955
O O14 0.253495 0.109335 0.067507
#
# Coordination Sequence:
#
# PCOD9045881 Si02
#       7
#     2   2   2   2   2   2   2
#     4  11  21  42  60  88 120 154 202 237 294 351
#     4  10  24  42  62  78 126 168 190 244 276 356
#     4  11  18  33  62  94 118 146 194 251 295 342
#     4  11  18  32  62  96 116 148 195 249 299 341
#     4  11  18  32  62  96 116 148 195 249 299 341
#     4  11  21  42  60  88 120 154 202 237 294 351
#     4  11  18  33  62  94 118 146 194 251 295 342
#
# _framework density 25.838142999999999
#
# number of rings (size 3 to 8) (size 9 to 14) (size 15 to 20)
#    0.000    1.143    7.143    1.714    0.000    0.000 
#    0.000   18.571    0.000    0.000    0.000    0.000 
#    0.000    0.000    0.000    0.000    0.000    0.000 
#
# Total GULP energy -78451.763873 kJ/mol
# GULP energy per Si atom -5603.697420 kJ/mol
# Density = 2.577933 g / cm^3
# Si number density = 25.838143 Si / 1000 Ang^3
#
#
#
# Elastic Constant Matrix: (Units=GPa)
#
#
# Indices 1 2 3 4 5 6 
#
# 1 76.5818 54.2825 30.6989 -21.7762 -23.1586 -7.0666
# 2 54.2825 153.0123 9.4290 -23.4525 -14.2187 -14.2208
# 3 30.6989 9.4290 60.8417 -2.3188 -28.5965 3.0163
# 4 -21.7762 -23.4525 -2.3188 37.6250 10.2268 -8.4699
# 5 -23.1586 -14.2187 -28.5965 10.2268 48.9115 -7.2968
# 6 -7.0666 -14.2208 3.0163 -8.4699 -7.2968 43.1968
#
#
#
# Elastic Compliance Matrix: (Units=1/GPa)
#
#
# Indices 1 2 3 4 5 6 
#
# 1 0.026380 -0.006163 -0.010876 0.011276 0.002838 0.005736
# 2 -0.006163 0.009333 0.002007 0.002746 0.000781 0.002594
# 3 -0.010876 0.002007 0.027384 -0.007313 0.012625 -0.002332
# 4 0.011276 0.002746 -0.007313 0.037838 -0.004572 0.009906
# 5 0.002838 0.000781 0.012625 -0.004572 0.030976 0.004176
# 6 0.005736 0.002594 -0.002332 0.009906 0.004176 0.027753
#
#
# Mechanical properties :
#
#
# Convention : Reuss Voigt Hill
#
# Bulk Modulus (GPa) = 30.27473 53.25074 41.76273
# Shear Modulus (GPa) = 24.90780 39.01501 31.96140
#
# Velocity S-wave (km/s) = 3.10819 3.89006 3.52090
# Velocity P-wave (km/s) = 4.96222 6.38990 5.72077
#
# Compressibility (1/GPa) = 0.03303085
#
# Stress axis : x y z
#
# Youngs Moduli (GPa) = 37.90681 107.14922 36.51788
#
# Poissons Ratio (x) = 0.66040 0.39718
# Poissons Ratio (y) = 0.23363 -0.07328
# Poissons Ratio (z) = 0.41229 -0.21500
#
# Static dielectric constant tensor:
#      x y z
#    x 2.046000 -0.013340 0.027290 
#    y -0.013340 1.998170 0.015720 
#    z 0.027290 0.015720 2.008900 
# 
# From -- ./inp_files/301547.got.cif
#   From: 2010.05.17/outbox.cif.g08.bks.cpg/sg2_151_cif.got.tgz:301547.got - 2010.06.03 11:33:40.
