data_PCOD9045394
_publ_section_title
;
Structure prediction by ZEFSAII (Michael W. Deem and Ramdas Pophale) SiO2 
 PCOD9045394
Probable space group: P -1
;
_chemical_formula_sum "Si O2"
_cell_formula_units_Z 16
_cell_length_a 12.309304
_cell_length_b 9.388152
_cell_length_c 9.080350
_cell_angle_alpha 126.659512
_cell_angle_beta 113.331377
_cell_angle_gamma 71.962664
_cell_volume 769.122433
_symmetry_space_group_name_H-M "P -1"
_symmetry_group_IT_number 2
_symmetry_cell_setting 'triclinic'
loop_
_space_group_symop_operation_xyz
x,y,z
-x,-y,-z
loop_
_atom_site_type_symbol
_atom_site_label
_atom_site_fract_x
_atom_site_fract_y
_atom_site_fract_z
Si Si1 0.121119 0.451028 0.647805
Si Si2 0.959330 0.829879 0.117734
Si Si3 0.373174 0.609972 0.453278
Si Si4 0.209122 0.153418 0.697620
Si Si5 0.178666 0.860456 0.934166
Si Si6 0.772140 0.174219 0.723204
Si Si7 0.864755 0.555816 0.672403
Si Si8 0.627433 0.044940 0.136267
O O1 0.204736 0.345807 0.743703
O O2 0.142979 0.658420 0.778588
O O3 0.148148 0.361181 0.447672
O O4 0.987623 0.431339 0.624109
O O5 0.903097 0.868280 0.270965
O O6 0.096088 0.759733 0.173619
O O7 0.930874 0.006916 0.109803
O O8 0.897170 0.684328 0.899939
O O9 0.500000 0.500000 0.500000
O O10 0.330081 0.679891 0.308049
O O11 0.257244 0.523240 0.400256
O O12 0.378867 0.792690 0.655394
O O13 0.221283 0.001074 0.485456
O O14 0.313805 0.126142 0.852863
O O15 0.287203 0.902478 0.914817
O O16 0.226592 0.880348 0.138143
O O17 0.500000 0.000000 0.000000
#
# Coordination Sequence:
#
# PCOD9045394 Si02
#       8
#     2   2   2   2   2   2   2   2
#     4  11  23  40  66 104 132 166 215 281 337 389
#     4  11  23  39  67  98 138 177 206 271 342 398
#     4  11  26  45  66  95 135 180 223 272 319 392
#     4  10  24  40  64  94 135 172 219 270 329 395
#     4  11  23  41  69 101 132 168 219 277 334 392
#     4  11  23  42  65 100 133 172 225 266 332 396
#     4  11  24  40  66  98 141 167 217 269 342 387
#     4  10  24  49  65  90 129 182 222 267 328 392
#
# _framework density 20.802931000000001
#
# number of rings (size 3 to 8) (size 9 to 14) (size 15 to 20)
#    0.000    1.250    2.500    2.250    8.750    1.000 
#    2.250    2.500    0.000    0.000    0.000    0.000 
#    0.000    0.000    0.000    0.000    0.000    0.000 
#
# Total GULP energy -89184.263511 kJ/mol
# GULP energy per Si atom -5574.016469 kJ/mol
# Density = 2.075558 g / cm^3
# Si number density = 20.802931 Si / 1000 Ang^3
#
#
#
# Elastic Constant Matrix: (Units=GPa)
#
#
# Indices 1 2 3 4 5 6 
#
# 1 60.0771 33.0140 29.5156 -13.8893 24.6211 -9.1871
# 2 33.0140 120.0386 37.3721 -30.4150 12.3525 -2.7180
# 3 29.5156 37.3721 99.4499 -17.2141 9.5298 1.4605
# 4 -13.8893 -30.4150 -17.2141 37.0470 5.9849 4.7975
# 5 24.6211 12.3525 9.5298 5.9849 43.6255 -3.7318
# 6 -9.1871 -2.7180 1.4605 4.7975 -3.7318 16.0010
#
#
#
# Elastic Compliance Matrix: (Units=1/GPa)
#
#
# Indices 1 2 3 4 5 6 
#
# 1 0.030811 -0.003045 -0.005406 0.007488 -0.015361 0.011839
# 2 -0.003045 0.012204 -0.001845 0.008834 -0.002786 -0.002805
# 3 -0.005406 -0.001845 0.013021 0.003271 -0.000202 -0.005634
# 4 0.007488 0.008834 0.003271 0.042207 -0.014126 -0.010448
# 5 -0.015361 -0.002786 -0.000202 -0.014126 0.034622 0.003036
# 6 0.011839 -0.002805 -0.005634 -0.010448 0.003036 0.073172
#
#
# Mechanical properties :
#
#
# Convention : Reuss Voigt Hill
#
# Bulk Modulus (GPa) = 28.21324 53.26322 40.73823
# Shear Modulus (GPa) = 20.96924 31.31230 26.14077
#
# Velocity S-wave (km/s) = 3.17834 3.88388 3.54869
# Velocity P-wave (km/s) = 5.20199 6.76550 6.03460
#
# Compressibility (1/GPa) = 0.03544435
#
# Stress axis : x y z
#
# Youngs Moduli (GPa) = 32.45574 81.94059 76.79663
#
# Poissons Ratio (x) = 0.24950 0.41516
# Poissons Ratio (y) = 0.09882 0.14171
# Poissons Ratio (z) = 0.17546 0.15120
#
# Static dielectric constant tensor:
#      x y z
#    x 1.655960 0.028330 -0.116840 
#    y 0.028330 1.784790 0.012070 
#    z -0.116840 0.012070 1.678190 
# 
# From -- ./inp_files/207122.got.cif
#   From: 2010.05.17/outbox.cif.g08.bks.cpg/sg2_104_cif.got.tgz:207122.got - 2010.06.03 11:33:40.
