data_PCOD9045326
_publ_section_title
;
Structure prediction by ZEFSAII (Michael W. Deem and Ramdas Pophale) SiO2 
 PCOD9045326
Probable space group: P -1
;
_chemical_formula_sum "Si O2"
_cell_formula_units_Z 10
_cell_length_a 5.179642
_cell_length_b 5.349811
_cell_length_c 21.507776
_cell_angle_alpha 60.009649
_cell_angle_beta 93.002110
_cell_angle_gamma 118.790207
_cell_volume 438.230201
_symmetry_space_group_name_H-M "P -1"
_symmetry_group_IT_number 2
_symmetry_cell_setting 'triclinic'
loop_
_space_group_symop_operation_xyz
x,y,z
-x,-y,-z
loop_
_atom_site_type_symbol
_atom_site_label
_atom_site_fract_x
_atom_site_fract_y
_atom_site_fract_z
Si Si1 0.809044 0.103625 0.527345
Si Si2 0.430015 0.339800 0.796493
Si Si3 0.412071 0.011479 0.329171
Si Si4 0.024390 0.547297 0.288684
Si Si5 0.192685 0.897538 0.971817
O O1 0.000000 0.500000 0.500000
O O2 0.500000 0.000000 0.500000
O O3 0.701858 0.922912 0.616001
O O4 0.000000 0.000000 0.500000
O O5 0.568915 0.741599 0.756704
O O6 0.172897 0.279974 0.750390
O O7 0.707115 0.325326 0.773342
O O8 0.288284 0.115536 0.882676
O O9 0.765522 0.147940 0.327881
O O10 0.179151 0.645425 0.345409
O O11 0.000000 0.500000 0.000000
O O12 0.500000 0.000000 0.000000
O O13 0.000000 0.000000 0.000000
#
# Coordination Sequence:
#
# PCOD9045326 Si02
#       5
#     2   2   2   2   2
#     4  12  28  47  71 103 142 182 228 285 350 408
#     4  10  26  42  71  96 135 175 232 272 340 401
#     4  10  26  42  72  94 137 173 232 274 338 403
#     4  10  24  39  70  96 132 168 236 274 334 393
#     4  12  28  46  72 102 144 182 228 285 348 407
#
# _framework density 22.819057000000001
#
# number of rings (size 3 to 8) (size 9 to 14) (size 15 to 20)
#    1.200    0.000    0.000    3.600   14.000    0.000 
#    0.000    0.000    0.000    0.000    0.000    0.000 
#    0.000    0.000    0.000    0.000    0.000    0.000 
#
# Total GULP energy -55805.407739 kJ/mol
# GULP energy per Si atom -5580.540774 kJ/mol
# Density = 2.276712 g / cm^3
# Si number density = 22.819057 Si / 1000 Ang^3
#
#
#
# Elastic Constant Matrix: (Units=GPa)
#
#
# Indices 1 2 3 4 5 6 
#
# 1 169.9091 86.4593 46.5730 5.3210 -36.1235 27.3711
# 2 86.4593 188.9847 48.4779 16.6279 -0.5706 24.0119
# 3 46.5730 48.4779 114.4528 -11.8926 -19.5032 5.3848
# 4 5.3210 16.6279 -11.8926 33.1108 -4.6837 7.1902
# 5 -36.1235 -0.5706 -19.5032 -4.6837 43.9830 3.5840
# 6 27.3711 24.0119 5.3848 7.1902 3.5840 45.5291
#
#
#
# Elastic Compliance Matrix: (Units=1/GPa)
#
#
# Indices 1 2 3 4 5 6 
#
# 1 0.011149 -0.004522 -0.000416 0.002889 0.009669 -0.005486
# 2 -0.004522 0.008735 -0.003414 -0.005662 -0.005706 -0.000141
# 3 -0.000416 -0.003414 0.012140 0.007181 0.005842 -0.000979
# 4 0.002889 -0.005662 0.007181 0.037968 0.010047 -0.006387
# 5 0.009669 -0.005706 0.005842 0.010047 0.034901 -0.007828
# 6 -0.005486 -0.000141 -0.000979 -0.006387 -0.007828 0.027077
#
#
# Mechanical properties :
#
#
# Convention : Reuss Voigt Hill
#
# Bulk Modulus (GPa) = 65.26811 92.92965 79.09888
# Shear Modulus (GPa) = 32.51373 43.98032 38.24702
#
# Velocity S-wave (km/s) = 3.77881 4.39492 4.09846
# Velocity P-wave (km/s) = 6.90679 8.15885 7.55879
#
# Compressibility (1/GPa) = 0.01532142
#
# Stress axis : x y z
#
# Youngs Moduli (GPa) = 89.69016 114.48371 82.37265
#
# Poissons Ratio (x) = 0.51771 0.03423
# Poissons Ratio (y) = 0.40559 0.28119
# Poissons Ratio (z) = 0.03728 0.39081
#
# Static dielectric constant tensor:
#      x y z
#    x 1.779830 0.040340 -0.042050 
#    y 0.040340 1.905400 0.009300 
#    z -0.042050 0.009300 1.779120 
# 
# From -- ./inp_files/5815.got.cif
#   From: 2010.05.17/outbox.cif.g08.bks.cpg/sg2_3_cif.got.tgz:5815.got - 2010.06.03 11:33:40.
