data_PCOD9045332
_publ_section_title
;
Structure prediction by ZEFSAII (Michael W. Deem and Ramdas Pophale) SiO2 
 PCOD9045332
Probable space group: P -1
;
_chemical_formula_sum "Si O2"
_cell_formula_units_Z 13
_cell_length_a 11.318439
_cell_length_b 7.656951
_cell_length_c 8.007294
_cell_angle_alpha 117.178097
_cell_angle_beta 123.337876
_cell_angle_gamma 93.181134
_cell_volume 469.840523
_symmetry_space_group_name_H-M "P -1"
_symmetry_group_IT_number 2
_symmetry_cell_setting 'triclinic'
loop_
_space_group_symop_operation_xyz
x,y,z
-x,-y,-z
loop_
_atom_site_type_symbol
_atom_site_label
_atom_site_fract_x
_atom_site_fract_y
_atom_site_fract_z
Si Si1 0.905255 0.147495 0.332008
Si Si2 0.738528 0.397116 0.512152
Si Si3 0.000000 0.500000 0.000000
Si Si4 0.451834 0.105194 0.352902
Si Si5 0.121173 0.896672 0.068281
Si Si6 0.419952 0.694164 0.992967
Si Si7 0.754340 0.720031 0.194469
O O1 0.822714 0.245207 0.440531
O O2 0.084634 0.212025 0.549175
O O3 0.813916 0.888411 0.162540
O O4 0.900155 0.232540 0.180494
O O5 0.665489 0.431500 0.295437
O O6 0.588729 0.309433 0.475752
O O7 0.877027 0.547946 0.803757
O O8 0.123385 0.748367 0.159316
O O9 0.288790 0.099564 0.276932
O O10 0.500000 0.000000 0.500000
O O11 0.419990 0.927336 0.103875
O O12 0.000000 0.000000 0.000000
O O13 0.318590 0.538557 0.995323
O O14 0.600711 0.737026 0.156222
#
# Coordination Sequence:
#
# PCOD9045332 Si02
#       7
#     2   2   1   2   2   2   2
#     4  11  24  45  76 104 148 196 244 310 370 459
#     4  12  25  49  74 106 145 199 254 296 389 447
#     4  12  30  50  74 112 154 194 252 324 370 450
#     4  12  25  46  74 105 154 202 238 317 377 443
#     4  12  29  49  74 111 151 200 250 310 381 442
#     4  11  23  45  72 107 146 196 249 300 377 454
#     4  10  24  39  74 110 142 182 254 308 360 450
#
# _framework density 27.668960999999999
#
# number of rings (size 3 to 8) (size 9 to 14) (size 15 to 20)
#    0.000    0.615    4.615    2.308    8.615    1.231 
#    0.000    0.769    0.000    0.000    0.000    0.000 
#    0.000    0.000    0.000    0.000    0.000    0.000 
#
# Total GULP energy -72469.256737 kJ/mol
# GULP energy per Si atom -5574.558211 kJ/mol
# Density = 2.760599 g / cm^3
# Si number density = 27.668961 Si / 1000 Ang^3
#
#
#
# Elastic Constant Matrix: (Units=GPa)
#
#
# Indices 1 2 3 4 5 6 
#
# 1 120.6423 37.7996 61.7925 -18.6188 33.8734 5.5657
# 2 37.7996 112.9328 28.5486 -15.5616 9.4778 32.9289
# 3 61.7925 28.5486 103.8855 -15.3939 41.9107 2.0235
# 4 -18.6188 -15.5616 -15.3939 52.1020 -0.7611 13.1325
# 5 33.8734 9.4778 41.9107 -0.7611 53.7764 -3.0486
# 6 5.5657 32.9289 2.0235 13.1325 -3.0486 46.7090
#
#
#
# Elastic Compliance Matrix: (Units=1/GPa)
#
#
# Indices 1 2 3 4 5 6 
#
# 1 0.013202 -0.002150 -0.005319 0.002656 -0.003800 -0.000822
# 2 -0.002150 0.014050 -0.001177 0.005921 -0.000762 -0.011312
# 3 -0.005319 -0.001177 0.017717 0.003041 -0.010253 -0.000828
# 4 0.002656 0.005921 0.003041 0.025813 -0.005414 -0.012233
# 5 -0.003800 -0.000762 -0.010253 -0.005414 0.029314 0.004870
# 6 -0.000822 -0.011312 -0.000828 -0.012233 0.004870 0.033275
#
#
# Mechanical properties :
#
#
# Convention : Reuss Voigt Hill
#
# Bulk Modulus (GPa) = 36.13157 65.97134 51.05146
# Shear Modulus (GPa) = 31.27174 44.47214 37.87194
#
# Velocity S-wave (km/s) = 3.36551 4.01346 3.70368
# Velocity P-wave (km/s) = 5.30934 6.73587 6.06469
#
# Compressibility (1/GPa) = 0.02767663
#
# Stress axis : x y z
#
# Youngs Moduli (GPa) = 75.74763 71.17360 56.44377
#
# Poissons Ratio (x) = 0.15299 0.30023
# Poissons Ratio (y) = 0.16282 0.06645
# Poissons Ratio (z) = 0.40291 0.08380
#
# Static dielectric constant tensor:
#      x y z
#    x 2.536200 0.134960 0.074530 
#    y 0.134960 2.230700 0.122490 
#    z 0.074530 0.122490 2.318060 
# 
# From -- ./inp_files/240780.got.cif
#   From: 2010.05.17/outbox.cif.g08.bks.cpg/sg2_121_cif.got.tgz:240780.got - 2010.06.03 11:33:40.
