data_PCOD9045854
_publ_section_title
;
Structure prediction by ZEFSAII (Michael W. Deem and Ramdas Pophale) SiO2 
 PCOD9045854
Probable space group: P -1
;
_chemical_formula_sum "Si O2"
_cell_formula_units_Z 16
_cell_length_a 25.659780
_cell_length_b 4.886581
_cell_length_c 15.402412
_cell_angle_alpha 106.233673
_cell_angle_beta 159.298249
_cell_angle_gamma 66.242321
_cell_volume 595.935058
_symmetry_space_group_name_H-M "P -1"
_symmetry_group_IT_number 2
_symmetry_cell_setting 'triclinic'
loop_
_space_group_symop_operation_xyz
x,y,z
-x,-y,-z
loop_
_atom_site_type_symbol
_atom_site_label
_atom_site_fract_x
_atom_site_fract_y
_atom_site_fract_z
Si Si1 0.959798 0.146650 0.591992
Si Si2 0.544679 0.325184 0.145214
Si Si3 0.547681 0.706507 0.483680
Si Si4 0.244923 0.559612 0.950918
Si Si5 0.862734 0.934491 0.688671
Si Si6 0.150011 0.722363 0.994915
Si Si7 0.741060 0.793259 0.229516
Si Si8 0.289149 0.391289 0.447830
O O1 0.056256 0.053313 0.826937
O O2 0.803974 0.063844 0.348751
O O3 0.885806 0.495894 0.473473
O O4 0.091899 0.879231 0.714840
O O5 0.726322 0.052637 0.410158
O O6 0.420297 0.188075 0.972591
O O7 0.500000 0.500000 0.000000
O O8 0.641287 0.747198 0.548490
O O9 0.500000 0.000000 0.500000
O O10 0.395651 0.644902 0.209948
O O11 0.324741 0.611916 0.300505
O O12 0.194263 0.483800 0.960465
O O13 0.275839 0.303571 0.904115
O O14 0.853057 0.256342 0.743785
O O15 0.027962 0.728135 0.880359
O O16 0.785951 0.794078 0.628128
O O17 0.433892 0.436401 0.729770
#
# Coordination Sequence:
#
# PCOD9045854 Si02
#       8
#     2   2   2   2   2   2   2   2
#     4  10  27  40  73 105 148 195 244 306 384 440
#     4  10  24  41  76 107 153 193 246 307 374 457
#     4  12  27  49  79 111 149 207 257 321 371 446
#     4  10  24  46  70 107 149 194 256 306 382 441
#     4  10  24  48  71 110 150 192 250 304 378 444
#     4  10  26  45  74 107 153 198 257 309 372 453
#     4  12  23  46  70 110 151 194 247 311 381 452
#     4  10  26  48  74 108 148 197 250 310 373 445
#
# _framework density 26.848562999999999
#
# number of rings (size 3 to 8) (size 9 to 14) (size 15 to 20)
#    1.500    0.000    1.250    1.875    5.250    6.500 
#    0.000    0.000    0.000    0.000    0.000    0.000 
#    0.000    0.000    0.000    0.000    0.000    0.000 
#
# Total GULP energy -89640.747897 kJ/mol
# GULP energy per Si atom -5602.546744 kJ/mol
# Density = 2.678745 g / cm^3
# Si number density = 26.848563 Si / 1000 Ang^3
#
#
#
# Elastic Constant Matrix: (Units=GPa)
#
#
# Indices 1 2 3 4 5 6 
#
# 1 197.2553 47.6799 50.7534 3.8589 15.0323 -12.6690
# 2 47.6799 96.0903 16.2016 5.2843 -0.7317 1.5058
# 3 50.7534 16.2016 154.5503 2.3154 11.9700 -3.2489
# 4 3.8589 5.2843 2.3154 18.5292 2.0467 6.0635
# 5 15.0323 -0.7317 11.9700 2.0467 49.2779 -3.5329
# 6 -12.6690 1.5058 -3.2489 6.0635 -3.5329 36.6185
#
#
#
# Elastic Compliance Matrix: (Units=1/GPa)
#
#
# Indices 1 2 3 4 5 6 
#
# 1 0.006470 -0.002930 -0.001648 -0.000876 -0.001421 0.002221
# 2 -0.002930 0.012093 -0.000381 -0.002597 0.001202 -0.000999
# 3 -0.001648 -0.000381 0.007151 -0.000311 -0.001226 0.000013
# 4 -0.000876 -0.002597 -0.000311 0.058585 -0.002861 -0.010201
# 5 -0.001421 0.001202 -0.001226 -0.002861 0.021296 0.001878
# 6 0.002221 -0.000999 0.000013 -0.010201 0.001878 0.029989
#
#
# Mechanical properties :
#
#
# Convention : Reuss Voigt Hill
#
# Bulk Modulus (GPa) = 63.30286 75.24062 69.27174
# Shear Modulus (GPa) = 33.16409 43.10253 38.13331
#
# Velocity S-wave (km/s) = 3.51839 4.01108 3.77279
# Velocity P-wave (km/s) = 6.33517 7.03823 6.69593
#
# Compressibility (1/GPa) = 0.01579708
#
# Stress axis : x y z
#
# Youngs Moduli (GPa) = 154.56475 82.69572 139.83533
#
# Poissons Ratio (x) = 0.24230 0.23039
# Poissons Ratio (y) = 0.45287 0.05323
# Poissons Ratio (z) = 0.25466 0.03148
#
# Static dielectric constant tensor:
#      x y z
#    x 2.127390 -0.043550 -0.046290 
#    y -0.043550 2.098670 -0.031340 
#    z -0.046290 -0.031340 2.111160 
# 
# From -- ./inp_files/579482.got.cif
#   From: 2010.05.17/outbox.cif.g08.bks.cpg/sg2_290_cif.got.tgz:579482.got - 2010.06.03 11:33:40.
