data_PCOD9045279
_publ_section_title
;
Structure prediction by ZEFSAII (Michael W. Deem and Ramdas Pophale) SiO2 
 PCOD9045279
Probable space group: P -1
;
_chemical_formula_sum "Si O2"
_cell_formula_units_Z 16
_cell_length_a 5.070229
_cell_length_b 10.601633
_cell_length_c 12.079635
_cell_angle_alpha 90.867042
_cell_angle_beta 98.062551
_cell_angle_gamma 88.721967
_cell_volume 642.687781
_symmetry_space_group_name_H-M "P -1"
_symmetry_group_IT_number 2
_symmetry_cell_setting 'triclinic'
loop_
_space_group_symop_operation_xyz
x,y,z
-x,-y,-z
loop_
_atom_site_type_symbol
_atom_site_label
_atom_site_fract_x
_atom_site_fract_y
_atom_site_fract_z
Si Si1 0.112232 0.931742 0.740747
Si Si2 0.315106 0.652419 0.768427
Si Si3 0.271903 0.925615 0.424512
Si Si4 0.616630 0.265939 0.996797
Si Si5 0.777173 0.566632 0.637318
Si Si6 0.989912 0.689762 0.438638
Si Si7 0.597788 0.813860 0.240934
Si Si8 0.142913 0.121640 0.056633
O O1 0.285646 0.803173 0.744347
O O2 0.882011 0.895195 0.813647
O O3 0.266612 0.056619 0.791343
O O4 0.969993 0.981333 0.622400
O O5 0.509996 0.588987 0.689875
O O6 0.023684 0.597903 0.732369
O O7 0.413425 0.636765 0.901266
O O8 0.376551 0.866656 0.313475
O O9 0.176808 0.803937 0.481370
O O10 0.500000 0.000000 0.500000
O O11 0.514371 0.272174 0.865217
O O12 0.432763 0.152141 0.030456
O O13 0.931022 0.232577 0.012934
O O14 0.812337 0.654247 0.532831
O O15 0.828071 0.427408 0.591095
O O16 0.807430 0.736214 0.326807
O O17 0.000000 0.000000 0.000000
#
# Coordination Sequence:
#
# PCOD9045279 Si02
#       8
#     2   2   2   2   2   2   2   2
#     4  10  24  39  64 108 143 190 229 297 358 434
#     4  11  26  43  77 107 145 186 247 305 349 422
#     4  11  27  45  73 107 152 190 237 296 376 437
#     4  11  24  41  64 107 143 191 236 289 361 428
#     4  11  27  52  78 104 139 190 260 301 354 412
#     4  10  28  49  75 105 139 196 242 308 357 433
#     4  11  25  42  70 103 152 189 230 293 377 440
#     4  11  20  35  62  93 142 189 233 277 342 427
#
# _framework density 24.895447999999998
#
# number of rings (size 3 to 8) (size 9 to 14) (size 15 to 20)
#    0.000    1.250    1.250    2.625   15.750    2.000 
#    0.000    3.125    0.000    0.000    0.000    0.000 
#    0.000    0.000    0.000    0.000    0.000    0.000 
#
# Total GULP energy -89609.580548 kJ/mol
# GULP energy per Si atom -5600.598784 kJ/mol
# Density = 2.483878 g / cm^3
# Si number density = 24.895448 Si / 1000 Ang^3
#
#
#
# Elastic Constant Matrix: (Units=GPa)
#
#
# Indices 1 2 3 4 5 6 
#
# 1 57.6717 23.9370 8.9277 -5.4285 8.5978 -10.1410
# 2 23.9370 56.4908 25.2264 8.3302 -2.5773 3.2880
# 3 8.9277 25.2264 136.3995 14.9278 7.9940 -0.7891
# 4 -5.4285 8.3302 14.9278 24.2058 1.6953 -1.3782
# 5 8.5978 -2.5773 7.9940 1.6953 38.8549 14.7328
# 6 -10.1410 3.2880 -0.7891 -1.3782 14.7328 24.6181
#
#
#
# Elastic Compliance Matrix: (Units=1/GPa)
#
#
# Indices 1 2 3 4 5 6 
#
# 1 0.037710 -0.022357 0.001171 0.019015 -0.023721 0.033818
# 2 -0.022357 0.033903 -0.004203 -0.016874 0.018647 -0.025976
# 3 0.001171 -0.004203 0.008595 -0.003176 -0.003364 0.003155
# 4 0.019015 -0.016874 -0.003176 0.055715 -0.015617 0.022450
# 5 -0.023721 0.018647 -0.003364 -0.015617 0.049954 -0.043139
# 6 0.033818 -0.025976 0.003155 0.022450 -0.043139 0.085196
#
#
# Mechanical properties :
#
#
# Convention : Reuss Voigt Hill
#
# Bulk Modulus (GPa) = 33.97755 40.74934 37.36344
# Shear Modulus (GPa) = 15.07564 30.36715 22.72140
#
# Velocity S-wave (km/s) = 2.46348 3.49633 3.02432
# Velocity P-wave (km/s) = 4.66577 5.71864 5.21882
#
# Compressibility (1/GPa) = 0.02943120
#
# Stress axis : x y z
#
# Youngs Moduli (GPa) = 26.51782 29.49573 116.34505
#
# Poissons Ratio (x) = 0.65943 -0.13628
# Poissons Ratio (y) = 0.59286 0.48903
# Poissons Ratio (z) = -0.03106 0.12398
#
# Static dielectric constant tensor:
#      x y z
#    x 1.958910 -0.009660 -0.016720 
#    y -0.009660 1.973200 0.005470 
#    z -0.016720 0.005470 2.038610 
# 
# From -- ./inp_files/363218.got.cif
#   From: 2010.05.17/outbox.cif.g08.bks.cpg/sg2_182_cif.got.tgz:363218.got - 2010.06.03 11:33:40.
