data_PCOD9045457
_publ_section_title
;
Structure prediction by ZEFSAII (Michael W. Deem and Ramdas Pophale) SiO2 
 PCOD9045457
Probable space group: P -1
;
_chemical_formula_sum "Si O2"
_cell_formula_units_Z 14
_cell_length_a 10.615572
_cell_length_b 16.145787
_cell_length_c 8.532906
_cell_angle_alpha 39.535401
_cell_angle_beta 101.069278
_cell_angle_gamma 129.101927
_cell_volume 580.112315
_symmetry_space_group_name_H-M "P -1"
_symmetry_group_IT_number 2
_symmetry_cell_setting 'triclinic'
loop_
_space_group_symop_operation_xyz
x,y,z
-x,-y,-z
loop_
_atom_site_type_symbol
_atom_site_label
_atom_site_fract_x
_atom_site_fract_y
_atom_site_fract_z
Si Si1 0.601737 0.910862 0.512749
Si Si2 0.629169 0.993612 0.951580
Si Si3 0.015213 0.634942 0.695041
Si Si4 0.965709 0.825351 0.645260
Si Si5 0.842007 0.914938 0.221672
Si Si6 0.338827 0.737807 0.013670
Si Si7 0.441106 0.561046 0.768561
O O1 0.452312 0.797961 0.790030
O O2 0.493205 0.741667 0.597750
O O3 0.665840 0.108804 0.197687
O O4 0.807502 0.005877 0.484352
O O5 0.463301 0.781166 0.126359
O O6 0.758128 0.164622 0.597668
O O7 0.790060 0.027569 0.027921
O O8 0.500000 0.000000 0.000000
O O9 0.945327 0.702931 0.679663
O O10 0.000000 0.500000 0.000000
O O11 0.878646 0.496007 0.715842
O O12 0.925981 0.926769 0.390068
O O13 0.798144 0.651808 0.987735
O O14 0.612497 0.675995 0.509119
O O15 0.000000 0.000000 0.000000
O O16 0.500000 0.500000 0.000000
#
# Coordination Sequence:
#
# PCOD9045457 Si02
#       7
#     2   2   2   2   2   2   2
#     4  11  20  38  68 102 132 166 235 289 340 390
#     4  12  27  45  66  99 144 185 223 280 343 415
#     4  12  22  41  71 100 134 175 233 286 335 398
#     4  11  22  42  70  99 130 176 227 289 334 397
#     4  11  23  45  66  93 141 183 218 269 354 406
#     4  11  22  37  67 102 132 181 226 279 343 406
#     4  10  24  40  67  97 129 175 230 283 331 402
#
# _framework density 24.133258000000001
#
# number of rings (size 3 to 8) (size 9 to 14) (size 15 to 20)
#    0.000    0.857    5.714    1.714    2.000    2.857 
#    0.000    5.000    0.000    0.000    0.000    0.000 
#    0.000    0.000    0.000    0.000    0.000    0.000 
#
# Total GULP energy -78238.515173 kJ/mol
# GULP energy per Si atom -5588.465369 kJ/mol
# Density = 2.407833 g / cm^3
# Si number density = 24.133258 Si / 1000 Ang^3
#
#
#
# Elastic Constant Matrix: (Units=GPa)
#
#
# Indices 1 2 3 4 5 6 
#
# 1 153.3061 34.5814 48.0321 7.6636 0.0609 1.1994
# 2 34.5814 84.5998 8.8178 -22.8376 -0.0975 13.1554
# 3 48.0321 8.8178 95.9861 1.8662 -19.1371 1.2683
# 4 7.6636 -22.8376 1.8662 35.0300 2.3960 2.4023
# 5 0.0609 -0.0975 -19.1371 2.3960 53.2371 4.0850
# 6 1.1994 13.1554 1.2683 2.4023 4.0850 49.2171
#
#
#
# Elastic Compliance Matrix: (Units=1/GPa)
#
#
# Indices 1 2 3 4 5 6 
#
# 1 0.009248 -0.004918 -0.004398 -0.005001 -0.001496 0.001571
# 2 -0.004918 0.018189 0.000619 0.013267 0.000080 -0.005412
# 3 -0.004398 0.000619 0.013548 0.000365 0.004924 -0.000834
# 4 -0.005001 0.013267 0.000365 0.038710 -0.001180 -0.005225
# 5 -0.001496 0.000080 0.004924 -0.001180 0.020745 -0.001776
# 6 0.001571 -0.005412 -0.000834 -0.005225 -0.001776 0.022150
#
#
# Mechanical properties :
#
#
# Convention : Reuss Voigt Hill
#
# Bulk Modulus (GPa) = 42.38660 57.41719 49.90189
# Shear Modulus (GPa) = 33.81864 43.66090 38.73977
#
# Velocity S-wave (km/s) = 3.74749 4.25804 4.01090
# Velocity P-wave (km/s) = 6.02716 6.92949 6.49402
#
# Compressibility (1/GPa) = 0.02359236
#
# Stress axis : x y z
#
# Youngs Moduli (GPa) = 108.12629 54.97797 73.81352
#
# Poissons Ratio (x) = 0.27038 0.32463
# Poissons Ratio (y) = 0.53175 -0.04573
# Poissons Ratio (z) = 0.47554 -0.03406
#
# Static dielectric constant tensor:
#      x y z
#    x 1.971470 0.008210 0.027250 
#    y 0.008210 1.968060 0.045900 
#    z 0.027250 0.045900 1.961560 
# 
# From -- ./inp_files/277357.got.cif
#   From: 2010.05.17/outbox.cif.g08.bks.cpg/sg2_139_cif.got.tgz:277357.got - 2010.06.03 11:33:40.
