data_PCOD9045891
_publ_section_title
;
Structure prediction by ZEFSAII (Michael W. Deem and Ramdas Pophale) SiO2 
 PCOD9045891
Probable space group: P -1
;
_chemical_formula_sum "Si O2"
_cell_formula_units_Z 15
_cell_length_a 11.962611
_cell_length_b 12.369736
_cell_length_c 15.410824
_cell_angle_alpha 142.323080
_cell_angle_beta 27.732196
_cell_angle_gamma 133.474647
_cell_volume 647.962841
_symmetry_space_group_name_H-M "P -1"
_symmetry_group_IT_number 2
_symmetry_cell_setting 'triclinic'
loop_
_space_group_symop_operation_xyz
x,y,z
-x,-y,-z
loop_
_atom_site_type_symbol
_atom_site_label
_atom_site_fract_x
_atom_site_fract_y
_atom_site_fract_z
Si Si1 0.558004 0.997467 0.337405
Si Si2 0.500000 0.500000 0.500000
Si Si3 0.843599 0.958072 0.665339
Si Si4 0.076202 0.454634 0.633329
Si Si5 0.983036 0.987158 0.236340
Si Si6 0.417857 0.412654 0.910118
Si Si7 0.551617 0.103926 0.218330
Si Si8 0.158055 0.696790 0.574834
O O1 0.519289 0.003250 0.264944
O O2 0.736446 0.145227 0.338671
O O3 0.300077 0.041458 0.587346
O O4 0.631897 0.794803 0.176262
O O5 0.312019 0.522876 0.560953
O O6 0.422235 0.295554 0.434966
O O7 0.890470 0.754950 0.533138
O O8 0.570992 0.989180 0.838501
O O9 0.926547 0.056337 0.756281
O O10 0.000000 0.000000 0.500000
O O11 0.040593 0.562223 0.635882
O O12 0.835131 0.490812 0.878409
O O13 0.998326 0.187823 0.314841
O O14 0.167221 0.873930 0.978636
O O15 0.628086 0.408027 0.690996
O O16 0.500000 0.500000 0.000000
#
# Coordination Sequence:
#
# PCOD9045891 Si02
#       8
#     2   1   2   2   2   2   2   2
#     4  11  23  42  68 103 135 170 226 278 335 406
#     4  10  24  42  62  98 132 174 224 270 324 406
#     4  11  24  46  65  95 137 181 226 274 324 412
#     4  11  24  45  67  96 140 172 223 281 336 393
#     4  11  23  41  70  96 132 177 223 275 336 399
#     4  11  25  42  69 103 135 178 223 281 343 397
#     4  11  23  42  69  92 133 180 222 272 337 396
#     4  11  25  43  71 105 132 171 226 284 339 397
#
# _framework density 23.149474000000001
#
# number of rings (size 3 to 8) (size 9 to 14) (size 15 to 20)
#    0.000    1.067    2.667    4.400    3.733    4.267 
#    4.800    1.333    0.000    0.000    0.000    0.000 
#    0.000    0.000    0.000    0.000    0.000    0.000 
#
# Total GULP energy -83572.954038 kJ/mol
# GULP energy per Si atom -5571.530269 kJ/mol
# Density = 2.309678 g / cm^3
# Si number density = 23.149474 Si / 1000 Ang^3
#
#
#
# Elastic Constant Matrix: (Units=GPa)
#
#
# Indices 1 2 3 4 5 6 
#
# 1 101.3579 17.5041 5.4987 3.1189 -0.0983 -13.5948
# 2 17.5041 60.7552 6.0054 -4.0786 10.0897 -5.6959
# 3 5.4987 6.0054 53.5282 -7.1532 11.4807 -4.5471
# 4 3.1189 -4.0786 -7.1532 17.8273 1.5680 8.2298
# 5 -0.0983 10.0897 11.4807 1.5680 21.9432 -3.0947
# 6 -13.5948 -5.6959 -4.5471 8.2298 -3.0947 39.6150
#
#
#
# Elastic Compliance Matrix: (Units=1/GPa)
#
#
# Indices 1 2 3 4 5 6 
#
# 1 0.011453 -0.003724 -0.002030 -0.006215 0.003942 0.004761
# 2 -0.003724 0.019506 0.001237 0.006752 -0.010190 -0.000530
# 3 -0.002030 0.001237 0.023152 0.011772 -0.013726 -0.001379
# 4 -0.006215 0.006752 0.011772 0.072380 -0.016742 -0.016155
# 5 0.003942 -0.010190 -0.013726 -0.016742 0.059562 0.006443
# 6 0.004761 -0.000530 -0.001379 -0.016155 0.006443 0.030502
#
#
# Mechanical properties :
#
#
# Convention : Reuss Voigt Hill
#
# Bulk Modulus (GPa) = 22.18507 30.40640 26.29573
# Shear Modulus (GPa) = 20.78016 28.31932 24.54974
#
# Velocity S-wave (km/s) = 2.99933 3.50140 3.26005
# Velocity P-wave (km/s) = 4.64746 5.43229 5.05513
#
# Compressibility (1/GPa) = 0.04507537
#
# Stress axis : x y z
#
# Youngs Moduli (GPa) = 87.31351 51.26601 43.19371
#
# Poissons Ratio (x) = 0.19094 0.08769
# Poissons Ratio (y) = 0.32520 -0.05343
# Poissons Ratio (z) = 0.17726 -0.06342
#
# Static dielectric constant tensor:
#      x y z
#    x 1.934290 0.038890 -0.002870 
#    y 0.038890 1.852110 -0.009520 
#    z -0.002870 -0.009520 1.906460 
# 
# From -- ./inp_files/269871.got.cif
#   From: 2010.05.17/outbox.cif.g08.bks.cpg/sg2_135_cif.got.tgz:269871.got - 2010.06.03 11:33:40.
