data_PCOD9045930
_publ_section_title
;
Structure prediction by ZEFSAII (Michael W. Deem and Ramdas Pophale) SiO2 
 PCOD9045930
Probable space group: P -1
;
_chemical_formula_sum "Si O2"
_cell_formula_units_Z 16
_cell_length_a 20.768428
_cell_length_b 18.615555
_cell_length_c 12.659422
_cell_angle_alpha 161.422028
_cell_angle_beta 143.392922
_cell_angle_gamma 28.262193
_cell_volume 721.383117
_symmetry_space_group_name_H-M "P -1"
_symmetry_group_IT_number 2
_symmetry_cell_setting 'triclinic'
loop_
_space_group_symop_operation_xyz
x,y,z
-x,-y,-z
loop_
_atom_site_type_symbol
_atom_site_label
_atom_site_fract_x
_atom_site_fract_y
_atom_site_fract_z
Si Si1 0.156902 0.880135 0.518760
Si Si2 0.251221 0.628673 0.672020
Si Si3 0.052878 0.490331 0.172935
Si Si4 0.600361 0.625397 0.986194
Si Si5 0.396222 0.601196 0.106971
Si Si6 0.401310 0.503242 0.481841
Si Si7 0.119653 0.021802 0.218801
Si Si8 0.506738 0.059206 0.293546
O O1 0.238376 0.640793 0.199228
O O2 0.260253 0.716391 0.525561
O O3 0.000000 0.000000 0.500000
O O4 0.147043 0.156342 0.863914
O O5 0.132459 0.623462 0.462738
O O6 0.350597 0.558873 0.611689
O O7 0.346593 0.348218 0.483435
O O8 0.199174 0.921310 0.071205
O O9 0.940664 0.683756 0.388800
O O10 0.000000 0.500000 0.000000
O O11 0.569880 0.613164 0.051471
O O12 0.511190 0.561415 0.710473
O O13 0.557155 0.914104 0.274088
O O14 0.238297 0.765354 0.093274
O O15 0.400983 0.854227 0.505859
O O16 0.500000 0.500000 0.000000
O O17 0.471364 0.178493 0.086478
O O18 0.000000 0.000000 0.000000
#
# Coordination Sequence:
#
# PCOD9045930 Si02
#       8
#     2   2   2   2   2   2   2   2
#     4  11  24  40  60 100 135 172 226 285 329 397
#     4  11  21  42  65  98 131 177 220 278 342 405
#     4  11  23  39  68  92 126 179 230 275 338 397
#     4  11  24  42  67 102 137 171 223 287 335 396
#     4  12  24  44  68  96 134 176 230 278 336 410
#     4  11  22  40  67  96 138 170 223 277 342 400
#     4  10  24  42  64  92 133 171 219 276 335 403
#     4  11  23  38  69  99 131 173 222 276 340 395
#
# _framework density 22.179615999999999
#
# number of rings (size 3 to 8) (size 9 to 14) (size 15 to 20)
#    0.000    1.000    2.500    4.875    7.000    1.500 
#    0.000    0.625    0.000    0.000    0.000    0.000 
#    0.000    0.000    0.000    0.000    0.000    0.000 
#
# Total GULP energy -89232.373051 kJ/mol
# GULP energy per Si atom -5577.023316 kJ/mol
# Density = 2.212913 g / cm^3
# Si number density = 22.179616 Si / 1000 Ang^3
#
#
#
# Elastic Constant Matrix: (Units=GPa)
#
#
# Indices 1 2 3 4 5 6 
#
# 1 103.1382 20.8531 28.1697 6.5905 -15.4106 7.0924
# 2 20.8531 113.8916 21.4447 -6.3948 -6.8768 -6.8337
# 3 28.1697 21.4447 90.2034 2.0188 -28.7400 8.9950
# 4 6.5905 -6.3948 2.0188 31.3177 -2.6832 5.6023
# 5 -15.4106 -6.8768 -28.7400 -2.6832 34.2064 -0.0540
# 6 7.0924 -6.8337 8.9950 5.6023 -0.0540 37.0223
#
#
#
# Elastic Compliance Matrix: (Units=1/GPa)
#
#
# Indices 1 2 3 4 5 6 
#
# 1 0.011265 -0.001733 -0.001963 -0.002046 0.002914 -0.001687
# 2 -0.001733 0.009740 -0.002224 0.002029 -0.000528 0.002362
# 3 -0.001963 -0.002224 0.016687 0.000723 0.012739 -0.004179
# 4 -0.002046 0.002029 0.000723 0.033771 0.002735 -0.004515
# 5 0.002914 -0.000528 0.012739 0.002735 0.041352 -0.004104
# 6 -0.001687 0.002362 -0.004179 -0.004515 -0.004104 0.029463
#
#
# Mechanical properties :
#
#
# Convention : Reuss Voigt Hill
#
# Bulk Modulus (GPa) = 38.68209 49.79649 44.23929
# Shear Modulus (GPa) = 30.72474 36.29363 33.50918
#
# Velocity S-wave (km/s) = 3.72596 4.04957 3.89113
# Velocity P-wave (km/s) = 5.99905 6.66075 6.33854
#
# Compressibility (1/GPa) = 0.02585176
#
# Stress axis : x y z
#
# Youngs Moduli (GPa) = 88.77446 102.66887 59.92587
#
# Poissons Ratio (x) = 0.17792 0.11766
# Poissons Ratio (y) = 0.15384 0.13325
# Poissons Ratio (z) = 0.17431 0.22829
#
# Static dielectric constant tensor:
#      x y z
#    x 1.911470 0.011610 -0.061070 
#    y 0.011610 1.893180 -0.056670 
#    z -0.061070 -0.056670 1.890710 
# 
# From -- ./inp_files/472543.got.cif
#   From: 2010.05.17/outbox.cif.g08.bks.cpg/sg2_237_cif.got.tgz:472543.got - 2010.06.03 11:33:40.
