data_PCOD9045217
_publ_section_title
;
Structure prediction by ZEFSAII (Michael W. Deem and Ramdas Pophale) SiO2 
 PCOD9045217
Probable space group: P -1
;
_chemical_formula_sum "Si O2"
_cell_formula_units_Z 14
_cell_length_a 9.209391
_cell_length_b 11.543538
_cell_length_c 9.501522
_cell_angle_alpha 95.954752
_cell_angle_beta 52.839539
_cell_angle_gamma 126.800649
_cell_volume 589.501692
_symmetry_space_group_name_H-M "P -1"
_symmetry_group_IT_number 2
_symmetry_cell_setting 'triclinic'
loop_
_space_group_symop_operation_xyz
x,y,z
-x,-y,-z
loop_
_atom_site_type_symbol
_atom_site_label
_atom_site_fract_x
_atom_site_fract_y
_atom_site_fract_z
Si Si1 0.390346 0.026417 0.852249
Si Si2 0.905461 0.171105 0.270140
Si Si3 0.616987 0.435667 0.485047
Si Si4 0.954716 0.513360 0.690253
Si Si5 0.202361 0.934313 0.261001
Si Si6 0.279148 0.126050 0.469065
Si Si7 0.433312 0.311996 0.882915
O O1 0.675142 0.119628 0.734397
O O2 0.357349 0.148503 0.865929
O O3 0.277366 0.915865 0.768292
O O4 0.250358 0.937810 0.068898
O O5 0.910558 0.304988 0.339599
O O6 0.188203 0.268348 0.072345
O O7 0.833329 0.034106 0.400780
O O8 0.500000 0.500000 0.500000
O O9 0.907048 0.530945 0.313831
O O10 0.486236 0.271968 0.461823
O O11 0.543101 0.411801 0.688729
O O12 0.000000 0.500000 0.500000
O O13 0.661894 0.402296 0.868631
O O14 0.924064 0.859444 0.432161
O O15 0.349817 0.105741 0.272027
#
# Coordination Sequence:
#
# PCOD9045217 Si02
#       7
#     2   2   2   2   2   2   2
#     4  11  22  42  68 100 140 176 228 277 344 402
#     4  12  23  45  75 101 134 180 237 278 341 410
#     4  11  25  45  68  97 140 181 230 279 342 406
#     4  10  26  44  66 101 134 184 223 279 345 403
#     4  10  24  37  64 104 140 171 218 292 336 396
#     4  11  23  42  70 104 134 180 230 287 338 398
#     4  11  23  44  70 101 137 181 226 282 341 409
#
# _framework density 23.748871999999999
#
# number of rings (size 3 to 8) (size 9 to 14) (size 15 to 20)
#    0.000    1.143    2.857    2.571    6.000    4.571 
#    2.571    0.714    0.000    0.000    0.000    0.000 
#    0.000    0.000    0.000    0.000    0.000    0.000 
#
# Total GULP energy -78265.344575 kJ/mol
# GULP energy per Si atom -5590.381755 kJ/mol
# Density = 2.369482 g / cm^3
# Si number density = 23.748872 Si / 1000 Ang^3
#
#
#
# Elastic Constant Matrix: (Units=GPa)
#
#
# Indices 1 2 3 4 5 6 
#
# 1 166.9731 36.0095 43.2941 4.0881 -15.8391 10.3753
# 2 36.0095 112.4528 28.1694 22.0369 -2.3023 8.5549
# 3 43.2941 28.1694 61.1883 14.0023 6.2740 4.2737
# 4 4.0881 22.0369 14.0023 31.5532 -0.2481 -6.5071
# 5 -15.8391 -2.3023 6.2740 -0.2481 26.6891 4.1948
# 6 10.3753 8.5549 4.2737 -6.5071 4.1948 36.3054
#
#
#
# Elastic Compliance Matrix: (Units=1/GPa)
#
#
# Indices 1 2 3 4 5 6 
#
# 1 0.008722 -0.001318 -0.006718 0.002465 0.006940 -0.001751
# 2 -0.001318 0.011767 -0.002629 -0.007614 0.001347 -0.003607
# 3 -0.006718 -0.002629 0.025428 -0.008837 -0.010137 -0.000867
# 4 0.002465 -0.007614 -0.008837 0.042598 0.001777 0.009560
# 5 0.006940 0.001347 -0.010137 0.001777 0.045045 -0.005993
# 6 -0.001751 -0.003607 -0.000867 0.009560 -0.005993 0.031402
#
#
# Mechanical properties :
#
#
# Convention : Reuss Voigt Hill
#
# Bulk Modulus (GPa) = 40.66853 61.72892 51.19873
# Shear Modulus (GPa) = 25.70861 34.45229 30.08045
#
# Velocity S-wave (km/s) = 3.29374 3.81293 3.56280
# Velocity P-wave (km/s) = 5.62374 6.74042 6.20725
#
# Compressibility (1/GPa) = 0.02458904
#
# Stress axis : x y z
#
# Youngs Moduli (GPa) = 114.65502 84.98186 39.32602
#
# Poissons Ratio (x) = 0.11199 0.26418
# Poissons Ratio (y) = 0.15109 0.10337
# Poissons Ratio (z) = 0.77023 0.22338
#
# Static dielectric constant tensor:
#      x y z
#    x 1.945340 0.012010 0.001410 
#    y 0.012010 1.921580 0.013430 
#    z 0.001410 0.013430 1.923560 
# 
# From -- ./inp_files/159736.got.cif
#   From: 2010.05.17/outbox.cif.g08.bks.cpg/sg2_80_cif.got.tgz:159736.got - 2010.06.03 11:33:40.
