data_PCOD9045905
_publ_section_title
;
Structure prediction by ZEFSAII (Michael W. Deem and Ramdas Pophale) SiO2 
 PCOD9045905
Probable space group: P -1
;
_chemical_formula_sum "Si O2"
_cell_formula_units_Z 14
_cell_length_a 8.203862
_cell_length_b 20.652785
_cell_length_c 7.503449
_cell_angle_alpha 111.539294
_cell_angle_beta 36.141052
_cell_angle_gamma 126.706171
_cell_volume 582.894335
_symmetry_space_group_name_H-M "P -1"
_symmetry_group_IT_number 2
_symmetry_cell_setting 'triclinic'
loop_
_space_group_symop_operation_xyz
x,y,z
-x,-y,-z
loop_
_atom_site_type_symbol
_atom_site_label
_atom_site_fract_x
_atom_site_fract_y
_atom_site_fract_z
Si Si1 0.779239 0.120751 0.729586
Si Si2 0.663977 0.597606 0.428188
Si Si3 0.224432 0.655513 0.700828
Si Si4 0.658942 0.047272 0.224127
Si Si5 0.041069 0.685436 0.545584
Si Si6 0.804326 0.798642 0.918130
Si Si7 0.416440 0.153323 0.365566
O O1 0.001219 0.168101 0.408231
O O2 0.034637 0.110339 0.608618
O O3 0.453848 0.031273 0.880785
O O4 0.646057 0.167709 0.004628
O O5 0.500000 0.500000 0.500000
O O6 0.413949 0.617168 0.579338
O O7 0.805543 0.639739 0.538874
O O8 0.951550 0.633458 0.066086
O O9 0.073359 0.629237 0.608642
O O10 0.465617 0.755834 0.575188
O O11 0.487646 0.094941 0.360104
O O12 0.031762 0.120781 0.017831
O O13 0.500000 0.000000 0.500000
O O14 0.901744 0.733759 0.822288
O O15 0.411993 0.750611 0.211425
#
# Coordination Sequence:
#
# PCOD9045905 Si02
#       7
#     2   2   2   2   2   2   2
#     4  11  24  40  66  95 139 188 239 303 354 391
#     4  12  28  50  77 114 147 179 232 296 364 441
#     4  12  26  46  78 108 144 194 239 287 358 435
#     4  10  24  42  63  97 141 185 237 297 355 402
#     4  12  25  46  74 105 146 187 237 289 361 423
#     4  11  23  43  66  99 139 188 237 292 349 421
#     4  12  23  43  66  98 137 182 248 285 344 429
#
# _framework density 24.018076000000001
#
# number of rings (size 3 to 8) (size 9 to 14) (size 15 to 20)
#    0.000    0.571    1.429    7.286    2.000    2.286 
#    0.000    6.429    0.000    0.000    0.000    0.000 
#    0.000    0.000    0.000    0.000    0.000    0.000 
#
# Total GULP energy -78421.936926 kJ/mol
# GULP energy per Si atom -5601.566923 kJ/mol
# Density = 2.396341 g / cm^3
# Si number density = 24.018076 Si / 1000 Ang^3
#
#
#
# Elastic Constant Matrix: (Units=GPa)
#
#
# Indices 1 2 3 4 5 6 
#
# 1 141.4843 24.8994 -6.8283 8.7354 12.5835 -26.4838
# 2 24.8994 96.2222 -2.4944 -7.2849 -0.3570 -21.6352
# 3 -6.8283 -2.4944 69.5133 15.9658 -1.7050 -14.2628
# 4 8.7354 -7.2849 15.9658 27.9632 -9.4451 -1.8925
# 5 12.5835 -0.3570 -1.7050 -9.4451 41.4072 6.4097
# 6 -26.4838 -21.6352 -14.2628 -1.8925 6.4097 38.5685
#
#
#
# Elastic Compliance Matrix: (Units=1/GPa)
#
#
# Indices 1 2 3 4 5 6 
#
# 1 0.010004 -0.001166 0.004172 -0.007210 -0.005819 0.008372
# 2 -0.001166 0.012493 0.000861 0.003681 0.000307 0.006656
# 3 0.004172 0.000861 0.020063 -0.013556 -0.005225 0.010970
# 4 -0.007210 0.003681 -0.013556 0.051091 0.014527 -0.007806
# 5 -0.005819 0.000307 -0.005225 0.014527 0.030587 -0.010126
# 6 0.008372 0.006656 0.010970 -0.007806 -0.010126 0.040767
#
#
# Mechanical properties :
#
#
# Convention : Reuss Voigt Hill
#
# Bulk Modulus (GPa) = 19.88274 37.59701 28.73988
# Shear Modulus (GPa) = 28.72994 41.03067 34.88030
#
# Velocity S-wave (km/s) = 3.46234 4.13767 3.81498
# Velocity P-wave (km/s) = 4.92746 6.20602 5.60333
#
# Compressibility (1/GPa) = 0.05029487
#
# Stress axis : x y z
#
# Youngs Moduli (GPa) = 99.95886 80.04520 49.84367
#
# Poissons Ratio (x) = 0.09331 -0.20794
# Poissons Ratio (y) = 0.11652 -0.04294
# Poissons Ratio (z) = -0.41700 -0.06896
#
# Static dielectric constant tensor:
#      x y z
#    x 2.017890 0.026940 0.050500 
#    y 0.026940 1.885570 -0.013600 
#    z 0.050500 -0.013600 1.893380 
# 
# From -- ./inp_files/223750.got.cif
#   From: 2010.05.17/outbox.cif.g08.bks.cpg/sg2_112_cif.got.tgz:223750.got - 2010.06.03 11:33:40.
