data_PCOD9045764
_publ_section_title
;
Structure prediction by ZEFSAII (Michael W. Deem and Ramdas Pophale) SiO2 
 PCOD9045764
Probable space group: P -1
;
_chemical_formula_sum "Si O2"
_cell_formula_units_Z 16
_cell_length_a 10.290920
_cell_length_b 8.060358
_cell_length_c 11.913042
_cell_angle_alpha 54.121742
_cell_angle_beta 78.197710
_cell_angle_gamma 107.901684
_cell_volume 660.312101
_symmetry_space_group_name_H-M "P -1"
_symmetry_group_IT_number 2
_symmetry_cell_setting 'triclinic'
loop_
_space_group_symop_operation_xyz
x,y,z
-x,-y,-z
loop_
_atom_site_type_symbol
_atom_site_label
_atom_site_fract_x
_atom_site_fract_y
_atom_site_fract_z
Si Si1 0.750969 0.897021 0.808646
Si Si2 0.446253 0.152398 0.331315
Si Si3 0.228002 0.503371 0.941358
Si Si4 0.926398 0.339299 0.921518
Si Si5 0.725325 0.856068 0.290561
Si Si6 0.915474 0.881338 0.443451
Si Si7 0.407433 0.666273 0.532847
Si Si8 0.860867 0.389030 0.660947
O O1 0.655315 0.788938 0.753889
O O2 0.727333 0.111962 0.764373
O O3 0.719166 0.687982 0.982133
O O4 0.935732 0.032886 0.697698
O O5 0.612402 0.241468 0.207178
O O6 0.501319 0.294501 0.381678
O O7 0.356335 0.860965 0.475506
O O8 0.102092 0.438718 0.892717
O O9 0.140608 0.511939 0.064800
O O10 0.920364 0.366585 0.780301
O O11 0.817296 0.067855 0.099613
O O12 0.810829 0.949023 0.360730
O O13 0.541074 0.753959 0.378961
O O14 0.723741 0.613884 0.353662
O O15 0.817034 0.591003 0.593601
O O16 0.000000 0.000000 0.500000
O O17 0.000000 0.500000 0.500000
#
# Coordination Sequence:
#
# PCOD9045764 Si02
#       8
#     2   2   2   2   2   2   2   2
#     4  11  23  41  61  95 135 171 219 270 333 396
#     4  11  23  42  64  95 137 175 220 270 336 400
#     4  11  24  42  68 100 127 177 223 277 333 394
#     4  11  24  44  71  97 133 171 229 281 327 398
#     4  11  22  44  68  99 134 174 232 273 328 395
#     4  11  22  40  69  96 134 178 219 274 330 396
#     4  10  24  41  68  97 131 181 223 274 330 395
#     4  10  25  42  64 102 136 172 217 275 340 396
#
# _framework density 24.230967
#
# number of rings (size 3 to 8) (size 9 to 14) (size 15 to 20)
#    0.000    1.250    2.500    2.625    3.500    6.500 
#    0.000    0.625    0.000    0.000    0.000    0.000 
#    0.000    0.000    0.000    0.000    0.000    0.000 
#
# Total GULP energy -89455.382103 kJ/mol
# GULP energy per Si atom -5590.961381 kJ/mol
# Density = 2.417582 g / cm^3
# Si number density = 24.230967 Si / 1000 Ang^3
#
#
#
# Elastic Constant Matrix: (Units=GPa)
#
#
# Indices 1 2 3 4 5 6 
#
# 1 61.7772 4.4106 28.2674 6.6726 1.3157 18.4633
# 2 4.4106 99.4794 44.9857 -0.0333 19.8234 5.6356
# 3 28.2674 44.9857 128.5712 -4.1361 25.3692 3.6678
# 4 6.6726 -0.0333 -4.1361 54.6174 5.7279 14.6885
# 5 1.3157 19.8234 25.3692 5.7279 27.9679 4.9462
# 6 18.4633 5.6356 3.6678 14.6885 4.9462 27.4970
#
#
#
# Elastic Compliance Matrix: (Units=1/GPa)
#
#
# Indices 1 2 3 4 5 6 
#
# 1 0.024008 0.001570 -0.006653 0.000430 0.006710 -0.016992
# 2 0.001570 0.012902 -0.003649 0.000841 -0.005612 -0.002652
# 3 -0.006653 -0.003649 0.012283 0.001526 -0.009340 0.004442
# 4 0.000430 0.000841 0.001526 0.021957 -0.004447 -0.011594
# 5 0.006710 -0.005612 -0.009340 -0.004447 0.050355 -0.008792
# 6 -0.016992 -0.002652 0.004442 -0.011594 -0.008792 0.055503
#
#
# Mechanical properties :
#
#
# Convention : Reuss Voigt Hill
#
# Bulk Modulus (GPa) = 31.51842 49.46170 40.49006
# Shear Modulus (GPa) = 24.38450 36.16074 30.27262
#
# Velocity S-wave (km/s) = 3.17572 3.86727 3.53843
# Velocity P-wave (km/s) = 5.14613 6.35594 5.78276
#
# Compressibility (1/GPa) = 0.03172748
#
# Stress axis : x y z
#
# Youngs Moduli (GPa) = 41.65224 77.50904 81.41565
#
# Poissons Ratio (x) = -0.12167 0.54166
# Poissons Ratio (y) = -0.06539 0.29711
# Poissons Ratio (z) = 0.27712 0.28286
#
# Static dielectric constant tensor:
#      x y z
#    x 1.967640 -0.082230 0.044600 
#    y -0.082230 2.017750 -0.041800 
#    z 0.044600 -0.041800 1.952060 
# 
# From -- ./inp_files/403328.got.cif
#   From: 2010.05.17/outbox.cif.g08.bks.cpg/sg2_202_cif.got.tgz:403328.got - 2010.06.03 11:33:40.
