data_PCOD9045272
_publ_section_title
;
Structure prediction by ZEFSAII (Michael W. Deem and Ramdas Pophale) SiO2 
 PCOD9045272
Probable space group: P -1
;
_chemical_formula_sum "Si O2"
_cell_formula_units_Z 16
_cell_length_a 11.410709
_cell_length_b 13.620978
_cell_length_c 14.083581
_cell_angle_alpha 43.284303
_cell_angle_beta 114.022097
_cell_angle_gamma 146.086476
_cell_volume 717.730854
_symmetry_space_group_name_H-M "P -1"
_symmetry_group_IT_number 2
_symmetry_cell_setting 'triclinic'
loop_
_space_group_symop_operation_xyz
x,y,z
-x,-y,-z
loop_
_atom_site_type_symbol
_atom_site_label
_atom_site_fract_x
_atom_site_fract_y
_atom_site_fract_z
Si Si1 0.249973 0.727022 0.666097
Si Si2 0.632716 0.646874 0.800186
Si Si3 0.565736 0.399386 0.711618
Si Si4 0.228066 0.409565 0.952010
Si Si5 0.031501 0.384351 0.649535
Si Si6 0.567288 0.399504 0.496040
Si Si7 0.756968 0.937912 0.002509
Si Si8 0.109846 0.898020 0.580760
O O1 0.248721 0.600430 0.832930
O O2 0.100018 0.508421 0.687873
O O3 0.143382 0.770562 0.641487
O O4 0.500000 0.000000 0.500000
O O5 0.485736 0.608622 0.850863
O O6 0.419612 0.360164 0.875571
O O7 0.790391 0.897099 0.609125
O O8 0.793382 0.691144 0.884432
O O9 0.618056 0.401285 0.619659
O O10 0.433890 0.428881 0.633458
O O11 0.396246 0.140023 0.905128
O O12 0.825363 0.660192 0.666540
O O13 0.016556 0.155839 0.987083
O O14 0.239133 0.488115 0.591853
O O15 0.000000 0.500000 0.500000
O O16 0.806227 0.069217 0.828119
O O17 0.293968 0.092027 0.592579
#
# Coordination Sequence:
#
# PCOD9045272 Si02
#       8
#     2   2   2   2   2   2   2   2
#     4  11  21  42  67  97 135 174 226 282 342 403
#     4  11  23  36  68  99 132 173 223 287 336 396
#     4  11  27  41  67 103 140 184 223 277 344 418
#     4  10  24  39  61 101 134 173 219 286 343 395
#     4  11  25  44  74 102 132 182 231 287 341 408
#     4  11  24  43  68  99 138 182 222 283 339 402
#     4  11  25  43  67  99 141 170 228 284 343 393
#     4  12  23  43  70  99 138 181 234 275 344 412
#
# _framework density 22.292480000000001
#
# number of rings (size 3 to 8) (size 9 to 14) (size 15 to 20)
#    0.000    1.000    3.750    2.250    7.000    1.000 
#    0.000    5.625    0.000    4.500    0.000    0.000 
#    0.000    0.000    0.000    0.000    0.000    0.000 
#
# Total GULP energy -89359.551333 kJ/mol
# GULP energy per Si atom -5584.971958 kJ/mol
# Density = 2.224174 g / cm^3
# Si number density = 22.292480 Si / 1000 Ang^3
#
#
#
# Elastic Constant Matrix: (Units=GPa)
#
#
# Indices 1 2 3 4 5 6 
#
# 1 85.2954 13.6314 44.1137 3.5077 17.0474 4.3395
# 2 13.6314 77.9306 43.0575 12.8612 3.1586 3.3398
# 3 44.1137 43.0575 115.5540 4.4368 0.4240 21.4086
# 4 3.5077 12.8612 4.4368 25.7825 7.0208 -6.7227
# 5 17.0474 3.1586 0.4240 7.0208 30.9147 1.7469
# 6 4.3395 3.3398 21.4086 -6.7227 1.7469 30.9214
#
#
#
# Elastic Compliance Matrix: (Units=1/GPa)
#
#
# Indices 1 2 3 4 5 6 
#
# 1 0.017363 0.001177 -0.007844 0.002236 -0.010317 0.003936
# 2 0.001177 0.017652 -0.006974 -0.007231 -0.000784 0.001229
# 3 -0.007844 -0.006974 0.016227 -0.002552 0.005976 -0.010273
# 4 0.002236 -0.007231 -0.002552 0.049497 -0.012474 0.013700
# 5 -0.010317 -0.000784 0.005976 -0.012474 0.041300 -0.007650
# 6 0.003936 0.001229 -0.010273 0.013700 -0.007650 0.042178
#
#
# Mechanical properties :
#
#
# Convention : Reuss Voigt Hill
#
# Bulk Modulus (GPa) = 41.73765 53.37615 47.55690
# Shear Modulus (GPa) = 22.78067 29.38889 26.08478
#
# Velocity S-wave (km/s) = 3.20018 3.63482 3.42441
# Velocity P-wave (km/s) = 5.69371 6.45070 6.08399
#
# Compressibility (1/GPa) = 0.02395918
#
# Stress axis : x y z
#
# Youngs Moduli (GPa) = 57.59506 56.65168 61.62737
#
# Poissons Ratio (x) = -0.06671 0.48343
# Poissons Ratio (y) = -0.06782 0.42979
# Poissons Ratio (z) = 0.45180 0.39509
#
# Static dielectric constant tensor:
#      x y z
#    x 1.879110 0.032440 -0.011300 
#    y 0.032440 1.818410 0.064160 
#    z -0.011300 0.064160 1.966130 
# 
# From -- ./inp_files/522284.got.cif
#   From: 2010.05.17/outbox.cif.g08.bks.cpg/sg2_262_cif.got.tgz:522284.got - 2010.06.03 11:33:40.
