data_PCOD9045510
_publ_section_title
;
Structure prediction by ZEFSAII (Michael W. Deem and Ramdas Pophale) SiO2 
 PCOD9045510
Probable space group: P -1
;
_chemical_formula_sum "Si O2"
_cell_formula_units_Z 16
_cell_length_a 20.387445
_cell_length_b 11.700694
_cell_length_c 5.031264
_cell_angle_alpha 90.435887
_cell_angle_beta 85.051272
_cell_angle_gamma 30.974225
_cell_volume 607.542958
_symmetry_space_group_name_H-M "P -1"
_symmetry_group_IT_number 2
_symmetry_cell_setting 'triclinic'
loop_
_space_group_symop_operation_xyz
x,y,z
-x,-y,-z
loop_
_atom_site_type_symbol
_atom_site_label
_atom_site_fract_x
_atom_site_fract_y
_atom_site_fract_z
Si Si1 0.286497 0.315049 0.262087
Si Si2 0.580090 0.676802 0.762571
Si Si3 0.591409 0.258709 0.924464
Si Si4 0.062998 0.201956 0.458342
Si Si5 0.843647 0.408029 0.182600
Si Si6 0.155722 0.178183 0.925726
Si Si7 0.339736 0.014152 0.498070
Si Si8 0.142987 0.829526 0.544445
O O1 0.396910 0.234137 0.118094
O O2 0.271181 0.379079 0.575999
O O3 0.301956 0.158172 0.282693
O O4 0.170994 0.524334 0.108337
O O5 0.479219 0.839747 0.558692
O O6 0.722792 0.411396 0.648020
O O7 0.500379 0.709624 0.970017
O O8 0.646622 0.135152 0.621189
O O9 0.500000 0.500000 0.000000
O O10 0.715661 0.090037 0.063212
O O11 0.058926 0.273851 0.741709
O O12 0.959527 0.292492 0.305473
O O13 0.142038 0.968146 0.520965
O O14 0.097143 0.255228 0.241039
O O15 0.848324 0.262292 0.191136
O O16 0.226366 0.181042 0.762888
O O17 0.000000 0.000000 0.500000
#
# Coordination Sequence:
#
# PCOD9045510 Si02
#       8
#     2   2   2   2   2   2   2   2
#     4  11  25  46  70 100 143 184 239 290 341 412
#     4  10  24  40  70 104 133 186 230 279 357 417
#     4  11  25  42  69 104 141 181 236 289 351 418
#     4  11  22  43  71 100 141 185 228 289 352 419
#     4  10  24  43  70 103 137 182 240 289 346 410
#     4  11  24  42  67  99 138 180 235 278 355 402
#     4  11  26  45  69 100 145 185 234 292 344 407
#     4   9  21  42  68 102 138 174 222 287 350 412
#
# _framework density 26.335587
#
# number of rings (size 3 to 8) (size 9 to 14) (size 15 to 20)
#    0.000    1.500    1.250    1.875    8.750    3.500 
#    0.000   11.250    0.000    0.000    0.000    0.000 
#    0.000    0.000    0.000    0.000    0.000    0.000 
#
# Total GULP energy -89134.497238 kJ/mol
# GULP energy per Si atom -5570.906077 kJ/mol
# Density = 2.627565 g / cm^3
# Si number density = 26.335587 Si / 1000 Ang^3
#
#
#
# Elastic Constant Matrix: (Units=GPa)
#
#
# Indices 1 2 3 4 5 6 
#
# 1 106.5591 40.0693 21.8728 -13.5867 -0.1299 -10.9092
# 2 40.0693 92.5235 21.3702 -10.8678 -5.8664 8.7227
# 3 21.8728 21.3702 107.9684 -24.8266 1.5870 -14.5190
# 4 -13.5867 -10.8678 -24.8266 28.9352 -5.3053 5.5845
# 5 -0.1299 -5.8664 1.5870 -5.3053 29.6154 -11.5943
# 6 -10.9092 8.7227 -14.5190 5.5845 -11.5943 42.8475
#
#
#
# Elastic Compliance Matrix: (Units=1/GPa)
#
#
# Indices 1 2 3 4 5 6 
#
# 1 0.012168 -0.005166 -0.000229 0.003017 0.001144 0.003989
# 2 -0.005166 0.014323 -0.001868 0.002550 0.001495 -0.004792
# 3 -0.000229 -0.001868 0.012332 0.009424 0.002167 0.003859
# 4 0.003017 0.002550 0.009424 0.046603 0.008200 -0.000413
# 5 0.001144 0.001495 0.002167 0.008200 0.039465 0.010331
# 6 0.003989 -0.004792 0.003859 -0.000413 0.010331 0.029487
#
#
# Mechanical properties :
#
#
# Convention : Reuss Voigt Hill
#
# Bulk Modulus (GPa) = 41.15899 52.63061 46.89480
# Shear Modulus (GPa) = 28.24775 35.19554 31.72164
#
# Velocity S-wave (km/s) = 3.27862 3.65968 3.47438
# Velocity P-wave (km/s) = 5.47678 6.15513 5.82584
#
# Compressibility (1/GPa) = 0.02429603
#
# Stress axis : x y z
#
# Youngs Moduli (GPa) = 82.17954 69.81821 81.08712
#
# Poissons Ratio (x) = 0.36068 0.01861
# Poissons Ratio (y) = 0.42454 0.15151
# Poissons Ratio (z) = 0.01886 0.13045
#
# Static dielectric constant tensor:
#      x y z
#    x 2.178070 -0.042760 -0.045690 
#    y -0.042760 2.198750 0.082410 
#    z -0.045690 0.082410 2.144800 
# 
# From -- ./inp_files/118696.got.cif
#   From: 2010.05.17/outbox.cif.g08.bks.cpg/sg2_60_cif.got.tgz:118696.got - 2010.06.03 11:33:40.
