data_PCOD9045918
_publ_section_title
;
Structure prediction by ZEFSAII (Michael W. Deem and Ramdas Pophale) SiO2 
 PCOD9045918
Probable space group: P -1
;
_chemical_formula_sum "Si O2"
_cell_formula_units_Z 15
_cell_length_a 13.860691
_cell_length_b 13.278231
_cell_length_c 16.046692
_cell_angle_alpha 22.411493
_cell_angle_beta 35.351847
_cell_angle_gamma 31.833430
_cell_volume 587.160172
_symmetry_space_group_name_H-M "P -1"
_symmetry_group_IT_number 2
_symmetry_cell_setting 'triclinic'
loop_
_space_group_symop_operation_xyz
x,y,z
-x,-y,-z
loop_
_atom_site_type_symbol
_atom_site_label
_atom_site_fract_x
_atom_site_fract_y
_atom_site_fract_z
Si Si1 0.638717 0.637480 0.278162
Si Si2 0.852168 0.385620 0.166137
Si Si3 0.929720 0.276102 0.484296
Si Si4 0.335566 0.799530 0.138854
Si Si5 0.500000 0.500000 0.000000
Si Si6 0.128474 0.366302 0.429310
Si Si7 0.671518 0.326548 0.187706
Si Si8 0.800835 0.125143 0.002361
O O1 0.500000 0.500000 0.500000
O O2 0.681509 0.579905 0.195039
O O3 0.822925 0.464445 0.336696
O O4 0.574881 0.974965 0.086697
O O5 0.813483 0.406770 0.079094
O O6 0.914344 0.043300 0.405958
O O7 0.000000 0.500000 0.000000
O O8 0.784763 0.199929 0.698226
O O9 0.005582 0.432134 0.380887
O O10 0.485472 0.473978 0.261087
O O11 0.203925 0.916083 0.060310
O O12 0.613380 0.474227 0.027609
O O13 0.726750 0.486943 0.788860
O O14 0.000000 0.500000 0.500000
O O15 0.237325 0.020800 0.619529
O O16 0.364090 0.876683 0.827158
O O17 0.000000 0.000000 0.000000
#
# Coordination Sequence:
#
# PCOD9045918 Si02
#       8
#     2   2   2   2   1   2   2   2
#     4  12  27  45  71 107 141 191 247 300 366 438
#     4  11  24  45  75  99 142 194 238 306 365 432
#     4  11  24  45  72 106 138 187 248 293 367 435
#     4  11  24  46  69 103 147 193 232 312 365 438
#     4  10  24  42  64 102 142 184 234 300 358 444
#     4  11  22  43  73  99 139 187 236 293 355 449
#     4  10  25  44  66 107 140 187 238 293 375 428
#     4  11  23  43  70 103 143 189 240 297 371 435
#
# _framework density 25.546693000000001
#
# number of rings (size 3 to 8) (size 9 to 14) (size 15 to 20)
#    0.000    1.067    2.667    2.800    3.733    5.333 
#   16.800    0.000    0.000    0.000    0.000    0.000 
#    0.000    0.000    0.000    0.000    0.000    0.000 
#
# Total GULP energy -83801.016492 kJ/mol
# GULP energy per Si atom -5586.734433 kJ/mol
# Density = 2.548855 g / cm^3
# Si number density = 25.546693 Si / 1000 Ang^3
#
#
#
# Elastic Constant Matrix: (Units=GPa)
#
#
# Indices 1 2 3 4 5 6 
#
# 1 204.0276 25.3745 65.3879 -20.3165 16.7879 13.7069
# 2 25.3745 107.7818 24.4862 -21.7991 5.7175 7.9564
# 3 65.3879 24.4862 64.3354 -8.1320 -18.4139 7.7287
# 4 -20.3165 -21.7991 -8.1320 41.1405 -4.4424 1.1012
# 5 16.7879 5.7175 -18.4139 -4.4424 57.4313 -4.7917
# 6 13.7069 7.9564 7.7287 1.1012 -4.7917 42.1930
#
#
#
# Elastic Compliance Matrix: (Units=1/GPa)
#
#
# Indices 1 2 3 4 5 6 
#
# 1 0.009207 0.001339 -0.011148 0.002417 -0.006378 -0.001989
# 2 0.001339 0.011696 -0.005781 0.005430 -0.003163 -0.002083
# 3 -0.011148 -0.005781 0.033111 -0.000472 0.014439 0.000299
# 4 0.002417 0.005430 -0.000472 0.028413 0.000599 -0.002396
# 5 -0.006378 -0.003163 0.014439 0.000599 0.024500 0.002790
# 6 -0.001989 -0.002083 0.000299 -0.002396 0.002790 0.025064
#
#
# Mechanical properties :
#
#
# Convention : Reuss Voigt Hill
#
# Bulk Modulus (GPa) = 43.79524 67.40467 55.59995
# Shear Modulus (GPa) = 29.27708 45.54605 37.41156
#
# Velocity S-wave (km/s) = 3.38897 4.22697 3.83095
# Velocity P-wave (km/s) = 5.70034 7.08979 6.43269
#
# Compressibility (1/GPa) = 0.02283353
#
# Stress axis : x y z
#
# Youngs Moduli (GPa) = 108.61848 85.49984 30.20133
#
# Poissons Ratio (x) = -0.11450 0.33668
# Poissons Ratio (y) = -0.14545 0.17460
# Poissons Ratio (z) = 1.21086 0.49431
#
# Static dielectric constant tensor:
#      x y z
#    x 1.970470 0.058290 0.055470 
#    y 0.058290 1.415530 -0.397280 
#    z 0.055470 -0.397280 1.841580 
# 
# From -- ./inp_files/518540.got.cif
#   From: 2010.05.17/outbox.cif.g08.bks.cpg/sg2_260_cif.got.tgz:518540.got - 2010.06.03 11:33:40.
