data_PCOD9045969
_publ_section_title
;
Structure prediction by ZEFSAII (Michael W. Deem and Ramdas Pophale) SiO2 
 PCOD9045969
Probable space group: P -1
;
_chemical_formula_sum "Si O2"
_cell_formula_units_Z 16
_cell_length_a 9.572825
_cell_length_b 16.368789
_cell_length_c 8.775895
_cell_angle_alpha 76.846349
_cell_angle_beta 122.220842
_cell_angle_gamma 59.814859
_cell_volume 739.406234
_symmetry_space_group_name_H-M "P -1"
_symmetry_group_IT_number 2
_symmetry_cell_setting 'triclinic'
loop_
_space_group_symop_operation_xyz
x,y,z
-x,-y,-z
loop_
_atom_site_type_symbol
_atom_site_label
_atom_site_fract_x
_atom_site_fract_y
_atom_site_fract_z
Si Si1 0.274863 0.747208 0.031925
Si Si2 0.178085 0.015839 0.907292
Si Si3 0.518716 0.508015 0.687791
Si Si4 0.432769 0.332527 0.216349
Si Si5 0.773331 0.635953 0.226878
Si Si6 0.668819 0.161323 0.694384
Si Si7 0.939931 0.754340 0.334694
Si Si8 0.009223 0.862416 0.540800
O O1 0.321033 0.630787 0.096253
O O2 0.519432 0.697580 0.125173
O O3 0.280831 0.776773 0.195390
O O4 0.043038 0.861263 0.739068
O O5 0.928694 0.060006 0.792862
O O6 0.142247 0.130252 0.857140
O O7 0.182218 0.007943 0.728097
O O8 0.371927 0.899701 0.186944
O O9 0.500000 0.500000 0.500000
O O10 0.623530 0.556031 0.787478
O O11 0.229214 0.618493 0.528971
O O12 0.459037 0.259003 0.404307
O O13 0.712694 0.233191 0.338693
O O14 0.240475 0.379243 0.954102
O O15 0.000000 0.500000 0.500000
O O16 0.788099 0.729451 0.223793
O O17 0.928656 0.798484 0.478184
#
# Coordination Sequence:
#
# PCOD9045969 Si02
#       8
#     2   2   2   2   2   2   2   2
#     4  11  20  30  54  82 103 131 169 210 255 299
#     4   8  17  34  58  73 102 133 169 213 258 289
#     4  11  18  32  53  78 105 127 167 217 258 295
#     4   9  19  32  51  76 102 134 172 203 255 305
#     4  11  22  34  51  73 107 144 168 202 250 315
#     4  10  17  34  55  80 101 129 172 217 253 295
#     4   9  18  36  50  72 102 138 171 200 257 303
#     4   7  17  32  52  76  97 133 167 210 244 302
#
# _framework density 21.638983
#
# number of rings (size 3 to 8) (size 9 to 14) (size 15 to 20)
#    0.750    1.750    3.750    0.000    1.750    2.000 
#    0.000    3.750    2.750    0.000    0.000    0.000 
#    0.000    0.000    0.000    0.000    0.000    0.000 
#
# Total GULP energy -89093.229614 kJ/mol
# GULP energy per Si atom -5568.326851 kJ/mol
# Density = 2.158973 g / cm^3
# Si number density = 21.638983 Si / 1000 Ang^3
#
#
#
# Elastic Constant Matrix: (Units=GPa)
#
#
# Indices 1 2 3 4 5 6 
#
# 1 23.6109 12.9615 34.6143 -0.0469 -8.3066 10.6027
# 2 12.9615 92.3727 58.8426 1.5246 -10.9782 21.6001
# 3 34.6143 58.8426 174.1064 15.8845 -28.2724 22.3341
# 4 -0.0469 1.5246 15.8845 35.8280 4.6166 -11.2783
# 5 -8.3066 -10.9782 -28.2724 4.6166 20.5381 -3.0459
# 6 10.6027 21.6001 22.3341 -11.2783 -3.0459 29.8869
#
#
#
# Elastic Compliance Matrix: (Units=1/GPa)
#
#
# Indices 1 2 3 4 5 6 
#
# 1 0.068126 0.002574 -0.009367 -0.003650 0.014041 -0.018975
# 2 0.002574 0.015633 -0.003713 -0.002625 0.003380 -0.010082
# 3 -0.009367 -0.003713 0.012293 -0.008506 0.012299 -0.005136
# 4 -0.003650 -0.002625 -0.008506 0.041740 -0.020529 0.023207
# 5 0.014041 0.003380 0.012299 -0.020529 0.075246 -0.016694
# 6 -0.018975 -0.010082 -0.005136 0.023207 -0.016694 0.058372
#
#
# Mechanical properties :
#
#
# Convention : Reuss Voigt Hill
#
# Bulk Modulus (GPa) = 13.32649 55.88075 34.60362
# Shear Modulus (GPa) = 15.75123 29.49537 22.62330
#
# Velocity S-wave (km/s) = 2.70091 3.69598 3.23691
# Velocity P-wave (km/s) = 3.98729 6.64032 5.47687
#
# Compressibility (1/GPa) = 0.07503853
#
# Stress axis : x y z
#
# Youngs Moduli (GPa) = 14.67869 63.96850 81.34735
#
# Poissons Ratio (x) = -0.16463 0.76197
# Poissons Ratio (y) = -0.03778 0.30207
# Poissons Ratio (z) = 0.13749 0.23753
#
# Static dielectric constant tensor:
#      x y z
#    x 1.786200 -0.014460 -0.011780 
#    y -0.014460 1.849880 -0.031020 
#    z -0.011780 -0.031020 1.864170 
# 
# From -- ./inp_files/270251.got.cif
#   From: 2010.05.17/outbox.cif.g08.bks.cpg/sg2_136_cif.got.tgz:270251.got - 2010.06.03 11:33:40.
