data_PCOD9045014
_publ_section_title
;
Structure prediction by ZEFSAII (Michael W. Deem and Ramdas Pophale) SiO2 
 PCOD9045014
Probable space group: P -1
;
_chemical_formula_sum "Si O2"
_cell_formula_units_Z 12
_cell_length_a 18.154622
_cell_length_b 12.087151
_cell_length_c 12.338254
_cell_angle_alpha 47.794600
_cell_angle_beta 150.035026
_cell_angle_gamma 154.703686
_cell_volume 492.764635
_symmetry_space_group_name_H-M "P -1"
_symmetry_group_IT_number 2
_symmetry_cell_setting 'triclinic'
loop_
_space_group_symop_operation_xyz
x,y,z
-x,-y,-z
loop_
_atom_site_type_symbol
_atom_site_label
_atom_site_fract_x
_atom_site_fract_y
_atom_site_fract_z
Si Si1 0.283524 0.507367 0.212160
Si Si2 0.481740 0.429886 0.898991
Si Si3 0.787049 0.419907 0.347006
Si Si4 0.655658 0.706984 0.725366
Si Si5 0.112057 0.846479 0.865053
Si Si6 0.166572 0.631905 0.324349
O O1 0.550950 0.745520 0.485411
O O2 0.399673 0.496191 0.276814
O O3 0.015506 0.211385 0.144176
O O4 0.109433 0.492901 0.947975
O O5 0.497460 0.561493 0.736456
O O6 0.197464 0.069742 0.761731
O O7 0.500000 0.500000 0.000000
O O8 0.758470 0.555731 0.164498
O O9 0.874022 0.498873 0.531615
O O10 0.000000 0.500000 0.500000
O O11 0.440444 0.060192 0.148366
O O12 0.000000 0.000000 0.000000
O O13 0.897247 0.533822 0.747521
O O14 0.500000 0.000000 0.500000
#
# Coordination Sequence:
#
# PCOD9045014 Si02
#       6
#     2   2   2   2   2   2
#     4  11  25  44  71 108 137 193 240 295 373 421
#     4  10  23  48  73 102 144 193 239 298 363 434
#     4  10  24  45  69 108 143 189 241 297 364 425
#     4  11  26  46  73 103 145 186 245 303 357 439
#     4  10  25  44  67 110 138 190 243 288 367 429
#     4  12  24  44  75 103 143 189 241 300 356 434
#
# _framework density 24.352395999999999
#
# number of rings (size 3 to 8) (size 9 to 14) (size 15 to 20)
#    1.000    0.333    1.667    2.500    4.667    2.667 
#    6.000    0.000    0.000    0.000    0.000    0.000 
#    0.000    0.000    0.000    0.000    0.000    0.000 
#
# Total GULP energy -66928.370574 kJ/mol
# GULP energy per Si atom -5577.364214 kJ/mol
# Density = 2.429697 g / cm^3
# Si number density = 24.352396 Si / 1000 Ang^3
#
#
#
# Elastic Constant Matrix: (Units=GPa)
#
#
# Indices 1 2 3 4 5 6 
#
# 1 113.0975 -0.8281 20.9024 9.7500 5.8948 -2.1123
# 2 -0.8281 51.4372 21.4567 16.8295 -12.0835 0.6657
# 3 20.9024 21.4567 166.1135 -3.2062 4.4911 -5.8134
# 4 9.7500 16.8295 -3.2062 36.0475 4.6005 2.1631
# 5 5.8948 -12.0835 4.4911 4.6005 52.9473 -2.1022
# 6 -2.1123 0.6657 -5.8134 2.1631 -2.1022 31.5415
#
#
#
# Elastic Compliance Matrix: (Units=1/GPa)
#
#
# Indices 1 2 3 4 5 6 
#
# 1 0.009458 0.001900 -0.001481 -0.003590 -0.000160 0.000556
# 2 0.001900 0.028049 -0.004355 -0.015019 0.007875 0.000288
# 3 -0.001481 -0.004355 0.006908 0.003203 -0.001656 0.000936
# 4 -0.003590 -0.015019 0.003203 0.036990 -0.006605 -0.002310
# 5 -0.000160 0.007875 -0.001656 -0.006605 0.021472 0.001402
# 6 0.000556 0.000288 0.000936 -0.002310 0.001402 0.032160
#
#
# Mechanical properties :
#
#
# Convention : Reuss Voigt Hill
#
# Bulk Modulus (GPa) = 27.36530 45.96777 36.66654
# Shear Modulus (GPa) = 32.23947 43.38173 37.81060
#
# Velocity S-wave (km/s) = 3.64245 4.22526 3.94464
# Velocity P-wave (km/s) = 5.38067 6.53612 5.98633
#
# Compressibility (1/GPa) = 0.03654262
#
# Stress axis : x y z
#
# Youngs Moduli (GPa) = 105.73353 35.65243 144.75557
#
# Poissons Ratio (x) = -0.06773 0.21438
# Poissons Ratio (y) = -0.20088 0.63038
# Poissons Ratio (z) = 0.15659 0.15526
#
# Static dielectric constant tensor:
#      x y z
#    x 1.917140 -0.002140 0.000340 
#    y -0.002140 1.950380 0.009510 
#    z 0.000340 0.009510 2.042440 
# 
# From -- ./inp_files/129935.got.cif
#   From: 2010.05.17/outbox.cif.g08.bks.cpg/sg2_65_cif.got.tgz:129935.got - 2010.06.03 11:33:40.
