data_PCOD9045609
_publ_section_title
;
Structure prediction by ZEFSAII (Michael W. Deem and Ramdas Pophale) SiO2 
 PCOD9045609
Probable space group: P -1
;
_chemical_formula_sum "Si O2"
_cell_formula_units_Z 14
_cell_length_a 14.330022
_cell_length_b 8.044295
_cell_length_c 7.179633
_cell_angle_alpha 57.628245
_cell_angle_beta 89.948574
_cell_angle_gamma 111.164947
_cell_volume 631.731677
_symmetry_space_group_name_H-M "P -1"
_symmetry_group_IT_number 2
_symmetry_cell_setting 'triclinic'
loop_
_space_group_symop_operation_xyz
x,y,z
-x,-y,-z
loop_
_atom_site_type_symbol
_atom_site_label
_atom_site_fract_x
_atom_site_fract_y
_atom_site_fract_z
Si Si1 0.592940 0.876860 0.405896
Si Si2 0.536748 0.886401 0.816123
Si Si3 0.789580 0.933693 0.503662
Si Si4 0.136504 0.260045 0.730468
Si Si5 0.382240 0.492191 0.253701
Si Si6 0.100899 0.881167 0.235137
Si Si7 0.739868 0.286912 0.678613
O O1 0.533159 0.981619 0.223359
O O2 0.714290 0.029097 0.351550
O O3 0.597094 0.648334 0.496581
O O4 0.532457 0.831860 0.629863
O O5 0.653647 0.054513 0.753449
O O6 0.486068 0.660682 0.059665
O O7 0.839660 0.848577 0.390503
O O8 0.702130 0.714831 0.733527
O O9 0.867762 0.078562 0.571365
O O10 0.215658 0.513377 0.588020
O O11 0.021063 0.240177 0.721555
O O12 0.137745 0.111738 0.991409
O O13 0.319050 0.625811 0.231888
O O14 0.163259 0.752415 0.230331
#
# Coordination Sequence:
#
# PCOD9045609 Si02
#       7
#     2   2   2   2   2   2   2
#     4   9  21  36  54  84 121 154 203 235 283 358
#     4  11  20  35  58  84 118 164 193 234 295 352
#     4   9  20  43  60  88 122 153 193 252 290 348
#     4  10  24  41  63  90 117 153 203 251 296 350
#     4   9  21  35  55  85 122 157 193 238 288 353
#     4  11  22  42  66  86 116 160 198 246 307 347
#     4  11  22  37  58  90 122 155 197 248 292 349
#
# _framework density 22.161307999999998
#
# number of rings (size 3 to 8) (size 9 to 14) (size 15 to 20)
#    0.857    1.143    1.429    1.714    2.000    4.000 
#    0.000    0.000    0.000    6.857    0.000    0.000 
#    0.000    0.000    0.000    0.000    0.000    0.000 
#
# Total GULP energy -77990.174630 kJ/mol
# GULP energy per Si atom -5570.726759 kJ/mol
# Density = 2.211087 g / cm^3
# Si number density = 22.161308 Si / 1000 Ang^3
#
#
#
# Elastic Constant Matrix: (Units=GPa)
#
#
# Indices 1 2 3 4 5 6 
#
# 1 127.4278 21.0330 32.7570 -6.5337 12.0346 -22.1181
# 2 21.0330 46.8325 -6.3662 -0.9521 0.0964 -8.5334
# 3 32.7570 -6.3662 63.1187 -14.0961 -9.2116 4.2592
# 4 -6.5337 -0.9521 -14.0961 23.6261 6.0344 3.5337
# 5 12.0346 0.0964 -9.2116 6.0344 31.8627 -7.1636
# 6 -22.1181 -8.5334 4.2592 3.5337 -7.1636 28.0800
#
#
#
# Elastic Compliance Matrix: (Units=1/GPa)
#
#
# Indices 1 2 3 4 5 6 
#
# 1 0.013034 -0.005501 -0.009140 -0.002092 -0.005144 0.008932
# 2 -0.005501 0.025283 0.006156 0.001601 0.004218 0.003292
# 3 -0.009140 0.006156 0.025602 0.012748 0.006354 -0.009195
# 4 -0.002092 0.001601 0.012748 0.053324 -0.008309 -0.011925
# 5 -0.005144 0.004218 0.006354 -0.008309 0.038319 0.007087
# 6 0.008932 0.003292 -0.009195 -0.011925 0.007087 0.048352
#
#
# Mechanical properties :
#
#
# Convention : Reuss Voigt Hill
#
# Bulk Modulus (GPa) = 21.29921 36.91407 29.10664
# Shear Modulus (GPa) = 21.13861 29.37744 25.25803
#
# Velocity S-wave (km/s) = 3.09180 3.64485 3.37966
# Velocity P-wave (km/s) = 4.73049 5.86570 5.32841
#
# Compressibility (1/GPa) = 0.04695011
#
# Stress axis : x y z
#
# Youngs Moduli (GPa) = 76.72242 39.55159 39.05912
#
# Poissons Ratio (x) = 0.21756 0.35700
# Poissons Ratio (y) = 0.42202 -0.24044
# Poissons Ratio (z) = 0.70124 -0.24347
#
# Static dielectric constant tensor:
#      x y z
#    x 1.881810 -0.025210 0.022190 
#    y -0.025210 1.867730 0.004490 
#    z 0.022190 0.004490 1.853840 
# 
# From -- ./inp_files/291604.got.cif
#   From: 2010.05.17/outbox.cif.g08.bks.cpg/sg2_146_cif.got.tgz:291604.got - 2010.06.03 11:33:40.
