data_PCOD9045462
_publ_section_title
;
Structure prediction by ZEFSAII (Michael W. Deem and Ramdas Pophale) SiO2 
 PCOD9045462
Probable space group: P -1
;
_chemical_formula_sum "Si O2"
_cell_formula_units_Z 12
_cell_length_a 12.633438
_cell_length_b 4.979616
_cell_length_c 11.292441
_cell_angle_alpha 112.784415
_cell_angle_beta 130.816741
_cell_angle_gamma 62.726678
_cell_volume 473.785020
_symmetry_space_group_name_H-M "P -1"
_symmetry_group_IT_number 2
_symmetry_cell_setting 'triclinic'
loop_
_space_group_symop_operation_xyz
x,y,z
-x,-y,-z
loop_
_atom_site_type_symbol
_atom_site_label
_atom_site_fract_x
_atom_site_fract_y
_atom_site_fract_z
Si Si1 0.536934 0.739988 0.799807
Si Si2 0.659169 0.513388 0.081047
Si Si3 0.913669 0.960596 0.196659
Si Si4 0.388817 0.944347 0.311447
Si Si5 0.225097 0.668062 0.631559
Si Si6 0.098464 0.339901 0.277536
O O1 0.546493 0.984198 0.752902
O O2 0.372487 0.741589 0.711806
O O3 0.608669 0.404920 0.740547
O O4 0.626403 0.743109 0.987125
O O5 0.768851 0.185265 0.067877
O O6 0.733799 0.568914 0.267155
O O7 0.500000 0.500000 0.000000
O O8 0.880333 0.047229 0.325740
O O9 0.039749 0.093274 0.260888
O O10 0.967241 0.597951 0.162613
O O11 0.228677 0.168865 0.257296
O O12 0.500000 0.000000 0.500000
O O13 0.161793 0.525062 0.453224
#
# Coordination Sequence:
#
# PCOD9045462 Si02
#       6
#     2   2   2   2   2   2
#     4  11  23  45  67  98 125 172 223 265 313 386
#     4   8  20  45  65  99 126 174 210 268 320 389
#     4  10  24  40  67  99 133 163 213 268 335 376
#     4  12  26  42  68  93 134 173 221 262 313 388
#     4   9  21  41  70  94 134 159 216 272 327 373
#     4  12  23  42  63 101 131 171 211 268 326 378
#
# _framework density 25.327942
#
# number of rings (size 3 to 8) (size 9 to 14) (size 15 to 20)
#    1.000    0.667    1.667    2.500    2.333    2.667 
#    0.000    8.333    0.000    0.000    0.000    0.000 
#    0.000    0.000    0.000    0.000    0.000    0.000 
#
# Total GULP energy -67166.466474 kJ/mol
# GULP energy per Si atom -5597.205540 kJ/mol
# Density = 2.527029 g / cm^3
# Si number density = 25.327942 Si / 1000 Ang^3
#
#
#
# Elastic Constant Matrix: (Units=GPa)
#
#
# Indices 1 2 3 4 5 6 
#
# 1 136.7152 29.9607 9.8699 -9.2496 -2.9531 -5.5013
# 2 29.9607 124.5046 0.0808 -3.1880 1.9363 -20.7039
# 3 9.8699 0.0808 77.7093 -13.7973 -5.7593 5.7109
# 4 -9.2496 -3.1880 -13.7973 27.3281 -2.2633 0.3636
# 5 -2.9531 1.9363 -5.7593 -2.2633 22.3416 1.6913
# 6 -5.5013 -20.7039 5.7109 0.3636 1.6913 42.0425
#
#
#
# Elastic Compliance Matrix: (Units=1/GPa)
#
#
# Indices 1 2 3 4 5 6 
#
# 1 0.007947 -0.001852 -0.000507 0.002324 0.001306 0.000124
# 2 -0.001852 0.009233 -0.000166 0.000192 -0.001400 0.004382
# 3 -0.000507 -0.000166 0.014833 0.007722 0.004737 -0.002420
# 4 0.002324 0.000192 0.007722 0.041866 0.006619 -0.001279
# 5 0.001306 -0.001400 0.004737 0.006619 0.047181 -0.003117
# 6 0.000124 0.004382 -0.002420 -0.001279 -0.003117 0.026425
#
#
# Mechanical properties :
#
#
# Convention : Reuss Voigt Hill
#
# Bulk Modulus (GPa) = 37.08824 46.52800 41.80812
# Shear Modulus (GPa) = 30.95529 38.27695 34.61612
#
# Velocity S-wave (km/s) = 3.49976 3.89170 3.70092
# Velocity P-wave (km/s) = 5.56831 6.21320 5.89958
#
# Compressibility (1/GPa) = 0.02696272
#
# Stress axis : x y z
#
# Youngs Moduli (GPa) = 125.82601 108.30709 67.41697
#
# Poissons Ratio (x) = 0.20062 0.03419
# Poissons Ratio (y) = 0.23307 0.01119
# Poissons Ratio (z) = 0.06380 0.01798
#
# Static dielectric constant tensor:
#      x y z
#    x 1.934550 -0.026300 0.007880 
#    y -0.026300 2.032490 -0.021120 
#    z 0.007880 -0.021120 2.009310 
# 
# From -- ./inp_files/57712.got.cif
#   From: 2010.05.17/outbox.cif.g08.bks.cpg/sg2_29_cif.got.tgz:57712.got - 2010.06.03 11:33:40.
