data_PCOD9045481
_publ_section_title
;
Structure prediction by ZEFSAII (Michael W. Deem and Ramdas Pophale) SiO2 
 PCOD9045481
Probable space group: P -1
;
_chemical_formula_sum "Si O2"
_cell_formula_units_Z 11
_cell_length_a 7.983947
_cell_length_b 8.083718
_cell_length_c 11.835885
_cell_angle_alpha 75.579033
_cell_angle_beta 82.375879
_cell_angle_gamma 33.876888
_cell_volume 408.480412
_symmetry_space_group_name_H-M "P -1"
_symmetry_group_IT_number 2
_symmetry_cell_setting 'triclinic'
loop_
_space_group_symop_operation_xyz
x,y,z
-x,-y,-z
loop_
_atom_site_type_symbol
_atom_site_label
_atom_site_fract_x
_atom_site_fract_y
_atom_site_fract_z
Si Si1 0.558418 0.632901 0.708238
Si Si2 0.479935 0.294088 0.545984
Si Si3 0.208358 0.229691 0.709971
Si Si4 0.798714 0.096639 0.900302
Si Si5 0.177667 0.468679 0.901876
Si Si6 0.000000 0.000000 0.500000
O O1 0.371034 0.786197 0.580100
O O2 0.650553 0.379673 0.799027
O O3 0.865188 0.470567 0.670028
O O4 0.380254 0.905773 0.761967
O O5 0.387384 0.182828 0.605361
O O6 0.781457 0.108955 0.609362
O O7 0.192068 0.651156 0.533538
O O8 0.199901 0.354650 0.799544
O O9 0.518190 0.222454 0.951022
O O10 0.002427 0.795024 0.862508
O O11 0.000000 0.000000 0.000000
O O12 0.000000 0.500000 0.000000
#
# Coordination Sequence:
#
# PCOD9045481 Si02
#       6
#     2   2   2   2   2   1
#     4  12  26  47  75 112 152 197 248 302 373 445
#     4  11  24  43  76 105 162 188 250 287 382 430
#     4  12  26  47  75 112 152 197 248 302 373 445
#     4  12  28  50  78 107 149 197 255 315 381 440
#     4  12  28  50  78 107 149 197 255 315 381 440
#     4  10  24  40  68 108 148 188 246 304 350 434
#
# _framework density 26.929075000000001
#
# number of rings (size 3 to 8) (size 9 to 14) (size 15 to 20)
#    0.000    0.364    0.000    7.636    7.636    2.909 
#    0.000    0.000    0.000    0.000    0.000    0.000 
#    0.000    0.000    0.000    0.000    0.000    0.000 
#
# Total GULP energy -61558.591645 kJ/mol
# GULP energy per Si atom -5596.235604 kJ/mol
# Density = 2.686778 g / cm^3
# Si number density = 26.929075 Si / 1000 Ang^3
#
#
#
# Elastic Constant Matrix: (Units=GPa)
#
#
# Indices 1 2 3 4 5 6 
#
# 1 135.3991 48.4897 54.3697 5.0257 14.5580 -3.3560
# 2 48.4897 228.6182 58.1010 -14.7356 8.6041 31.1253
# 3 54.3697 58.1010 146.1569 9.7007 18.4993 24.8688
# 4 5.0257 -14.7356 9.7007 29.6280 1.9407 -0.1744
# 5 14.5580 8.6041 18.4993 1.9407 17.1528 6.0945
# 6 -3.3560 31.1253 24.8688 -0.1744 6.0945 82.1304
#
#
#
# Elastic Compliance Matrix: (Units=1/GPa)
#
#
# Indices 1 2 3 4 5 6 
#
# 1 0.009647 -0.001562 -0.002591 -0.001209 -0.005239 0.002157
# 2 -0.001562 0.005562 -0.001638 0.003524 0.000510 -0.001706
# 3 -0.002591 -0.001638 0.009831 -0.003179 -0.006516 -0.001985
# 4 -0.001209 0.003524 -0.003179 0.036840 -0.001396 -0.000241
# 5 -0.005239 0.000510 -0.006516 -0.001396 0.070993 -0.003705
# 6 0.002157 -0.001706 -0.001985 -0.000241 -0.003705 0.013786
#
#
# Mechanical properties :
#
#
# Convention : Reuss Voigt Hill
#
# Bulk Modulus (GPa) = 74.31251 92.45501 83.38376
# Shear Modulus (GPa) = 30.72623 49.06315 39.89469
#
# Velocity S-wave (km/s) = 3.38154 4.27305 3.85317
# Velocity P-wave (km/s) = 6.54996 7.66502 7.12933
#
# Compressibility (1/GPa) = 0.01345668
#
# Stress axis : x y z
#
# Youngs Moduli (GPa) = 103.65714 179.79362 101.72241
#
# Poissons Ratio (x) = 0.28084 0.26361
# Poissons Ratio (y) = 0.16191 0.16663
# Poissons Ratio (z) = 0.26862 0.29452
#
# Static dielectric constant tensor:
#      x y z
#    x 3.808020 -0.612000 0.971160 
#    y -0.612000 2.369970 -0.399740 
#    z 0.971160 -0.399740 2.758190 
# 
# From -- ./inp_files/378260.got.cif
#   From: 2010.05.17/outbox.cif.g08.bks.cpg/sg2_190_cif.got.tgz:378260.got - 2010.06.03 11:33:40.
