data_PCOD9045321
_publ_section_title
;
Structure prediction by ZEFSAII (Michael W. Deem and Ramdas Pophale) SiO2 
 PCOD9045321
Probable space group: P -1
;
_chemical_formula_sum "Si O2"
_cell_formula_units_Z 14
_cell_length_a 22.164798
_cell_length_b 8.802071
_cell_length_c 7.654308
_cell_angle_alpha 109.958106
_cell_angle_beta 136.230565
_cell_angle_gamma 38.092992
_cell_volume 539.689066
_symmetry_space_group_name_H-M "P -1"
_symmetry_group_IT_number 2
_symmetry_cell_setting 'triclinic'
loop_
_space_group_symop_operation_xyz
x,y,z
-x,-y,-z
loop_
_atom_site_type_symbol
_atom_site_label
_atom_site_fract_x
_atom_site_fract_y
_atom_site_fract_z
Si Si1 0.196908 0.302768 0.336153
Si Si2 0.409501 0.797922 0.147419
Si Si3 0.680548 0.360458 0.285551
Si Si4 0.514257 0.867507 0.651831
Si Si5 0.000118 0.037840 0.313186
Si Si6 0.130048 0.064175 0.175903
Si Si7 0.190591 0.388740 0.762609
O O1 0.195693 0.112213 0.220073
O O2 0.160390 0.380166 0.497477
O O3 0.364333 0.115397 0.559760
O O4 0.051599 0.605470 0.049408
O O5 0.526004 0.662211 0.175156
O O6 0.499417 0.712884 0.475510
O O7 0.368781 0.673161 0.994049
O O8 0.257693 0.141854 0.926326
O O9 0.758912 0.120350 0.497835
O O10 0.823353 0.257259 0.501833
O O11 0.500000 0.000000 0.500000
O O12 0.674438 0.680316 0.996908
O O13 0.949116 0.303303 0.310249
O O14 0.000000 0.000000 0.500000
O O15 0.885093 0.091997 0.996461
#
# Coordination Sequence:
#
# PCOD9045321 Si02
#       7
#     2   2   2   2   2   2   2
#     4  11  24  44  72 100 141 180 230 281 340 413
#     4  10  24  46  70 104 129 184 231 277 351 402
#     4  11  25  45  72  97 146 177 228 287 337 410
#     4  10  24  39  70 101 135 174 232 277 338 406
#     4  12  27  42  69 106 140 175 229 286 342 401
#     4  11  25  45  67 101 140 185 226 278 351 395
#     4  11  23  46  70 104 132 182 226 281 345 408
#
# _framework density 25.940861999999999
#
# number of rings (size 3 to 8) (size 9 to 14) (size 15 to 20)
#    0.000    1.143    2.857    1.714   10.000    1.714 
#    0.000    1.429    0.000    0.000    0.000    0.000 
#    0.000    0.000    0.000    0.000    0.000    0.000 
#
# Total GULP energy -78377.646221 kJ/mol
# GULP energy per Si atom -5598.403302 kJ/mol
# Density = 2.588182 g / cm^3
# Si number density = 25.940862 Si / 1000 Ang^3
#
#
#
# Elastic Constant Matrix: (Units=GPa)
#
#
# Indices 1 2 3 4 5 6 
#
# 1 59.3973 1.7125 4.7107 -3.7824 7.3619 -3.4722
# 2 1.7125 91.3065 10.9812 18.7289 2.3996 0.2478
# 3 4.7107 10.9812 96.2788 21.5875 5.4722 -4.3032
# 4 -3.7824 18.7289 21.5875 46.4563 3.2394 0.0899
# 5 7.3619 2.3996 5.4722 3.2394 42.9929 -3.1681
# 6 -3.4722 0.2478 -4.3032 0.0899 -3.1681 17.5144
#
#
#
# Elastic Compliance Matrix: (Units=1/GPa)
#
#
# Indices 1 2 3 4 5 6 
#
# 1 0.017595 -0.000622 -0.001036 0.002356 -0.002823 0.002720
# 2 -0.000622 0.011975 -0.000279 -0.004734 -0.000197 -0.000373
# 3 -0.001036 -0.000279 0.011844 -0.005431 -0.000713 0.002607
# 4 0.002356 -0.004734 -0.005431 0.026258 -0.001516 -0.001209
# 5 -0.002823 -0.000197 -0.000713 -0.001516 0.024229 0.003658
# 6 0.002720 -0.000373 0.002607 -0.001209 0.003658 0.058949
#
#
# Mechanical properties :
#
#
# Convention : Reuss Voigt Hill
#
# Bulk Modulus (GPa) = 26.63955 31.31015 28.97485
# Shear Modulus (GPa) = 29.89786 36.69794 33.29790
#
# Velocity S-wave (km/s) = 3.39859 3.76530 3.58663
# Velocity P-wave (km/s) = 5.06875 5.56770 5.32407
#
# Compressibility (1/GPa) = 0.03753818
#
# Stress axis : x y z
#
# Youngs Moduli (GPa) = 56.83478 83.51013 84.43239
#
# Poissons Ratio (x) = 0.05193 0.08750
# Poissons Ratio (y) = 0.03534 0.02359
# Poissons Ratio (z) = 0.05890 0.02333
#
# Static dielectric constant tensor:
#      x y z
#    x 1.993480 0.018960 0.021700 
#    y 0.018960 2.140640 0.050040 
#    z 0.021700 0.050040 1.982040 
# 
# From -- ./inp_files/352318.got.cif
#   From: 2010.05.17/outbox.cif.g08.bks.cpg/sg2_177_cif.got.tgz:352318.got - 2010.06.03 11:33:40.
