data_PCOD9045936
_publ_section_title
;
Structure prediction by ZEFSAII (Michael W. Deem and Ramdas Pophale) SiO2 
 PCOD9045936
Probable space group: P -1
;
_chemical_formula_sum "Si O2"
_cell_formula_units_Z 15
_cell_length_a 21.201483
_cell_length_b 4.990381
_cell_length_c 5.660758
_cell_angle_alpha 85.504895
_cell_angle_beta 104.805366
_cell_angle_gamma 65.579675
_cell_volume 515.591939
_symmetry_space_group_name_H-M "P -1"
_symmetry_group_IT_number 2
_symmetry_cell_setting 'triclinic'
loop_
_space_group_symop_operation_xyz
x,y,z
-x,-y,-z
loop_
_atom_site_type_symbol
_atom_site_label
_atom_site_fract_x
_atom_site_fract_y
_atom_site_fract_z
Si Si1 0.113615 0.327412 0.518207
Si Si2 0.319292 0.584144 0.404865
Si Si3 0.251496 0.112717 0.956823
Si Si4 0.038893 0.140245 0.098574
Si Si5 0.000000 0.000000 0.500000
Si Si6 0.543952 0.600062 0.215823
Si Si7 0.401111 0.076746 0.130634
Si Si8 0.815180 0.398377 0.775864
O O1 0.063926 0.152731 0.432040
O O2 0.067347 0.631959 0.597157
O O3 0.138767 0.443282 0.302551
O O4 0.190936 0.113753 0.724108
O O5 0.381574 0.643001 0.584179
O O6 0.366551 0.315281 0.290080
O O7 0.256227 0.518451 0.466882
O O8 0.265266 0.878208 0.195161
O O9 0.335970 0.009045 0.978990
O O10 0.217766 0.441478 0.020005
O O11 0.992238 0.965139 0.184145
O O12 0.123704 0.942306 0.126938
O O13 0.000000 0.500000 0.000000
O O14 0.477495 0.807487 0.308239
O O15 0.500000 0.500000 0.000000
O O16 0.575704 0.787505 0.080015
#
# Coordination Sequence:
#
# PCOD9045936 Si02
#       8
#     2   2   2   2   1   2   2   2
#     4  11  24  44  69  99 135 175 224 279 338 402
#     4  11  24  43  67  96 132 174 221 274 335 398
#     4  11  24  42  67  97 132 175 223 279 335 396
#     4  11  24  42  66  98 133 171 217 274 338 404
#     4  10  24  42  68  98 130 172 222 276 334 396
#     4  11  24  42  66  96 132 176 222 273 331 397
#     4  10  24  42  64  95 134 173 220 274 333 398
#     4  10  24  42  66  96 131 173 220 273 335 402
#
# _framework density 29.092773999999999
#
# number of rings (size 3 to 8) (size 9 to 14) (size 15 to 20)
#    0.000    1.333    0.000    4.000    0.000   19.200 
#    0.000    0.000    0.000    2.400    0.000    0.000 
#    0.000    0.000    0.000    0.000    0.000    0.000 
#
# Total GULP energy -83929.978055 kJ/mol
# GULP energy per Si atom -5595.331870 kJ/mol
# Density = 2.902656 g / cm^3
# Si number density = 29.092774 Si / 1000 Ang^3
#
#
#
# Elastic Constant Matrix: (Units=GPa)
#
#
# Indices 1 2 3 4 5 6 
#
# 1 256.1573 67.9974 71.6576 1.1523 58.0058 -24.2383
# 2 67.9974 198.8062 40.2467 17.1153 30.6320 -10.2276
# 3 71.6576 40.2467 125.2094 -6.6451 44.8954 -7.9838
# 4 1.1523 17.1153 -6.6451 53.8461 -10.5965 2.1960
# 5 58.0058 30.6320 44.8954 -10.5965 81.5658 -7.8218
# 6 -24.2383 -10.2276 -7.9838 2.1960 -7.8218 54.2811
#
#
#
# Elastic Compliance Matrix: (Units=1/GPa)
#
#
# Indices 1 2 3 4 5 6 
#
# 1 0.005366 -0.000967 -0.001841 -0.000565 -0.002357 0.001626
# 2 -0.000967 0.005977 -0.001010 -0.002269 -0.001252 0.000457
# 3 -0.001841 -0.001010 0.010919 0.000881 -0.004211 -0.000049
# 4 -0.000565 -0.002269 0.000881 0.020098 0.003294 -0.000888
# 5 -0.002357 -0.001252 -0.004211 0.003294 0.017194 0.000437
# 6 0.001626 0.000457 -0.000049 -0.000888 0.000437 0.019327
#
#
# Mechanical properties :
#
#
# Convention : Reuss Voigt Hill
#
# Bulk Modulus (GPa) = 68.37852 104.44181 86.41017
# Shear Modulus (GPa) = 54.70956 64.62336 59.66646
#
# Velocity S-wave (km/s) = 4.34120 4.71816 4.53360
# Velocity P-wave (km/s) = 6.97730 8.10302 7.56114
#
# Compressibility (1/GPa) = 0.01462448
#
# Stress axis : x y z
#
# Youngs Moduli (GPa) = 186.36921 167.30755 91.58574
#
# Poissons Ratio (x) = 0.16180 0.16863
# Poissons Ratio (y) = 0.18024 0.09252
# Poissons Ratio (z) = 0.34315 0.16901
#
# Static dielectric constant tensor:
#      x y z
#    x -7.815420 1.674180 -4.409300 
#    y 1.674180 2.065030 0.700170 
#    z -4.409300 0.700170 0.962190 
# 
# From -- ./inp_files/13597.got.cif
#   From: 2010.05.17/outbox.cif.g08.bks.cpg/sg2_7_cif.got.tgz:13597.got - 2010.06.03 11:33:40.
