data_PCOD9045105
_publ_section_title
;
Structure prediction by ZEFSAII (Michael W. Deem and Ramdas Pophale) SiO2 
 PCOD9045105
Probable space group: P -1
;
_chemical_formula_sum "Si O2"
_cell_formula_units_Z 15
_cell_length_a 9.811232
_cell_length_b 13.816993
_cell_length_c 22.113313
_cell_angle_alpha 24.807588
_cell_angle_beta 41.271717
_cell_angle_gamma 28.595612
_cell_volume 586.403535
_symmetry_space_group_name_H-M "P -1"
_symmetry_group_IT_number 2
_symmetry_cell_setting 'triclinic'
loop_
_space_group_symop_operation_xyz
x,y,z
-x,-y,-z
loop_
_atom_site_type_symbol
_atom_site_label
_atom_site_fract_x
_atom_site_fract_y
_atom_site_fract_z
Si Si1 0.618466 0.822212 0.238137
Si Si2 0.303012 0.896767 0.461207
Si Si3 0.729019 0.225179 0.009158
Si Si4 0.525631 0.333125 0.266659
Si Si5 0.999186 0.590469 0.128643
Si Si6 0.243293 0.345032 0.455189
Si Si7 0.500000 0.500000 0.500000
Si Si8 0.034461 0.637917 0.852903
O O1 0.729151 0.803795 0.145323
O O2 0.774505 0.469922 0.407120
O O3 0.284078 0.982378 0.263596
O O4 0.617294 0.052707 0.147601
O O5 0.483884 0.759088 0.540465
O O6 0.489362 0.629577 0.498160
O O7 0.000000 0.000000 0.500000
O O8 0.223260 0.224245 0.287360
O O9 0.515602 0.544229 0.857431
O O10 0.839913 0.289623 0.991479
O O11 0.000000 0.000000 0.000000
O O12 0.233682 0.511348 0.303201
O O13 0.716339 0.376960 0.210355
O O14 0.687316 0.964266 0.416164
O O15 0.908450 0.566398 0.107933
O O16 0.000000 0.500000 0.500000
O O17 0.000000 0.500000 0.000000
#
# Coordination Sequence:
#
# PCOD9045105 Si02
#       8
#     2   2   2   2   2   2   1   2
#     4  11  25  45  71 109 145 190 244 304 368 431
#     4  12  24  44  73 108 144 191 249 306 366 436
#     4  10  23  49  72 103 145 196 245 305 362 435
#     4  11  25  49  73 103 155 188 246 306 370 443
#     4  11  24  46  75 103 143 196 248 302 365 434
#     4  11  28  46  73 110 148 200 242 304 383 442
#     4  12  26  40  72 108 142 182 256 306 358 438
#     4  12  26  47  72 107 146 192 239 306 369 444
#
# _framework density 25.579656
#
# number of rings (size 3 to 8) (size 9 to 14) (size 15 to 20)
#    0.000    0.800    5.333    0.800    1.867    4.267 
#    7.200    0.000    0.000    0.000    0.000    0.000 
#    0.000    0.000    0.000    0.000    0.000    0.000 
#
# Total GULP energy -83723.994083 kJ/mol
# GULP energy per Si atom -5581.599606 kJ/mol
# Density = 2.552144 g / cm^3
# Si number density = 25.579656 Si / 1000 Ang^3
#
#
#
# Elastic Constant Matrix: (Units=GPa)
#
#
# Indices 1 2 3 4 5 6 
#
# 1 149.9288 40.5241 51.7776 8.0515 -36.5676 29.1895
# 2 40.5241 119.4710 31.7418 23.8465 -19.8053 18.7306
# 3 51.7776 31.7418 112.2113 18.3765 -40.9768 11.5578
# 4 8.0515 23.8465 18.3765 45.2055 4.4622 -7.5587
# 5 -36.5676 -19.8053 -40.9768 4.4622 52.8362 -3.9567
# 6 29.1895 18.7306 11.5578 -7.5587 -3.9567 47.6658
#
#
#
# Elastic Compliance Matrix: (Units=1/GPa)
#
#
# Indices 1 2 3 4 5 6 
#
# 1 0.009784 -0.000857 -0.001583 -0.002006 0.005004 -0.005173
# 2 -0.000857 0.011490 0.000413 -0.007318 0.004285 -0.004895
# 3 -0.001583 0.000413 0.015261 -0.007790 0.011314 -0.003189
# 4 -0.002006 -0.007318 -0.007790 0.032397 -0.012150 0.010121
# 5 0.005004 0.004285 0.011314 -0.012150 0.033298 -0.006654
# 6 -0.005173 -0.004895 -0.003189 0.010121 -0.006654 0.027897
#
#
# Mechanical properties :
#
#
# Convention : Reuss Voigt Hill
#
# Bulk Modulus (GPa) = 30.78877 69.96645 50.37761
# Shear Modulus (GPa) = 34.48083 46.31267 40.39675
#
# Velocity S-wave (km/s) = 3.67547 4.25965 3.97829
# Velocity P-wave (km/s) = 5.48403 7.18363 6.39059
#
# Compressibility (1/GPa) = 0.03247937
#
# Stress axis : x y z
#
# Youngs Moduli (GPa) = 102.21139 87.03494 65.52528
#
# Poissons Ratio (x) = 0.07458 0.10375
# Poissons Ratio (y) = 0.08759 -0.02704
# Poissons Ratio (z) = 0.16184 -0.03592
#
# Static dielectric constant tensor:
#      x y z
#    x 2.114420 0.005150 -0.112250 
#    y 0.005150 2.026380 0.192860 
#    z -0.112250 0.192860 1.823150 
# 
# From -- ./inp_files/589355.got.cif
#   From: 2010.05.17/outbox.cif.g08.bks.cpg/sg2_295_cif.got.tgz:589355.got - 2010.06.03 11:33:40.
