data_PCOD9045028
_publ_section_title
;
Structure prediction by ZEFSAII (Michael W. Deem and Ramdas Pophale) SiO2 
 PCOD9045028
Probable space group: P -1
;
_chemical_formula_sum "Si O2"
_cell_formula_units_Z 15
_cell_length_a 10.759706
_cell_length_b 9.315650
_cell_length_c 8.752852
_cell_angle_alpha 46.607001
_cell_angle_beta 78.668882
_cell_angle_gamma 76.644144
_cell_volume 619.391022
_symmetry_space_group_name_H-M "P -1"
_symmetry_group_IT_number 2
_symmetry_cell_setting 'triclinic'
loop_
_space_group_symop_operation_xyz
x,y,z
-x,-y,-z
loop_
_atom_site_type_symbol
_atom_site_label
_atom_site_fract_x
_atom_site_fract_y
_atom_site_fract_z
Si Si1 0.773451 0.219604 0.284504
Si Si2 0.049703 0.131963 0.174328
Si Si3 0.736021 0.847061 0.394459
Si Si4 0.580616 0.519639 0.617019
Si Si5 0.261086 0.334213 0.157825
Si Si6 0.930276 0.637987 0.283856
Si Si7 0.500000 0.500000 0.000000
Si Si8 0.208645 0.719522 0.436852
O O1 0.723296 0.217046 0.471456
O O2 0.926163 0.150714 0.299260
O O3 0.712174 0.067314 0.303835
O O4 0.748636 0.433947 0.056310
O O5 0.170587 0.224967 0.148999
O O6 0.102183 0.904167 0.289121
O O7 0.002287 0.262149 0.941897
O O8 0.620376 0.740470 0.441955
O O9 0.787888 0.712564 0.627489
O O10 0.840349 0.815274 0.259823
O O11 0.500000 0.500000 0.500000
O O12 0.523673 0.487168 0.818848
O O13 0.705563 0.356674 0.672244
O O14 0.414845 0.301287 0.156163
O O15 0.847174 0.478235 0.347813
O O16 0.000000 0.500000 0.500000
#
# Coordination Sequence:
#
# PCOD9045028 Si02
#       8
#     2   2   2   2   2   2   1   2
#     4  12  23  41  72 103 141 189 233 289 358 433
#     4  12  25  40  71 102 144 189 235 286 355 434
#     4  10  24  41  66  99 138 173 236 292 350 422
#     4  10  23  48  74 102 140 190 240 301 361 424
#     4  11  23  44  69 101 133 186 239 289 356 413
#     4  11  24  40  61  96 142 186 229 290 350 421
#     4  10  24  46  76  94 140 178 244 302 348 418
#     4  11  24  42  69 103 139 184 240 292 356 428
#
# _framework density 24.217333
#
# number of rings (size 3 to 8) (size 9 to 14) (size 15 to 20)
#    0.000    1.067    2.667    3.200    3.733    5.333 
#    2.400    2.667    0.000    0.000    0.000    0.000 
#    0.000    0.000    0.000    0.000    0.000    0.000 
#
# Total GULP energy -83575.207798 kJ/mol
# GULP energy per Si atom -5571.680520 kJ/mol
# Density = 2.416221 g / cm^3
# Si number density = 24.217333 Si / 1000 Ang^3
#
#
#
# Elastic Constant Matrix: (Units=GPa)
#
#
# Indices 1 2 3 4 5 6 
#
# 1 48.5016 51.4520 20.9894 6.3160 -9.2526 20.1987
# 2 51.4520 115.4454 44.4812 -4.2567 -18.1907 14.2291
# 3 20.9894 44.4812 97.1014 15.1273 2.0158 -4.2377
# 4 6.3160 -4.2567 15.1273 47.9748 -7.3590 -4.1060
# 5 -9.2526 -18.1907 2.0158 -7.3590 35.0348 -0.6781
# 6 20.1987 14.2291 -4.2377 -4.1060 -0.6781 42.2730
#
#
#
# Elastic Compliance Matrix: (Units=1/GPa)
#
#
# Indices 1 2 3 4 5 6 
#
# 1 0.052832 -0.021036 -0.001073 -0.010036 0.000612 -0.019236
# 2 -0.021036 0.021862 -0.006803 0.008333 0.007995 0.002948
# 3 -0.001073 -0.006803 0.014816 -0.005712 -0.005797 0.003640
# 4 -0.010036 0.008333 -0.005712 0.026220 0.007591 0.004086
# 5 0.000612 0.007995 -0.005797 0.007591 0.034740 -0.002270
# 6 -0.019236 0.002948 0.003640 0.004086 -0.002270 0.032580
#
#
# Mechanical properties :
#
#
# Convention : Reuss Voigt Hill
#
# Bulk Modulus (GPa) = 31.55874 54.98817 43.27345
# Shear Modulus (GPa) = 19.88577 34.66491 27.27534
#
# Velocity S-wave (km/s) = 2.86866 3.78750 3.35964
# Velocity P-wave (km/s) = 4.90225 6.47165 5.74083
#
# Compressibility (1/GPa) = 0.03168694
#
# Stress axis : x y z
#
# Youngs Moduli (GPa) = 18.92796 45.74073 67.49469
#
# Poissons Ratio (x) = 0.96219 0.07239
# Poissons Ratio (y) = 0.39816 0.45919
# Poissons Ratio (z) = 0.02030 0.31119
#
# Static dielectric constant tensor:
#      x y z
#    x 2.040450 0.132410 0.059690 
#    y 0.132410 1.895480 -0.011800 
#    z 0.059690 -0.011800 1.873130 
# 
# From -- ./inp_files/179788.got.cif
#   From: 2010.05.17/outbox.cif.g08.bks.cpg/sg2_90_cif.got.tgz:179788.got - 2010.06.03 11:33:40.
