data_PCOD9045185
_publ_section_title
;
Structure prediction by ZEFSAII (Michael W. Deem and Ramdas Pophale) SiO2 
 PCOD9045185
Probable space group: P -1
;
_chemical_formula_sum "Si O2"
_cell_formula_units_Z 10
_cell_length_a 9.344740
_cell_length_b 9.046876
_cell_length_c 8.061680
_cell_angle_alpha 64.339793
_cell_angle_beta 133.293667
_cell_angle_gamma 83.058629
_cell_volume 344.744709
_symmetry_space_group_name_H-M "P -1"
_symmetry_group_IT_number 2
_symmetry_cell_setting 'triclinic'
loop_
_space_group_symop_operation_xyz
x,y,z
-x,-y,-z
loop_
_atom_site_type_symbol
_atom_site_label
_atom_site_fract_x
_atom_site_fract_y
_atom_site_fract_z
Si Si1 0.842364 0.661512 0.035886
Si Si2 0.275605 0.575578 0.160969
Si Si3 0.764791 0.766440 0.289024
Si Si4 0.251796 0.737403 0.726876
Si Si5 0.173917 0.025104 0.239168
O O1 0.763901 0.667279 0.165744
O O2 0.008204 0.719534 0.978925
O O3 0.130473 0.418881 0.400631
O O4 0.688074 0.924271 0.796092
O O5 0.500000 0.500000 0.500000
O O6 0.303012 0.390792 0.176304
O O7 0.256081 0.731904 0.933356
O O8 0.989485 0.783052 0.452587
O O9 0.500000 0.000000 0.000000
O O10 0.248151 0.895539 0.526933
O O11 0.500000 0.500000 0.000000
O O12 0.000000 0.000000 0.000000
#
# Coordination Sequence:
#
# PCOD9045185 Si02
#       5
#     2   2   2   2   2
#     4  10  24  51  83 122 168 218 280 351 413 506
#     4  11  26  50  77 118 167 222 276 344 416 502
#     4  10  23  51  87 124 167 223 278 343 427 505
#     4  11  25  52  81 121 167 216 278 353 418 496
#     4  12  24  49  80 122 164 216 279 348 424 495
#
# _framework density 29.006972999999999
#
# number of rings (size 3 to 8) (size 9 to 14) (size 15 to 20)
#    0.000    1.200    2.000    2.400    0.000    1.600 
#   39.600   10.000    0.000    0.000    0.000    0.000 
#    0.000    0.000    0.000    0.000    0.000    0.000 
#
# Total GULP energy -55878.378225 kJ/mol
# GULP energy per Si atom -5587.837823 kJ/mol
# Density = 2.894095 g / cm^3
# Si number density = 29.006973 Si / 1000 Ang^3
#
#
#
# Elastic Constant Matrix: (Units=GPa)
#
#
# Indices 1 2 3 4 5 6 
#
# 1 105.7846 33.7980 82.4344 -12.7837 -28.7094 33.7413
# 2 33.7980 179.6419 86.7120 17.6707 -16.4287 19.0025
# 3 82.4344 86.7120 239.6079 -9.3063 -31.2169 31.3254
# 4 -12.7837 17.6707 -9.3063 85.5010 3.1438 0.5295
# 5 -28.7094 -16.4287 -31.2169 3.1438 88.7679 -26.5172
# 6 33.7413 19.0025 31.3254 0.5295 -26.5172 65.8686
#
#
#
# Elastic Compliance Matrix: (Units=1/GPa)
#
#
# Indices 1 2 3 4 5 6 
#
# 1 0.015050 -0.000345 -0.004098 0.001839 0.001821 -0.004943
# 2 -0.000345 0.007045 -0.002390 -0.001772 0.000232 -0.000612
# 3 -0.004098 -0.002390 0.006551 0.000578 0.000474 -0.000141
# 4 0.001839 -0.001772 0.000578 0.012414 -0.000239 -0.000901
# 5 0.001821 0.000232 0.000474 -0.000239 0.013307 0.004134
# 6 -0.004943 -0.000612 -0.000141 -0.000901 0.004134 0.019629
#
#
# Mechanical properties :
#
#
# Convention : Reuss Voigt Hill
#
# Bulk Modulus (GPa) = 66.75327 103.43593 85.09460
# Shear Modulus (GPa) = 53.96403 69.50017 61.73210
#
# Velocity S-wave (km/s) = 4.31789 4.90019 4.61823
# Velocity P-wave (km/s) = 6.92255 8.23117 7.60506
#
# Compressibility (1/GPa) = 0.01498054
#
# Stress axis : x y z
#
# Youngs Moduli (GPa) = 66.44630 141.93980 152.65632
#
# Poissons Ratio (x) = 0.04896 0.62559
# Poissons Ratio (y) = 0.02292 0.36478
# Poissons Ratio (z) = 0.27230 0.33918
#
# Static dielectric constant tensor:
#      x y z
#    x 5.850890 0.736100 0.683330 
#    y 0.736100 2.345890 0.144060 
#    z 0.683330 0.144060 2.729050 
# 
# From -- ./inp_files/146631.got.cif
#   From: 2010.05.17/outbox.cif.g08.bks.cpg/sg2_74_cif.got.tgz:146631.got - 2010.06.03 11:33:40.
