data_PCOD9045114
_publ_section_title
;
Structure prediction by ZEFSAII (Michael W. Deem and Ramdas Pophale) SiO2 
 PCOD9045114
Probable space group: P -1
;
_chemical_formula_sum "Si O2"
_cell_formula_units_Z 14
_cell_length_a 11.532977
_cell_length_b 12.910659
_cell_length_c 9.768718
_cell_angle_alpha 81.048531
_cell_angle_beta 89.057891
_cell_angle_gamma 23.016508
_cell_volume 530.673064
_symmetry_space_group_name_H-M "P -1"
_symmetry_group_IT_number 2
_symmetry_cell_setting 'triclinic'
loop_
_space_group_symop_operation_xyz
x,y,z
-x,-y,-z
loop_
_atom_site_type_symbol
_atom_site_label
_atom_site_fract_x
_atom_site_fract_y
_atom_site_fract_z
Si Si1 0.784313 0.428812 0.874498
Si Si2 0.215357 0.894977 0.929221
Si Si3 0.095466 0.325040 0.366729
Si Si4 0.863143 0.025050 0.593398
Si Si5 0.218457 0.214543 0.070015
Si Si6 0.588567 0.603567 0.244008
Si Si7 0.458797 0.209499 0.397950
O O1 0.628066 0.664183 0.768195
O O2 0.463762 0.634828 0.875014
O O3 0.032970 0.266086 0.012682
O O4 0.993930 0.176414 0.827856
O O5 0.464508 0.727584 0.070187
O O6 0.000000 0.000000 0.000000
O O7 0.260860 0.171361 0.243808
O O8 0.154293 0.394786 0.393512
O O9 0.743119 0.581590 0.299105
O O10 0.264717 0.106288 0.516736
O O11 0.700809 0.195690 0.701812
O O12 0.576139 0.208751 0.483974
O O13 0.000000 0.000000 0.500000
O O14 0.132864 0.714611 0.685510
O O15 0.000000 0.500000 0.000000
O O16 0.500000 0.000000 0.000000
#
# Coordination Sequence:
#
# PCOD9045114 Si02
#       7
#     2   2   2   2   2   2   2
#     4  12  26  47  72 108 144 188 251 299 372 435
#     4  12  28  46  76 103 145 191 249 312 367 434
#     4  10  23  49  73 105 154 189 245 292 368 440
#     4  11  26  46  73 101 144 186 244 298 361 434
#     4  12  25  45  72 107 143 192 238 296 363 440
#     4  11  25  47  72 104 137 195 238 296 367 427
#     4  10  25  45  72 109 144 194 236 303 358 431
#
# _framework density 26.381592999999999
#
# number of rings (size 3 to 8) (size 9 to 14) (size 15 to 20)
#    0.000    0.857    2.857    2.571    6.000    2.857 
#    2.571    0.000    0.000    0.000    0.000    0.000 
#    0.000    0.000    0.000    0.000    0.000    0.000 
#
# Total GULP energy -78275.843307 kJ/mol
# GULP energy per Si atom -5591.131665 kJ/mol
# Density = 2.632155 g / cm^3
# Si number density = 26.381593 Si / 1000 Ang^3
#
#
#
# Elastic Constant Matrix: (Units=GPa)
#
#
# Indices 1 2 3 4 5 6 
#
# 1 95.9349 23.0743 12.5556 -3.8624 1.9726 -22.0012
# 2 23.0743 198.0164 22.5941 -0.5178 -13.3619 -15.7358
# 3 12.5556 22.5941 80.3047 -7.8386 -9.6683 7.8278
# 4 -3.8624 -0.5178 -7.8386 25.7594 0.8096 -11.2571
# 5 1.9726 -13.3619 -9.6683 0.8096 44.5946 -1.8706
# 6 -22.0012 -15.7358 7.8278 -11.2571 -1.8706 44.3232
#
#
#
# Elastic Compliance Matrix: (Units=1/GPa)
#
#
# Indices 1 2 3 4 5 6 
#
# 1 0.012843 -0.000691 -0.002233 0.004608 -0.001022 0.007652
# 2 -0.000691 0.005558 -0.001439 0.000422 0.001462 0.002053
# 3 -0.002233 -0.001439 0.014073 0.002353 0.002533 -0.003400
# 4 0.004608 0.000422 0.002353 0.046251 0.000171 0.013776
# 5 -0.001022 0.001462 0.002533 0.000171 0.023479 0.000599
# 6 0.007652 0.002053 -0.003400 0.013776 0.000599 0.031213
#
#
# Mechanical properties :
#
#
# Convention : Reuss Voigt Hill
#
# Bulk Modulus (GPa) = 42.10619 54.52265 48.31442
# Shear Modulus (GPa) = 33.32064 44.00424 38.66244
#
# Velocity S-wave (km/s) = 3.55776 4.08853 3.83235
# Velocity P-wave (km/s) = 5.73341 6.55743 6.15922
#
# Compressibility (1/GPa) = 0.02374948
#
# Stress axis : x y z
#
# Youngs Moduli (GPa) = 77.86090 179.93201 71.06041
#
# Poissons Ratio (x) = 0.12428 0.15866
# Poissons Ratio (y) = 0.05378 0.10223
# Poissons Ratio (z) = 0.17385 0.25885
#
# Static dielectric constant tensor:
#      x y z
#    x 2.095400 -0.026760 0.055680 
#    y -0.026760 2.124220 0.110930 
#    z 0.055680 0.110930 2.125620 
# 
# From -- ./inp_files/433893.got.cif
#   From: 2010.05.17/outbox.cif.g08.bks.cpg/sg2_217_cif.got.tgz:433893.got - 2010.06.03 11:33:40.
