data_PCOD9045278
_publ_section_title
;
Structure prediction by ZEFSAII (Michael W. Deem and Ramdas Pophale) SiO2 
 PCOD9045278
Probable space group: P -1
;
_chemical_formula_sum "Si O2"
_cell_formula_units_Z 14
_cell_length_a 5.129548
_cell_length_b 12.592551
_cell_length_c 11.888387
_cell_angle_alpha 73.379536
_cell_angle_beta 71.768746
_cell_angle_gamma 45.877061
_cell_volume 520.949765
_symmetry_space_group_name_H-M "P -1"
_symmetry_group_IT_number 2
_symmetry_cell_setting 'triclinic'
loop_
_space_group_symop_operation_xyz
x,y,z
-x,-y,-z
loop_
_atom_site_type_symbol
_atom_site_label
_atom_site_fract_x
_atom_site_fract_y
_atom_site_fract_z
Si Si1 0.836746 0.600458 0.627314
Si Si2 0.598972 0.194739 0.167655
Si Si3 0.287147 0.867341 0.259971
Si Si4 0.427999 0.417417 0.956336
Si Si5 0.365974 0.594638 0.325106
Si Si6 0.435515 0.906879 0.461482
Si Si7 0.435444 0.894811 0.000032
O O1 0.614693 0.677488 0.750653
O O2 0.809392 0.481436 0.624428
O O3 0.655145 0.745002 0.533160
O O4 0.253985 0.516753 0.624918
O O5 0.668110 0.258976 0.034228
O O6 0.360773 0.174304 0.127208
O O7 0.917071 0.036749 0.230720
O O8 0.213816 0.757964 0.334562
O O9 0.493785 0.878722 0.327012
O O10 0.516226 0.804315 0.130587
O O11 0.547512 0.412002 0.816383
O O12 0.500000 0.500000 0.000000
O O13 0.000000 0.500000 0.000000
O O14 0.500000 0.000000 0.500000
O O15 0.000000 0.000000 0.500000
O O16 0.500000 0.000000 0.000000
O O17 0.000000 0.000000 0.000000
#
# Coordination Sequence:
#
# PCOD9045278 Si02
#       7
#     2   2   2   2   2   2   2
#     4  12  27  47  76 105 147 196 245 297 361 442
#     4  11  23  45  74 106 145 190 247 289 363 435
#     4  11  27  48  75 109 150 193 245 311 366 431
#     4  12  23  41  68 105 146 192 233 290 361 440
#     4  12  26  47  70 110 149 190 240 301 374 433
#     4  12  28  50  79 109 140 192 257 308 361 430
#     4  10  24  39  64 105 144 179 227 295 362 417
#
# _framework density 26.873992000000001
#
# number of rings (size 3 to 8) (size 9 to 14) (size 15 to 20)
#    0.000    0.571    5.714    0.857    2.000    8.000 
#    0.000    0.000    0.000    0.000    0.000    0.000 
#    0.000    0.000    0.000    0.000    0.000    0.000 
#
# Total GULP energy -78354.230696 kJ/mol
# GULP energy per Si atom -5596.730764 kJ/mol
# Density = 2.681283 g / cm^3
# Si number density = 26.873992 Si / 1000 Ang^3
#
#
#
# Elastic Constant Matrix: (Units=GPa)
#
#
# Indices 1 2 3 4 5 6 
#
# 1 176.5589 75.6549 44.0694 -9.4437 31.0708 31.9056
# 2 75.6549 212.4763 63.5587 -14.4531 14.9941 21.0159
# 3 44.0694 63.5587 185.2528 -3.2925 32.4831 13.8521
# 4 -9.4437 -14.4531 -3.2925 59.4843 11.2098 4.1194
# 5 31.0708 14.9941 32.4831 11.2098 47.6987 2.2876
# 6 31.9056 21.0159 13.8521 4.1194 2.2876 46.4159
#
#
#
# Elastic Compliance Matrix: (Units=1/GPa)
#
#
# Indices 1 2 3 4 5 6 
#
# 1 0.008410 -0.002008 -0.000019 0.002142 -0.005107 -0.004805
# 2 -0.002008 0.006038 -0.001545 0.001084 0.000255 -0.001002
# 3 -0.000019 -0.001545 0.006786 0.000885 -0.004275 -0.001181
# 4 0.002142 0.001084 0.000885 0.018960 -0.006622 -0.003583
# 5 -0.005107 0.000255 -0.004275 -0.006622 0.028494 0.003855
# 6 -0.004805 -0.001002 -0.001181 -0.003583 0.003855 0.025781
#
#
# Mechanical properties :
#
#
# Convention : Reuss Voigt Hill
#
# Bulk Modulus (GPa) = 70.96117 104.53933 87.75025
# Shear Modulus (GPa) = 47.03246 56.78678 51.90962
#
# Velocity S-wave (km/s) = 4.18797 4.60181 4.39976
# Velocity P-wave (km/s) = 7.06031 8.19877 7.65074
#
# Compressibility (1/GPa) = 0.01409221
#
# Stress axis : x y z
#
# Youngs Moduli (GPa) = 118.89935 165.61448 147.36181
#
# Poissons Ratio (x) = 0.33249 0.00281
# Poissons Ratio (y) = 0.23870 0.22761
# Poissons Ratio (z) = 0.00227 0.25580
#
# Static dielectric constant tensor:
#      x y z
#    x 1.705240 -0.570240 -0.311930 
#    y -0.570240 1.578220 -0.104890 
#    z -0.311930 -0.104890 2.148070 
# 
# From -- ./inp_files/364283.got.cif
#   From: 2010.05.17/outbox.cif.g08.bks.cpg/sg2_183_cif.got.tgz:364283.got - 2010.06.03 11:33:40.
