data_PCOD9045157
_publ_section_title
;
Structure prediction by ZEFSAII (Michael W. Deem and Ramdas Pophale) SiO2 
 PCOD9045157
Probable space group: P -1
;
_chemical_formula_sum "Si O2"
_cell_formula_units_Z 12
_cell_length_a 10.445765
_cell_length_b 9.643565
_cell_length_c 5.120587
_cell_angle_alpha 68.193043
_cell_angle_beta 98.603055
_cell_angle_gamma 67.719736
_cell_volume 417.062744
_symmetry_space_group_name_H-M "P -1"
_symmetry_group_IT_number 2
_symmetry_cell_setting 'triclinic'
loop_
_space_group_symop_operation_xyz
x,y,z
-x,-y,-z
loop_
_atom_site_type_symbol
_atom_site_label
_atom_site_fract_x
_atom_site_fract_y
_atom_site_fract_z
Si Si1 0.903627 0.843903 0.961111
Si Si2 0.617763 0.501555 0.241647
Si Si3 0.221088 0.781032 0.099586
Si Si4 0.834632 0.581977 0.998695
Si Si5 0.573801 0.809813 0.360457
Si Si6 0.678678 0.053378 0.371312
O O1 0.840248 0.026311 0.948764
O O2 0.836322 0.901624 0.612023
O O3 0.839683 0.718419 0.109924
O O4 0.077831 0.756235 0.073634
O O5 0.658431 0.368391 0.583878
O O6 0.775018 0.464339 0.192201
O O7 0.433603 0.308369 0.789108
O O8 0.500000 0.500000 0.000000
O O9 0.282400 0.806715 0.826506
O O10 0.709896 0.679997 0.675190
O O11 0.000000 0.500000 0.000000
O O12 0.432418 0.881255 0.462067
O O13 0.608865 0.966778 0.221563
#
# Coordination Sequence:
#
# PCOD9045157 Si02
#       6
#     2   2   2   2   2   2
#     4  10  24  47  80 120 159 213 272 339 415 495
#     4  12  30  54  80 119 171 217 278 339 411 491
#     4  11  25  47  81 123 168 213 272 343 416 488
#     4  11  26  52  80 113 162 218 275 335 413 499
#     4  10  25  51  84 116 162 219 273 339 414 498
#     4  10  23  49  84 123 161 208 277 345 416 490
#
# _framework density 28.772652000000001
#
# number of rings (size 3 to 8) (size 9 to 14) (size 15 to 20)
#    0.000    1.333    0.000    2.500    2.333   13.333 
#    6.000    7.500    3.667    0.000    0.000    0.000 
#    0.000    0.000    0.000    0.000    0.000    0.000 
#
# Total GULP energy -67290.215003 kJ/mol
# GULP energy per Si atom -5607.517917 kJ/mol
# Density = 2.870716 g / cm^3
# Si number density = 28.772652 Si / 1000 Ang^3
#
#
#
# Elastic Constant Matrix: (Units=GPa)
#
#
# Indices 1 2 3 4 5 6 
#
# 1 257.0209 70.7411 78.2803 -5.3745 7.1416 30.2482
# 2 70.7411 177.7233 21.4008 7.1440 -0.9913 15.3453
# 3 78.2803 21.4008 108.5854 -16.7145 -4.1978 2.6400
# 4 -5.3745 7.1440 -16.7145 46.9285 10.7097 7.7533
# 5 7.1416 -0.9913 -4.1978 10.7097 68.1626 -13.9145
# 6 30.2482 15.3453 2.6400 7.7533 -13.9145 67.6101
#
#
#
# Elastic Compliance Matrix: (Units=1/GPa)
#
#
# Indices 1 2 3 4 5 6 
#
# 1 0.005850 -0.001677 -0.003840 0.000277 -0.001409 -0.002409
# 2 -0.001677 0.006415 -0.000222 -0.001249 0.000353 -0.000481
# 3 -0.003840 -0.000222 0.012603 0.003734 0.000795 0.001012
# 4 0.000277 -0.001249 0.003734 0.024481 -0.004420 -0.003703
# 5 -0.001409 0.000353 0.000795 -0.004420 0.016468 0.004415
# 6 -0.002409 -0.000481 0.001012 -0.003703 0.004415 0.017271
#
#
# Mechanical properties :
#
#
# Convention : Reuss Voigt Hill
#
# Bulk Modulus (GPa) = 74.69078 98.24155 86.46617
# Shear Modulus (GPa) = 50.48946 61.40074 55.94510
#
# Velocity S-wave (km/s) = 4.19355 4.62453 4.41430
# Velocity P-wave (km/s) = 7.03300 7.92043 7.48987
#
# Compressibility (1/GPa) = 0.01338853
#
# Stress axis : x y z
#
# Youngs Moduli (GPa) = 170.92763 155.88984 79.34919
#
# Poissons Ratio (x) = 0.26147 0.30473
# Poissons Ratio (y) = 0.28670 0.01761
# Poissons Ratio (z) = 0.65642 0.03460
#
# Static dielectric constant tensor:
#      x y z
#    x 2.137620 -0.009140 -0.010360 
#    y -0.009140 2.413590 0.083440 
#    z -0.010360 0.083440 2.246570 
# 
# From -- ./inp_files/26210.got.cif
#   From: 2010.05.17/outbox.cif.g08.bks.cpg/sg2_14_cif.got.tgz:26210.got - 2010.06.03 11:33:40.
