data_PCOD9045335
_publ_section_title
;
Structure prediction by ZEFSAII (Michael W. Deem and Ramdas Pophale) SiO2 
 PCOD9045335
Probable space group: P -1
;
_chemical_formula_sum "Si O2"
_cell_formula_units_Z 11
_cell_length_a 10.940043
_cell_length_b 11.167173
_cell_length_c 10.091713
_cell_angle_alpha 127.303964
_cell_angle_beta 130.037910
_cell_angle_gamma 25.967829
_cell_volume 411.902368
_symmetry_space_group_name_H-M "P -1"
_symmetry_group_IT_number 2
_symmetry_cell_setting 'triclinic'
loop_
_space_group_symop_operation_xyz
x,y,z
-x,-y,-z
loop_
_atom_site_type_symbol
_atom_site_label
_atom_site_fract_x
_atom_site_fract_y
_atom_site_fract_z
Si Si1 0.751863 0.255520 0.170120
Si Si2 0.332640 0.419392 0.356163
Si Si3 0.687554 0.880586 0.772660
Si Si4 0.278970 0.395942 0.012369
Si Si5 0.354724 0.817135 0.237235
Si Si6 0.000000 0.000000 0.500000
O O1 0.525797 0.332182 0.141707
O O2 0.651656 0.505707 0.276560
O O3 0.713664 0.220128 0.972335
O O4 0.088843 0.979725 0.256192
O O5 0.321915 0.290020 0.365976
O O6 0.226391 0.418714 0.146057
O O7 0.664133 0.207581 0.429743
O O8 0.127711 0.724820 0.431458
O O9 0.657834 0.003152 0.701397
O O10 0.998554 0.672320 0.919824
O O11 0.432307 0.139353 0.867402
#
# Coordination Sequence:
#
# PCOD9045335 Si02
#       6
#     2   2   2   2   2   1
#     4   9  16  27  43  70 108 141 163 185 235 312
#     4  11  22  39  54  77 100 133 178 214 258 305
#     4  11  20  31  53  82 111 134 158 209 265 308
#     4  11  20  31  53  82 111 134 158 209 265 308
#     4   9  16  27  43  70 108 141 163 185 235 312
#     4  10  24  40  56  68  96 142 184 216 244 296
#
# _framework density 26.705356999999999
#
# number of rings (size 3 to 8) (size 9 to 14) (size 15 to 20)
#    0.000    1.818    0.000    8.727    0.000    0.000 
#    0.000    0.000    0.000    0.000    0.000   25.455 
#    0.000    0.000    0.000    0.000    0.000    0.000 
#
# Total GULP energy -61360.769164 kJ/mol
# GULP energy per Si atom -5578.251742 kJ/mol
# Density = 2.664457 g / cm^3
# Si number density = 26.705357 Si / 1000 Ang^3
#
#
#
# Elastic Constant Matrix: (Units=GPa)
#
#
# Indices 1 2 3 4 5 6 
#
# 1 62.6096 34.9526 28.8246 6.1401 58.4227 20.4560
# 2 34.9526 201.0851 29.7537 29.4584 12.1009 14.7758
# 3 28.8246 29.7537 102.5609 8.7666 7.6960 10.5353
# 4 6.1401 29.4584 8.7666 19.8764 27.7829 8.5443
# 5 58.4227 12.1009 7.6960 27.7829 25.9966 16.0777
# 6 20.4560 14.7758 10.5353 8.5443 16.0777 42.4202
#
#
#
# Elastic Compliance Matrix: (Units=1/GPa)
#
#
# Indices 1 2 3 4 5 6 
#
# 1 0.005154 0.001975 -0.000760 -0.022850 0.014553 -0.003898
# 2 0.001975 0.005428 -0.001606 -0.001858 -0.004210 -0.000474
# 3 -0.000760 -0.001606 0.010521 0.003150 -0.003383 -0.001039
# 4 -0.022850 -0.001858 0.003150 0.029214 0.022165 -0.003402
# 5 0.014553 -0.004210 -0.003383 0.022165 -0.012135 -0.004576
# 6 -0.003898 -0.000474 -0.001039 -0.003402 -0.004576 0.028296
#
#
# Mechanical properties :
#
#
# Convention : Reuss Voigt Hill
#
# Bulk Modulus (GPa) = 49.21223 61.47968 55.34595
# Shear Modulus (GPa) = 67.53602 35.84029 51.68816
#
# Velocity S-wave (km/s) = 5.03430 3.66739 4.40420
# Velocity P-wave (km/s) = 7.22912 6.40347 6.82879
#
# Compressibility (1/GPa) = 0.02032015
#
# Stress axis : x y z
#
# Youngs Moduli (GPa) = 194.01421 184.23595 95.04600
#
# Poissons Ratio (x) = -0.36379 0.07223
# Poissons Ratio (y) = -0.38310 0.15266
# Poissons Ratio (z) = 0.14744 0.29592
#
# Static dielectric constant tensor:
#      x y z
#    x 2.202950 0.032860 -0.176140 
#    y 0.032860 2.001940 -0.063630 
#    z -0.176140 -0.063630 2.115590 
# 
# From -- ./inp_files/197725.got.cif
#   From: 2010.05.17/outbox.cif.g08.bks.cpg/sg2_99_cif.got.tgz:197725.got - 2010.06.03 11:33:40.
