data_PCOD9045654
_publ_section_title
;
Structure prediction by ZEFSAII (Michael W. Deem and Ramdas Pophale) SiO2 
 PCOD9045654
Probable space group: P -1
;
_chemical_formula_sum "Si O2"
_cell_formula_units_Z 15
_cell_length_a 5.277429
_cell_length_b 5.124127
_cell_length_c 23.848038
_cell_angle_alpha 72.987616
_cell_angle_beta 63.944451
_cell_angle_gamma 86.757162
_cell_volume 552.063099
_symmetry_space_group_name_H-M "P -1"
_symmetry_group_IT_number 2
_symmetry_cell_setting 'triclinic'
loop_
_space_group_symop_operation_xyz
x,y,z
-x,-y,-z
loop_
_atom_site_type_symbol
_atom_site_label
_atom_site_fract_x
_atom_site_fract_y
_atom_site_fract_z
Si Si1 0.741102 0.163860 0.082687
Si Si2 0.392998 0.563796 0.444255
Si Si3 0.774610 0.065613 0.782841
Si Si4 0.762183 0.223789 0.958388
Si Si5 0.000000 0.000000 0.500000
Si Si6 0.153852 0.567339 0.676755
Si Si7 0.080424 0.582822 0.832860
Si Si8 0.577879 0.773847 0.710606
O O1 0.456104 0.004305 0.142860
O O2 0.852006 0.330985 0.115198
O O3 0.730236 0.346108 0.016370
O O4 0.955243 0.936278 0.063459
O O5 0.500000 0.500000 0.500000
O O6 0.665065 0.587476 0.375761
O O7 0.225926 0.832572 0.450369
O O8 0.204051 0.291273 0.460438
O O9 0.636383 0.010315 0.737500
O O10 0.986194 0.832465 0.789799
O O11 0.974488 0.344828 0.747103
O O12 0.796841 0.392879 0.886882
O O13 0.500000 0.000000 0.000000
O O14 0.378346 0.766120 0.676416
O O15 0.895236 0.714695 0.665917
O O16 0.389169 0.534187 0.780128
#
# Coordination Sequence:
#
# PCOD9045654 Si02
#       8
#     2   2   2   2   1   2   2   2
#     4  10  24  41  65  95 139 188 245 318 390 463
#     4  11  27  52  86 122 173 220 277 335 412 484
#     4  11  26  47  73 104 151 195 256 325 393 469
#     4  11  24  40  65  95 135 187 251 312 389 473
#     4  10  26  50  80 126 168 218 268 336 400 486
#     4  12  29  47  81 114 156 205 261 319 392 479
#     4  11  24  44  68 100 143 191 250 321 387 469
#     4  11  27  47  72 111 151 199 254 320 388 465
#
# _framework density 27.170808999999998
#
# number of rings (size 3 to 8) (size 9 to 14) (size 15 to 20)
#    0.000    1.067    1.333    2.400   13.067    7.467 
#    0.000    0.000    0.000    0.000    0.000    0.000 
#    0.000    0.000    0.000    0.000    0.000    0.000 
#
# Total GULP energy -83613.740028 kJ/mol
# GULP energy per Si atom -5574.249335 kJ/mol
# Density = 2.710897 g / cm^3
# Si number density = 27.170809 Si / 1000 Ang^3
#
#
#
# Elastic Constant Matrix: (Units=GPa)
#
#
# Indices 1 2 3 4 5 6 
#
# 1 142.1307 50.4215 48.1309 7.6395 -22.7295 21.1584
# 2 50.4215 136.0186 23.0017 5.5018 -19.5836 14.9261
# 3 48.1309 23.0017 161.3671 22.3982 -49.1768 -3.9845
# 4 7.6395 5.5018 22.3982 56.0637 -9.5648 -4.9899
# 5 -22.7295 -19.5836 -49.1768 -9.5648 52.6777 6.1334
# 6 21.1584 14.9261 -3.9845 -4.9899 6.1334 44.3165
#
#
#
# Elastic Compliance Matrix: (Units=1/GPa)
#
#
# Indices 1 2 3 4 5 6 
#
# 1 0.009507 -0.002464 -0.002014 -0.000324 0.001732 -0.004166
# 2 -0.002464 0.008860 0.000290 -0.000387 0.002687 -0.002197
# 3 -0.002014 0.000290 0.009366 -0.002172 0.007539 0.000418
# 4 -0.000324 -0.000387 -0.002172 0.019132 0.000916 0.002117
# 5 0.001732 0.002687 0.007539 0.000916 0.028504 -0.004896
# 6 -0.004166 -0.002197 0.000418 0.002117 -0.004896 0.026248
#
#
# Mechanical properties :
#
#
# Convention : Reuss Voigt Hill
#
# Bulk Modulus (GPa) = 51.66223 75.84718 63.75471
# Shear Modulus (GPa) = 42.93936 51.80906 47.37421
#
# Velocity S-wave (km/s) = 3.97967 4.37142 4.18014
# Velocity P-wave (km/s) = 6.33816 7.31127 6.84203
#
# Compressibility (1/GPa) = 0.01935650
#
# Stress axis : x y z
#
# Youngs Moduli (GPa) = 105.19067 112.86937 106.77002
#
# Poissons Ratio (x) = 0.27808 0.21509
# Poissons Ratio (y) = 0.25916 -0.03100
# Poissons Ratio (z) = 0.21191 -0.03277
#
# Static dielectric constant tensor:
#      x y z
#    x 2.201730 0.037170 -0.049980 
#    y 0.037170 2.082310 0.276150 
#    z -0.049980 0.276150 1.467500 
# 
# From -- ./inp_files/614693.got.cif
#   From: 2010.05.17/outbox.cif.g08.bks.cpg/sg2_308_cif.got.tgz:614693.got - 2010.06.03 11:33:40.
