data_PCOD9045879
_publ_section_title
;
Structure prediction by ZEFSAII (Michael W. Deem and Ramdas Pophale) SiO2 
 PCOD9045879
Probable space group: P -1
;
_chemical_formula_sum "Si O2"
_cell_formula_units_Z 13
_cell_length_a 8.145211
_cell_length_b 9.316616
_cell_length_c 11.411975
_cell_angle_alpha 123.092023
_cell_angle_beta 130.504650
_cell_angle_gamma 84.752118
_cell_volume 502.390218
_symmetry_space_group_name_H-M "P -1"
_symmetry_group_IT_number 2
_symmetry_cell_setting 'triclinic'
loop_
_space_group_symop_operation_xyz
x,y,z
-x,-y,-z
loop_
_atom_site_type_symbol
_atom_site_label
_atom_site_fract_x
_atom_site_fract_y
_atom_site_fract_z
Si Si1 0.084894 0.740658 0.411287
Si Si2 0.194367 0.597441 0.034519
Si Si3 0.698684 0.858471 0.360049
Si Si4 0.257750 0.545408 0.591401
Si Si5 0.924919 0.831402 0.978459
Si Si6 0.389106 0.139629 0.958714
Si Si7 0.500000 0.500000 0.500000
O O1 0.266613 0.674058 0.534063
O O2 0.891911 0.562707 0.175816
O O3 0.926502 0.808998 0.452917
O O4 0.228324 0.922222 0.477912
O O5 0.143157 0.774535 0.054746
O O6 0.470145 0.692500 0.233459
O O7 0.000000 0.500000 0.000000
O O8 0.641422 0.860394 0.194140
O O9 0.424121 0.657550 0.822693
O O10 0.324579 0.397392 0.487888
O O11 0.000000 0.500000 0.500000
O O12 0.846031 0.888721 0.090560
O O13 0.699310 0.646590 0.747813
O O14 0.000000 0.000000 0.000000
O O15 0.500000 0.000000 0.000000
#
# Coordination Sequence:
#
# PCOD9045879 Si02
#       7
#     2   2   2   2   2   2   1
#     4  11  24  46  70 100 138 186 233 291 353 425
#     4  12  26  45  69 101 141 184 233 293 359 420
#     4  11  25  45  72 100 140 183 239 288 349 437
#     4  11  23  41  70 100 137 182 230 288 357 414
#     4  11  25  41  69  99 138 181 223 290 353 411
#     4  11  22  41  67 101 131 175 232 282 342 424
#     4  10  24  42  62 102 136 174 234 286 336 426
#
# _framework density 25.876300000000001
#
# number of rings (size 3 to 8) (size 9 to 14) (size 15 to 20)
#    0.000    0.923    3.077    3.231    4.308    3.077 
#    0.000    1.538    0.000    0.000    0.000    0.000 
#    0.000    0.000    0.000    0.000    0.000    0.000 
#
# Total GULP energy -72508.028671 kJ/mol
# GULP energy per Si atom -5577.540667 kJ/mol
# Density = 2.581740 g / cm^3
# Si number density = 25.876300 Si / 1000 Ang^3
#
#
#
# Elastic Constant Matrix: (Units=GPa)
#
#
# Indices 1 2 3 4 5 6 
#
# 1 88.3882 -12.3625 29.9655 10.5752 0.3150 24.9980
# 2 -12.3625 100.8864 10.7871 -0.0402 -4.0738 -3.7696
# 3 29.9655 10.7871 76.1690 -0.9034 10.6733 4.4468
# 4 10.5752 -0.0402 -0.9034 35.1082 3.5020 5.5484
# 5 0.3150 -4.0738 10.6733 3.5020 45.4396 3.8818
# 6 24.9980 -3.7696 4.4468 5.5484 3.8818 34.3103
#
#
#
# Elastic Compliance Matrix: (Units=1/GPa)
#
#
# Indices 1 2 3 4 5 6 
#
# 1 0.017848 0.002653 -0.007210 -0.004055 0.003100 -0.011473
# 2 0.002653 0.010584 -0.002765 -0.000956 0.001692 -0.000448
# 3 -0.007210 -0.002765 0.016866 0.002610 -0.004605 0.002862
# 4 -0.004055 -0.000956 0.002610 0.030382 -0.002834 -0.002082
# 5 0.003100 0.001692 -0.004605 -0.002834 0.023754 -0.003705
# 6 -0.011473 -0.000448 0.002862 -0.002082 -0.003705 0.037840
#
#
# Mechanical properties :
#
#
# Convention : Reuss Voigt Hill
#
# Bulk Modulus (GPa) = 32.62213 35.80264 34.21238
# Shear Modulus (GPa) = 30.83820 38.77519 34.80670
#
# Velocity S-wave (km/s) = 3.45593 3.87522 3.67156
# Velocity P-wave (km/s) = 5.34405 5.82145 5.58785
#
# Compressibility (1/GPa) = 0.03065404
#
# Stress axis : x y z
#
# Youngs Moduli (GPa) = 56.02879 94.48212 59.29135
#
# Poissons Ratio (x) = -0.25065 0.42749
# Poissons Ratio (y) = -0.14864 0.16393
# Poissons Ratio (z) = 0.40397 0.26122
#
# Static dielectric constant tensor:
#      x y z
#    x 1.607270 0.401720 0.250620 
#    y 0.401720 1.839130 -0.126930 
#    z 0.250620 -0.126930 1.948050 
# 
# From -- ./inp_files/150663.got.cif
#   From: 2010.05.17/outbox.cif.g08.bks.cpg/sg2_76_cif.got.tgz:150663.got - 2010.06.03 11:33:40.
