data_PCOD9045840
_publ_section_title
;
Structure prediction by ZEFSAII (Michael W. Deem and Ramdas Pophale) SiO2 
 PCOD9045840
Probable space group: P -1
;
_chemical_formula_sum "Si O2"
_cell_formula_units_Z 10
_cell_length_a 5.213800
_cell_length_b 12.707826
_cell_length_c 13.038019
_cell_angle_alpha 144.470002
_cell_angle_beta 49.933684
_cell_angle_gamma 125.242333
_cell_volume 381.426712
_symmetry_space_group_name_H-M "P -1"
_symmetry_group_IT_number 2
_symmetry_cell_setting 'triclinic'
loop_
_space_group_symop_operation_xyz
x,y,z
-x,-y,-z
loop_
_atom_site_type_symbol
_atom_site_label
_atom_site_fract_x
_atom_site_fract_y
_atom_site_fract_z
Si Si1 0.904738 0.488894 0.375130
Si Si2 0.310339 0.658955 0.226352
Si Si3 0.008166 0.281918 0.834911
Si Si4 0.229706 0.986725 0.150579
Si Si5 0.255740 0.799321 0.674163
O O1 0.500000 0.500000 0.500000
O O2 0.947151 0.283200 0.236452
O O3 0.016079 0.553306 0.285362
O O4 0.162249 0.622623 0.485725
O O5 0.608456 0.761763 0.298907
O O6 0.183796 0.784599 0.271426
O O7 0.500000 0.500000 0.000000
O O8 0.843036 0.200466 0.917324
O O9 0.000000 0.500000 0.000000
O O10 0.384561 0.124940 0.310635
O O11 0.904170 0.048193 0.227610
O O12 0.500000 0.000000 0.000000
#
# Coordination Sequence:
#
# PCOD9045840 Si02
#       5
#     2   2   2   2   2
#     4  11  25  47  78 107 147 202 243 295 365 451
#     4  10  24  41  73 103 141 185 247 296 356 429
#     4  10  24  43  67 103 143 187 235 298 372 422
#     4  12  26  44  73 109 149 190 246 309 355 431
#     4  11  26  43  72 106 148 186 252 292 367 421
#
# _framework density 26.217359999999999
#
# number of rings (size 3 to 8) (size 9 to 14) (size 15 to 20)
#    0.000    1.200    2.000    1.800   16.800    0.000 
#    0.000    6.000    0.000    0.000    0.000    0.000 
#    0.000    0.000    0.000    0.000    0.000    0.000 
#
# Total GULP energy -55846.504312 kJ/mol
# GULP energy per Si atom -5584.650431 kJ/mol
# Density = 2.615769 g / cm^3
# Si number density = 26.217360 Si / 1000 Ang^3
#
#
#
# Elastic Constant Matrix: (Units=GPa)
#
#
# Indices 1 2 3 4 5 6 
#
# 1 222.8571 60.9468 29.2229 -3.6797 -10.2784 -21.1575
# 2 60.9468 236.3361 41.1005 -14.7256 -13.5221 -40.2903
# 3 29.2229 41.1005 52.9080 2.1666 11.6939 3.5750
# 4 -3.6797 -14.7256 2.1666 45.7419 8.4428 -4.8502
# 5 -10.2784 -13.5221 11.6939 8.4428 23.2712 9.7485
# 6 -21.1575 -40.2903 3.5750 -4.8502 9.7485 55.3462
#
#
#
# Elastic Compliance Matrix: (Units=1/GPa)
#
#
# Indices 1 2 3 4 5 6 
#
# 1 0.005329 -0.000322 -0.003526 0.000033 0.003320 0.001449
# 2 -0.000322 0.006519 -0.006185 0.002079 0.004124 0.004478
# 3 -0.003526 -0.006185 0.029968 -0.000887 -0.017916 -0.004708
# 4 0.000033 0.002079 -0.000887 0.024942 -0.009673 0.005473
# 5 0.003320 0.004124 -0.017916 -0.009673 0.062002 -0.006341
# 6 0.001449 0.004478 -0.004708 0.005473 -0.006341 0.023782
#
#
# Mechanical properties :
#
#
# Convention : Reuss Voigt Hill
#
# Bulk Modulus (GPa) = 45.98018 86.07128 66.02573
# Shear Modulus (GPa) = 27.79978 50.26058 39.03018
#
# Velocity S-wave (km/s) = 3.25985 4.38319 3.86257
# Velocity P-wave (km/s) = 5.63426 7.64968 6.71798
#
# Compressibility (1/GPa) = 0.02174850
#
# Stress axis : x y z
#
# Youngs Moduli (GPa) = 187.65991 153.40130 33.36940
#
# Poissons Ratio (x) = 0.04941 0.11766
# Poissons Ratio (y) = 0.06044 0.20640
# Poissons Ratio (z) = 0.66169 0.94883
#
# Static dielectric constant tensor:
#      x y z
#    x 2.159540 -0.036840 0.049520 
#    y -0.036840 2.056690 -0.025550 
#    z 0.049520 -0.025550 2.106280 
# 
# From -- ./inp_files/20735.got.cif
#   From: 2010.05.17/outbox.cif.g08.bks.cpg/sg2_11_cif.got.tgz:20735.got - 2010.06.03 11:33:40.
