data_PCOD9045942
_publ_section_title
;
Structure prediction by ZEFSAII (Michael W. Deem and Ramdas Pophale) SiO2 
 PCOD9045942
Probable space group: P -1
;
_chemical_formula_sum "Si O2"
_cell_formula_units_Z 14
_cell_length_a 10.434872
_cell_length_b 16.628686
_cell_length_c 12.408942
_cell_angle_alpha 26.135148
_cell_angle_beta 37.594688
_cell_angle_gamma 51.148830
_cell_volume 549.605243
_symmetry_space_group_name_H-M "P -1"
_symmetry_group_IT_number 2
_symmetry_cell_setting 'triclinic'
loop_
_space_group_symop_operation_xyz
x,y,z
-x,-y,-z
loop_
_atom_site_type_symbol
_atom_site_label
_atom_site_fract_x
_atom_site_fract_y
_atom_site_fract_z
Si Si1 0.305618 0.530767 0.664083
Si Si2 0.492244 0.264810 0.494923
Si Si3 0.741406 0.211184 0.009132
Si Si4 0.723069 0.820598 0.607128
Si Si5 0.205223 0.901672 0.247396
Si Si6 0.810100 0.582410 0.647661
Si Si7 0.122026 0.843175 0.601210
O O1 0.500000 0.500000 0.500000
O O2 0.401771 0.597274 0.639858
O O3 0.239704 0.699508 0.444085
O O4 0.080274 0.354312 0.037119
O O5 0.348603 0.353256 0.407230
O O6 0.698446 0.203053 0.384337
O O7 0.314785 0.072517 0.889802
O O8 0.497283 0.211350 0.138292
O O9 0.729913 0.998491 0.309486
O O10 0.793256 0.364529 0.889781
O O11 0.937595 0.291526 0.697337
O O12 0.737906 0.642213 0.738905
O O13 0.946986 0.879843 0.452055
O O14 0.278229 0.927710 0.291604
O O15 0.000000 0.000000 0.500000
#
# Coordination Sequence:
#
# PCOD9045942 Si02
#       7
#     2   2   2   2   2   2   2
#     4  11  24  44  68  98 130 172 220 274 341 401
#     4  11  23  42  67  96 136 170 221 278 328 401
#     4  10  24  42  64  98 132 182 232 270 326 410
#     4  11  24  45  68  98 142 179 225 279 338 391
#     4  11  23  42  67  96 136 170 221 278 328 401
#     4  11  24  45  68  98 142 179 225 279 338 391
#     4  11  24  44  68  98 130 172 220 274 341 401
#
# _framework density 25.472829000000001
#
# number of rings (size 3 to 8) (size 9 to 14) (size 15 to 20)
#    0.000    1.143    1.429    6.000    4.000    4.571 
#    5.143    0.000    0.000    0.000    0.000    0.000 
#    0.000    0.000    0.000    0.000    0.000    0.000 
#
# Total GULP energy -78337.596006 kJ/mol
# GULP energy per Si atom -5595.542572 kJ/mol
# Density = 2.541485 g / cm^3
# Si number density = 25.472829 Si / 1000 Ang^3
#
#
#
# Elastic Constant Matrix: (Units=GPa)
#
#
# Indices 1 2 3 4 5 6 
#
# 1 78.9759 11.4968 7.9529 20.6513 -8.2600 -11.4415
# 2 11.4968 143.8391 30.4286 19.3612 -5.8128 -19.2606
# 3 7.9529 30.4286 132.4222 11.1997 -16.6678 -2.2994
# 4 20.6513 19.3612 11.1997 51.1885 -7.6218 -16.8383
# 5 -8.2600 -5.8128 -16.6678 -7.6218 32.0171 7.6530
# 6 -11.4415 -19.2606 -2.2994 -16.8383 7.6530 33.8195
#
#
#
# Elastic Compliance Matrix: (Units=1/GPa)
#
#
# Indices 1 2 3 4 5 6 
#
# 1 0.014446 -0.000135 -0.000142 -0.004803 0.002018 0.001953
# 2 -0.000135 0.008010 -0.001738 -0.001440 -0.000749 0.003850
# 3 -0.000142 -0.001738 0.008567 -0.001182 0.004309 -0.002019
# 4 -0.004803 -0.001440 -0.001182 0.025793 0.001647 0.009944
# 5 0.002018 -0.000749 0.004309 0.001647 0.035866 -0.006746
# 6 0.001953 0.003850 -0.002019 0.009944 -0.006746 0.038762
#
#
# Mechanical properties :
#
#
# Convention : Reuss Voigt Hill
#
# Bulk Modulus (GPa) = 37.04843 50.55487 43.80165
# Shear Modulus (GPa) = 34.60881 43.76228 39.18555
#
# Velocity S-wave (km/s) = 3.68999 4.14937 3.92641
# Velocity P-wave (km/s) = 5.72107 6.54569 6.14722
#
# Compressibility (1/GPa) = 0.02699170
#
# Stress axis : x y z
#
# Youngs Moduli (GPa) = 69.22344 124.84709 116.72995
#
# Poissons Ratio (x) = 0.01685 0.01662
# Poissons Ratio (y) = 0.00935 0.20288
# Poissons Ratio (z) = 0.00986 0.21699
#
# Static dielectric constant tensor:
#      x y z
#    x 2.061900 0.003430 -0.009580 
#    y 0.003430 2.186550 -0.090540 
#    z -0.009580 -0.090540 2.019970 
# 
# From -- ./inp_files/188848.got.cif
#   From: 2010.05.17/outbox.cif.g08.bks.cpg/sg2_95_cif.got.tgz:188848.got - 2010.06.03 11:33:40.
