data_PCOD9045216
_publ_section_title
;
Structure prediction by ZEFSAII (Michael W. Deem and Ramdas Pophale) SiO2 
 PCOD9045216
Probable space group: P -1
;
_chemical_formula_sum "Si O2"
_cell_formula_units_Z 16
_cell_length_a 8.707265
_cell_length_b 19.614708
_cell_length_c 18.796455
_cell_angle_alpha 27.473759
_cell_angle_beta 143.904369
_cell_angle_gamma 151.706330
_cell_volume 696.697420
_symmetry_space_group_name_H-M "P -1"
_symmetry_group_IT_number 2
_symmetry_cell_setting 'triclinic'
loop_
_space_group_symop_operation_xyz
x,y,z
-x,-y,-z
loop_
_atom_site_type_symbol
_atom_site_label
_atom_site_fract_x
_atom_site_fract_y
_atom_site_fract_z
Si Si1 0.244253 0.081345 0.779289
Si Si2 0.450840 0.097010 0.268033
Si Si3 0.329566 0.526165 0.475123
Si Si4 0.688386 0.813431 0.021587
Si Si5 0.318273 0.773151 0.057007
Si Si6 0.316191 0.512608 0.634172
Si Si7 0.546683 0.234133 0.435263
Si Si8 0.665453 0.404125 0.174790
O O1 0.521978 0.258848 0.673837
O O2 0.373899 0.123956 0.869691
O O3 0.893379 0.037893 0.693358
O O4 0.201400 0.902724 0.898872
O O5 0.652407 0.275654 0.227920
O O6 0.577186 0.974934 0.415693
O O7 0.386814 0.151854 0.117101
O O8 0.500000 0.500000 0.500000
O O9 0.446825 0.503906 0.615265
O O10 0.943509 0.373120 0.463712
O O11 0.403803 0.755490 0.025358
O O12 0.755090 0.659973 0.188657
O O13 0.000000 0.000000 0.000000
O O14 0.039287 0.576149 0.168515
O O15 0.547359 0.695711 0.598045
O O16 0.000000 0.500000 0.500000
O O17 0.491291 0.287133 0.289020
O O18 0.500000 0.500000 0.000000
#
# Coordination Sequence:
#
# PCOD9045216 Si02
#       8
#     2   2   2   2   2   2   2   2
#     4  11  22  39  67 103 126 173 226 278 333 401
#     4  12  25  43  70  98 134 179 226 276 342 400
#     4  11  20  37  67  99 136 163 221 282 337 391
#     4  12  24  41  68 101 138 171 222 283 338 400
#     4  11  25  40  70  98 136 174 223 279 338 394
#     4  10  24  37  62 100 138 176 211 275 344 394
#     4  11  24  42  65  96 135 179 221 275 340 401
#     4  12  25  46  69  95 136 184 226 280 332 407
#
# _framework density 22.965494
#
# number of rings (size 3 to 8) (size 9 to 14) (size 15 to 20)
#    0.000    0.750    5.000    3.375    5.250    0.500 
#    0.000    0.000    0.000    2.250    0.000    0.000 
#    0.000    0.000    0.000    0.000    0.000    0.000 
#
# Total GULP energy -89463.254565 kJ/mol
# GULP energy per Si atom -5591.453410 kJ/mol
# Density = 2.291322 g / cm^3
# Si number density = 22.965494 Si / 1000 Ang^3
#
#
#
# Elastic Constant Matrix: (Units=GPa)
#
#
# Indices 1 2 3 4 5 6 
#
# 1 58.8494 14.9807 16.7764 3.4179 -5.3167 -22.0301
# 2 14.9807 79.6449 35.3837 -16.9415 6.7897 -31.0358
# 3 16.7764 35.3837 150.5187 -14.1716 -3.4559 -34.7820
# 4 3.4179 -16.9415 -14.1716 34.8389 -13.2011 -1.3471
# 5 -5.3167 6.7897 -3.4559 -13.2011 37.1691 0.0606
# 6 -22.0301 -31.0358 -34.7820 -1.3471 0.0606 42.3613
#
#
#
# Elastic Compliance Matrix: (Units=1/GPa)
#
#
# Indices 1 2 3 4 5 6 
#
# 1 0.021459 -0.000121 0.000257 -0.000521 0.002912 0.011261
# 2 -0.000121 0.020995 -0.000381 0.010604 -0.000147 0.015343
# 3 0.000257 -0.000381 0.008889 0.004664 0.002578 0.007298
# 4 -0.000521 0.010604 0.004664 0.041241 0.013049 0.012620
# 5 0.002912 -0.000147 0.002578 0.013049 0.032215 0.003892
# 6 0.011261 0.015343 0.007298 0.012620 0.003892 0.047091
#
#
# Mechanical properties :
#
#
# Convention : Reuss Voigt Hill
#
# Bulk Modulus (GPa) = 19.66509 47.03271 33.34890
# Shear Modulus (GPa) = 26.40848 37.66535 32.03691
#
# Velocity S-wave (km/s) = 3.39473 4.05419 3.73902
# Velocity P-wave (km/s) = 4.89357 6.51456 5.76136
#
# Compressibility (1/GPa) = 0.05085154
#
# Stress axis : x y z
#
# Youngs Moduli (GPa) = 46.60021 47.63070 112.49348
#
# Poissons Ratio (x) = 0.00578 -0.02889
# Poissons Ratio (y) = 0.00565 0.04291
# Poissons Ratio (z) = -0.01197 0.01817
#
# Static dielectric constant tensor:
#      x y z
#    x 1.965750 0.007430 0.020730 
#    y 0.007430 1.841570 -0.004600 
#    z 0.020730 -0.004600 1.905800 
# 
# From -- ./inp_files/182404.got.cif
#   From: 2010.05.17/outbox.cif.g08.bks.cpg/sg2_92_cif.got.tgz:182404.got - 2010.06.03 11:33:40.
