data_PCOD9045303
_publ_section_title
;
Structure prediction by ZEFSAII (Michael W. Deem and Ramdas Pophale) SiO2 
 PCOD9045303
Probable space group: P -1
;
_chemical_formula_sum "Si O2"
_cell_formula_units_Z 14
_cell_length_a 11.532954
_cell_length_b 8.669151
_cell_length_c 7.670833
_cell_angle_alpha 118.065983
_cell_angle_beta 126.492139
_cell_angle_gamma 57.826977
_cell_volume 508.384595
_symmetry_space_group_name_H-M "P -1"
_symmetry_group_IT_number 2
_symmetry_cell_setting 'triclinic'
loop_
_space_group_symop_operation_xyz
x,y,z
-x,-y,-z
loop_
_atom_site_type_symbol
_atom_site_label
_atom_site_fract_x
_atom_site_fract_y
_atom_site_fract_z
Si Si1 0.325222 0.082345 0.572421
Si Si2 0.589940 0.312594 0.702543
Si Si3 0.641641 0.638409 0.784109
Si Si4 0.098068 0.293609 0.778963
Si Si5 0.946506 0.724283 0.758091
Si Si6 0.056307 0.000105 0.783746
Si Si7 0.580765 0.178922 0.993088
O O1 0.234820 0.166317 0.710002
O O2 0.502533 0.043673 0.758120
O O3 0.232317 0.235206 0.430090
O O4 0.315201 0.895529 0.386452
O O5 0.689854 0.435185 0.807693
O O6 0.439580 0.372539 0.476207
O O7 0.557146 0.318036 0.880672
O O8 0.797363 0.683380 0.951312
O O9 0.509446 0.750604 0.869367
O O10 0.022576 0.501921 0.742117
O O11 0.997607 0.165091 0.669773
O O12 0.006181 0.824453 0.702536
O O13 0.963708 0.859710 0.996323
O O14 0.239072 0.906108 0.861170
#
# Coordination Sequence:
#
# PCOD9045303 Si02
#       7
#     2   2   2   2   2   2   2
#     4  11  24  42  69  99 135 176 231 283 342 406
#     4  11  21  40  65 100 140 177 223 287 344 406
#     4  10  24  39  67 105 135 174 234 286 343 408
#     4  11  24  45  68  99 139 180 225 287 338 411
#     4  11  25  44  66 101 137 182 227 278 337 421
#     4  11  24  43  72  96 136 183 227 277 348 401
#     4  11  22  43  69  99 134 180 228 288 345 403
#
# _framework density 27.538205999999999
#
# number of rings (size 3 to 8) (size 9 to 14) (size 15 to 20)
#    0.000    1.143    1.429    4.286    4.000    4.000 
#    0.000    0.000    0.000    0.000    0.000    0.000 
#    0.000    0.000    0.000    0.000    0.000    0.000 
#
# Total GULP energy -78226.657487 kJ/mol
# GULP energy per Si atom -5587.618392 kJ/mol
# Density = 2.747553 g / cm^3
# Si number density = 27.538206 Si / 1000 Ang^3
#
#
#
# Elastic Constant Matrix: (Units=GPa)
#
#
# Indices 1 2 3 4 5 6 
#
# 1 102.8390 71.3434 18.9133 4.1255 6.3741 26.1647
# 2 71.3434 166.3989 38.3655 9.0560 -0.9479 31.4344
# 3 18.9133 38.3655 65.6580 -15.4130 10.7486 16.8726
# 4 4.1255 9.0560 -15.4130 49.9358 6.9171 -10.1521
# 5 6.3741 -0.9479 10.7486 6.9171 50.5293 -3.5204
# 6 26.1647 31.4344 16.8726 -10.1521 -3.5204 45.1291
#
#
#
# Elastic Compliance Matrix: (Units=1/GPa)
#
#
# Indices 1 2 3 4 5 6 
#
# 1 0.015003 -0.005475 0.000450 -0.000888 -0.002348 -0.005436
# 2 -0.005475 0.010249 -0.004962 -0.003820 0.002267 -0.002792
# 3 0.000450 -0.004962 0.021742 0.007667 -0.006081 -0.003683
# 4 -0.000888 -0.003820 0.007667 0.024927 -0.004616 0.005556
# 5 -0.002348 0.002267 -0.006081 -0.004616 0.022246 0.002753
# 6 -0.005436 -0.002792 -0.003683 0.005556 0.002753 0.030097
#
#
# Mechanical properties :
#
#
# Convention : Reuss Voigt Hill
#
# Bulk Modulus (GPa) = 37.00727 65.79337 51.40032
# Shear Modulus (GPa) = 32.62735 42.87042 37.74889
#
# Velocity S-wave (km/s) = 3.44583 3.94986 3.70642
# Velocity P-wave (km/s) = 5.41289 6.68920 6.08460
#
# Compressibility (1/GPa) = 0.02702171
#
# Stress axis : x y z
#
# Youngs Moduli (GPa) = 66.65169 97.56845 45.99392
#
# Poissons Ratio (x) = 0.53414 -0.02070
# Poissons Ratio (y) = 0.36489 0.22822
# Poissons Ratio (z) = -0.03000 0.48414
#
# Static dielectric constant tensor:
#      x y z
#    x 2.214900 0.114470 -0.023390 
#    y 0.114470 2.210830 -0.016710 
#    z -0.023390 -0.016710 2.199990 
# 
# From -- ./inp_files/240673.got.cif
#   From: 2010.05.17/outbox.cif.g08.bks.cpg/sg2_121_cif.got.tgz:240673.got - 2010.06.03 11:33:40.
