data_PCOD9045210
_publ_section_title
;
Structure prediction by ZEFSAII (Michael W. Deem and Ramdas Pophale) SiO2 
 PCOD9045210
Probable space group: P -1
;
_chemical_formula_sum "Si O2"
_cell_formula_units_Z 15
_cell_length_a 22.708085
_cell_length_b 8.819623
_cell_length_c 12.019700
_cell_angle_alpha 59.915017
_cell_angle_beta 148.705282
_cell_angle_gamma 139.754133
_cell_volume 721.536415
_symmetry_space_group_name_H-M "P -1"
_symmetry_group_IT_number 2
_symmetry_cell_setting 'triclinic'
loop_
_space_group_symop_operation_xyz
x,y,z
-x,-y,-z
loop_
_atom_site_type_symbol
_atom_site_label
_atom_site_fract_x
_atom_site_fract_y
_atom_site_fract_z
Si Si1 0.136532 0.256953 0.848099
Si Si2 0.660372 0.956616 0.544206
Si Si3 0.488098 0.777876 0.562119
Si Si4 0.198936 0.245696 0.208352
Si Si5 0.000000 0.500000 0.000000
Si Si6 0.594764 0.137173 0.988020
Si Si7 0.168482 0.916651 0.913995
Si Si8 0.121429 0.795169 0.629099
O O1 0.266420 0.546123 0.897658
O O2 0.946856 0.118855 0.583227
O O3 0.136979 0.073200 0.854168
O O4 0.199976 0.307158 0.058561
O O5 0.559316 0.790958 0.554210
O O6 0.706706 0.831861 0.600860
O O7 0.542754 0.955399 0.288839
O O8 0.836220 0.246842 0.756977
O O9 0.294111 0.489728 0.354885
O O10 0.500000 0.000000 0.500000
O O11 0.626352 0.870886 0.838343
O O12 0.000000 0.000000 0.000000
O O13 0.090174 0.691447 0.959963
O O14 0.692623 0.071542 0.138056
O O15 0.500000 0.000000 0.000000
O O16 0.097271 0.806492 0.716287
O O17 0.000000 0.500000 0.500000
#
# Coordination Sequence:
#
# PCOD9045210 Si02
#       8
#     2   2   2   2   1   2   2   2
#     4  11  23  47  69 101 140 188 234 288 361 415
#     4  11  23  44  66  98 145 176 236 286 359 412
#     4  11  23  40  70 100 140 179 227 292 358 419
#     4  12  26  42  72 107 143 186 235 297 361 430
#     4  10  24  36  74 110 134 182 236 290 352 424
#     4  11  25  44  71  98 135 192 234 289 347 427
#     4  11  23  45  71 103 144 187 236 293 363 420
#     4  10  25  44  70  99 138 189 235 288 347 419
#
# _framework density 20.788971
#
# number of rings (size 3 to 8) (size 9 to 14) (size 15 to 20)
#    0.000    1.067    4.000    2.400   11.200    0.000 
#    0.000    0.667    0.000    0.000    0.000    0.000 
#    0.000    0.000    0.000    0.000    0.000    0.000 
#
# Total GULP energy -83527.558158 kJ/mol
# GULP energy per Si atom -5568.503877 kJ/mol
# Density = 2.074165 g / cm^3
# Si number density = 20.788971 Si / 1000 Ang^3
#
#
#
# Elastic Constant Matrix: (Units=GPa)
#
#
# Indices 1 2 3 4 5 6 
#
# 1 47.4357 21.8463 12.4670 1.3407 -1.1540 -5.6912
# 2 21.8463 67.9116 47.1252 21.2196 11.6998 -5.5820
# 3 12.4670 47.1252 134.2739 0.5384 -5.5671 -21.8042
# 4 1.3407 21.2196 0.5384 41.1167 -8.3355 5.6968
# 5 -1.1540 11.6998 -5.5671 -8.3355 39.3335 -3.6887
# 6 -5.6912 -5.5820 -21.8042 5.6968 -3.6887 38.7519
#
#
#
# Elastic Compliance Matrix: (Units=1/GPa)
#
#
# Indices 1 2 3 4 5 6 
#
# 1 0.027257 -0.014531 0.003407 0.007620 0.007540 0.003425
# 2 -0.014531 0.038967 -0.013431 -0.022968 -0.019021 -0.002512
# 3 0.003407 -0.013431 0.013054 0.007511 0.008057 0.005573
# 4 0.007620 -0.022968 0.007511 0.039432 0.016268 -0.002212
# 5 0.007540 -0.019021 0.008057 0.016268 0.036262 0.003961
# 6 0.003425 -0.002512 0.005573 -0.002212 0.003961 0.029784
#
#
# Mechanical properties :
#
#
# Convention : Reuss Voigt Hill
#
# Bulk Modulus (GPa) = 33.14810 45.83314 39.49062
# Shear Modulus (GPa) = 20.49835 35.05259 27.77547
#
# Velocity S-wave (km/s) = 3.14350 4.11069 3.65919
# Velocity P-wave (km/s) = 5.39955 6.68020 6.07372
#
# Compressibility (1/GPa) = 0.03016764
#
# Stress axis : x y z
#
# Youngs Moduli (GPa) = 36.68808 25.66284 76.60495
#
# Poissons Ratio (x) = 0.37291 -0.26101
# Poissons Ratio (y) = 0.53311 1.02890
# Poissons Ratio (z) = -0.12501 0.34468
#
# Static dielectric constant tensor:
#      x y z
#    x 1.763970 -0.006680 0.043960 
#    y -0.006680 1.752920 -0.004280 
#    z 0.043960 -0.004280 1.805830 
# 
# From -- ./inp_files/186078.got.cif
#   From: 2010.05.17/outbox.cif.g08.bks.cpg/sg2_94_cif.got.tgz:186078.got - 2010.06.03 11:33:40.
