data_PCOD9045036
_publ_section_title
;
Structure prediction by ZEFSAII (Michael W. Deem and Ramdas Pophale) SiO2 
 PCOD9045036
Probable space group: P -1
;
_chemical_formula_sum "Si O2"
_cell_formula_units_Z 16
_cell_length_a 8.884918
_cell_length_b 14.686842
_cell_length_c 20.279815
_cell_angle_alpha 32.569393
_cell_angle_beta 125.886355
_cell_angle_gamma 142.432302
_cell_volume 841.153381
_symmetry_space_group_name_H-M "P -1"
_symmetry_group_IT_number 2
_symmetry_cell_setting 'triclinic'
loop_
_space_group_symop_operation_xyz
x,y,z
-x,-y,-z
loop_
_atom_site_type_symbol
_atom_site_label
_atom_site_fract_x
_atom_site_fract_y
_atom_site_fract_z
Si Si1 0.175300 0.576643 0.833740
Si Si2 0.619882 0.385803 0.460274
Si Si3 0.100583 0.772487 0.428163
Si Si4 0.281657 0.255987 0.338394
Si Si5 0.947500 0.306503 0.057720
Si Si6 0.613479 0.689489 0.815413
Si Si7 0.741720 0.066052 0.275985
Si Si8 0.788846 0.169301 0.438850
O O1 0.356108 0.535029 0.884704
O O2 0.150270 0.663991 0.705714
O O3 0.932557 0.362754 0.944510
O O4 0.320319 0.796422 0.786984
O O5 0.731985 0.286300 0.514064
O O6 0.462060 0.399198 0.359469
O O7 0.433346 0.192710 0.585146
O O8 0.857181 0.625522 0.408410
O O9 0.032696 0.700790 0.531116
O O10 0.249609 0.043454 0.300253
O O11 0.435276 0.353697 0.249311
O O12 0.188251 0.004712 0.477441
O O13 0.030569 0.208469 0.288598
O O14 0.191978 0.336991 0.101697
O O15 0.740257 0.081293 0.187003
O O16 0.000000 0.500000 0.000000
O O17 0.500000 0.000000 0.500000
#
# Coordination Sequence:
#
# PCOD9045036 Si02
#       8
#     2   2   2   2   2   2   2   2
#     4  11  17  30  54  75 100 136 171 214 248 295
#     4  11  18  31  50  80 110 137 165 200 265 313
#     4  10  20  30  51  83 105 134 166 210 261 304
#     4  10  18  30  52  76 104 135 163 211 262 299
#     4   9  21  32  48  79 101 132 175 216 253 292
#     4  10  17  34  52  78 104 129 171 219 248 298
#     4  10  19  32  50  76 109 132 170 213 248 304
#     4  11  16  31  50  77 106 128 170 215 254 295
#
# _framework density 19.021501000000001
#
# number of rings (size 3 to 8) (size 9 to 14) (size 15 to 20)
#    0.000    1.750    6.250    0.750    0.000    0.000 
#    0.000    5.625    0.000    0.750   13.000    6.125 
#    0.000    0.000    0.000    0.000    0.000    0.000 
#
# Total GULP energy -89104.653426 kJ/mol
# GULP energy per Si atom -5569.040839 kJ/mol
# Density = 1.897821 g / cm^3
# Si number density = 19.021501 Si / 1000 Ang^3
#
#
#
# Elastic Constant Matrix: (Units=GPa)
#
#
# Indices 1 2 3 4 5 6 
#
# 1 70.1988 3.2924 22.5233 6.8021 -9.4358 -4.0540
# 2 3.2924 59.3189 21.4287 9.1721 -14.4152 -8.0293
# 3 22.5233 21.4287 84.9462 24.4390 -27.0854 -8.5281
# 4 6.8021 9.1721 24.4390 16.7820 -4.3856 -3.3166
# 5 -9.4358 -14.4152 -27.0854 -4.3856 43.6187 8.0923
# 6 -4.0540 -8.0293 -8.5281 -3.3166 8.0923 14.8007
#
#
#
# Elastic Compliance Matrix: (Units=1/GPa)
#
#
# Indices 1 2 3 4 5 6 
#
# 1 0.015710 0.001123 -0.003609 -0.001052 0.001047 0.002025
# 2 0.001123 0.020307 -0.001369 -0.007159 0.004148 0.006663
# 3 -0.003609 -0.001369 0.026357 -0.033159 0.011887 -0.000474
# 4 -0.001052 -0.007159 -0.033159 0.110395 -0.013750 0.008977
# 5 0.001047 0.004148 0.011887 -0.013750 0.032666 -0.011555
# 6 0.002025 0.006663 -0.000474 0.008977 -0.011555 0.079790
#
#
# Mechanical properties :
#
#
# Convention : Reuss Voigt Hill
#
# Bulk Modulus (GPa) = 18.29372 34.32806 26.31089
# Shear Modulus (GPa) = 16.06905 26.18824 21.12865
#
# Velocity S-wave (km/s) = 2.90967 3.71451 3.33645
# Velocity P-wave (km/s) = 4.57455 6.04011 5.35768
#
# Compressibility (1/GPa) = 0.05466357
#
# Stress axis : x y z
#
# Youngs Moduli (GPa) = 63.65310 49.24358 37.94071
#
# Poissons Ratio (x) = -0.05530 0.13693
# Poissons Ratio (y) = -0.07148 0.05195
# Poissons Ratio (z) = 0.22972 0.06743
#
# Static dielectric constant tensor:
#      x y z
#    x 1.728630 0.008710 -0.012770 
#    y 0.008710 1.649940 0.046290 
#    z -0.012770 0.046290 1.730320 
# 
# From -- ./inp_files/589877.got.cif
#   From: 2010.05.17/outbox.cif.g08.bks.cpg/sg2_295_cif.got.tgz:589877.got - 2010.06.03 11:33:40.
