data_PCOD9045106
_publ_section_title
;
Structure prediction by ZEFSAII (Michael W. Deem and Ramdas Pophale) SiO2 
 PCOD9045106
Probable space group: P -1
;
_chemical_formula_sum "Si O2"
_cell_formula_units_Z 16
_cell_length_a 12.913834
_cell_length_b 14.792564
_cell_length_c 5.761282
_cell_angle_alpha 74.754147
_cell_angle_beta 78.657993
_cell_angle_gamma 135.567477
_cell_volume 611.201314
_symmetry_space_group_name_H-M "P -1"
_symmetry_group_IT_number 2
_symmetry_cell_setting 'triclinic'
loop_
_space_group_symop_operation_xyz
x,y,z
-x,-y,-z
loop_
_atom_site_type_symbol
_atom_site_label
_atom_site_fract_x
_atom_site_fract_y
_atom_site_fract_z
Si Si1 0.477602 0.900055 0.398730
Si Si2 0.373285 0.186384 0.581417
Si Si3 0.338138 0.573010 0.325342
Si Si4 0.027280 0.100745 0.225780
Si Si5 0.104191 0.346285 0.245590
Si Si6 0.971784 0.562584 0.151028
Si Si7 0.680852 0.657433 0.443332
Si Si8 0.218145 0.805193 0.245398
O O1 0.517768 0.827589 0.536481
O O2 0.294888 0.797058 0.421657
O O3 0.500000 0.000000 0.500000
O O4 0.627252 0.020416 0.050241
O O5 0.467955 0.272351 0.741133
O O6 0.379834 0.298040 0.399456
O O7 0.165564 0.012335 0.728416
O O8 0.277139 0.535324 0.109049
O O9 0.207302 0.546549 0.544989
O O10 0.268227 0.412909 0.468849
O O11 0.121355 0.251932 0.225799
O O12 0.164320 0.186264 0.892082
O O13 0.000000 0.000000 0.500000
O O14 0.943934 0.246705 0.565218
O O15 0.021908 0.336292 0.060789
O O16 0.137551 0.678671 0.174761
O O17 0.000000 0.500000 0.000000
O O18 0.500000 0.500000 0.500000
#
# Coordination Sequence:
#
# PCOD9045106 Si02
#       8
#     2   2   2   2   2   2   2   2
#     4  11  24  43  67 101 144 189 238 299 365 437
#     4  11  25  43  72 100 142 186 244 300 362 437
#     4  10  24  46  70 102 147 191 238 307 370 432
#     4  12  25  45  77 111 143 190 249 305 375 450
#     4  11  24  45  71 104 145 190 245 306 368 438
#     4  11  24  41  70  99 141 194 249 291 366 448
#     4  10  23  49  72 104 147 191 238 308 373 443
#     4  10  24  41  66  98 144 187 235 301 364 421
#
# _framework density 26.177952999999999
#
# number of rings (size 3 to 8) (size 9 to 14) (size 15 to 20)
#    0.000    1.250    1.250    3.375    8.750    1.000 
#    4.500    3.750    0.000    0.000    0.000    0.000 
#    0.000    0.000    0.000    0.000    0.000    0.000 
#
# Total GULP energy -89229.899740 kJ/mol
# GULP energy per Si atom -5576.868734 kJ/mol
# Density = 2.611837 g / cm^3
# Si number density = 26.177953 Si / 1000 Ang^3
#
#
#
# Elastic Constant Matrix: (Units=GPa)
#
#
# Indices 1 2 3 4 5 6 
#
# 1 133.7030 48.4958 18.3237 -3.6461 -12.3415 -13.1330
# 2 48.4958 157.7715 7.1069 22.3991 -8.0668 16.7447
# 3 18.3237 7.1069 67.0976 -16.1230 -0.3294 -4.1799
# 4 -3.6461 22.3991 -16.1230 42.1061 -4.5613 -5.4665
# 5 -12.3415 -8.0668 -0.3294 -4.5613 25.4847 -4.9603
# 6 -13.1330 16.7447 -4.1799 -5.4665 -4.9603 80.3209
#
#
#
# Elastic Compliance Matrix: (Units=1/GPa)
#
#
# Indices 1 2 3 4 5 6 
#
# 1 0.009670 -0.003380 -0.001380 0.002962 0.004651 0.002703
# 2 -0.003380 0.008557 -0.001577 -0.005879 -0.000556 -0.002853
# 3 -0.001380 -0.001577 0.017390 0.007662 0.000735 0.001575
# 4 0.002962 -0.005879 0.007662 0.031337 0.006181 0.004623
# 5 0.004651 -0.000556 0.000735 0.006181 0.043211 0.004004
# 6 0.002703 -0.002853 0.001575 0.004623 0.004004 0.014131
#
#
# Mechanical properties :
#
#
# Convention : Reuss Voigt Hill
#
# Bulk Modulus (GPa) = 43.58226 56.26944 49.92585
# Shear Modulus (GPa) = 34.57413 48.55871 41.56642
#
# Velocity S-wave (km/s) = 3.63813 4.31158 3.98909
# Velocity P-wave (km/s) = 5.85941 6.80646 6.35061
#
# Compressibility (1/GPa) = 0.02294512
#
# Stress axis : x y z
#
# Youngs Moduli (GPa) = 103.41501 116.86116 57.50289
#
# Poissons Ratio (x) = 0.39494 0.07935
# Poissons Ratio (y) = 0.34950 0.09066
# Poissons Ratio (z) = 0.14271 0.18424
#
# Static dielectric constant tensor:
#      x y z
#    x 2.610140 0.408690 0.177320 
#    y 0.408690 2.398030 0.058480 
#    z 0.177320 0.058480 2.219800 
# 
# From -- ./inp_files/98054.got.cif
#   From: 2010.05.17/outbox.cif.g08.bks.cpg/sg2_50_cif.got.tgz:98054.got - 2010.06.03 11:33:40.
