data_PCOD9045351
_publ_section_title
;
Structure prediction by ZEFSAII (Michael W. Deem and Ramdas Pophale) SiO2 
 PCOD9045351
Probable space group: P -1
;
_chemical_formula_sum "Si O2"
_cell_formula_units_Z 16
_cell_length_a 15.026837
_cell_length_b 11.469552
_cell_length_c 11.732437
_cell_angle_alpha 70.149136
_cell_angle_beta 92.628443
_cell_angle_gamma 150.174978
_cell_volume 801.135569
_symmetry_space_group_name_H-M "P -1"
_symmetry_group_IT_number 2
_symmetry_cell_setting 'triclinic'
loop_
_space_group_symop_operation_xyz
x,y,z
-x,-y,-z
loop_
_atom_site_type_symbol
_atom_site_label
_atom_site_fract_x
_atom_site_fract_y
_atom_site_fract_z
Si Si1 0.190864 0.672101 0.078225
Si Si2 0.801281 0.053096 0.935733
Si Si3 0.693675 0.587862 0.820778
Si Si4 0.731153 0.367988 0.502123
Si Si5 0.464757 0.788172 0.681740
Si Si6 0.614391 0.271473 0.766356
Si Si7 0.205144 0.999725 0.315655
Si Si8 0.867083 0.622508 0.999066
O O1 0.255235 0.681615 0.193964
O O2 0.098098 0.448499 0.064169
O O3 0.097658 0.685849 0.108383
O O4 0.393639 0.971954 0.917418
O O5 0.813215 0.051863 0.802681
O O6 0.554491 0.731270 0.056846
O O7 0.931759 0.117722 0.993624
O O8 0.718016 0.526928 0.735594
O O9 0.759707 0.810474 0.728995
O O10 0.819476 0.682329 0.900375
O O11 0.691423 0.393596 0.374971
O O12 0.597577 0.254657 0.636483
O O13 0.640354 0.115966 0.565274
O O14 0.973373 0.671879 0.455400
O O15 0.596428 0.827591 0.683506
O O16 0.333838 0.646950 0.837922
#
# Coordination Sequence:
#
# PCOD9045351 Si02
#       8
#     2   2   2   2   2   2   2   2
#     4   9  18  35  62  90 118 146 193 250 294 344
#     4  11  21  35  60  91 118 152 193 242 300 343
#     4  10  24  40  60  87 122 153 201 247 284 343
#     4  11  23  41  61  87 119 158 195 239 296 355
#     4  11  23  39  60  90 122 150 196 244 294 351
#     4   9  18  38  62  84 117 160 190 242 295 338
#     4  12  24  40  59  88 120 164 196 236 292 351
#     4  11  20  38  62  92 118 151 194 246 301 344
#
# _framework density 19.971648999999999
#
# number of rings (size 3 to 8) (size 9 to 14) (size 15 to 20)
#    0.000    1.500    3.750    2.625    0.000    2.000 
#    0.000    3.125    0.000    0.000    0.000    0.000 
#    0.000    0.000    0.000    0.000    0.000    0.000 
#
# Total GULP energy -89248.647082 kJ/mol
# GULP energy per Si atom -5578.040443 kJ/mol
# Density = 1.992619 g / cm^3
# Si number density = 19.971649 Si / 1000 Ang^3
#
#
#
# Elastic Constant Matrix: (Units=GPa)
#
#
# Indices 1 2 3 4 5 6 
#
# 1 50.3097 24.5377 -26.4933 -4.3987 9.8043 -6.6455
# 2 24.5377 2.2354 7.7788 24.4806 -9.2009 -0.0291
# 3 -26.4933 7.7788 -2.3234 2.8323 -5.0610 -22.0368
# 4 -4.3987 24.4806 2.8323 17.3944 12.8958 1.7208
# 5 9.8043 -9.2009 -5.0610 12.8958 4.4768 -5.1309
# 6 -6.6455 -0.0291 -22.0368 1.7208 -5.1309 17.8031
#
#
#
# Elastic Compliance Matrix: (Units=1/GPa)
#
#
# Indices 1 2 3 4 5 6 
#
# 1 0.009141 0.008749 -0.009395 -0.007229 -0.000649 -0.007691
# 2 0.008749 0.008249 0.008153 0.015407 -0.035468 0.001660
# 3 -0.009395 0.008153 -0.012200 0.005140 -0.019633 -0.024750
# 4 -0.007229 0.015407 0.005140 0.013628 0.025040 0.009589
# 5 -0.000649 -0.035468 -0.019633 0.025040 0.039725 -0.015574
# 6 -0.007691 0.001660 -0.024750 0.009589 -0.015574 0.017251
#
#
# Mechanical properties :
#
#
# Convention : Reuss Voigt Hill
#
# Bulk Modulus (GPa) = 49.49512 6.87424 28.18468
# Shear Modulus (GPa) = 74.05836 10.89476 42.47656
#
# Velocity S-wave (km/s) = 6.09608 2.33815 4.61677
# Velocity P-wave (km/s) = 8.62474 3.27700 6.52399
#
# Compressibility (1/GPa) = 0.02020401
#
# Stress axis : x y z
#
# Youngs Moduli (GPa) = 109.39636 121.23166 -81.96752
#
# Poissons Ratio (x) = -1.06063 -0.77007
# Poissons Ratio (y) = -0.95708 0.66829
# Poissons Ratio (z) = 1.02776 -0.98842
#
# Static dielectric constant tensor:
#      x y z
#    x 1.736610 0.002520 -0.025960 
#    y 0.002520 1.726440 -0.006180 
#    z -0.025960 -0.006180 1.700990 
# 
# From -- ./inp_files/345594.got.cif
#   From: 2010.05.17/outbox.cif.g08.bks.cpg/sg2_173_cif.got.tgz:345594.got - 2010.06.03 11:33:40.
