data_PCOD9045711
_publ_section_title
;
Structure prediction by ZEFSAII (Michael W. Deem and Ramdas Pophale) SiO2 
 PCOD9045711
Probable space group: P -1
;
_chemical_formula_sum "Si O2"
_cell_formula_units_Z 16
_cell_length_a 14.169940
_cell_length_b 5.989093
_cell_length_c 11.928183
_cell_angle_alpha 117.714143
_cell_angle_beta 52.915266
_cell_angle_gamma 95.013678
_cell_volume 687.679212
_symmetry_space_group_name_H-M "P -1"
_symmetry_group_IT_number 2
_symmetry_cell_setting 'triclinic'
loop_
_space_group_symop_operation_xyz
x,y,z
-x,-y,-z
loop_
_atom_site_type_symbol
_atom_site_label
_atom_site_fract_x
_atom_site_fract_y
_atom_site_fract_z
Si Si1 0.799026 0.124375 0.740285
Si Si2 0.380437 0.739240 0.905080
Si Si3 0.206750 0.662616 0.632624
Si Si4 0.754186 0.949514 0.118216
Si Si5 0.001292 0.679288 0.931880
Si Si6 0.620633 0.852749 0.691695
Si Si7 0.947494 0.250328 0.460166
Si Si8 0.511134 0.840831 0.340758
O O1 0.845930 0.253386 0.629640
O O2 0.732462 0.907221 0.694128
O O3 0.688131 0.288280 0.936469
O O4 0.929268 0.991727 0.676073
O O5 0.267696 0.873468 0.934803
O O6 0.492466 0.879121 0.856991
O O7 0.451004 0.464740 0.736593
O O8 0.238094 0.890717 0.735884
O O9 0.325853 0.440390 0.460934
O O10 0.120270 0.758920 0.610594
O O11 0.123802 0.540694 0.746039
O O12 0.630122 0.873762 0.200128
O O13 0.873213 0.706303 0.967850
O O14 0.000000 0.500000 0.000000
O O15 0.000000 0.000000 0.000000
O O16 0.595500 0.045841 0.646605
O O17 0.000000 0.500000 0.500000
O O18 0.500000 0.000000 0.500000
#
# Coordination Sequence:
#
# PCOD9045711 Si02
#       8
#     2   2   2   2   2   2   2   2
#     4  11  26  46  74 101 141 186 245 297 369 439
#     4  11  25  47  69 106 146 186 243 304 362 441
#     4  11  23  45  73  99 147 183 240 304 369 447
#     4  10  24  44  67 104 140 185 238 300 371 438
#     4  10  24  41  67 107 141 192 243 302 375 446
#     4  11  25  43  69 105 135 195 238 295 365 442
#     4  11  25  48  70 106 136 190 236 302 364 435
#     4  11  25  41  70 100 139 188 239 298 369 432
#
# _framework density 23.266660999999999
#
# number of rings (size 3 to 8) (size 9 to 14) (size 15 to 20)
#    0.000    1.250    1.250    2.625    8.750    6.500 
#    0.000    0.000    0.000    0.000    0.000    0.000 
#    0.000    0.000    0.000    0.000    0.000    0.000 
#
# Total GULP energy -89235.991647 kJ/mol
# GULP energy per Si atom -5577.249478 kJ/mol
# Density = 2.321370 g / cm^3
# Si number density = 23.266661 Si / 1000 Ang^3
#
#
#
# Elastic Constant Matrix: (Units=GPa)
#
#
# Indices 1 2 3 4 5 6 
#
# 1 88.4358 23.9280 27.5980 -14.7440 -16.2824 -12.7885
# 2 23.9280 63.9877 32.2410 -21.9950 -2.7349 -4.2102
# 3 27.5980 32.2410 133.1232 -27.1977 -19.0090 10.8917
# 4 -14.7440 -21.9950 -27.1977 38.2153 1.4367 -2.3758
# 5 -16.2824 -2.7349 -19.0090 1.4367 33.3792 4.3958
# 6 -12.7885 -4.2102 10.8917 -2.3758 4.3958 29.9977
#
#
#
# Elastic Compliance Matrix: (Units=1/GPa)
#
#
# Indices 1 2 3 4 5 6 
#
# 1 0.014966 -0.003203 -0.001420 0.003087 0.005318 0.005912
# 2 -0.003203 0.021912 -0.003468 0.009263 -0.002680 0.004095
# 3 -0.001420 -0.003468 0.010861 0.004628 0.005735 -0.005510
# 4 0.003087 0.009263 0.004628 0.036084 0.002904 0.003368
# 5 0.005318 -0.002680 0.005735 0.002904 0.036167 -0.005261
# 6 0.005912 0.004095 -0.005510 0.003368 -0.005261 0.039469
#
#
# Mechanical properties :
#
#
# Convention : Reuss Voigt Hill
#
# Bulk Modulus (GPa) = 31.68985 50.34229 41.01607
# Shear Modulus (GPa) = 26.85823 33.77042 30.31432
#
# Velocity S-wave (km/s) = 3.40128 3.81392 3.61350
# Velocity P-wave (km/s) = 5.39211 6.40927 5.92257
#
# Compressibility (1/GPa) = 0.03155585
#
# Stress axis : x y z
#
# Youngs Moduli (GPa) = 66.81654 45.63648 92.06899
#
# Poissons Ratio (x) = 0.14620 0.13078
# Poissons Ratio (y) = 0.21405 0.31931
# Poissons Ratio (z) = 0.09491 0.15827
#
# Static dielectric constant tensor:
#      x y z
#    x 2.094000 -0.121540 -0.154110 
#    y -0.121540 2.120110 0.109390 
#    z -0.154110 0.109390 1.990270 
# 
# From -- ./inp_files/442141.got.cif
#   From: 2010.05.17/outbox.cif.g08.bks.cpg/sg2_222_cif.got.tgz:442141.got - 2010.06.03 11:33:40.
