data_PCOD9045095
_publ_section_title
;
Structure prediction by ZEFSAII (Michael W. Deem and Ramdas Pophale) SiO2 
 PCOD9045095
Probable space group: P -1
;
_chemical_formula_sum "Si O2"
_cell_formula_units_Z 14
_cell_length_a 6.484735
_cell_length_b 5.707365
_cell_length_c 16.594591
_cell_angle_alpha 80.288631
_cell_angle_beta 87.818257
_cell_angle_gamma 101.810053
_cell_volume 590.882428
_symmetry_space_group_name_H-M "P -1"
_symmetry_group_IT_number 2
_symmetry_cell_setting 'triclinic'
loop_
_space_group_symop_operation_xyz
x,y,z
-x,-y,-z
loop_
_atom_site_type_symbol
_atom_site_label
_atom_site_fract_x
_atom_site_fract_y
_atom_site_fract_z
Si Si1 0.308917 0.006640 0.247905
Si Si2 0.975507 0.231624 0.313754
Si Si3 0.346026 0.756330 0.547272
Si Si4 0.336957 0.574387 0.388087
Si Si5 0.512483 0.835797 0.107938
Si Si6 0.318018 0.548460 0.803155
Si Si7 0.233189 0.670723 0.979609
O O1 0.374602 0.815872 0.319485
O O2 0.341884 0.938103 0.158281
O O3 0.075951 0.038720 0.273975
O O4 0.475865 0.261294 0.240839
O O5 0.164308 0.384885 0.353698
O O6 0.796851 0.155460 0.388167
O O7 0.882191 0.401461 0.243384
O O8 0.247607 0.635754 0.472471
O O9 0.466029 0.553741 0.592598
O O10 0.500000 0.000000 0.500000
O O11 0.636097 0.717396 0.180717
O O12 0.693623 0.032143 0.047540
O O13 0.375081 0.647957 0.057307
O O14 0.297178 0.599009 0.894860
O O15 0.000000 0.500000 0.000000
#
# Coordination Sequence:
#
# PCOD9045095 Si02
#       7
#     2   2   2   2   2   2   2
#     4  11  25  44  69 100 144 185 230 297 348 428
#     4  12  25  43  69 103 137 183 235 285 359 426
#     4  11  25  47  71  99 141 183 231 294 352 419
#     4  11  25  43  70 103 136 183 232 293 351 422
#     4  10  23  49  70 103 150 187 239 306 353 418
#     4  11  25  46  70 102 142 186 232 297 356 420
#     4  10  24  44  74 108 139 192 243 296 360 428
#
# _framework density 23.693375
#
# number of rings (size 3 to 8) (size 9 to 14) (size 15 to 20)
#    0.000    1.143    0.000    5.143    4.000    8.571 
#    0.000    0.000    0.000    0.000    0.000    0.000 
#    0.000    0.000    0.000    0.000    0.000    0.000 
#
# Total GULP energy -78177.002641 kJ/mol
# GULP energy per Si atom -5584.071617 kJ/mol
# Density = 2.363945 g / cm^3
# Si number density = 23.693375 Si / 1000 Ang^3
#
#
#
# Elastic Constant Matrix: (Units=GPa)
#
#
# Indices 1 2 3 4 5 6 
#
# 1 97.5655 37.7043 78.3153 -5.5459 -10.5466 9.0485
# 2 37.7043 44.9377 35.3381 -11.4714 -14.1936 7.2785
# 3 78.3153 35.3381 154.4390 8.0195 -12.9042 -3.6563
# 4 -5.5459 -11.4714 8.0195 60.3171 4.9141 4.6463
# 5 -10.5466 -14.1936 -12.9042 4.9141 44.6404 3.2405
# 6 9.0485 7.2785 -3.6563 4.6463 3.2405 29.6801
#
#
#
# Elastic Compliance Matrix: (Units=1/GPa)
#
#
# Indices 1 2 3 4 5 6 
#
# 1 0.022062 -0.010093 -0.009140 0.001791 -0.000429 -0.005611
# 2 -0.010093 0.039966 -0.003859 0.007162 0.009095 -0.009313
# 3 -0.009140 -0.003859 0.012335 -0.003675 0.000162 0.005810
# 4 0.001791 0.007162 -0.003675 0.019039 -0.000042 -0.005731
# 5 -0.000429 0.009095 0.000162 -0.000042 0.025596 -0.004868
# 6 -0.005611 -0.009313 0.005810 -0.005731 -0.004868 0.039831
#
#
# Mechanical properties :
#
#
# Convention : Reuss Voigt Hill
#
# Bulk Modulus (GPa) = 35.48794 66.62863 51.05828
# Shear Modulus (GPa) = 23.32011 36.63316 29.97664
#
# Velocity S-wave (km/s) = 3.14067 3.93636 3.56081
# Velocity P-wave (km/s) = 5.30682 6.98872 6.20502
#
# Compressibility (1/GPa) = 0.02817859
#
# Stress axis : x y z
#
# Youngs Moduli (GPa) = 45.32602 25.02153 81.07119
#
# Poissons Ratio (x) = 0.25254 0.74099
# Poissons Ratio (y) = 0.45748 0.31287
# Poissons Ratio (z) = 0.41428 0.09656
#
# Static dielectric constant tensor:
#      x y z
#    x 1.911560 -0.053030 -0.007450 
#    y -0.053030 2.046550 -0.000670 
#    z -0.007450 -0.000670 1.915270 
# 
# From -- ./inp_files/11631.got.cif
#   From: 2010.05.17/outbox.cif.g08.bks.cpg/sg2_6_cif.got.tgz:11631.got - 2010.06.03 11:33:40.
