data_PCOD9045020
_publ_section_title
;
Structure prediction by ZEFSAII (Michael W. Deem and Ramdas Pophale) SiO2 
 PCOD9045020
Probable space group: P -1
;
_chemical_formula_sum "Si O2"
_cell_formula_units_Z 13
_cell_length_a 5.018206
_cell_length_b 9.158741
_cell_length_c 11.538190
_cell_angle_alpha 90.176856
_cell_angle_beta 99.251352
_cell_angle_gamma 120.902590
_cell_volume 446.798345
_symmetry_space_group_name_H-M "P -1"
_symmetry_group_IT_number 2
_symmetry_cell_setting 'triclinic'
loop_
_space_group_symop_operation_xyz
x,y,z
-x,-y,-z
loop_
_atom_site_type_symbol
_atom_site_label
_atom_site_fract_x
_atom_site_fract_y
_atom_site_fract_z
Si Si1 0.500000 0.500000 0.500000
Si Si2 0.652272 0.114244 0.171211
Si Si3 0.310932 0.307986 0.104117
Si Si4 0.935498 0.240867 0.850735
Si Si5 0.653939 0.442125 0.709249
Si Si6 0.001832 0.142722 0.610822
Si Si7 0.437238 0.794018 0.579487
O O1 0.820000 0.562459 0.612015
O O2 0.405450 0.613121 0.580603
O O3 0.558582 0.246645 0.113551
O O4 0.619378 0.129883 0.306885
O O5 0.994894 0.165669 0.150137
O O6 0.381629 0.922497 0.120964
O O7 0.426191 0.471915 0.192812
O O8 0.182764 0.322677 0.971370
O O9 0.829908 0.359234 0.780968
O O10 0.047046 0.169321 0.753029
O O11 0.348482 0.309889 0.604413
O O12 0.756590 0.187231 0.538730
O O13 0.815478 0.938462 0.579580
#
# Coordination Sequence:
#
# PCOD9045020 Si02
#       7
#     1   2   2   2   2   2   2
#     4  12  24  44  68 108 144 186 244 308 370 428
#     4  11  27  48  79 110 148 198 252 308 369 439
#     4  12  28  49  75 112 151 199 250 309 364 442
#     4  11  26  48  74 106 151 196 252 300 377 439
#     4  12  28  43  73 107 149 199 245 309 373 444
#     4  10  25  46  72 105 144 196 247 304 378 445
#     4  10  23  48  73 108 145 190 251 309 375 443
#
# _framework density 29.0959
#
# number of rings (size 3 to 8) (size 9 to 14) (size 15 to 20)
#    0.000    0.923    3.077    1.385   10.769    1.846 
#    0.000    0.000    0.000    0.000    0.000    0.000 
#    0.000    0.000    0.000    0.000    0.000    0.000 
#
# Total GULP energy -72774.188423 kJ/mol
# GULP energy per Si atom -5598.014494 kJ/mol
# Density = 2.902968 g / cm^3
# Si number density = 29.095900 Si / 1000 Ang^3
#
#
#
# Elastic Constant Matrix: (Units=GPa)
#
#
# Indices 1 2 3 4 5 6 
#
# 1 80.1742 21.2531 1.8806 -1.2701 16.9479 2.2129
# 2 21.2531 120.9660 58.0010 18.7255 28.9466 -15.8213
# 3 1.8806 58.0010 217.6762 -0.9115 26.6603 -4.8786
# 4 -1.2701 18.7255 -0.9115 61.0784 4.2888 13.5434
# 5 16.9479 28.9466 26.6603 4.2888 48.5998 -13.4543
# 6 2.2129 -15.8213 -4.8786 13.5434 -13.4543 66.1954
#
#
#
# Elastic Compliance Matrix: (Units=1/GPa)
#
#
# Indices 1 2 3 4 5 6 
#
# 1 0.014237 -0.002456 0.001090 0.001940 -0.004930 -0.002382
# 2 -0.002456 0.011829 -0.002644 -0.004090 -0.003597 0.002820
# 3 0.001090 -0.002644 0.005546 0.001289 -0.002232 -0.000977
# 4 0.001940 -0.004090 0.001289 0.018997 -0.002080 -0.005257
# 5 -0.004930 -0.003597 -0.002232 -0.002080 0.027259 0.005107
# 6 -0.002382 0.002820 -0.000977 -0.005257 0.005107 0.017902
#
#
# Mechanical properties :
#
#
# Convention : Reuss Voigt Hill
#
# Bulk Modulus (GPa) = 42.38759 64.56508 53.47633
# Shear Modulus (GPa) = 44.78119 57.68685 51.23402
#
# Velocity S-wave (km/s) = 3.92738 4.45752 4.20082
# Velocity P-wave (km/s) = 5.93006 6.98078 6.47676
#
# Compressibility (1/GPa) = 0.02359181
#
# Stress axis : x y z
#
# Youngs Moduli (GPa) = 70.23959 84.54051 180.31256
#
# Poissons Ratio (x) = 0.20762 -0.19654
# Poissons Ratio (y) = 0.17250 0.47674
# Poissons Ratio (z) = -0.07656 0.22352
#
# Static dielectric constant tensor:
#      x y z
#    x 2.304870 0.350270 -0.104110 
#    y 0.350270 3.521670 -0.526920 
#    z -0.104110 -0.526920 2.412410 
# 
# From -- ./inp_files/25156.got.cif
#   From: 2010.05.17/outbox.cif.g08.bks.cpg/sg2_13_cif.got.tgz:25156.got - 2010.06.03 11:33:40.
