data_PCOD9045607
_publ_section_title
;
Structure prediction by ZEFSAII (Michael W. Deem and Ramdas Pophale) SiO2 
 PCOD9045607
Probable space group: P -1
;
_chemical_formula_sum "Si O2"
_cell_formula_units_Z 14
_cell_length_a 21.492506
_cell_length_b 5.009064
_cell_length_c 5.054196
_cell_angle_alpha 89.348544
_cell_angle_beta 85.596014
_cell_angle_gamma 67.203215
_cell_volume 500.036094
_symmetry_space_group_name_H-M "P -1"
_symmetry_group_IT_number 2
_symmetry_cell_setting 'triclinic'
loop_
_space_group_symop_operation_xyz
x,y,z
-x,-y,-z
loop_
_atom_site_type_symbol
_atom_site_label
_atom_site_fract_x
_atom_site_fract_y
_atom_site_fract_z
Si Si1 0.420116 0.518389 0.719525
Si Si2 0.300870 0.227938 0.328853
Si Si3 0.076961 0.567658 0.819985
Si Si4 0.278542 0.891155 0.843691
Si Si5 0.817703 0.250341 0.466279
Si Si6 0.931493 0.918863 0.808695
Si Si7 0.557081 0.149642 0.792639
O O1 0.342139 0.581956 0.798617
O O2 0.478966 0.205939 0.761512
O O3 0.429022 0.637995 0.429730
O O4 0.434820 0.726217 0.927826
O O5 0.247965 0.556715 0.344489
O O6 0.291873 0.088611 0.609180
O O7 0.380876 0.155164 0.269721
O O8 0.280213 0.052449 0.110571
O O9 0.141956 0.552326 0.637183
O O10 0.007389 0.737775 0.683132
O O11 0.076778 0.278652 0.949734
O O12 0.073103 0.781529 0.064552
O O13 0.211954 0.846573 0.779225
O O14 0.872360 0.992206 0.614608
#
# Coordination Sequence:
#
# PCOD9045607 Si02
#       7
#     2   2   2   2   2   2   2
#     4   8  14  30  56  85 125 180 236 293 353 419
#     4  10  24  41  63 100 143 188 242 300 367 441
#     4  10  25  48  75 107 144 192 250 305 367 448
#     4  10  24  41  63 100 143 188 242 300 367 441
#     4  12  27  40  73 104 148 190 240 304 375 448
#     4  10  25  48  75 107 144 192 250 305 367 448
#     4   8  14  30  56  85 125 180 236 293 353 419
#
# _framework density 27.997979000000001
#
# number of rings (size 3 to 8) (size 9 to 14) (size 15 to 20)
#    0.000    2.286    0.000    0.429    8.000    0.000 
#    0.000    5.000    0.000    2.571    0.000   20.000 
#    0.000    3.429    0.000    0.857    0.000    0.000 
#
# Total GULP energy -78626.388578 kJ/mol
# GULP energy per Si atom -5616.170613 kJ/mol
# Density = 2.793425 g / cm^3
# Si number density = 27.997979 Si / 1000 Ang^3
#
#
#
# Elastic Constant Matrix: (Units=GPa)
#
#
# Indices 1 2 3 4 5 6 
#
# 1 160.5461 71.8720 31.0021 2.2342 12.5841 -51.4994
# 2 71.8720 91.4415 39.6985 -5.0096 13.8903 -23.6385
# 3 31.0021 39.6985 129.0356 -1.5748 11.3142 7.0551
# 4 2.2342 -5.0096 -1.5748 45.3065 -7.4349 -0.2077
# 5 12.5841 13.8903 11.3142 -7.4349 37.1322 -4.4629
# 6 -51.4994 -23.6385 7.0551 -0.2077 -4.4629 56.8257
#
#
#
# Elastic Compliance Matrix: (Units=1/GPa)
#
#
# Indices 1 2 3 4 5 6 
#
# 1 0.012359 -0.007010 -0.001248 -0.001467 -0.000470 0.008397
# 2 -0.007010 0.019267 -0.004065 0.001853 -0.002989 0.001938
# 3 -0.001248 -0.004065 0.009660 -0.000328 -0.001564 -0.004146
# 4 -0.001467 0.001853 -0.000328 0.023078 0.004515 -0.000079
# 5 -0.000470 -0.002989 -0.001564 0.004515 0.029694 0.000873
# 6 0.008397 0.001938 -0.004146 -0.000079 0.000873 0.026597
#
#
# Mechanical properties :
#
#
# Convention : Reuss Voigt Hill
#
# Bulk Modulus (GPa) = 60.09763 74.01874 67.05818
# Shear Modulus (GPa) = 33.14588 43.74960 38.44774
#
# Velocity S-wave (km/s) = 3.44447 3.95726 3.70974
# Velocity P-wave (km/s) = 6.10989 6.88291 6.50789
#
# Compressibility (1/GPa) = 0.01663959
#
# Stress axis : x y z
#
# Youngs Moduli (GPa) = 80.91308 51.90169 103.51935
#
# Poissons Ratio (x) = 0.36384 0.12924
# Poissons Ratio (y) = 0.56722 0.42077
# Poissons Ratio (z) = 0.10101 0.21096
#
# Static dielectric constant tensor:
#      x y z
#    x 2.148890 -0.081860 -0.037200 
#    y -0.081860 2.163010 0.010220 
#    z -0.037200 0.010220 2.148300 
# 
# From -- ./inp_files/121750.got.cif
#   From: 2010.05.17/outbox.cif.g08.bks.cpg/sg2_61_cif.got.tgz:121750.got - 2010.06.03 11:33:40.
