data_PCOD9045287
_publ_section_title
;
Structure prediction by ZEFSAII (Michael W. Deem and Ramdas Pophale) SiO2 
 PCOD9045287
Probable space group: P -1
;
_chemical_formula_sum "Si O2"
_cell_formula_units_Z 12
_cell_length_a 5.202613
_cell_length_b 15.877328
_cell_length_c 15.330341
_cell_angle_alpha 25.622197
_cell_angle_beta 66.882532
_cell_angle_gamma 73.919984
_cell_volume 494.101468
_symmetry_space_group_name_H-M "P -1"
_symmetry_group_IT_number 2
_symmetry_cell_setting 'triclinic'
loop_
_space_group_symop_operation_xyz
x,y,z
-x,-y,-z
loop_
_atom_site_type_symbol
_atom_site_label
_atom_site_fract_x
_atom_site_fract_y
_atom_site_fract_z
Si Si1 0.725546 0.477271 0.349450
Si Si2 0.497215 0.709368 0.843972
Si Si3 0.818106 0.787974 0.416269
Si Si4 0.623930 0.772505 0.954410
Si Si5 0.852191 0.963173 0.431748
Si Si6 0.336271 0.118087 0.975699
O O1 0.439579 0.317718 0.512521
O O2 0.974742 0.368345 0.446834
O O3 0.782357 0.608369 0.129844
O O4 0.689428 0.655615 0.254485
O O5 0.455640 0.684412 0.975843
O O6 0.787556 0.834735 0.646453
O O7 0.270495 0.837464 0.723946
O O8 0.500000 0.500000 0.000000
O O9 0.713885 0.851075 0.466610
O O10 0.030701 0.980552 0.168100
O O11 0.487232 0.844765 0.991044
O O12 0.826262 0.964688 0.708167
O O13 0.500000 0.000000 0.000000
#
# Coordination Sequence:
#
# PCOD9045287 Si02
#       6
#     2   2   2   2   2   2
#     4  10  25  42  72 101 138 183 230 279 351 405
#     4  11  23  40  64  94 133 175 233 277 342 409
#     4  11  24  45  72 100 142 183 226 288 341 414
#     4   9  22  41  64  90 138 173 224 281 341 399
#     4  10  24  39  64  95 133 179 227 277 348 400
#     4   9  23  45  71 104 138 179 231 287 342 411
#
# _framework density 24.286511000000001
#
# number of rings (size 3 to 8) (size 9 to 14) (size 15 to 20)
#    1.000    1.000    0.000    1.500    9.333    3.333 
#    0.000    1.667    0.000    0.000    0.000    0.000 
#    0.000    0.000    0.000    0.000    0.000    0.000 
#
# Total GULP energy -66960.933653 kJ/mol
# GULP energy per Si atom -5580.077804 kJ/mol
# Density = 2.423123 g / cm^3
# Si number density = 24.286511 Si / 1000 Ang^3
#
#
#
# Elastic Constant Matrix: (Units=GPa)
#
#
# Indices 1 2 3 4 5 6 
#
# 1 77.6364 40.8041 31.5435 -21.6733 2.6992 -5.1393
# 2 40.8041 149.0802 44.8277 -30.3959 4.9674 18.3826
# 3 31.5435 44.8277 115.0894 -33.8167 -4.2566 -3.2679
# 4 -21.6733 -30.3959 -33.8167 46.6179 -7.4017 -2.2878
# 5 2.6992 4.9674 -4.2566 -7.4017 35.1023 -9.0811
# 6 -5.1393 18.3826 -3.2679 -2.2878 -9.0811 19.3652
#
#
#
# Elastic Compliance Matrix: (Units=1/GPa)
#
#
# Indices 1 2 3 4 5 6 
#
# 1 0.018162 -0.005148 -0.000865 0.005593 0.003472 0.011850
# 2 -0.005148 0.011366 -0.003345 0.001007 -0.005310 -0.015090
# 3 -0.000865 -0.003345 0.013198 0.008435 0.006276 0.009113
# 4 0.005593 0.001007 0.008435 0.032957 0.010142 0.010601
# 5 0.003472 -0.005310 0.006276 0.010142 0.038693 0.026364
# 6 0.011850 -0.015090 0.009113 0.010601 0.026364 0.084262
#
#
# Mechanical properties :
#
#
# Convention : Reuss Voigt Hill
#
# Bulk Modulus (GPa) = 41.64640 64.01743 52.83191
# Shear Modulus (GPa) = 22.18714 35.19247 28.68980
#
# Velocity S-wave (km/s) = 3.02579 3.81077 3.44074
# Velocity P-wave (km/s) = 5.42148 6.76603 6.13072
#
# Compressibility (1/GPa) = 0.02401168
#
# Stress axis : x y z
#
# Youngs Moduli (GPa) = 55.05870 87.98468 75.76923
#
# Poissons Ratio (x) = 0.45291 0.06551
# Poissons Ratio (y) = 0.28342 0.25345
# Poissons Ratio (z) = 0.04760 0.29431
#
# Static dielectric constant tensor:
#      x y z
#    x 2.087050 0.009350 -0.011070 
#    y 0.009350 1.985570 -0.042780 
#    z -0.011070 -0.042780 2.104770 
# 
# From -- ./inp_files/140770.got.cif
#   From: 2010.05.17/outbox.cif.g08.bks.cpg/sg2_71_cif.got.tgz:140770.got - 2010.06.03 11:33:40.
