data_PCOD9045537
_publ_section_title
;
Structure prediction by ZEFSAII (Michael W. Deem and Ramdas Pophale) SiO2 
 PCOD9045537
Probable space group: P -1
;
_chemical_formula_sum "Si O2"
_cell_formula_units_Z 14
_cell_length_a 9.252093
_cell_length_b 21.751383
_cell_length_c 8.149987
_cell_angle_alpha 130.062209
_cell_angle_beta 98.365187
_cell_angle_gamma 40.309955
_cell_volume 581.968886
_symmetry_space_group_name_H-M "P -1"
_symmetry_group_IT_number 2
_symmetry_cell_setting 'triclinic'
loop_
_space_group_symop_operation_xyz
x,y,z
-x,-y,-z
loop_
_atom_site_type_symbol
_atom_site_label
_atom_site_fract_x
_atom_site_fract_y
_atom_site_fract_z
Si Si1 0.679877 0.654913 0.492655
Si Si2 0.499258 0.081961 0.542618
Si Si3 0.342091 0.161636 0.291950
Si Si4 0.384185 0.298439 0.053634
Si Si5 0.354866 0.656761 0.308013
Si Si6 0.836587 0.191696 0.776821
Si Si7 0.300230 0.573303 0.438734
O O1 0.523465 0.814618 0.681743
O O2 0.610232 0.679145 0.717071
O O3 0.582197 0.621395 0.323637
O O4 0.052282 0.484449 0.242465
O O5 0.292516 0.183529 0.518684
O O6 0.500000 0.000000 0.500000
O O7 0.388648 0.201723 0.859206
O O8 0.856395 0.928544 0.285936
O O9 0.027910 0.308598 0.385476
O O10 0.500000 0.000000 0.000000
O O11 0.686972 0.183506 0.808594
O O12 0.102107 0.820415 0.426480
O O13 0.230545 0.685442 0.510674
O O14 0.500000 0.500000 0.000000
O O15 0.532904 0.395814 0.092933
O O16 0.500000 0.500000 0.500000
#
# Coordination Sequence:
#
# PCOD9045537 Si02
#       7
#     2   2   2   2   2   2   2
#     4  11  25  45  72 108 143 193 248 300 360 441
#     4  12  27  44  72 104 150 188 240 303 365 433
#     4  12  26  46  71 109 147 194 240 302 367 429
#     4  11  25  44  73 102 148 190 244 298 367 428
#     4  10  24  40  71 105 140 185 245 299 362 429
#     4  11  23  45  66 104 139 186 242 294 365 426
#     4  11  23  42  70 101 145 187 242 297 361 438
#
# _framework density 24.056269
#
# number of rings (size 3 to 8) (size 9 to 14) (size 15 to 20)
#    0.000    0.857    1.429    4.714   10.000    1.143 
#    0.000    2.143    0.000    0.000    0.000    0.000 
#    0.000    0.000    0.000    0.000    0.000    0.000 
#
# Total GULP energy -78128.246767 kJ/mol
# GULP energy per Si atom -5580.589055 kJ/mol
# Density = 2.400152 g / cm^3
# Si number density = 24.056269 Si / 1000 Ang^3
#
#
#
# Elastic Constant Matrix: (Units=GPa)
#
#
# Indices 1 2 3 4 5 6 
#
# 1 149.6036 29.7435 32.4345 -0.6985 34.9190 -1.9083
# 2 29.7435 90.9408 1.6154 -12.8765 16.5232 -13.6874
# 3 32.4345 1.6154 74.3120 12.0634 20.6997 -16.1123
# 4 -0.6985 -12.8765 12.0634 28.1735 -1.5862 -0.0355
# 5 34.9190 16.5232 20.6997 -1.5862 39.8592 3.5769
# 6 -1.9083 -13.6874 -16.1123 -0.0355 3.5769 37.3953
#
#
#
# Elastic Compliance Matrix: (Units=1/GPa)
#
#
# Indices 1 2 3 4 5 6 
#
# 1 0.008914 -0.001953 -0.002450 0.000058 -0.005656 -0.000775
# 2 -0.001953 0.014501 0.003045 0.004928 -0.006325 0.007130
# 3 -0.002450 0.003045 0.021572 -0.008549 -0.011681 0.011393
# 4 0.000058 0.004928 -0.008549 0.041643 0.004204 -0.002239
# 5 -0.005656 -0.006325 -0.011681 0.004204 0.039926 -0.011452
# 6 -0.000775 0.007130 0.011393 -0.002239 -0.011452 0.035313
#
#
# Mechanical properties :
#
#
# Convention : Reuss Voigt Hill
#
# Bulk Modulus (GPa) = 23.65726 49.16038 36.40882
# Shear Modulus (GPa) = 27.98364 37.82315 32.90339
#
# Velocity S-wave (km/s) = 3.41436 3.96950 3.70235
# Velocity P-wave (km/s) = 5.03977 6.44121 5.78310
#
# Compressibility (1/GPa) = 0.04227033
#
# Stress axis : x y z
#
# Youngs Moduli (GPa) = 112.17952 68.96133 46.35675
#
# Poissons Ratio (x) = 0.13467 0.11359
# Poissons Ratio (y) = 0.21906 -0.14115
# Poissons Ratio (z) = 0.27488 -0.20997
#
# Static dielectric constant tensor:
#      x y z
#    x 2.009120 0.094220 -0.077930 
#    y 0.094220 1.966480 -0.024460 
#    z -0.077930 -0.024460 2.027410 
# 
# From -- ./inp_files/223014.got.cif
#   From: 2010.05.17/outbox.cif.g08.bks.cpg/sg2_112_cif.got.tgz:223014.got - 2010.06.03 11:33:40.
