data_PCOD9045632
_publ_section_title
;
Structure prediction by ZEFSAII (Michael W. Deem and Ramdas Pophale) SiO2 
 PCOD9045632
Probable space group: P -1
;
_chemical_formula_sum "Si O2"
_cell_formula_units_Z 12
_cell_length_a 18.113803
_cell_length_b 5.007744
_cell_length_c 21.182176
_cell_angle_alpha 51.097026
_cell_angle_beta 160.850127
_cell_angle_gamma 126.413375
_cell_volume 490.508156
_symmetry_space_group_name_H-M "P -1"
_symmetry_group_IT_number 2
_symmetry_cell_setting 'triclinic'
loop_
_space_group_symop_operation_xyz
x,y,z
-x,-y,-z
loop_
_atom_site_type_symbol
_atom_site_label
_atom_site_fract_x
_atom_site_fract_y
_atom_site_fract_z
Si Si1 0.859896 0.668498 0.917223
Si Si2 0.588962 0.511314 0.172076
Si Si3 0.835503 0.681073 0.221748
Si Si4 0.740908 0.762983 0.386875
Si Si5 0.061731 0.315420 0.244697
Si Si6 0.649338 0.228790 0.503504
O O1 0.875437 0.424476 0.027410
O O2 0.605161 0.757460 0.680307
O O3 0.000000 0.500000 0.000000
O O4 0.000000 0.000000 0.000000
O O5 0.710951 0.706048 0.184303
O O6 0.597741 0.713484 0.214496
O O7 0.718930 0.147373 0.337542
O O8 0.343429 0.411004 0.963538
O O9 0.010915 0.366582 0.411777
O O10 0.962504 0.028419 0.253746
O O11 0.660448 0.497904 0.414471
O O12 0.164247 0.634405 0.317602
O O13 0.269010 0.135082 0.402496
#
# Coordination Sequence:
#
# PCOD9045632 Si02
#       6
#     2   2   2   2   2   2
#     4  12  27  46  72 100 127 164 211 266 330 393
#     4  11  24  39  63  95 133 173 222 268 306 368
#     4  10  24  41  64  95 130 176 219 263 320 368
#     4  11  23  41  64  93 132 174 216 263 315 374
#     4  11  25  44  67  95 133 170 213 265 319 386
#     4  11  25  44  68  98 131 171 211 260 324 383
#
# _framework density 24.464424000000001
#
# number of rings (size 3 to 8) (size 9 to 14) (size 15 to 20)
#    0.000    1.000    0.000    6.000    0.000   17.333 
#    0.000    0.000    0.000    0.000    0.000    0.000 
#    0.000    0.000    0.000    0.000    0.000    0.000 
#
# Total GULP energy -67359.203745 kJ/mol
# GULP energy per Si atom -5613.266979 kJ/mol
# Density = 2.440874 g / cm^3
# Si number density = 24.464424 Si / 1000 Ang^3
#
#
#
# Elastic Constant Matrix: (Units=GPa)
#
#
# Indices 1 2 3 4 5 6 
#
# 1 77.1217 10.8594 8.6655 11.5731 -10.0907 -16.4629
# 2 10.8594 69.2498 -10.8135 -3.7347 -5.0471 -10.5023
# 3 8.6655 -10.8135 93.3596 7.5982 -7.3769 4.5558
# 4 11.5731 -3.7347 7.5982 40.1217 6.3155 -4.6939
# 5 -10.0907 -5.0471 -7.3769 6.3155 40.1813 -3.0440
# 6 -16.4629 -10.5023 4.5558 -4.6939 -3.0440 32.1932
#
#
#
# Elastic Compliance Matrix: (Units=1/GPa)
#
#
# Indices 1 2 3 4 5 6 
#
# 1 0.016319 -0.001447 -0.001311 -0.004454 0.004973 0.007879
# 2 -0.001447 0.015892 0.001763 0.001787 0.002028 0.004647
# 3 -0.001311 0.001763 0.011479 -0.002193 0.002206 -0.001831
# 4 -0.004454 0.001787 -0.002193 0.027913 -0.005520 0.002163
# 5 0.004973 0.002028 0.002206 -0.005520 0.028022 0.004737
# 6 0.007879 0.004647 -0.001831 0.002163 0.004737 0.037630
#
#
# Mechanical properties :
#
#
# Convention : Reuss Voigt Hill
#
# Bulk Modulus (GPa) = 23.98105 28.57264 26.27685
# Shear Modulus (GPa) = 32.64891 37.90053 35.27472
#
# Velocity S-wave (km/s) = 3.65711 3.94027 3.80133
# Velocity P-wave (km/s) = 5.25892 5.69259 5.48005
#
# Compressibility (1/GPa) = 0.04169959
#
# Stress axis : x y z
#
# Youngs Moduli (GPa) = 61.27979 62.92635 87.11340
#
# Poissons Ratio (x) = 0.09103 0.11423
# Poissons Ratio (y) = 0.08865 -0.15357
# Poissons Ratio (z) = 0.08035 -0.11093
#
# Static dielectric constant tensor:
#      x y z
#    x 1.915990 0.044750 -0.008000 
#    y 0.044750 1.888320 -0.041050 
#    z -0.008000 -0.041050 1.947640 
# 
# From -- ./inp_files/113776.got.cif
#   From: 2010.05.17/outbox.cif.g08.bks.cpg/sg2_57_cif.got.tgz:113776.got - 2010.06.03 11:33:40.
