data_PCOD9045920
_publ_section_title
;
Structure prediction by ZEFSAII (Michael W. Deem and Ramdas Pophale) SiO2 
 PCOD9045920
Probable space group: P -1
;
_chemical_formula_sum "Si O2"
_cell_formula_units_Z 15
_cell_length_a 8.742319
_cell_length_b 10.918605
_cell_length_c 14.350532
_cell_angle_alpha 139.649204
_cell_angle_beta 56.265815
_cell_angle_gamma 138.415410
_cell_volume 588.319097
_symmetry_space_group_name_H-M "P -1"
_symmetry_group_IT_number 2
_symmetry_cell_setting 'triclinic'
loop_
_space_group_symop_operation_xyz
x,y,z
-x,-y,-z
loop_
_atom_site_type_symbol
_atom_site_label
_atom_site_fract_x
_atom_site_fract_y
_atom_site_fract_z
Si Si1 0.627540 0.319048 0.477632
Si Si2 0.381760 0.461892 0.209998
Si Si3 0.010475 0.611430 0.815842
Si Si4 0.151127 0.232466 0.864762
Si Si5 0.076258 0.793865 0.571741
Si Si6 0.466597 0.079124 0.957093
Si Si7 0.000000 0.500000 0.000000
Si Si8 0.148476 0.902948 0.403980
O O1 0.554902 0.425661 0.643889
O O2 0.830077 0.550012 0.486961
O O3 0.765041 0.238686 0.437590
O O4 0.393656 0.093330 0.382889
O O5 0.577853 0.630815 0.164471
O O6 0.155490 0.435577 0.239573
O O7 0.356689 0.221029 0.078893
O O8 0.971299 0.376161 0.732949
O O9 0.271936 0.828372 0.830291
O O10 0.926493 0.695486 0.977882
O O11 0.070159 0.318986 0.859969
O O12 0.032916 0.958014 0.738271
O O13 0.203294 0.919081 0.505638
O O14 0.723858 0.275237 0.948813
O O15 0.500000 0.000000 0.000000
O O16 0.000000 0.000000 0.500000
#
# Coordination Sequence:
#
# PCOD9045920 Si02
#       8
#     2   2   2   2   2   2   1   2
#     4  11  24  47  75  99 143 192 238 286 356 430
#     4  11  23  44  74 104 143 185 238 298 347 417
#     4  12  25  45  70 110 142 183 241 297 350 416
#     4  11  23  41  74 101 142 183 241 286 355 418
#     4  11  24  46  75 101 133 196 241 281 358 427
#     4  11  24  43  70  99 140 180 227 287 355 415
#     4  10  24  42  64 104 132 188 220 282 354 424
#     4  12  28  46  71 106 149 184 234 298 354 420
#
# _framework density 25.496366999999999
#
# number of rings (size 3 to 8) (size 9 to 14) (size 15 to 20)
#    0.000    0.800    4.000    2.800    3.733    0.533 
#    4.800    0.000    0.000    0.000    0.000    0.000 
#    0.000    0.000    0.000    0.000    0.000    0.000 
#
# Total GULP energy -83752.402490 kJ/mol
# GULP energy per Si atom -5583.493499 kJ/mol
# Density = 2.543834 g / cm^3
# Si number density = 25.496367 Si / 1000 Ang^3
#
#
#
# Elastic Constant Matrix: (Units=GPa)
#
#
# Indices 1 2 3 4 5 6 
#
# 1 79.8102 27.5436 10.7839 18.6438 -24.0725 21.5511
# 2 27.5436 149.4772 34.3508 17.7915 -13.5305 45.8247
# 3 10.7839 34.3508 146.4523 32.5455 -23.1217 13.3342
# 4 18.6438 17.7915 32.5455 52.9960 -10.2342 7.2421
# 5 -24.0725 -13.5305 -23.1217 -10.2342 24.5209 -0.8731
# 6 21.5511 45.8247 13.3342 7.2421 -0.8731 52.8393
#
#
#
# Elastic Compliance Matrix: (Units=1/GPa)
#
#
# Indices 1 2 3 4 5 6 
#
# 1 0.022784 0.000645 0.003900 -0.004630 0.024120 -0.009803
# 2 0.000645 0.009853 -0.000597 -0.001099 0.004748 -0.008428
# 3 0.003900 -0.000597 0.009629 -0.004685 0.010528 -0.002687
# 4 -0.004630 -0.001099 -0.004685 0.023705 0.000353 0.000780
# 5 0.024120 0.004748 0.010528 0.000353 0.076606 -0.015394
# 6 -0.009803 -0.008428 -0.002687 0.000780 -0.015394 0.030549
#
#
# Mechanical properties :
#
#
# Convention : Reuss Voigt Hill
#
# Bulk Modulus (GPa) = 19.93554 57.89959 38.91756
# Shear Modulus (GPa) = 27.47996 46.27532 36.87764
#
# Velocity S-wave (km/s) = 3.28655 4.26488 3.80727
# Velocity P-wave (km/s) = 4.71570 6.85642 5.88423
#
# Compressibility (1/GPa) = 0.05016168
#
# Stress axis : x y z
#
# Youngs Moduli (GPa) = 43.89096 101.49466 103.85433
#
# Poissons Ratio (x) = -0.06547 -0.40507
# Poissons Ratio (y) = -0.02831 0.06203
# Poissons Ratio (z) = -0.17119 0.06062
#
# Static dielectric constant tensor:
#      x y z
#    x 2.020540 -0.078770 0.120220 
#    y -0.078770 2.044770 -0.056150 
#    z 0.120220 -0.056150 2.127310 
# 
# From -- ./inp_files/560147.got.cif
#   From: 2010.05.17/outbox.cif.g08.bks.cpg/sg2_281_cif.got.tgz:560147.got - 2010.06.03 11:33:40.
