data_PCOD9045458
_publ_section_title
;
Structure prediction by ZEFSAII (Michael W. Deem and Ramdas Pophale) SiO2 
 PCOD9045458
Probable space group: P -1
;
_chemical_formula_sum "Si O2"
_cell_formula_units_Z 16
_cell_length_a 10.013965
_cell_length_b 12.034034
_cell_length_c 8.225816
_cell_angle_alpha 53.168910
_cell_angle_beta 119.123434
_cell_angle_gamma 95.766539
_cell_volume 666.677335
_symmetry_space_group_name_H-M "P -1"
_symmetry_group_IT_number 2
_symmetry_cell_setting 'triclinic'
loop_
_space_group_symop_operation_xyz
x,y,z
-x,-y,-z
loop_
_atom_site_type_symbol
_atom_site_label
_atom_site_fract_x
_atom_site_fract_y
_atom_site_fract_z
Si Si1 0.078889 0.630832 0.461931
Si Si2 0.275003 0.430806 0.979078
Si Si3 0.929652 0.397869 0.872655
Si Si4 0.238707 0.938111 0.700856
Si Si5 0.986646 0.789925 0.593104
Si Si6 0.431075 0.114206 0.219867
Si Si7 0.603109 0.085485 0.881046
Si Si8 0.596522 0.588804 0.584044
O O1 0.086698 0.683920 0.235576
O O2 0.983056 0.730488 0.461482
O O3 0.000000 0.500000 0.500000
O O4 0.247003 0.553978 0.716425
O O5 0.337072 0.271234 0.083195
O O6 0.380106 0.450786 0.176442
O O7 0.097580 0.435847 0.931616
O O8 0.776682 0.537339 0.665921
O O9 0.938354 0.312643 0.121474
O O10 0.106970 0.890015 0.565457
O O11 0.410296 0.871479 0.786978
O O12 0.258688 0.891870 0.941491
O O13 0.181303 0.111719 0.527011
O O14 0.500000 0.000000 0.500000
O O15 0.337124 0.027715 0.128460
O O16 0.491559 0.241400 0.628737
O O17 0.500000 0.000000 0.000000
O O18 0.500000 0.500000 0.500000
#
# Coordination Sequence:
#
# PCOD9045458 Si02
#       8
#     2   2   2   2   2   2   2   2
#     4  10  25  40  68 104 133 180 235 295 350 420
#     4  11  24  43  69 103 139 185 239 300 348 431
#     4  11  25  44  74 100 140 187 239 294 354 422
#     4  10  25  43  69  96 140 186 226 299 355 429
#     4  11  23  48  68 100 142 181 240 292 362 421
#     4  11  22  42  67  98 134 176 238 283 351 423
#     4  10  24  40  67  97 134 186 233 286 348 428
#     4  12  25  44  70 105 144 188 236 297 371 426
#
# _framework density 23.999617000000001
#
# number of rings (size 3 to 8) (size 9 to 14) (size 15 to 20)
#    0.000    1.250    2.500    1.875   10.500    1.000 
#    2.250    2.500    0.000    0.000    0.000    0.000 
#    0.000    0.000    0.000    0.000    0.000    0.000 
#
# Total GULP energy -89350.210392 kJ/mol
# GULP energy per Si atom -5584.388150 kJ/mol
# Density = 2.394499 g / cm^3
# Si number density = 23.999617 Si / 1000 Ang^3
#
#
#
# Elastic Constant Matrix: (Units=GPa)
#
#
# Indices 1 2 3 4 5 6 
#
# 1 42.4413 46.2260 13.5228 -0.6392 12.4412 -10.7540
# 2 46.2260 153.3120 45.8780 24.4900 9.4999 -28.4724
# 3 13.5228 45.8780 123.8583 10.1269 2.3037 -12.9802
# 4 -0.6392 24.4900 10.1269 52.4618 -12.6310 5.9216
# 5 12.4412 9.4999 2.3037 -12.6310 43.4951 3.6435
# 6 -10.7540 -28.4724 -12.9802 5.9216 3.6435 27.8351
#
#
#
# Elastic Compliance Matrix: (Units=1/GPa)
#
#
# Indices 1 2 3 4 5 6 
#
# 1 0.039057 -0.011011 0.000165 0.003115 -0.008233 0.004318
# 2 -0.011011 0.014132 -0.002088 -0.008395 -0.003222 0.011435
# 3 0.000165 -0.002088 0.009214 -0.001252 -0.000659 0.002578
# 4 0.003115 -0.008395 -0.001252 0.027436 0.010245 -0.015145
# 5 -0.008233 -0.003222 -0.000659 0.010245 0.030141 -0.012908
# 6 0.004318 0.011435 0.002578 -0.015145 -0.012908 0.055405
#
#
# Mechanical properties :
#
#
# Convention : Reuss Voigt Hill
#
# Bulk Modulus (GPa) = 27.37063 58.98502 43.17783
# Shear Modulus (GPa) = 23.42701 39.02407 31.22554
#
# Velocity S-wave (km/s) = 3.12772 4.03678 3.61097
# Velocity P-wave (km/s) = 4.94700 6.80869 5.95110
#
# Compressibility (1/GPa) = 0.03653551
#
# Stress axis : x y z
#
# Youngs Moduli (GPa) = 25.60376 70.76299 108.53470
#
# Poissons Ratio (x) = 0.77918 -0.01795
# Poissons Ratio (y) = 0.28193 0.22658
# Poissons Ratio (z) = -0.00424 0.14772
#
# Static dielectric constant tensor:
#      x y z
#    x 1.961710 0.035300 -0.046340 
#    y 0.035300 1.962540 0.008450 
#    z -0.046340 0.008450 1.986280 
# 
# From -- ./inp_files/262140.got.cif
#   From: 2010.05.17/outbox.cif.g08.bks.cpg/sg2_132_cif.got.tgz:262140.got - 2010.06.03 11:33:40.
