data_PCOD9045147
_publ_section_title
;
Structure prediction by ZEFSAII (Michael W. Deem and Ramdas Pophale) SiO2 
 PCOD9045147
Probable space group: P -1
;
_chemical_formula_sum "Si O2"
_cell_formula_units_Z 14
_cell_length_a 18.697442
_cell_length_b 7.903969
_cell_length_c 4.845625
_cell_angle_alpha 92.015550
_cell_angle_beta 90.488659
_cell_angle_gamma 56.722876
_cell_volume 598.263373
_symmetry_space_group_name_H-M "P -1"
_symmetry_group_IT_number 2
_symmetry_cell_setting 'triclinic'
loop_
_space_group_symop_operation_xyz
x,y,z
-x,-y,-z
loop_
_atom_site_type_symbol
_atom_site_label
_atom_site_fract_x
_atom_site_fract_y
_atom_site_fract_z
Si Si1 0.114752 0.708621 0.915610
Si Si2 0.950882 0.887295 0.319032
Si Si3 0.686825 0.133319 0.368493
Si Si4 0.591853 0.372594 0.860515
Si Si5 0.793982 0.665686 0.472806
Si Si6 0.076231 0.301926 0.148616
Si Si7 0.268819 0.595491 0.299691
O O1 0.145760 0.495162 0.766323
O O2 0.082951 0.877175 0.682921
O O3 0.194989 0.685959 0.074463
O O4 0.039158 0.783991 0.140047
O O5 0.952927 0.782605 0.600331
O O6 0.890099 0.860781 0.104758
O O7 0.657937 0.197223 0.060758
O O8 0.739741 0.226531 0.495882
O O9 0.733778 0.896307 0.394853
O O10 0.601653 0.261515 0.565856
O O11 0.500000 0.500000 0.000000
O O12 0.636433 0.497362 0.823628
O O13 0.855674 0.663543 0.707525
O O14 0.740625 0.571901 0.563489
O O15 0.000000 0.500000 0.000000
#
# Coordination Sequence:
#
# PCOD9045147 Si02
#       7
#     2   2   2   2   2   2   2
#     4  11  27  47  74 105 147 193 260 312 370 435
#     4  11  29  48  71 101 144 204 253 314 379 425
#     4  10  25  47  78 110 145 194 237 295 374 433
#     4  10  23  49  80 111 149 190 235 296 368 451
#     4  12  28  46  77 109 147 194 255 306 365 443
#     4  12  29  49  69 101 148 198 254 315 376 429
#     4  10  25  44  76 108 151 188 244 299 368 441
#
# _framework density 23.401067999999999
#
# number of rings (size 3 to 8) (size 9 to 14) (size 15 to 20)
#    0.857    0.286    0.000    3.429   16.000    1.143 
#    2.571    1.429    0.000    0.000    0.000    0.000 
#    0.000    0.000    0.000    0.000    0.000    0.000 
#
# Total GULP energy -78355.235480 kJ/mol
# GULP energy per Si atom -5596.802534 kJ/mol
# Density = 2.334781 g / cm^3
# Si number density = 23.401068 Si / 1000 Ang^3
#
#
#
# Elastic Constant Matrix: (Units=GPa)
#
#
# Indices 1 2 3 4 5 6 
#
# 1 135.1653 61.2111 27.8133 -1.3629 -30.0952 11.2009
# 2 61.2111 123.5128 27.9695 -7.6056 -11.2409 33.3401
# 3 27.8133 27.9695 125.2235 -15.1229 -15.0372 16.7195
# 4 -1.3629 -7.6056 -15.1229 43.9610 5.7109 -5.1806
# 5 -30.0952 -11.2409 -15.0372 5.7109 48.7454 5.0604
# 6 11.2009 33.3401 16.7195 -5.1806 5.0604 38.2058
#
#
#
# Elastic Compliance Matrix: (Units=1/GPa)
#
#
# Indices 1 2 3 4 5 6 
#
# 1 0.011007 -0.005007 -0.000933 -0.001482 0.005462 0.000626
# 2 -0.005007 0.013541 -0.000351 0.000747 0.000896 -0.010213
# 3 -0.000933 -0.000351 0.009300 0.002403 0.002290 -0.003467
# 4 -0.001482 0.000747 0.002403 0.024349 -0.003108 0.002444
# 5 0.005462 0.000896 0.002290 -0.003108 0.025915 -0.007239
# 6 0.000626 -0.010213 -0.003467 0.002444 -0.007239 0.037710
#
#
# Mechanical properties :
#
#
# Convention : Reuss Voigt Hill
#
# Bulk Modulus (GPa) = 47.02382 68.65437 57.83909
# Shear Modulus (GPa) = 35.33729 43.97629 39.65679
#
# Velocity S-wave (km/s) = 3.89018 4.33973 4.12109
# Velocity P-wave (km/s) = 6.34952 7.38328 6.88582
#
# Compressibility (1/GPa) = 0.02126582
#
# Stress axis : x y z
#
# Youngs Moduli (GPa) = 90.85117 73.84751 107.53188
#
# Poissons Ratio (x) = 0.36974 0.10034
# Poissons Ratio (y) = 0.45487 0.03776
# Poissons Ratio (z) = 0.08478 0.02593
#
# Static dielectric constant tensor:
#      x y z
#    x 1.976640 0.028760 -0.045970 
#    y 0.028760 1.906900 0.011970 
#    z -0.045970 0.011970 1.929010 
# 
# From -- ./inp_files/122558.got.cif
#   From: 2010.05.17/outbox.cif.g08.bks.cpg/sg2_62_cif.got.tgz:122558.got - 2010.06.03 11:33:40.
