data_PCOD9045176
_publ_section_title
;
Structure prediction by ZEFSAII (Michael W. Deem and Ramdas Pophale) SiO2 
 PCOD9045176
Probable space group: P -1
;
_chemical_formula_sum "Si O2"
_cell_formula_units_Z 16
_cell_length_a 5.697575
_cell_length_b 11.942842
_cell_length_c 14.619022
_cell_angle_alpha 120.517738
_cell_angle_beta 70.788276
_cell_angle_gamma 120.710704
_cell_volume 733.499894
_symmetry_space_group_name_H-M "P -1"
_symmetry_group_IT_number 2
_symmetry_cell_setting 'triclinic'
loop_
_space_group_symop_operation_xyz
x,y,z
-x,-y,-z
loop_
_atom_site_type_symbol
_atom_site_label
_atom_site_fract_x
_atom_site_fract_y
_atom_site_fract_z
Si Si1 0.175728 0.959957 0.536543
Si Si2 0.561498 0.372460 0.897934
Si Si3 0.900079 0.683298 0.557131
Si Si4 0.054532 0.071915 0.789485
Si Si5 0.926203 0.609991 0.834600
Si Si6 0.738461 0.225845 0.970039
Si Si7 0.291331 0.635673 0.629003
Si Si8 0.818976 0.873399 0.901709
O O1 0.038143 0.790061 0.500574
O O2 0.500000 0.000000 0.500000
O O3 0.123470 0.028646 0.665100
O O4 0.000000 0.000000 0.500000
O O5 0.309459 0.220028 0.846912
O O6 0.716622 0.334043 0.943563
O O7 0.726109 0.445922 0.815106
O O8 0.500000 0.500000 0.000000
O O9 0.621666 0.703840 0.623292
O O10 0.795805 0.520150 0.469531
O O11 0.134585 0.706794 0.613869
O O12 0.799748 0.113122 0.854468
O O13 0.967903 0.939637 0.815482
O O14 0.163733 0.619856 0.739427
O O15 0.803124 0.714739 0.851558
O O16 0.034499 0.683428 0.948598
O O17 0.481578 0.148230 0.037773
O O18 0.000000 0.000000 0.000000
#
# Coordination Sequence:
#
# PCOD9045176 Si02
#       8
#     2   2   2   2   2   2   2   2
#     4  12  30  51  75 108 145 196 249 307 367 442
#     4  12  24  47  63 103 147 184 232 291 359 441
#     4  10  23  51  70 105 140 183 249 308 362 428
#     4  12  28  45  75 100 145 195 232 305 366 434
#     4  12  26  39  70 104 139 190 234 297 358 443
#     4  12  24  42  70 103 145 187 239 289 363 446
#     4  10  24  43  77 102 139 187 240 311 363 420
#     4  12  23  44  66 104 145 182 241 286 356 445
#
# _framework density 21.813227000000001
#
# number of rings (size 3 to 8) (size 9 to 14) (size 15 to 20)
#    0.000    0.500    5.000    2.250    7.000    0.000 
#    0.000    0.000    0.000    0.000    0.000    0.000 
#    0.000    0.000    0.000    0.000    0.000    0.000 
#
# Total GULP energy -89262.645838 kJ/mol
# GULP energy per Si atom -5578.915365 kJ/mol
# Density = 2.176358 g / cm^3
# Si number density = 21.813227 Si / 1000 Ang^3
#
#
#
# Elastic Constant Matrix: (Units=GPa)
#
#
# Indices 1 2 3 4 5 6 
#
# 1 125.6247 69.7191 55.1681 -20.0263 -12.5715 -7.9259
# 2 69.7191 150.9909 20.5960 -34.0969 -3.3163 -6.8700
# 3 55.1681 20.5960 123.2363 -26.1054 -12.4451 -5.1134
# 4 -20.0263 -34.0969 -26.1054 38.3094 5.3499 -2.8361
# 5 -12.5715 -3.3163 -12.4451 5.3499 33.9270 -9.5538
# 6 -7.9259 -6.8700 -5.1134 -2.8361 -9.5538 46.0970
#
#
#
# Elastic Compliance Matrix: (Units=1/GPa)
#
#
# Indices 1 2 3 4 5 6 
#
# 1 0.013579 -0.005879 -0.005122 -0.001978 0.003299 0.001452
# 2 -0.005879 0.010982 0.002570 0.008708 -0.001198 0.001198
# 3 -0.005122 0.002570 0.011843 0.007528 0.001987 0.001691
# 4 -0.001978 0.008708 0.007528 0.038525 -0.002148 0.003718
# 5 0.003299 -0.001198 0.001987 -0.002148 0.033752 0.007472
# 6 0.001452 0.001198 0.001691 0.003718 0.007472 0.024087
#
#
# Mechanical properties :
#
#
# Convention : Reuss Voigt Hill
#
# Bulk Modulus (GPa) = 51.17235 76.75760 63.96497
# Shear Modulus (GPa) = 32.02177 40.62460 36.32318
#
# Velocity S-wave (km/s) = 3.83560 4.32022 4.08510
# Velocity P-wave (km/s) = 6.56704 7.75568 7.18598
#
# Compressibility (1/GPa) = 0.01954180
#
# Stress axis : x y z
#
# Youngs Moduli (GPa) = 73.64407 91.05970 84.43617
#
# Poissons Ratio (x) = 0.53538 0.43245
# Poissons Ratio (y) = 0.43298 -0.21700
# Poissons Ratio (z) = 0.37718 -0.23402
#
# Static dielectric constant tensor:
#      x y z
#    x 1.869220 -0.062420 0.004140 
#    y -0.062420 1.541320 0.080100 
#    z 0.004140 0.080100 1.758770 
# 
# From -- ./inp_files/109607.got.cif
#   From: 2010.05.17/outbox.cif.g08.bks.cpg/sg2_55_cif.got.tgz:109607.got - 2010.06.03 11:33:40.
