data_PCOD9045664
_publ_section_title
;
Structure prediction by ZEFSAII (Michael W. Deem and Ramdas Pophale) SiO2 
 PCOD9045664
Probable space group: P -1
;
_chemical_formula_sum "Si O2"
_cell_formula_units_Z 14
_cell_length_a 21.075252
_cell_length_b 6.471965
_cell_length_c 5.010816
_cell_angle_alpha 100.734149
_cell_angle_beta 73.183382
_cell_angle_gamma 121.905520
_cell_volume 554.929020
_symmetry_space_group_name_H-M "P -1"
_symmetry_group_IT_number 2
_symmetry_cell_setting 'triclinic'
loop_
_space_group_symop_operation_xyz
x,y,z
-x,-y,-z
loop_
_atom_site_type_symbol
_atom_site_label
_atom_site_fract_x
_atom_site_fract_y
_atom_site_fract_z
Si Si1 0.316249 0.492397 0.212516
Si Si2 0.921304 0.764264 0.461004
Si Si3 0.274605 0.866982 0.583493
Si Si4 0.484103 0.744784 0.849260
Si Si5 0.868088 0.437299 0.970891
Si Si6 0.403049 0.376634 0.473063
Si Si7 0.820631 0.978586 0.648092
O O1 0.298717 0.706729 0.334349
O O2 0.338663 0.430915 0.456562
O O3 0.244650 0.239451 0.146927
O O4 0.394456 0.570662 0.982374
O O5 0.921535 0.590937 0.187919
O O6 0.866039 0.858837 0.437029
O O7 0.885204 0.608074 0.735415
O O8 0.000000 0.000000 0.500000
O O9 0.220176 0.697032 0.846247
O O10 0.351931 0.117576 0.626414
O O11 0.220190 0.930485 0.487407
O O12 0.473086 0.650295 0.532378
O O13 0.554708 0.704250 0.821065
O O14 0.500000 0.000000 0.000000
O O15 0.876694 0.210881 0.811636
#
# Coordination Sequence:
#
# PCOD9045664 Si02
#       7
#     2   2   2   2   2   2   2
#     4  11  22  43  69  99 139 187 243 302 365 425
#     4  12  29  50  77 113 151 191 240 298 365 443
#     4  11  23  46  70 108 139 194 247 302 359 436
#     4  11  22  42  63  94 141 186 242 299 366 430
#     4  12  25  49  74 111 148 191 246 294 365 436
#     4  10  24  41  65  98 138 187 242 304 363 427
#     4  11  25  46  77 102 150 188 244 302 363 432
#
# _framework density 25.228449000000001
#
# number of rings (size 3 to 8) (size 9 to 14) (size 15 to 20)
#    0.000    0.857    4.286    1.714    2.000    4.000 
#    2.571    0.000    0.000    0.000    0.000    0.000 
#    0.000    0.000    0.000    0.000    0.000    0.000 
#
# Total GULP energy -78123.043187 kJ/mol
# GULP energy per Si atom -5580.217371 kJ/mol
# Density = 2.517103 g / cm^3
# Si number density = 25.228449 Si / 1000 Ang^3
#
#
#
# Elastic Constant Matrix: (Units=GPa)
#
#
# Indices 1 2 3 4 5 6 
#
# 1 66.0206 52.7442 10.4443 -1.0169 2.7282 -0.7823
# 2 52.7442 187.3320 45.1157 22.4239 10.1102 33.1622
# 3 10.4443 45.1157 58.4022 8.3167 16.3609 1.4237
# 4 -1.0169 22.4239 8.3167 43.2108 6.6509 0.6785
# 5 2.7282 10.1102 16.3609 6.6509 26.5376 9.9870
# 6 -0.7823 33.1622 1.4237 0.6785 9.9870 35.6332
#
#
#
# Elastic Compliance Matrix: (Units=1/GPa)
#
#
# Indices 1 2 3 4 5 6 
#
# 1 0.022743 -0.009729 0.004311 0.005644 -0.006924 0.011214
# 2 -0.009729 0.013311 -0.009822 -0.006417 0.009101 -0.014638
# 3 0.004311 -0.009822 0.028943 0.002545 -0.020352 0.013735
# 4 0.005644 -0.006417 0.002545 0.027475 -0.009669 0.008181
# 5 -0.006924 0.009101 -0.020352 -0.009669 0.058989 -0.024158
# 6 0.011214 -0.014638 0.013735 0.008181 -0.024158 0.047999
#
#
# Mechanical properties :
#
#
# Convention : Reuss Voigt Hill
#
# Bulk Modulus (GPa) = 28.97043 58.70703 43.83873
# Shear Modulus (GPa) = 20.70863 34.63970 27.67417
#
# Velocity S-wave (km/s) = 2.86815 3.70948 3.31561
# Velocity P-wave (km/s) = 4.74094 6.45505 5.66322
#
# Compressibility (1/GPa) = 0.03451796
#
# Stress axis : x y z
#
# Youngs Moduli (GPa) = 43.96942 75.12672 34.55031
#
# Poissons Ratio (x) = 0.73089 -0.14894
# Poissons Ratio (y) = 0.42777 0.33935
# Poissons Ratio (z) = -0.18955 0.73788
#
# Static dielectric constant tensor:
#      x y z
#    x 2.086620 0.053360 0.132440 
#    y 0.053360 1.988510 0.000390 
#    z 0.132440 0.000390 2.413710 
# 
# From -- ./inp_files/114426.got.cif
#   From: 2010.05.17/outbox.cif.g08.bks.cpg/sg2_58_cif.got.tgz:114426.got - 2010.06.03 11:33:40.
