data_PCOD9045034
_publ_section_title
;
Structure prediction by ZEFSAII (Michael W. Deem and Ramdas Pophale) SiO2 
 PCOD9045034
Probable space group: P -1
;
_chemical_formula_sum "Si O2"
_cell_formula_units_Z 15
_cell_length_a 9.438895
_cell_length_b 8.137643
_cell_length_c 9.057912
_cell_angle_alpha 101.440925
_cell_angle_beta 93.098126
_cell_angle_gamma 110.055777
_cell_volume 634.909825
_symmetry_space_group_name_H-M "P -1"
_symmetry_group_IT_number 2
_symmetry_cell_setting 'triclinic'
loop_
_space_group_symop_operation_xyz
x,y,z
-x,-y,-z
loop_
_atom_site_type_symbol
_atom_site_label
_atom_site_fract_x
_atom_site_fract_y
_atom_site_fract_z
Si Si1 0.038637 0.122157 0.669062
Si Si2 0.758854 0.228795 0.102610
Si Si3 0.744785 0.047720 0.770877
Si Si4 0.369499 0.716991 0.356909
Si Si5 0.500000 0.500000 0.500000
Si Si6 0.527397 0.682702 0.833885
Si Si7 0.644238 0.830422 0.161872
Si Si8 0.972798 0.483525 0.670888
O O1 0.208358 0.160822 0.737499
O O2 0.902160 0.015612 0.752839
O O3 0.017908 0.312735 0.684902
O O4 0.000000 0.000000 0.500000
O O5 0.641390 0.328647 0.139676
O O6 0.916035 0.341279 0.209630
O O7 0.684065 0.030487 0.134021
O O8 0.776442 0.200457 0.925119
O O9 0.688738 0.112157 0.627682
O O10 0.620308 0.872989 0.798117
O O11 0.439926 0.670308 0.501929
O O12 0.495655 0.775519 0.245406
O O13 0.203274 0.557446 0.307741
O O14 0.523616 0.538010 0.685381
O O15 0.611923 0.694560 0.997183
O O16 0.000000 0.500000 0.500000
#
# Coordination Sequence:
#
# PCOD9045034 Si02
#       8
#     2   2   2   2   1   2   2   2
#     4  11  27  44  71 109 147 189 238 300 364 432
#     4  11  22  46  77 101 141 189 248 297 354 429
#     4  10  23  48  74  99 139 195 244 285 366 439
#     4  11  25  47  70 106 137 194 237 292 368 427
#     4  12  30  38  68 110 150 182 236 306 354 420
#     4  11  24  46  72 108 148 186 242 298 365 428
#     4  11  24  47  78 103 141 191 245 300 354 436
#     4  11  26  46  68 102 151 188 240 301 362 424
#
# _framework density 23.625402999999999
#
# number of rings (size 3 to 8) (size 9 to 14) (size 15 to 20)
#    0.000    1.067    2.667    2.400    5.600    9.600 
#    0.000    0.000    0.000    0.000    0.000    0.000 
#    0.000    0.000    0.000    0.000    0.000    0.000 
#
# Total GULP energy -83631.896870 kJ/mol
# GULP energy per Si atom -5575.459791 kJ/mol
# Density = 2.357163 g / cm^3
# Si number density = 23.625403 Si / 1000 Ang^3
#
#
#
# Elastic Constant Matrix: (Units=GPa)
#
#
# Indices 1 2 3 4 5 6 
#
# 1 175.8876 19.2838 81.7937 -0.2085 0.9698 17.0784
# 2 19.2838 73.9927 23.1747 -5.6665 11.1050 9.3168
# 3 81.7937 23.1747 122.5645 25.8241 9.0201 8.1831
# 4 -0.2085 -5.6665 25.8241 40.4437 -5.0013 -1.9393
# 5 0.9698 11.1050 9.0201 -5.0013 35.6700 -3.7858
# 6 17.0784 9.3168 8.1831 -1.9393 -3.7858 26.4866
#
#
#
# Elastic Compliance Matrix: (Units=1/GPa)
#
#
# Indices 1 2 3 4 5 6 
#
# 1 0.009305 0.000337 -0.007183 0.004743 0.001773 -0.003298
# 2 0.000337 0.016038 -0.003372 0.003637 -0.004186 -0.005149
# 3 -0.007183 -0.003372 0.016427 -0.011606 -0.004617 -0.000767
# 4 0.004743 0.003637 -0.011606 0.033623 0.006670 0.002663
# 5 0.001773 -0.004186 -0.004617 0.006670 0.032118 0.006835
# 6 -0.003298 -0.005149 -0.000767 0.002663 0.006835 0.043102
#
#
# Mechanical properties :
#
#
# Convention : Reuss Voigt Hill
#
# Bulk Modulus (GPa) = 46.87387 68.99436 57.93412
# Shear Modulus (GPa) = 28.06464 37.06621 32.56543
#
# Velocity S-wave (km/s) = 3.45033 3.96525 3.71672
# Velocity P-wave (km/s) = 5.97968 7.08739 6.55697
#
# Compressibility (1/GPa) = 0.02133385
#
# Stress axis : x y z
#
# Youngs Moduli (GPa) = 107.46960 62.35078 60.87704
#
# Poissons Ratio (x) = -0.02102 0.43728
# Poissons Ratio (y) = -0.03623 0.20528
# Poissons Ratio (z) = 0.77196 0.21025
#
# Static dielectric constant tensor:
#      x y z
#    x 1.842320 -0.082280 -0.108600 
#    y -0.082280 1.914180 -0.085780 
#    z -0.108600 -0.085780 1.754130 
# 
# From -- ./inp_files/155492.got.cif
#   From: 2010.05.17/outbox.cif.g08.bks.cpg/sg2_78_cif.got.tgz:155492.got - 2010.06.03 11:33:40.
