data_PCOD9045680
_publ_section_title
;
Structure prediction by ZEFSAII (Michael W. Deem and Ramdas Pophale) SiO2 
 PCOD9045680
Probable space group: P -1
;
_chemical_formula_sum "Si O2"
_cell_formula_units_Z 15
_cell_length_a 7.957665
_cell_length_b 9.138066
_cell_length_c 8.562726
_cell_angle_alpha 103.485637
_cell_angle_beta 87.162968
_cell_angle_gamma 94.735013
_cell_volume 603.133283
_symmetry_space_group_name_H-M "P -1"
_symmetry_group_IT_number 2
_symmetry_cell_setting 'triclinic'
loop_
_space_group_symop_operation_xyz
x,y,z
-x,-y,-z
loop_
_atom_site_type_symbol
_atom_site_label
_atom_site_fract_x
_atom_site_fract_y
_atom_site_fract_z
Si Si1 0.000000 0.000000 0.000000
Si Si2 0.712420 0.120236 0.868294
Si Si3 0.821602 0.687770 0.033051
Si Si4 0.577062 0.702270 0.483213
Si Si5 0.739839 0.417425 0.733650
Si Si6 0.315486 0.766264 0.759342
Si Si7 0.106149 0.457297 0.672210
Si Si8 0.624421 0.929790 0.279407
O O1 0.953478 0.814366 0.984975
O O2 0.146292 0.991542 0.124674
O O3 0.754780 0.262420 0.790118
O O4 0.552224 0.033988 0.775117
O O5 0.657483 0.187286 0.052646
O O6 0.749308 0.561015 0.884345
O O7 0.888259 0.603555 0.162400
O O8 0.685180 0.793659 0.138619
O O9 0.434864 0.608581 0.359598
O O10 0.481607 0.717100 0.653016
O O11 0.755224 0.630865 0.449535
O O12 0.607482 0.863502 0.435435
O O13 0.911089 0.434317 0.628361
O O14 0.176858 0.629381 0.719352
O O15 0.256607 0.918929 0.716445
#
# Coordination Sequence:
#
# PCOD9045680 Si02
#       8
#     1   2   2   2   2   2   2   2
#     4  12  22  36  62 104 130 158 212 276 334 370
#     4  11  23  40  67  98 127 169 215 274 323 378
#     4  11  22  38  65  99 126 163 215 276 319 379
#     4  10  26  43  66  92 132 181 213 261 321 393
#     4  11  23  44  67  98 131 167 219 267 325 383
#     4  12  22  42  66  94 132 172 215 265 326 383
#     4  11  23  41  67  95 130 172 216 270 320 381
#     4  10  24  41  66  94 128 170 220 265 321 380
#
# _framework density 24.870127
#
# number of rings (size 3 to 8) (size 9 to 14) (size 15 to 20)
#    0.000    1.067    4.000    2.400    1.867    2.133 
#    0.000    1.333    0.000    4.800    0.000    0.000 
#    0.000    0.000    0.000    0.000    0.000    0.000 
#
# Total GULP energy -83772.695481 kJ/mol
# GULP energy per Si atom -5584.846365 kJ/mol
# Density = 2.481352 g / cm^3
# Si number density = 24.870127 Si / 1000 Ang^3
#
#
#
# Elastic Constant Matrix: (Units=GPa)
#
#
# Indices 1 2 3 4 5 6 
#
# 1 119.1704 50.1647 34.0522 -7.1104 -7.0203 -15.1878
# 2 50.1647 162.6104 30.5692 -14.8789 14.8634 16.3007
# 3 34.0522 30.5692 91.3141 3.9883 -18.3228 -1.7490
# 4 -7.1104 -14.8789 3.9883 38.0804 -3.6144 -4.5775
# 5 -7.0203 14.8634 -18.3228 -3.6144 30.8603 -8.6231
# 6 -15.1878 16.3007 -1.7490 -4.5775 -8.6231 42.0308
#
#
#
# Elastic Compliance Matrix: (Units=1/GPa)
#
#
# Indices 1 2 3 4 5 6 
#
# 1 0.012336 -0.004655 -0.001691 0.002209 0.006472 0.007761
# 2 -0.004655 0.010195 -0.003962 0.001622 -0.010293 -0.007736
# 3 -0.001691 -0.003962 0.015362 -0.001941 0.011451 0.003702
# 4 0.002209 0.001622 -0.001941 0.028240 0.002928 0.003765
# 5 0.006472 -0.010293 0.011451 0.002928 0.050884 0.017565
# 6 0.007761 -0.007736 0.003702 0.003765 0.017565 0.033765
#
#
# Mechanical properties :
#
#
# Convention : Reuss Voigt Hill
#
# Bulk Modulus (GPa) = 57.87936 66.96303 62.42119
# Shear Modulus (GPa) = 28.22356 39.41488 33.81922
#
# Velocity S-wave (km/s) = 3.37239 3.98531 3.69159
# Velocity P-wave (km/s) = 6.20380 6.93977 6.58208
#
# Compressibility (1/GPa) = 0.01727732
#
# Stress axis : x y z
#
# Youngs Moduli (GPa) = 81.06118 98.08449 65.09774
#
# Poissons Ratio (x) = 0.45661 0.11009
# Poissons Ratio (y) = 0.37736 0.25788
# Poissons Ratio (z) = 0.13709 0.38856
#
# Static dielectric constant tensor:
#      x y z
#    x 1.967350 -0.030170 0.004750 
#    y -0.030170 1.987460 -0.024800 
#    z 0.004750 -0.024800 1.911380 
# 
# From -- ./inp_files/155376.got.cif
#   From: 2010.05.17/outbox.cif.g08.bks.cpg/sg2_78_cif.got.tgz:155376.got - 2010.06.03 11:33:40.
