data_PCOD9045087
_publ_section_title
;
Structure prediction by ZEFSAII (Michael W. Deem and Ramdas Pophale) SiO2 
 PCOD9045087
Probable space group: P -1
;
_chemical_formula_sum "Si O2"
_cell_formula_units_Z 16
_cell_length_a 9.142134
_cell_length_b 15.398251
_cell_length_c 12.600580
_cell_angle_alpha 46.267336
_cell_angle_beta 73.654213
_cell_angle_gamma 110.188189
_cell_volume 772.227408
_symmetry_space_group_name_H-M "P -1"
_symmetry_group_IT_number 2
_symmetry_cell_setting 'triclinic'
loop_
_space_group_symop_operation_xyz
x,y,z
-x,-y,-z
loop_
_atom_site_type_symbol
_atom_site_label
_atom_site_fract_x
_atom_site_fract_y
_atom_site_fract_z
Si Si1 0.567693 0.183654 0.712468
Si Si2 0.182320 0.216510 0.251090
Si Si3 0.270777 0.406081 0.439666
Si Si4 0.846956 0.267853 0.780346
Si Si5 0.266118 0.497232 0.123701
Si Si6 0.837017 0.918757 0.204273
Si Si7 0.821606 0.698531 0.060942
Si Si8 0.039074 0.486827 0.775835
O O1 0.719156 0.274781 0.713379
O O2 0.757151 0.289959 0.487845
O O3 0.423539 0.212973 0.682406
O O4 0.360346 0.957143 0.960381
O O5 0.135378 0.306889 0.252940
O O6 0.457201 0.340115 0.109589
O O7 0.170600 0.245191 0.106421
O O8 0.000000 0.000000 0.500000
O O9 0.258615 0.464734 0.279146
O O10 0.557478 0.573209 0.268970
O O11 0.082837 0.350629 0.608056
O O12 0.180790 0.212668 0.612077
O O13 0.914863 0.373804 0.785309
O O14 0.148628 0.554892 0.079683
O O15 0.960704 0.103988 0.086122
O O16 0.000000 0.000000 0.000000
O O17 0.857053 0.576184 0.151633
#
# Coordination Sequence:
#
# PCOD9045087 Si02
#       8
#     2   2   2   2   2   2   2   2
#     4  11  23  38  58  88 136 174 208 252 294 366
#     4  10  23  49  69  90 118 156 211 267 318 379
#     4  11  22  40  62  91 127 171 212 253 302 365
#     4  11  24  39  59  93 135 176 213 246 299 368
#     4  10  24  42  68  94 117 160 211 260 317 377
#     4  12  23  38  58  93 131 171 213 249 300 367
#     4  11  25  40  66  92 126 167 206 260 319 365
#     4  12  23  41  62  97 131 163 207 256 315 370
#
# _framework density 20.719286
#
# number of rings (size 3 to 8) (size 9 to 14) (size 15 to 20)
#    0.000    1.000    5.000    1.125    1.750    3.500 
#    0.000    0.625    0.000    0.000    0.000    0.000 
#    0.000    0.000    0.000    0.000    0.000    0.000 
#
# Total GULP energy -89339.071182 kJ/mol
# GULP energy per Si atom -5583.691949 kJ/mol
# Density = 2.067213 g / cm^3
# Si number density = 20.719286 Si / 1000 Ang^3
#
#
#
# Elastic Constant Matrix: (Units=GPa)
#
#
# Indices 1 2 3 4 5 6 
#
# 1 111.8722 38.6134 37.4707 -12.3277 -16.7604 -10.5249
# 2 38.6134 66.0167 25.1801 -2.8289 -8.7348 -16.9626
# 3 37.4707 25.1801 98.4387 -18.0661 7.6278 -13.5693
# 4 -12.3277 -2.8289 -18.0661 17.8200 -9.2777 0.1872
# 5 -16.7604 -8.7348 7.6278 -9.2777 31.7161 0.2990
# 6 -10.5249 -16.9626 -13.5693 0.1872 0.2990 30.4205
#
#
#
# Elastic Compliance Matrix: (Units=1/GPa)
#
#
# Indices 1 2 3 4 5 6 
#
# 1 0.014672 -0.005506 -0.002705 0.011926 0.010370 0.000624
# 2 -0.005506 0.022193 -0.002858 -0.001533 0.003355 0.009172
# 3 -0.002705 -0.002858 0.014732 0.011265 -0.002502 0.003997
# 4 0.011926 -0.001533 0.011265 0.090928 0.029699 0.007445
# 5 0.010370 0.003355 -0.002502 0.029699 0.047188 0.003696
# 6 0.000624 0.009172 0.003997 0.007445 0.003696 0.039903
#
#
# Mechanical properties :
#
#
# Convention : Reuss Voigt Hill
#
# Bulk Modulus (GPa) = 33.94713 53.20620 43.57667
# Shear Modulus (GPa) = 19.11496 27.66222 23.38859
#
# Velocity S-wave (km/s) = 3.04068 3.65786 3.36345
# Velocity P-wave (km/s) = 5.36167 6.60115 6.01343
#
# Compressibility (1/GPa) = 0.02945757
#
# Stress axis : x y z
#
# Youngs Moduli (GPa) = 68.15742 45.05883 67.88071
#
# Poissons Ratio (x) = 0.24811 0.18363
# Poissons Ratio (y) = 0.37530 0.19400
# Poissons Ratio (z) = 0.18438 0.12878
#
# Static dielectric constant tensor:
#      x y z
#    x 1.800690 0.006680 -0.037380 
#    y 0.006680 1.715580 -0.020270 
#    z -0.037380 -0.020270 1.793960 
# 
# From -- ./inp_files/398583.got.cif
#   From: 2010.05.17/outbox.cif.g08.bks.cpg/sg2_200_cif.got.tgz:398583.got - 2010.06.03 11:33:40.
