data_PCOD9045469
_publ_section_title
;
Structure prediction by ZEFSAII (Michael W. Deem and Ramdas Pophale) SiO2 
 PCOD9045469
Probable space group: P -1
;
_chemical_formula_sum "Si O2"
_cell_formula_units_Z 14
_cell_length_a 11.195988
_cell_length_b 14.225857
_cell_length_c 19.817286
_cell_angle_alpha 160.400800
_cell_angle_beta 148.514105
_cell_angle_gamma 29.562765
_cell_volume 511.653000
_symmetry_space_group_name_H-M "P -1"
_symmetry_group_IT_number 2
_symmetry_cell_setting 'triclinic'
loop_
_space_group_symop_operation_xyz
x,y,z
-x,-y,-z
loop_
_atom_site_type_symbol
_atom_site_label
_atom_site_fract_x
_atom_site_fract_y
_atom_site_fract_z
Si Si1 0.766507 0.666266 0.765679
Si Si2 0.004059 0.568731 0.468715
Si Si3 0.477108 0.358595 0.783560
Si Si4 0.338624 0.231849 0.939896
Si Si5 0.187346 0.904791 0.113662
Si Si6 0.061957 0.985929 0.441151
Si Si7 0.483260 0.424322 0.278220
O O1 0.935745 0.335834 0.594027
O O2 0.657178 0.605441 0.742433
O O3 0.522108 0.909321 0.777782
O O4 0.948157 0.842974 0.979969
O O5 0.223992 0.686330 0.644486
O O6 0.000000 0.500000 0.500000
O O7 0.732888 0.724864 0.411734
O O8 0.105233 0.227467 0.257108
O O9 0.657258 0.121020 0.761051
O O10 0.627827 0.491100 0.895330
O O11 0.338425 0.643769 0.958679
O O12 0.074023 0.211520 0.793048
O O13 0.425856 0.250312 0.070217
O O14 0.000000 0.000000 0.500000
O O15 0.352643 0.784149 0.439403
#
# Coordination Sequence:
#
# PCOD9045469 Si02
#       7
#     2   2   2   2   2   2   2
#     4  11  24  45  71 108 138 186 242 291 354 430
#     4  12  25  48  70 108 145 187 239 295 358 430
#     4  11  25  44  74 100 143 190 238 293 355 421
#     4  12  23  46  71 102 142 191 235 296 356 424
#     4  11  26  45  73 103 144 185 241 291 360 420
#     4  10  24  40  68 102 139 177 237 289 351 420
#     4  11  25  45  71 103 145 184 237 295 360 425
#
# _framework density 27.362293999999999
#
# number of rings (size 3 to 8) (size 9 to 14) (size 15 to 20)
#    0.000    0.857    2.857    3.429    8.000    1.714 
#    0.000    0.000    0.000    0.000    0.000    0.000 
#    0.000    0.000    0.000    0.000    0.000    0.000 
#
# Total GULP energy -78530.926436 kJ/mol
# GULP energy per Si atom -5609.351888 kJ/mol
# Density = 2.730002 g / cm^3
# Si number density = 27.362294 Si / 1000 Ang^3
#
#
#
# Elastic Constant Matrix: (Units=GPa)
#
#
# Indices 1 2 3 4 5 6 
#
# 1 95.7672 -3.6527 23.7131 -18.1220 11.8864 8.2438
# 2 -3.6527 153.0672 36.0299 -14.6836 1.8775 3.6643
# 3 23.7131 36.0299 116.0421 -24.9859 5.9505 6.3669
# 4 -18.1220 -14.6836 -24.9859 64.3976 -4.8049 -11.3381
# 5 11.8864 1.8775 5.9505 -4.8049 52.5783 -1.9894
# 6 8.2438 3.6643 6.3669 -11.3381 -1.9894 34.9646
#
#
#
# Elastic Compliance Matrix: (Units=1/GPa)
#
#
# Indices 1 2 3 4 5 6 
#
# 1 0.011877 0.001057 -0.002038 0.002276 -0.002357 -0.001936
# 2 0.001057 0.007183 -0.002203 0.001019 -0.000164 -0.000280
# 3 -0.002038 -0.002203 0.010371 0.002872 -0.000382 -0.000267
# 4 0.002276 0.001019 0.002872 0.018448 0.000994 0.004872
# 5 -0.002357 -0.000164 -0.000382 0.000994 0.019771 0.002090
# 6 -0.001936 -0.000280 -0.000267 0.004872 0.002090 0.030834
#
#
# Mechanical properties :
#
#
# Convention : Reuss Voigt Hill
#
# Bulk Modulus (GPa) = 43.36125 53.00634 48.18379
# Shear Modulus (GPa) = 44.42869 50.97384 47.70127
#
# Velocity S-wave (km/s) = 4.03391 4.32084 4.17984
# Velocity P-wave (km/s) = 6.13010 6.65635 6.39864
#
# Compressibility (1/GPa) = 0.02306207
#
# Stress axis : x y z
#
# Youngs Moduli (GPa) = 84.19768 139.21098 96.42444
#
# Poissons Ratio (x) = -0.14710 0.19651
# Poissons Ratio (y) = -0.08897 0.21244
# Poissons Ratio (z) = 0.17160 0.30670
#
# Static dielectric constant tensor:
#      x y z
#    x 2.104000 -0.010170 -0.027160 
#    y -0.010170 2.122840 0.064130 
#    z -0.027160 0.064130 2.130000 
# 
# From -- ./inp_files/243460.got.cif
#   From: 2010.05.17/outbox.cif.g08.bks.cpg/sg2_122_cif.got.tgz:243460.got - 2010.06.03 11:33:40.
