data_PCOD9045894
_publ_section_title
;
Structure prediction by ZEFSAII (Michael W. Deem and Ramdas Pophale) SiO2 
 PCOD9045894
Probable space group: P -1
;
_chemical_formula_sum "Si O2"
_cell_formula_units_Z 16
_cell_length_a 12.668899
_cell_length_b 10.493169
_cell_length_c 19.212794
_cell_angle_alpha 61.223179
_cell_angle_beta 144.413078
_cell_angle_gamma 145.405034
_cell_volume 693.888532
_symmetry_space_group_name_H-M "P -1"
_symmetry_group_IT_number 2
_symmetry_cell_setting 'triclinic'
loop_
_space_group_symop_operation_xyz
x,y,z
-x,-y,-z
loop_
_atom_site_type_symbol
_atom_site_label
_atom_site_fract_x
_atom_site_fract_y
_atom_site_fract_z
Si Si1 0.799442 0.291667 0.268219
Si Si2 0.217851 0.507427 0.084555
Si Si3 0.751351 0.300334 0.080765
Si Si4 0.503124 0.605480 0.538822
Si Si5 0.490054 0.803769 0.279736
Si Si6 0.369195 0.326631 0.257110
Si Si7 0.329300 0.782635 0.523534
Si Si8 0.913917 0.123747 0.551296
O O1 0.719943 0.304582 0.145800
O O2 0.124738 0.410391 0.394690
O O3 0.968499 0.497665 0.367545
O O4 0.506589 0.986503 0.219576
O O5 0.524857 0.741743 0.242552
O O6 0.098237 0.259877 0.098372
O O7 0.317326 0.612229 0.031670
O O8 0.000000 0.500000 0.000000
O O9 0.146557 0.535696 0.209980
O O10 0.500000 0.000000 0.000000
O O11 0.500000 0.500000 0.500000
O O12 0.605935 0.608418 0.666309
O O13 0.766970 0.912872 0.583299
O O14 0.795521 0.989953 0.447705
O O15 0.431864 0.193872 0.335006
O O16 0.689189 0.581719 0.313192
O O17 0.260885 0.839284 0.537263
O O18 0.500000 0.000000 0.500000
#
# Coordination Sequence:
#
# PCOD9045894 Si02
#       8
#     2   2   2   2   2   2   2   2
#     4  11  22  38  63  94 130 175 221 275 331 401
#     4  10  24  42  63  89 135 179 219 272 326 395
#     4  11  22  40  63  88 128 178 222 265 326 396
#     4  11  23  36  60 100 136 165 212 275 348 407
#     4  11  21  38  62  98 129 170 217 271 344 400
#     4  11  24  40  62  98 132 173 224 271 337 409
#     4  11  21  43  66 100 132 175 221 278 344 400
#     4  12  22  39  68  99 137 174 209 281 351 394
#
# _framework density 23.058458000000002
#
# number of rings (size 3 to 8) (size 9 to 14) (size 15 to 20)
#    0.000    1.000    7.500    1.125    3.500    1.000 
#    0.000    0.000    0.000    7.500    0.000    0.000 
#    0.000    0.000    0.000    0.000    0.000    0.000 
#
# Total GULP energy -89159.298510 kJ/mol
# GULP energy per Si atom -5572.456157 kJ/mol
# Density = 2.300598 g / cm^3
# Si number density = 23.058458 Si / 1000 Ang^3
#
#
#
# Elastic Constant Matrix: (Units=GPa)
#
#
# Indices 1 2 3 4 5 6 
#
# 1 46.3821 23.5016 3.4068 -16.8379 3.5954 12.0044
# 2 23.5016 149.1398 38.9336 -23.8941 4.0075 12.6790
# 3 3.4068 38.9336 76.1773 -39.0472 -0.1678 11.0778
# 4 -16.8379 -23.8941 -39.0472 49.0245 6.4651 0.0128
# 5 3.5954 4.0075 -0.1678 6.4651 36.9339 -7.9444
# 6 12.0044 12.6790 11.0778 0.0128 -7.9444 31.5131
#
#
#
# Elastic Compliance Matrix: (Units=1/GPa)
#
#
# Indices 1 2 3 4 5 6 
#
# 1 0.039002 -0.004111 0.017448 0.026990 -0.012855 -0.022588
# 2 -0.004111 0.008440 -0.004496 -0.000817 -0.000472 -0.000368
# 3 0.017448 -0.004496 0.034068 0.032383 -0.010937 -0.019584
# 4 0.026990 -0.000817 0.032383 0.057445 -0.018019 -0.025902
# 5 -0.012855 -0.000472 -0.010937 -0.018019 0.035320 0.017843
# 6 -0.022588 -0.000368 -0.019584 -0.025902 0.017843 0.051878
#
#
# Mechanical properties :
#
#
# Convention : Reuss Voigt Hill
#
# Bulk Modulus (GPa) = 10.08147 44.82035 27.45091
# Shear Modulus (GPa) = 20.70087 37.21811 28.95949
#
# Velocity S-wave (km/s) = 2.99951 4.02192 3.54774
# Velocity P-wave (km/s) = 4.04694 6.40684 5.35842
#
# Compressibility (1/GPa) = 0.09919191
#
# Stress axis : x y z
#
# Youngs Moduli (GPa) = 25.63951 118.48801 29.35322
#
# Poissons Ratio (x) = 0.48710 -0.51216
# Poissons Ratio (y) = 0.10540 0.13197
# Poissons Ratio (z) = -0.44736 0.53273
#
# Static dielectric constant tensor:
#      x y z
#    x 1.869290 -0.043900 -0.008600 
#    y -0.043900 1.941130 -0.005890 
#    z -0.008600 -0.005890 2.097130 
# 
# From -- ./inp_files/597835.got.cif
#   From: 2010.05.17/outbox.cif.g08.bks.cpg/sg2_299_cif.got.tgz:597835.got - 2010.06.03 11:33:40.
