data_PCOD9045244
_publ_section_title
;
Structure prediction by ZEFSAII (Michael W. Deem and Ramdas Pophale) SiO2 
 PCOD9045244
Probable space group: P -1
;
_chemical_formula_sum "Si O2"
_cell_formula_units_Z 13
_cell_length_a 13.826439
_cell_length_b 14.944831
_cell_length_c 7.206064
_cell_angle_alpha 97.130098
_cell_angle_beta 78.691205
_cell_angle_gamma 161.006272
_cell_volume 466.365445
_symmetry_space_group_name_H-M "P -1"
_symmetry_group_IT_number 2
_symmetry_cell_setting 'triclinic'
loop_
_space_group_symop_operation_xyz
x,y,z
-x,-y,-z
loop_
_atom_site_type_symbol
_atom_site_label
_atom_site_fract_x
_atom_site_fract_y
_atom_site_fract_z
Si Si1 0.911132 0.362668 0.166507
Si Si2 0.722723 0.006661 0.144230
Si Si3 0.346684 0.982295 0.414289
Si Si4 0.679763 0.590699 0.593920
Si Si5 0.642158 0.815726 0.628189
Si Si6 0.414164 0.560519 0.021847
Si Si7 0.000000 0.500000 0.500000
O O1 0.768022 0.148099 0.087823
O O2 0.165883 0.583882 0.286228
O O3 0.676725 0.214379 0.360054
O O4 0.000000 0.500000 0.000000
O O5 0.727069 0.032901 0.369085
O O6 0.054894 0.248686 0.031151
O O7 0.495867 0.731484 0.103254
O O8 0.120562 0.704005 0.404484
O O9 0.377689 0.094187 0.294573
O O10 0.500000 0.500000 0.500000
O O11 0.625640 0.446209 0.478667
O O12 0.548165 0.470442 0.820526
O O13 0.036119 0.922083 0.527119
O O14 0.607853 0.725243 0.802062
#
# Coordination Sequence:
#
# PCOD9045244 Si02
#       7
#     2   2   2   2   2   2   1
#     4  11  26  39  60  96 134 183 238 282 329 396
#     4  11  24  43  70  96 145 187 232 285 342 397
#     4  11  24  42  66  94 136 190 232 284 343 395
#     4  12  27  50  76 107 141 177 224 294 362 425
#     4  12  27  45  78 104 141 186 233 284 351 424
#     4  12  25  47  72 106 139 185 231 286 347 419
#     4  10  24  38  64  88 134 180 230 278 338 378
#
# _framework density 27.875136000000001
#
# number of rings (size 3 to 8) (size 9 to 14) (size 15 to 20)
#    0.000    0.615    3.077    4.154   12.923    1.846 
#    0.000    0.000    0.000    0.000    0.000    0.000 
#    0.000    0.000    0.000    0.000    0.000    0.000 
#
# Total GULP energy -72629.888593 kJ/mol
# GULP energy per Si atom -5586.914507 kJ/mol
# Density = 2.781169 g / cm^3
# Si number density = 27.875136 Si / 1000 Ang^3
#
#
#
# Elastic Constant Matrix: (Units=GPa)
#
#
# Indices 1 2 3 4 5 6 
#
# 1 127.1868 0.1488 33.2613 -15.6162 41.2370 -25.3041
# 2 0.1488 74.0074 26.6156 19.9640 9.3216 -24.3057
# 3 33.2613 26.6156 162.1630 -4.4893 51.9846 -13.6139
# 4 -15.6162 19.9640 -4.4893 30.6728 -17.8533 -4.7319
# 5 41.2370 9.3216 51.9846 -17.8533 54.5098 -10.9718
# 6 -25.3041 -24.3057 -13.6139 -4.7319 -10.9718 40.4110
#
#
#
# Elastic Compliance Matrix: (Units=1/GPa)
#
#
# Indices 1 2 3 4 5 6 
#
# 1 0.011974 0.003232 0.000305 0.000322 -0.008322 0.007323
# 2 0.003232 0.023315 -0.001299 -0.016882 -0.008440 0.011341
# 3 0.000305 -0.001299 0.009507 -0.003795 -0.010453 -0.000670
# 4 0.000322 -0.016882 -0.003795 0.058794 0.026069 0.002732
# 5 -0.008322 -0.008440 -0.010453 0.026069 0.044879 0.001428
# 6 0.007323 0.011341 -0.000670 0.002732 0.001428 0.036634
#
#
# Mechanical properties :
#
#
# Convention : Reuss Voigt Hill
#
# Bulk Modulus (GPa) = 20.29567 53.71205 37.00386
# Shear Modulus (GPa) = 25.37435 45.34082 35.35758
#
# Velocity S-wave (km/s) = 3.02037 4.03745 3.56536
# Velocity P-wave (km/s) = 4.41137 6.40666 5.50025
#
# Compressibility (1/GPa) = 0.04927160
#
# Stress axis : x y z
#
# Youngs Moduli (GPa) = 83.51698 42.89138 105.18677
#
# Poissons Ratio (x) = -0.13864 -0.03210
# Poissons Ratio (y) = -0.26996 0.13667
# Poissons Ratio (z) = -0.02548 0.05573
#
# Static dielectric constant tensor:
#      x y z
#    x 2.518480 0.245090 -0.072910 
#    y 0.245090 2.432760 -0.022140 
#    z -0.072910 -0.022140 2.277670 
# 
# From -- ./inp_files/41511.got.cif
#   From: 2010.05.17/outbox.cif.g08.bks.cpg/sg2_21_cif.got.tgz:41511.got - 2010.06.03 11:33:40.
