data_PCOD9045165
_publ_section_title
;
Structure prediction by ZEFSAII (Michael W. Deem and Ramdas Pophale) SiO2 
 PCOD9045165
Probable space group: P -1
;
_chemical_formula_sum "Si O2"
_cell_formula_units_Z 15
_cell_length_a 6.574282
_cell_length_b 12.648455
_cell_length_c 8.183252
_cell_angle_alpha 113.237400
_cell_angle_beta 107.863826
_cell_angle_gamma 94.596568
_cell_volume 579.170073
_symmetry_space_group_name_H-M "P -1"
_symmetry_group_IT_number 2
_symmetry_cell_setting 'triclinic'
loop_
_space_group_symop_operation_xyz
x,y,z
-x,-y,-z
loop_
_atom_site_type_symbol
_atom_site_label
_atom_site_fract_x
_atom_site_fract_y
_atom_site_fract_z
Si Si1 0.382629 0.579359 0.403171
Si Si2 0.086771 0.050662 0.311131
Si Si3 0.500000 0.000000 0.500000
Si Si4 0.076140 0.350482 0.194241
Si Si5 0.364089 0.374212 0.828235
Si Si6 0.400227 0.803374 0.079716
Si Si7 0.043052 0.703334 0.506619
Si Si8 0.296341 0.135608 0.077153
O O1 0.500000 0.500000 0.500000
O O2 0.539474 0.639401 0.335965
O O3 0.183141 0.476631 0.222199
O O4 0.282037 0.679328 0.523143
O O5 0.242020 0.018776 0.469128
O O6 0.987327 0.163925 0.397349
O O7 0.260676 0.087339 0.223949
O O8 0.893257 0.947916 0.129846
O O9 0.588496 0.104842 0.717498
O O10 0.042295 0.364987 0.388767
O O11 0.837854 0.283702 0.034044
O O12 0.236428 0.262547 0.156359
O O13 0.423774 0.274262 0.891607
O O14 0.107597 0.352747 0.717619
O O15 0.500000 0.500000 0.000000
O O16 0.474450 0.860220 0.955630
#
# Coordination Sequence:
#
# PCOD9045165 Si02
#       8
#     2   2   1   2   2   2   2   2
#     4  12  27  46  79 104 143 197 242 302 359 426
#     4  10  23  50  73 111 142 185 247 296 355 438
#     4  12  24  48  72 110 150 180 242 302 356 426
#     4  11  24  46  74 108 141 188 251 293 354 441
#     4  12  27  47  69 110 149 186 241 301 366 427
#     4  12  27  45  73 107 151 192 234 303 360 429
#     4  11  25  46  74 107 144 185 245 301 354 436
#     4  10  24  47  74 104 145 193 239 290 363 429
#
# _framework density 25.89913
#
# number of rings (size 3 to 8) (size 9 to 14) (size 15 to 20)
#    0.000    0.800    4.000    2.000    3.733    5.333 
#    0.000    0.000    0.000    0.000    0.000    0.000 
#    0.000    0.000    0.000    0.000    0.000    0.000 
#
# Total GULP energy -83848.415066 kJ/mol
# GULP energy per Si atom -5589.894338 kJ/mol
# Density = 2.584018 g / cm^3
# Si number density = 25.899130 Si / 1000 Ang^3
#
#
#
# Elastic Constant Matrix: (Units=GPa)
#
#
# Indices 1 2 3 4 5 6 
#
# 1 96.9510 17.8869 11.8612 2.1537 1.6947 -9.3342
# 2 17.8869 73.6331 9.0427 16.9247 -4.8437 -16.2661
# 3 11.8612 9.0427 111.3993 25.9358 20.2566 -7.6353
# 4 2.1537 16.9247 25.9358 40.5968 0.1627 -5.2009
# 5 1.6947 -4.8437 20.2566 0.1627 39.7647 0.1630
# 6 -9.3342 -16.2661 -7.6353 -5.2009 0.1630 49.0741
#
#
#
# Elastic Compliance Matrix: (Units=1/GPa)
#
#
# Indices 1 2 3 4 5 6 
#
# 1 0.011026 -0.002605 -0.001170 0.001404 -0.000202 0.001201
# 2 -0.002605 0.016777 0.000384 -0.006543 0.001968 0.004425
# 3 -0.001170 0.000384 0.011999 -0.007614 -0.005989 0.000985
# 4 0.001404 -0.006543 -0.007614 0.032179 0.002889 0.000314
# 5 -0.000202 0.001968 -0.005989 0.002889 0.028436 -0.000106
# 6 0.001201 0.004425 0.000985 0.000314 -0.000106 0.022259
#
#
# Mechanical properties :
#
#
# Convention : Reuss Voigt Hill
#
# Bulk Modulus (GPa) = 30.28435 39.95167 35.11801
# Shear Modulus (GPa) = 35.59579 42.09995 38.84787
#
# Velocity S-wave (km/s) = 3.71131 4.03617 3.87714
# Velocity P-wave (km/s) = 5.48486 6.09756 5.79931
#
# Compressibility (1/GPa) = 0.03302035
#
# Stress axis : x y z
#
# Youngs Moduli (GPa) = 90.69213 59.60395 83.33854
#
# Poissons Ratio (x) = 0.15529 0.09753
# Poissons Ratio (y) = 0.23628 -0.03203
# Poissons Ratio (z) = 0.10614 -0.02291
#
# Static dielectric constant tensor:
#      x y z
#    x 2.132660 -0.061340 0.024530 
#    y -0.061340 2.062580 -0.055510 
#    z 0.024530 -0.055510 2.047940 
# 
# From -- ./inp_files/39670.got.cif
#   From: 2010.05.17/outbox.cif.g08.bks.cpg/sg2_20_cif.got.tgz:39670.got - 2010.06.03 11:33:40.
