data_PCOD9045139
_publ_section_title
;
Structure prediction by ZEFSAII (Michael W. Deem and Ramdas Pophale) SiO2 
 PCOD9045139
Probable space group: P -1
;
_chemical_formula_sum "Si O2"
_cell_formula_units_Z 14
_cell_length_a 6.570755
_cell_length_b 17.546739
_cell_length_c 5.961652
_cell_angle_alpha 123.274391
_cell_angle_beta 102.854784
_cell_angle_gamma 89.807086
_cell_volume 554.286354
_symmetry_space_group_name_H-M "P -1"
_symmetry_group_IT_number 2
_symmetry_cell_setting 'triclinic'
loop_
_space_group_symop_operation_xyz
x,y,z
-x,-y,-z
loop_
_atom_site_type_symbol
_atom_site_label
_atom_site_fract_x
_atom_site_fract_y
_atom_site_fract_z
Si Si1 0.509772 0.580488 0.816550
Si Si2 0.497203 0.095001 0.789191
Si Si3 0.170997 0.473892 0.825263
Si Si4 0.071159 0.078957 0.461125
Si Si5 0.651910 0.845992 0.716233
Si Si6 0.772241 0.209916 0.723855
Si Si7 0.835751 0.691670 0.782818
O O1 0.500000 0.500000 0.500000
O O2 0.284760 0.562505 0.856585
O O3 0.620212 0.664891 0.832125
O O4 0.664021 0.564636 0.031113
O O5 0.282282 0.131419 0.715884
O O6 0.699397 0.162031 0.865630
O O7 0.500000 0.000000 0.500000
O O8 0.465575 0.095901 0.044005
O O9 0.113796 0.393313 0.497816
O O10 0.000000 0.500000 0.000000
O O11 0.181915 0.076214 0.243057
O O12 0.882337 0.137035 0.491452
O O13 0.000000 0.000000 0.500000
O O14 0.453293 0.784384 0.438613
O O15 0.789932 0.773804 0.740527
O O16 0.970219 0.284331 0.958843
#
# Coordination Sequence:
#
# PCOD9045139 Si02
#       7
#     2   2   2   2   2   2   2
#     4   9  22  47  72 103 150 184 243 297 363 452
#     4  11  24  48  69 108 145 191 255 310 366 454
#     4  10  23  49  77 112 141 199 244 292 380 444
#     4  11  24  48  73 102 151 194 253 315 369 453
#     4  11  28  46  75 109 148 198 255 308 385 434
#     4  11  26  47  71 110 148 195 256 305 382 438
#     4  11  25  50  74 107 157 193 241 319 366 447
#
# _framework density 25.257705000000001
#
# number of rings (size 3 to 8) (size 9 to 14) (size 15 to 20)
#    0.000    1.429    2.857    0.000    4.000    5.143 
#   20.571    0.000    0.000    0.000    0.000    0.000 
#    0.000    0.000    0.000    0.000    0.000    0.000 
#
# Total GULP energy -78073.288468 kJ/mol
# GULP energy per Si atom -5576.663462 kJ/mol
# Density = 2.520022 g / cm^3
# Si number density = 25.257705 Si / 1000 Ang^3
#
#
#
# Elastic Constant Matrix: (Units=GPa)
#
#
# Indices 1 2 3 4 5 6 
#
# 1 153.5471 42.9308 50.2979 -0.6128 -30.0777 20.5473
# 2 42.9308 85.4795 23.6392 -3.2748 -13.0125 18.4265
# 3 50.2979 23.6392 106.5101 3.3524 -11.8412 13.1624
# 4 -0.6128 -3.2748 3.3524 28.8448 8.0718 -3.1627
# 5 -30.0777 -13.0125 -11.8412 8.0718 58.5500 -20.9106
# 6 20.5473 18.4265 13.1624 -3.1627 -20.9106 60.9782
#
#
#
# Elastic Compliance Matrix: (Units=1/GPa)
#
#
# Indices 1 2 3 4 5 6 
#
# 1 0.009130 -0.003157 -0.003175 -0.000765 0.003332 -0.000334
# 2 -0.003157 0.014349 -0.001374 0.001386 0.000070 -0.002880
# 3 -0.003175 -0.001374 0.011397 -0.001727 0.000258 -0.000976
# 4 -0.000765 0.001386 -0.001727 0.036544 -0.005378 0.000263
# 5 0.003332 0.000070 0.000258 -0.005378 0.021734 0.005974
# 6 -0.000334 -0.002880 -0.000976 0.000263 0.005974 0.019655
#
#
# Mechanical properties :
#
#
# Convention : Reuss Voigt Hill
#
# Bulk Modulus (GPa) = 51.37799 64.36360 57.87079
# Shear Modulus (GPa) = 37.11726 44.91918 41.01822
#
# Velocity S-wave (km/s) = 3.83762 4.22172 4.03425
# Velocity P-wave (km/s) = 6.32630 7.02154 6.68297
#
# Compressibility (1/GPa) = 0.01946359
#
# Stress axis : x y z
#
# Youngs Moduli (GPa) = 109.53083 69.69221 87.74525
#
# Poissons Ratio (x) = 0.22004 0.27858
# Poissons Ratio (y) = 0.34583 0.12053
# Poissons Ratio (z) = 0.34775 0.09573
#
# Static dielectric constant tensor:
#      x y z
#    x 2.330560 -0.038130 -0.504920 
#    y -0.038130 2.094820 0.053860 
#    z -0.504920 0.053860 2.771420 
# 
# From -- ./inp_files/11689.got.cif
#   From: 2010.05.17/outbox.cif.g08.bks.cpg/sg2_6_cif.got.tgz:11689.got - 2010.06.03 11:33:40.
