data_PCOD9045823
_publ_section_title
;
Structure prediction by ZEFSAII (Michael W. Deem and Ramdas Pophale) SiO2 
 PCOD9045823
Probable space group: P -1
;
_chemical_formula_sum "Si O2"
_cell_formula_units_Z 14
_cell_length_a 16.174081
_cell_length_b 12.525554
_cell_length_c 22.044533
_cell_angle_alpha 25.729012
_cell_angle_beta 163.200432
_cell_angle_gamma 152.796384
_cell_volume 547.241881
_symmetry_space_group_name_H-M "P -1"
_symmetry_group_IT_number 2
_symmetry_cell_setting 'triclinic'
loop_
_space_group_symop_operation_xyz
x,y,z
-x,-y,-z
loop_
_atom_site_type_symbol
_atom_site_label
_atom_site_fract_x
_atom_site_fract_y
_atom_site_fract_z
Si Si1 0.369626 0.073048 0.103147
Si Si2 0.795630 0.123036 0.206700
Si Si3 0.252117 0.138420 0.275798
Si Si4 0.304360 0.293934 0.556438
Si Si5 0.331833 0.610707 0.745858
Si Si6 0.857183 0.706241 0.758641
Si Si7 0.655960 0.575661 0.282680
O O1 0.397796 0.346751 0.951563
O O2 0.477207 0.151754 0.206300
O O3 0.033307 0.932561 0.929891
O O4 0.556169 0.898116 0.289253
O O5 0.000103 0.307072 0.304294
O O6 0.967951 0.180959 0.235463
O O7 0.762153 0.847752 0.353428
O O8 0.524353 0.817917 0.052011
O O9 0.157692 0.090859 0.303505
O O10 0.420603 0.426241 0.240834
O O11 0.500000 0.000000 0.500000
O O12 0.536615 0.553300 0.591731
O O13 0.375844 0.591868 0.714941
O O14 0.989978 0.605027 0.521443
O O15 0.000000 0.500000 0.000000
#
# Coordination Sequence:
#
# PCOD9045823 Si02
#       7
#     2   2   2   2   2   2   2
#     4  11  22  46  67 101 145 188 238 296 361 435
#     4  11  25  46  74 106 147 191 250 299 366 438
#     4  12  26  45  72 106 145 189 240 299 372 435
#     4  11  25  47  73 108 145 198 244 302 368 433
#     4  10  24  41  72 101 145 186 238 302 357 431
#     4  12  25  47  74 106 149 191 245 310 360 442
#     4  11  22  45  71 107 141 191 246 299 362 442
#
# _framework density 25.582836
#
# number of rings (size 3 to 8) (size 9 to 14) (size 15 to 20)
#    0.000    0.857    5.714    0.429    0.000    5.714 
#    5.143    0.000    0.000    0.000    0.000    0.000 
#    0.000    0.000    0.000    0.000    0.000    0.000 
#
# Total GULP energy -78521.330875 kJ/mol
# GULP energy per Si atom -5608.666491 kJ/mol
# Density = 2.552461 g / cm^3
# Si number density = 25.582836 Si / 1000 Ang^3
#
#
#
# Elastic Constant Matrix: (Units=GPa)
#
#
# Indices 1 2 3 4 5 6 
#
# 1 154.5615 44.5113 34.0356 6.9506 8.9507 1.9132
# 2 44.5113 115.1891 37.4956 38.8895 -7.7837 -16.6768
# 3 34.0356 37.4956 105.5663 20.7761 6.4466 -9.9198
# 4 6.9506 38.8895 20.7761 55.2024 0.3999 -3.7219
# 5 8.9507 -7.7837 6.4466 0.3999 35.8971 2.2907
# 6 1.9132 -16.6768 -9.9198 -3.7219 2.2907 38.7711
#
#
#
# Elastic Compliance Matrix: (Units=1/GPa)
#
#
# Indices 1 2 3 4 5 6 
#
# 1 0.007985 -0.003705 -0.001729 0.002132 -0.002375 -0.002085
# 2 -0.003705 0.014793 -0.002118 -0.008859 0.004298 0.004900
# 3 -0.001729 -0.002118 0.011601 -0.002503 -0.002214 0.002033
# 4 0.002132 -0.008859 -0.002503 0.024908 -0.002150 -0.002038
# 5 -0.002375 0.004298 -0.002214 -0.002150 0.029839 -0.000570
# 6 -0.002085 0.004900 0.002033 -0.002038 -0.000570 0.028361
#
#
# Mechanical properties :
#
#
# Convention : Reuss Voigt Hill
#
# Bulk Modulus (GPa) = 51.88094 67.48910 59.68502
# Shear Modulus (GPa) = 35.96673 43.25908 39.61290
#
# Velocity S-wave (km/s) = 3.75359 4.11657 3.93926
# Velocity P-wave (km/s) = 6.25376 7.00234 6.63861
#
# Compressibility (1/GPa) = 0.01927490
#
# Stress axis : x y z
#
# Youngs Moduli (GPa) = 125.23393 67.59876 86.19605
#
# Poissons Ratio (x) = 0.25044 0.14904
# Poissons Ratio (y) = 0.46398 0.18260
# Poissons Ratio (z) = 0.21654 0.14321
#
# Static dielectric constant tensor:
#      x y z
#    x 2.018840 -0.040000 -0.039710 
#    y -0.040000 2.158610 -0.163970 
#    z -0.039710 -0.163970 2.090750 
# 
# From -- ./inp_files/333510.got.cif
#   From: 2010.05.17/outbox.cif.g08.bks.cpg/sg2_167_cif.got.tgz:333510.got - 2010.06.03 11:33:40.
