data_PCOD9045748
_publ_section_title
;
Structure prediction by ZEFSAII (Michael W. Deem and Ramdas Pophale) SiO2 
 PCOD9045748
Probable space group: P -1
;
_chemical_formula_sum "Si O2"
_cell_formula_units_Z 16
_cell_length_a 11.929112
_cell_length_b 5.168926
_cell_length_c 13.515314
_cell_angle_alpha 115.091891
_cell_angle_beta 87.154367
_cell_angle_gamma 108.774841
_cell_volume 710.885797
_symmetry_space_group_name_H-M "P -1"
_symmetry_group_IT_number 2
_symmetry_cell_setting 'triclinic'
loop_
_space_group_symop_operation_xyz
x,y,z
-x,-y,-z
loop_
_atom_site_type_symbol
_atom_site_label
_atom_site_fract_x
_atom_site_fract_y
_atom_site_fract_z
Si Si1 0.639224 0.874099 0.249225
Si Si2 0.577207 0.341697 0.033985
Si Si3 0.917312 0.808453 0.886187
Si Si4 0.762627 0.172539 0.868977
Si Si5 0.894774 0.105719 0.279198
Si Si6 0.558511 0.859923 0.678009
Si Si7 0.111880 0.254795 0.583037
Si Si8 0.364501 0.209039 0.543001
O O1 0.607525 0.525367 0.165106
O O2 0.658299 0.957601 0.377905
O O3 0.766415 0.029698 0.218362
O O4 0.528230 0.976243 0.245932
O O5 0.500000 0.500000 0.000000
O O6 0.692132 0.333459 0.968345
O O7 0.500000 0.000000 0.000000
O O8 0.861422 0.453512 0.857213
O O9 0.998802 0.857097 0.793599
O O10 0.817160 0.960089 0.894210
O O11 0.000000 0.000000 0.000000
O O12 0.672098 0.953622 0.758845
O O13 0.910143 0.429461 0.378913
O O14 0.885258 0.845748 0.318399
O O15 0.476304 0.510757 0.611214
O O16 0.603211 0.956054 0.579265
O O17 0.241538 0.274876 0.537957
O O18 0.000000 0.000000 0.500000
#
# Coordination Sequence:
#
# PCOD9045748 Si02
#       8
#     2   2   2   2   2   2   2   2
#     4  11  23  44  69 100 141 186 239 291 362 436
#     4  12  25  43  72 106 146 183 235 300 359 432
#     4  12  28  50  73 104 145 188 242 298 367 428
#     4  12  27  47  75 110 141 192 238 304 361 434
#     4  11  25  45  73  98 136 189 237 292 360 414
#     4  11  23  44  68 104 147 184 240 289 370 431
#     4  11  24  45  68 105 137 188 244 294 349 426
#     4  10  24  41  68 103 147 191 229 297 360 429
#
# _framework density 22.507128999999999
#
# number of rings (size 3 to 8) (size 9 to 14) (size 15 to 20)
#    0.000    0.750    2.500    4.125    5.250    2.000 
#    0.000    0.000    0.000    0.000    0.000    0.000 
#    0.000    0.000    0.000    0.000    0.000    0.000 
#
# Total GULP energy -89487.969351 kJ/mol
# GULP energy per Si atom -5592.998084 kJ/mol
# Density = 2.245590 g / cm^3
# Si number density = 22.507129 Si / 1000 Ang^3
#
#
#
# Elastic Constant Matrix: (Units=GPa)
#
#
# Indices 1 2 3 4 5 6 
#
# 1 76.3399 0.9266 34.2313 6.0890 11.6203 1.6834
# 2 0.9266 75.6274 10.0244 12.1450 4.3044 4.7740
# 3 34.2313 10.0244 92.0517 13.6450 11.5074 2.3083
# 4 6.0890 12.1450 13.6450 39.2003 10.0083 -1.0196
# 5 11.6203 4.3044 11.5074 10.0083 46.2509 0.0729
# 6 1.6834 4.7740 2.3083 -1.0196 0.0729 34.9075
#
#
#
# Elastic Compliance Matrix: (Units=1/GPa)
#
#
# Indices 1 2 3 4 5 6 
#
# 1 0.016070 0.000754 -0.005700 -0.000076 -0.002672 -0.000498
# 2 0.000754 0.014164 -0.001125 -0.004079 -0.000342 -0.002018
# 3 -0.005700 -0.001125 0.013752 -0.003267 -0.001177 -0.000574
# 4 -0.000076 -0.004079 -0.003267 0.029274 -0.005126 0.001643
# 5 -0.002672 -0.000342 -0.001177 -0.005126 0.023726 0.000054
# 6 -0.000498 -0.002018 -0.000574 0.001643 0.000054 0.029033
#
#
# Mechanical properties :
#
#
# Convention : Reuss Voigt Hill
#
# Bulk Modulus (GPa) = 31.40276 37.15372 34.27824
# Shear Modulus (GPa) = 33.60760 37.32753 35.46757
#
# Velocity S-wave (km/s) = 3.86838 4.07686 3.97399
# Velocity P-wave (km/s) = 5.82539 6.22129 6.02659
#
# Compressibility (1/GPa) = 0.03184434
#
# Stress axis : x y z
#
# Youngs Moduli (GPa) = 62.22769 70.59904 72.71930
#
# Poissons Ratio (x) = -0.05327 0.41452
# Poissons Ratio (y) = -0.04695 0.08181
# Poissons Ratio (z) = 0.35471 0.07943
#
# Static dielectric constant tensor:
#      x y z
#    x 2.217020 0.194590 0.512490 
#    y 0.194590 1.948370 0.226540 
#    z 0.512490 0.226540 2.515120 
# 
# From -- ./inp_files/511250.got.cif
#   From: 2010.05.17/outbox.cif.g08.bks.cpg/sg2_256_cif.got.tgz:511250.got - 2010.06.03 11:33:40.
