data_PCOD9045343
_publ_section_title
;
Structure prediction by ZEFSAII (Michael W. Deem and Ramdas Pophale) SiO2 
 PCOD9045343
Probable space group: P -1
;
_chemical_formula_sum "Si O2"
_cell_formula_units_Z 16
_cell_length_a 15.085037
_cell_length_b 22.493552
_cell_length_c 11.658617
_cell_angle_alpha 146.537137
_cell_angle_beta 41.981800
_cell_angle_gamma 160.869991
_cell_volume 692.504748
_symmetry_space_group_name_H-M "P -1"
_symmetry_group_IT_number 2
_symmetry_cell_setting 'triclinic'
loop_
_space_group_symop_operation_xyz
x,y,z
-x,-y,-z
loop_
_atom_site_type_symbol
_atom_site_label
_atom_site_fract_x
_atom_site_fract_y
_atom_site_fract_z
Si Si1 0.888059 0.584295 0.777169
Si Si2 0.768431 0.260420 0.000382
Si Si3 0.505620 0.328660 0.932409
Si Si4 0.250024 0.763683 0.284124
Si Si5 0.640270 0.705069 0.741767
Si Si6 0.577051 0.175684 0.298979
Si Si7 0.901586 0.127295 0.353818
Si Si8 0.022904 0.146815 0.020923
O O1 0.784189 0.525117 0.910200
O O2 0.653200 0.346936 0.552479
O O3 0.919222 0.724374 0.921709
O O4 0.174008 0.722339 0.726665
O O5 0.664658 0.201989 0.873592
O O6 0.701382 0.085238 0.809683
O O7 0.613119 0.201067 0.166302
O O8 0.070944 0.537745 0.147518
O O9 0.529289 0.368120 0.107987
O O10 0.297672 0.271016 0.985212
O O11 0.375281 0.115526 0.710568
O O12 0.030850 0.707746 0.397304
O O13 0.500000 0.000000 0.500000
O O14 0.500000 0.500000 0.500000
O O15 0.910540 0.842599 0.757816
O O16 0.764799 0.881061 0.818847
O O17 0.918350 0.140434 0.221871
#
# Coordination Sequence:
#
# PCOD9045343 Si02
#       8
#     2   2   2   2   2   2   2   2
#     4  11  21  36  65  87 114 173 212 247 311 372
#     4  10  24  44  56  94 134 156 218 260 294 392
#     4   9  19  36  58  86 114 151 212 247 296 379
#     4  11  24  39  68  95 127 162 211 264 318 364
#     4   9  19  37  58  85 121 158 194 256 329 360
#     4  10  24  40  59  88 131 169 203 252 321 369
#     4   9  19  36  58  87 117 155 199 253 308 374
#     4   9  19  36  58  86 114 151 212 247 296 379
#
# _framework density 23.104534000000001
#
# number of rings (size 3 to 8) (size 9 to 14) (size 15 to 20)
#    0.000    2.250    0.000    3.375    7.000    2.000 
#    4.500    3.125    0.000    0.000    0.000    0.000 
#    0.000    0.000    0.000    0.000    0.000    0.000 
#
# Total GULP energy -89169.957753 kJ/mol
# GULP energy per Si atom -5573.122360 kJ/mol
# Density = 2.305195 g / cm^3
# Si number density = 23.104534 Si / 1000 Ang^3
#
#
#
# Elastic Constant Matrix: (Units=GPa)
#
#
# Indices 1 2 3 4 5 6 
#
# 1 57.8785 37.2698 40.5503 13.0372 -8.6382 -20.4891
# 2 37.2698 110.9745 50.4444 33.2138 -4.9605 -38.5003
# 3 40.5503 50.4444 137.8173 34.5599 -8.9239 -14.3483
# 4 13.0372 33.2138 34.5599 29.4174 1.8511 -12.1763
# 5 -8.6382 -4.9605 -8.9239 1.8511 42.4361 2.8411
# 6 -20.4891 -38.5003 -14.3483 -12.1763 2.8411 40.6406
#
#
#
# Elastic Compliance Matrix: (Units=1/GPa)
#
#
# Indices 1 2 3 4 5 6 
#
# 1 0.026917 -0.004283 -0.006137 0.003290 0.003001 0.008122
# 2 -0.004283 0.018973 -0.001001 -0.013742 0.000980 0.011275
# 3 -0.006137 -0.001001 0.012220 -0.012070 0.001963 -0.003482
# 4 0.003290 -0.013742 -0.012070 0.064348 -0.006557 0.004116
# 5 0.003001 0.000980 0.001963 -0.006557 0.025028 -0.000580
# 6 0.008122 0.011275 -0.003482 0.004116 -0.000580 0.039427
#
#
# Mechanical properties :
#
#
# Convention : Reuss Voigt Hill
#
# Bulk Modulus (GPa) = 28.35459 62.57770 45.46615
# Shear Modulus (GPa) = 22.57227 34.39253 28.48240
#
# Velocity S-wave (km/s) = 3.12903 3.86237 3.51488
# Velocity P-wave (km/s) = 5.03522 6.85813 6.01612
#
# Compressibility (1/GPa) = 0.03526766
#
# Stress axis : x y z
#
# Youngs Moduli (GPa) = 37.15061 52.70698 81.83546
#
# Poissons Ratio (x) = 0.22573 0.50226
# Poissons Ratio (y) = 0.15910 0.08192
# Poissons Ratio (z) = 0.22801 0.05276
#
# Static dielectric constant tensor:
#      x y z
#    x 1.964870 0.049070 0.043130 
#    y 0.049070 1.906650 0.047650 
#    z 0.043130 0.047650 1.889310 
# 
# From -- ./inp_files/467383.got.cif
#   From: 2010.05.17/outbox.cif.g08.bks.cpg/sg2_234_cif.got.tgz:467383.got - 2010.06.03 11:33:40.
