data_PCOD9045319
_publ_section_title
;
Structure prediction by ZEFSAII (Michael W. Deem and Ramdas Pophale) SiO2 
 PCOD9045319
Probable space group: P -1
;
_chemical_formula_sum "Si O2"
_cell_formula_units_Z 16
_cell_length_a 14.944546
_cell_length_b 5.573293
_cell_length_c 9.885487
_cell_angle_alpha 81.260241
_cell_angle_beta 96.191493
_cell_angle_gamma 111.073142
_cell_volume 758.114402
_symmetry_space_group_name_H-M "P -1"
_symmetry_group_IT_number 2
_symmetry_cell_setting 'triclinic'
loop_
_space_group_symop_operation_xyz
x,y,z
-x,-y,-z
loop_
_atom_site_type_symbol
_atom_site_label
_atom_site_fract_x
_atom_site_fract_y
_atom_site_fract_z
Si Si1 0.897327 0.388795 0.561300
Si Si2 0.130125 0.388677 0.206815
Si Si3 0.055627 0.035315 0.867115
Si Si4 0.556001 0.809620 0.479386
Si Si5 0.688000 0.984508 0.238591
Si Si6 0.745553 0.911872 0.678539
Si Si7 0.202879 0.430825 0.687312
Si Si8 0.223578 0.858464 0.027479
O O1 0.904944 0.430785 0.718364
O O2 0.836693 0.546834 0.469195
O O3 0.000000 0.500000 0.500000
O O4 0.826909 0.093826 0.573611
O O5 0.223354 0.335595 0.277618
O O6 0.170331 0.548725 0.063688
O O7 0.035428 0.135294 0.220295
O O8 0.110300 0.300467 0.778332
O O9 0.141353 0.934855 0.931155
O O10 0.000000 0.000000 0.000000
O O11 0.500000 0.500000 0.500000
O O12 0.594260 0.885034 0.325877
O O13 0.645890 0.866033 0.592234
O O14 0.500000 0.000000 0.500000
O O15 0.736209 0.761318 0.284727
O O16 0.744933 0.275137 0.279397
O O17 0.688127 0.037642 0.072115
O O18 0.750468 0.023360 0.825757
#
# Coordination Sequence:
#
# PCOD9045319 Si02
#       8
#     2   2   2   2   2   2   2   2
#     4  11  25  37  61  99 139 192 234 284 339 406
#     4  11  23  39  65  92 147 189 240 284 338 404
#     4  11  21  37  59  99 138 192 241 274 326 410
#     4  12  28  50  80 105 132 176 234 299 368 428
#     4  11  24  47  72 101 133 177 228 289 356 420
#     4  11  24  46  67 102 141 181 233 292 353 413
#     4  11  24  40  66  95 142 184 233 282 338 406
#     4  10  24  39  69  97 140 191 228 284 345 409
#
# _framework density 21.104994000000001
#
# number of rings (size 3 to 8) (size 9 to 14) (size 15 to 20)
#    0.000    1.000    2.500    3.375   10.500    1.000 
#    0.000    1.250    0.000    0.000    0.000    0.000 
#    0.000    0.000    0.000    0.000    0.000    0.000 
#
# Total GULP energy -89068.514421 kJ/mol
# GULP energy per Si atom -5566.782151 kJ/mol
# Density = 2.105696 g / cm^3
# Si number density = 21.104994 Si / 1000 Ang^3
#
#
#
# Elastic Constant Matrix: (Units=GPa)
#
#
# Indices 1 2 3 4 5 6 
#
# 1 89.9999 43.3981 48.5395 -6.3433 -7.3053 1.3542
# 2 43.3981 112.0141 27.3581 -20.9243 -11.5940 4.7346
# 3 48.5395 27.3581 97.2545 -20.8002 -26.4604 8.1322
# 4 -6.3433 -20.9243 -20.8002 42.4101 6.1391 -6.4177
# 5 -7.3053 -11.5940 -26.4604 6.1391 48.9740 -4.4569
# 6 1.3542 4.7346 8.1322 -6.4177 -4.4569 27.9974
#
#
#
# Elastic Compliance Matrix: (Units=1/GPa)
#
#
# Indices 1 2 3 4 5 6 
#
# 1 0.018525 -0.006038 -0.009395 -0.004155 -0.003093 0.001409
# 2 -0.006038 0.012177 0.001325 0.005378 0.001969 -0.000606
# 3 -0.009395 0.001325 0.018355 0.006776 0.007770 -0.002311
# 4 -0.004155 0.005378 0.006776 0.029428 0.001010 0.004230
# 5 -0.003093 0.001969 0.007770 0.001010 0.024651 0.001716
# 6 0.001409 -0.000606 -0.002311 0.004230 0.001716 0.037666
#
#
# Mechanical properties :
#
#
# Convention : Reuss Voigt Hill
#
# Bulk Modulus (GPa) = 47.98590 59.76220 53.87405
# Shear Modulus (GPa) = 28.41443 35.87449 32.14446
#
# Velocity S-wave (km/s) = 3.67323 4.12735 3.90689
# Velocity P-wave (km/s) = 6.38563 7.14783 6.77745
#
# Compressibility (1/GPa) = 0.02083945
#
# Stress axis : x y z
#
# Youngs Moduli (GPa) = 53.98173 82.11945 54.48050
#
# Poissons Ratio (x) = 0.49587 0.51185
# Poissons Ratio (y) = 0.32597 -0.07217
# Poissons Ratio (z) = 0.50717 -0.10878
#
# Static dielectric constant tensor:
#      x y z
#    x 1.611230 -0.105840 -0.010680 
#    y -0.105840 1.740060 0.018400 
#    z -0.010680 0.018400 1.794740 
# 
# From -- ./inp_files/288673.got.cif
#   From: 2010.05.17/outbox.cif.g08.bks.cpg/sg2_145_cif.got.tgz:288673.got - 2010.06.03 11:33:40.
