data_PCOD9045046
_publ_section_title
;
Structure prediction by ZEFSAII (Michael W. Deem and Ramdas Pophale) SiO2 
 PCOD9045046
Probable space group: P -1
;
_chemical_formula_sum "Si O2"
_cell_formula_units_Z 16
_cell_length_a 9.086214
_cell_length_b 13.249340
_cell_length_c 9.257847
_cell_angle_alpha 64.132299
_cell_angle_beta 127.322917
_cell_angle_gamma 81.029544
_cell_volume 645.298910
_symmetry_space_group_name_H-M "P -1"
_symmetry_group_IT_number 2
_symmetry_cell_setting 'triclinic'
loop_
_space_group_symop_operation_xyz
x,y,z
-x,-y,-z
loop_
_atom_site_type_symbol
_atom_site_label
_atom_site_fract_x
_atom_site_fract_y
_atom_site_fract_z
Si Si1 0.976493 0.697080 0.106549
Si Si2 0.587115 0.738780 0.670887
Si Si3 0.907088 0.690317 0.623348
Si Si4 0.648959 0.584515 0.435946
Si Si5 0.667335 0.112887 0.985518
Si Si6 0.571302 0.490082 0.883348
Si Si7 0.898963 0.977919 0.806365
Si Si8 0.256690 0.158582 0.845005
O O1 0.937211 0.730009 0.233082
O O2 0.227502 0.557797 0.309941
O O3 0.770286 0.691626 0.936339
O O4 0.927125 0.835232 0.923211
O O5 0.735610 0.726890 0.629693
O O6 0.520276 0.631815 0.700909
O O7 0.358412 0.892124 0.452087
O O8 0.861347 0.597066 0.551984
O O9 0.838555 0.810916 0.394566
O O10 0.154265 0.617969 0.881694
O O11 0.558667 0.556515 0.257654
O O12 0.437697 0.742174 0.251407
O O13 0.665588 0.994768 0.973707
O O14 0.484192 0.154679 0.976739
O O15 0.931710 0.043176 0.207794
O O16 0.500000 0.500000 0.000000
O O17 0.000000 0.000000 0.000000
#
# Coordination Sequence:
#
# PCOD9045046 Si02
#       8
#     2   2   2   2   2   2   2   2
#     4  12  26  47  79 107 152 204 250 313 383 448
#     4  12  29  50  72 114 156 196 252 318 381 453
#     4  11  26  50  76 107 162 197 254 313 380 450
#     4  11  26  48  78 109 150 200 252 306 386 440
#     4  10  24  43  73 110 146 195 256 307 371 455
#     4  12  28  47  78 119 151 198 259 314 377 454
#     4  12  24  46  72 109 152 198 254 307 379 456
#     4  10  23  48  76 108 149 208 247 307 390 446
#
# _framework density 24.794712000000001
#
# number of rings (size 3 to 8) (size 9 to 14) (size 15 to 20)
#    0.000    0.750    2.500    3.750    8.750    3.500 
#    0.000    1.250    0.000    0.000    0.000    0.000 
#    0.000    0.000    0.000    0.000    0.000    0.000 
#
# Total GULP energy -89418.715038 kJ/mol
# GULP energy per Si atom -5588.669690 kJ/mol
# Density = 2.473828 g / cm^3
# Si number density = 24.794712 Si / 1000 Ang^3
#
#
#
# Elastic Constant Matrix: (Units=GPa)
#
#
# Indices 1 2 3 4 5 6 
#
# 1 137.5411 25.5918 48.4220 -23.9661 12.5036 -12.2425
# 2 25.5918 107.2199 60.4267 -20.5145 8.1712 11.6016
# 3 48.4220 60.4267 152.8358 -21.4862 22.5814 -6.1480
# 4 -23.9661 -20.5145 -21.4862 47.3843 4.3310 3.2058
# 5 12.5036 8.1712 22.5814 4.3310 44.0865 1.4069
# 6 -12.2425 11.6016 -6.1480 3.2058 1.4069 29.1397
#
#
#
# Elastic Compliance Matrix: (Units=1/GPa)
#
#
# Indices 1 2 3 4 5 6 
#
# 1 0.009098 -0.000817 -0.001629 0.003458 -0.002047 0.003522
# 2 -0.000817 0.013849 -0.004988 0.003810 0.000079 -0.007332
# 3 -0.001629 -0.004988 0.009998 0.001685 -0.004009 0.003419
# 4 0.003458 0.003810 0.001685 0.025882 -0.005019 -0.002314
# 5 -0.002047 0.000079 -0.004009 -0.005019 0.025873 -0.002434
# 6 0.003522 -0.007332 0.003419 -0.002314 -0.002434 0.039810
#
#
# Mechanical properties :
#
#
# Convention : Reuss Voigt Hill
#
# Bulk Modulus (GPa) = 55.31842 74.05307 64.68575
# Shear Modulus (GPa) = 34.38723 41.66586 38.02654
#
# Velocity S-wave (km/s) = 3.72812 4.10376 3.92044
# Velocity P-wave (km/s) = 6.39460 7.23780 6.82922
#
# Compressibility (1/GPa) = 0.01807716
#
# Stress axis : x y z
#
# Youngs Moduli (GPa) = 109.91072 72.20856 100.02042
#
# Poissons Ratio (x) = 0.05899 0.16297
# Poissons Ratio (y) = 0.08978 0.49887
# Poissons Ratio (z) = 0.17909 0.36015
#
# Static dielectric constant tensor:
#      x y z
#    x 2.001100 0.009440 -0.038990 
#    y 0.009440 2.015890 -0.005030 
#    z -0.038990 -0.005030 1.979530 
# 
# From -- ./inp_files/206050.got.cif
#   From: 2010.05.17/outbox.cif.g08.bks.cpg/sg2_104_cif.got.tgz:206050.got - 2010.06.03 11:33:40.
