data_PCOD9045999
_publ_section_title
;
Structure prediction by ZEFSAII (Michael W. Deem and Ramdas Pophale) SiO2 
 PCOD9045999
Probable space group: P -1
;
_chemical_formula_sum "Si O2"
_cell_formula_units_Z 14
_cell_length_a 19.439062
_cell_length_b 8.287201
_cell_length_c 11.617431
_cell_angle_alpha 134.750507
_cell_angle_beta 43.300045
_cell_angle_gamma 148.320806
_cell_volume 655.159237
_symmetry_space_group_name_H-M "P -1"
_symmetry_group_IT_number 2
_symmetry_cell_setting 'triclinic'
loop_
_space_group_symop_operation_xyz
x,y,z
-x,-y,-z
loop_
_atom_site_type_symbol
_atom_site_label
_atom_site_fract_x
_atom_site_fract_y
_atom_site_fract_z
Si Si1 0.187430 0.861446 0.207056
Si Si2 0.431922 0.138959 0.900869
Si Si3 0.506587 0.257951 0.432184
Si Si4 0.813162 0.866391 0.417723
Si Si5 0.726292 0.079347 0.256972
Si Si6 0.989014 0.830844 0.315041
Si Si7 0.075041 0.880362 0.833408
O O1 0.135498 0.932774 0.196740
O O2 0.054232 0.493354 0.196159
O O3 0.203257 0.012540 0.385523
O O4 0.328192 0.965897 0.048906
O O5 0.514853 0.026501 0.743820
O O6 0.344056 0.008600 0.824388
O O7 0.500000 0.500000 0.000000
O O8 0.500000 0.500000 0.500000
O O9 0.667845 0.506335 0.400743
O O10 0.396271 0.086605 0.583974
O O11 0.948426 0.921045 0.302421
O O12 0.844626 0.032137 0.341180
O O13 0.851602 0.458627 0.307695
O O14 0.811371 0.985095 0.137811
O O15 0.000000 0.000000 0.500000
O O16 0.000000 0.000000 0.000000
#
# Coordination Sequence:
#
# PCOD9045999 Si02
#       7
#     2   2   2   2   2   2   2
#     4  10  24  42  66 101 136 175 233 287 348 412
#     4  12  27  46  71 104 139 182 237 290 340 414
#     4  12  25  46  72  97 140 183 235 280 350 411
#     4  11  21  44  69  96 138 184 225 287 349 416
#     4  11  24  43  70  99 136 188 230 283 348 417
#     4   9  21  38  70  98 129 174 236 277 345 410
#     4  11  24  41  67 101 140 177 231 286 354 410
#
# _framework density 21.368852
#
# number of rings (size 3 to 8) (size 9 to 14) (size 15 to 20)
#    0.000    1.143    2.857    2.571    6.000    1.143 
#    2.571    1.429    0.000    0.000    0.000    0.000 
#    0.000    0.000    0.000    0.000    0.000    0.000 
#
# Total GULP energy -77984.184909 kJ/mol
# GULP energy per Si atom -5570.298922 kJ/mol
# Density = 2.132022 g / cm^3
# Si number density = 21.368852 Si / 1000 Ang^3
#
#
#
# Elastic Constant Matrix: (Units=GPa)
#
#
# Indices 1 2 3 4 5 6 
#
# 1 90.1856 1.2152 36.7572 17.0984 -2.7235 -5.8224
# 2 1.2152 60.6207 43.5263 11.4390 7.4441 2.5940
# 3 36.7572 43.5263 112.3255 -6.0666 -9.9656 -10.8902
# 4 17.0984 11.4390 -6.0666 39.8278 -1.7420 5.1765
# 5 -2.7235 7.4441 -9.9656 -1.7420 29.5650 -2.0437
# 6 -5.8224 2.5940 -10.8902 5.1765 -2.0437 22.7801
#
#
#
# Elastic Compliance Matrix: (Units=1/GPa)
#
#
# Indices 1 2 3 4 5 6 
#
# 1 0.017686 0.010584 -0.011013 -0.012604 -0.005461 0.000425
# 2 0.010584 0.037713 -0.021514 -0.018208 -0.017489 -0.009306
# 3 -0.011013 -0.021514 0.023701 0.013948 0.013838 0.009037
# 4 -0.012604 -0.018208 0.013948 0.038625 0.010239 -0.002339
# 5 -0.005461 -0.017489 0.013838 0.010239 0.043600 0.008796
# 6 0.000425 -0.009306 0.009037 -0.002339 0.008796 0.050707
#
#
# Mechanical properties :
#
#
# Convention : Reuss Voigt Hill
#
# Bulk Modulus (GPa) = 28.39904 47.34771 37.87337
# Shear Modulus (GPa) = 18.68067 30.54344 24.61206
#
# Velocity S-wave (km/s) = 2.95990 3.78477 3.39746
# Velocity P-wave (km/s) = 5.00001 6.42688 5.75781
#
# Compressibility (1/GPa) = 0.03521246
#
# Stress axis : x y z
#
# Youngs Moduli (GPa) = 56.54089 26.51618 42.19309
#
# Poissons Ratio (x) = -0.28064 0.46467
# Poissons Ratio (y) = -0.59840 0.90776
# Poissons Ratio (z) = 0.62268 0.57048
#
# Static dielectric constant tensor:
#      x y z
#    x 1.776750 0.057290 -0.046180 
#    y 0.057290 1.580150 -0.018670 
#    z -0.046180 -0.018670 1.759200 
# 
# From -- ./inp_files/242519.got.cif
#   From: 2010.05.17/outbox.cif.g08.bks.cpg/sg2_122_cif.got.tgz:242519.got - 2010.06.03 11:33:40.
