data_PCOD9045422
_publ_section_title
;
Structure prediction by ZEFSAII (Michael W. Deem and Ramdas Pophale) SiO2 
 PCOD9045422
Probable space group: P -1
;
_chemical_formula_sum "Si O2"
_cell_formula_units_Z 15
_cell_length_a 7.984772
_cell_length_b 20.735966
_cell_length_c 17.044480
_cell_angle_alpha 160.167896
_cell_angle_beta 135.281920
_cell_angle_gamma 40.221188
_cell_volume 617.873331
_symmetry_space_group_name_H-M "P -1"
_symmetry_group_IT_number 2
_symmetry_cell_setting 'triclinic'
loop_
_space_group_symop_operation_xyz
x,y,z
-x,-y,-z
loop_
_atom_site_type_symbol
_atom_site_label
_atom_site_fract_x
_atom_site_fract_y
_atom_site_fract_z
Si Si1 0.610295 0.280573 0.531773
Si Si2 0.796181 0.461678 0.559784
Si Si3 0.414898 0.180880 0.616859
Si Si4 0.978808 0.099001 0.690926
Si Si5 0.000000 0.000000 0.000000
Si Si6 0.122572 0.467461 0.151167
Si Si7 0.280402 0.195743 0.192380
Si Si8 0.291468 0.096293 0.307963
O O1 0.686561 0.475177 0.775217
O O2 0.446223 0.281555 0.401905
O O3 0.436014 0.243214 0.498724
O O4 0.880275 0.076840 0.398344
O O5 0.500000 0.500000 0.500000
O O6 0.855086 0.478099 0.688569
O O7 0.853544 0.624938 0.711437
O O8 0.980837 0.224276 0.324959
O O9 0.673878 0.225255 0.745775
O O10 0.336980 0.086822 0.404253
O O11 0.170726 0.378112 0.790365
O O12 0.500000 0.000000 0.500000
O O13 0.000000 0.000000 0.500000
O O14 0.141569 0.237747 0.894345
O O15 0.093092 0.124669 0.100203
O O16 0.310344 0.917533 0.049638
O O17 0.500000 0.000000 0.000000
#
# Coordination Sequence:
#
# PCOD9045422 Si02
#       8
#     2   2   2   2   1   2   2   2
#     4  11  23  45  68 101 142 179 238 295 352 433
#     4  11  22  43  70  97 138 183 234 288 354 432
#     4  11  23  45  73 100 140 184 239 299 352 426
#     4  12  25  46  67 101 139 182 233 294 361 420
#     4  10  24  40  66 100 142 180 224 292 356 418
#     4  11  25  44  74 102 138 188 241 290 358 432
#     4  11  23  42  68 102 140 185 234 290 360 431
#     4  10  24  44  64 104 141 175 236 295 351 433
#
# _framework density 24.276823
#
# number of rings (size 3 to 8) (size 9 to 14) (size 15 to 20)
#    0.000    1.067    4.000    2.000    1.867    4.800 
#    7.200    0.000    0.000    0.000    0.000    0.000 
#    0.000    0.000    0.000    0.000    0.000    0.000 
#
# Total GULP energy -83697.464802 kJ/mol
# GULP energy per Si atom -5579.830987 kJ/mol
# Density = 2.422157 g / cm^3
# Si number density = 24.276823 Si / 1000 Ang^3
#
#
#
# Elastic Constant Matrix: (Units=GPa)
#
#
# Indices 1 2 3 4 5 6 
#
# 1 100.0467 29.7608 30.7361 -6.0647 37.7755 8.8985
# 2 29.7608 116.3187 14.2555 -3.6120 19.7587 5.2174
# 3 30.7361 14.2555 88.6361 1.6286 43.1917 6.8886
# 4 -6.0647 -3.6120 1.6286 29.7002 -1.9712 8.1729
# 5 37.7755 19.7587 43.1917 -1.9712 48.7647 -0.0721
# 6 8.8985 5.2174 6.8886 8.1729 -0.0721 45.6993
#
#
#
# Elastic Compliance Matrix: (Units=1/GPa)
#
#
# Indices 1 2 3 4 5 6 
#
# 1 0.015151 -0.001747 0.000982 0.002996 -0.011782 -0.003453
# 2 -0.001747 0.009554 0.000602 0.000846 -0.003018 -0.000997
# 3 0.000982 0.000602 0.020459 -0.001254 -0.019181 -0.003150
# 4 0.002996 0.000846 -0.001254 0.036372 -0.000092 -0.006996
# 5 -0.011782 -0.003018 -0.019181 -0.000092 0.047850 0.005622
# 6 -0.003453 -0.000997 -0.003150 -0.006996 0.005622 0.024403
#
#
# Mechanical properties :
#
#
# Convention : Reuss Voigt Hill
#
# Bulk Modulus (GPa) = 22.30283 50.50071 36.40177
# Shear Modulus (GPa) = 29.57474 40.18278 34.87876
#
# Velocity S-wave (km/s) = 3.49410 4.07282 3.79451
# Velocity P-wave (km/s) = 5.04828 6.55472 5.85019
#
# Compressibility (1/GPa) = 0.04483735
#
# Stress axis : x y z
#
# Youngs Moduli (GPa) = 66.00238 104.66773 48.87707
#
# Poissons Ratio (x) = 0.18290 -0.04800
# Poissons Ratio (y) = 0.11534 -0.02942
# Poissons Ratio (z) = -0.06481 -0.06300
#
# Static dielectric constant tensor:
#      x y z
#    x 2.001730 -0.054030 -0.009140 
#    y -0.054030 2.015780 -0.058580 
#    z -0.009140 -0.058580 1.938050 
# 
# From -- ./inp_files/562842.got.cif
#   From: 2010.05.17/outbox.cif.g08.bks.cpg/sg2_282_cif.got.tgz:562842.got - 2010.06.03 11:33:40.
