data_PCOD9045365
_publ_section_title
;
Structure prediction by ZEFSAII (Michael W. Deem and Ramdas Pophale) SiO2 
 PCOD9045365
Probable space group: P -1
;
_chemical_formula_sum "Si O2"
_cell_formula_units_Z 15
_cell_length_a 9.146966
_cell_length_b 17.083404
_cell_length_c 13.960733
_cell_angle_alpha 157.469207
_cell_angle_beta 101.825206
_cell_angle_gamma 67.268609
_cell_volume 696.046467
_symmetry_space_group_name_H-M "P -1"
_symmetry_group_IT_number 2
_symmetry_cell_setting 'triclinic'
loop_
_space_group_symop_operation_xyz
x,y,z
-x,-y,-z
loop_
_atom_site_type_symbol
_atom_site_label
_atom_site_fract_x
_atom_site_fract_y
_atom_site_fract_z
Si Si1 0.901604 0.866852 0.961781
Si Si2 0.029991 0.874146 0.259045
Si Si3 0.410896 0.411810 0.812312
Si Si4 0.733581 0.733942 0.050265
Si Si5 0.500000 0.000000 0.500000
Si Si6 0.836664 0.667830 0.537469
Si Si7 0.451275 0.878538 0.678565
Si Si8 0.004881 0.190419 0.434208
O O1 0.881874 0.791330 0.768252
O O2 0.027682 0.616582 0.752341
O O3 0.711953 0.025557 0.164986
O O4 0.981109 0.032434 0.173007
O O5 0.873819 0.822398 0.165256
O O6 0.039995 0.041733 0.368439
O O7 0.217987 0.629194 0.008582
O O8 0.000000 0.000000 0.500000
O O9 0.413610 0.194809 0.621032
O O10 0.524388 0.307177 0.612308
O O11 0.500000 0.500000 0.000000
O O12 0.644514 0.802326 0.219011
O O13 0.593276 0.882593 0.116195
O O14 0.835368 0.452504 0.725419
O O15 0.635157 0.748454 0.610703
O O16 0.857422 0.754630 0.533862
#
# Coordination Sequence:
#
# PCOD9045365 Si02
#       8
#     2   2   2   2   1   2   2   2
#     4  11  24  47  72 101 140 179 231 296 352 412
#     4  12  25  43  67 100 138 187 233 280 343 407
#     4  11  25  41  65  99 135 180 230 279 336 412
#     4  11  24  42  65  97 137 181 227 286 340 406
#     4  10  24  40  62  92 132 176 230 270 328 408
#     4  11  25  46  73 103 134 183 236 290 352 415
#     4  11  22  45  68  98 142 176 227 286 350 402
#     4  12  23  45  71  97 139 182 229 286 351 416
#
# _framework density 21.550284999999999
#
# number of rings (size 3 to 8) (size 9 to 14) (size 15 to 20)
#    0.000    0.800    2.667    4.800    1.867    7.467 
#    2.400    0.667    0.000    0.000    0.000    0.000 
#    0.000    0.000    0.000    0.000    0.000    0.000 
#
# Total GULP energy -83602.035961 kJ/mol
# GULP energy per Si atom -5573.469064 kJ/mol
# Density = 2.150124 g / cm^3
# Si number density = 21.550285 Si / 1000 Ang^3
#
#
#
# Elastic Constant Matrix: (Units=GPa)
#
#
# Indices 1 2 3 4 5 6 
#
# 1 60.4289 29.4670 37.2929 11.8896 -13.9492 -1.6924
# 2 29.4670 97.8851 44.1233 7.5487 5.9437 -3.3536
# 3 37.2929 44.1233 155.4470 6.8344 -17.1626 -6.4381
# 4 11.8896 7.5487 6.8344 30.4386 -4.1608 -4.9866
# 5 -13.9492 5.9437 -17.1626 -4.1608 32.8949 -0.2533
# 6 -1.6924 -3.3536 -6.4381 -4.9866 -0.2533 35.1524
#
#
#
# Elastic Compliance Matrix: (Units=1/GPa)
#
#
# Indices 1 2 3 4 5 6 
#
# 1 0.024753 -0.006254 -0.002889 -0.006321 0.009314 -0.000763
# 2 -0.006254 0.014074 -0.003206 -0.001251 -0.007024 0.000226
# 3 -0.002889 -0.003206 0.008483 0.000753 0.003885 0.001244
# 4 -0.006321 -0.001251 0.000753 0.036627 0.002610 0.004929
# 5 0.009314 -0.007024 0.003885 0.002610 0.037985 0.001134
# 6 -0.000763 0.000226 0.001244 0.004929 0.001134 0.029368
#
#
# Mechanical properties :
#
#
# Convention : Reuss Voigt Hill
#
# Bulk Modulus (GPa) = 44.21963 59.50303 51.86133
# Shear Modulus (GPa) = 27.24430 33.22237 30.23333
#
# Velocity S-wave (km/s) = 3.55944 3.93061 3.74962
# Velocity P-wave (km/s) = 6.12019 6.94772 6.54704
#
# Compressibility (1/GPa) = 0.02261439
#
# Stress axis : x y z
#
# Youngs Moduli (GPa) = 40.39937 71.05074 117.87724
#
# Poissons Ratio (x) = 0.44433 0.34051
# Poissons Ratio (y) = 0.25264 0.37790
# Poissons Ratio (z) = 0.11670 0.22778
#
# Static dielectric constant tensor:
#      x y z
#    x 1.808120 -0.014340 0.023590 
#    y -0.014340 1.775370 -0.015660 
#    z 0.023590 -0.015660 1.771710 
# 
# From -- ./inp_files/507163.got.cif
#   From: 2010.05.17/outbox.cif.g08.bks.cpg/sg2_254_cif.got.tgz:507163.got - 2010.06.03 11:33:40.
