data_PCOD9045148
_publ_section_title
;
Structure prediction by ZEFSAII (Michael W. Deem and Ramdas Pophale) SiO2 
 PCOD9045148
Probable space group: P -1
;
_chemical_formula_sum "Si O2"
_cell_formula_units_Z 12
_cell_length_a 9.640442
_cell_length_b 7.314020
_cell_length_c 8.116128
_cell_angle_alpha 120.823386
_cell_angle_beta 114.372957
_cell_angle_gamma 74.359204
_cell_volume 446.401949
_symmetry_space_group_name_H-M "P -1"
_symmetry_group_IT_number 2
_symmetry_cell_setting 'triclinic'
loop_
_space_group_symop_operation_xyz
x,y,z
-x,-y,-z
loop_
_atom_site_type_symbol
_atom_site_label
_atom_site_fract_x
_atom_site_fract_y
_atom_site_fract_z
Si Si1 0.380174 0.505694 0.294440
Si Si2 0.940165 0.213272 0.187054
Si Si3 0.336719 0.023773 0.017980
Si Si4 0.484945 0.188953 0.713743
Si Si5 0.138159 0.277199 0.618718
Si Si6 0.937151 0.271285 0.828016
O O1 0.500000 0.500000 0.500000
O O2 0.310826 0.277042 0.147765
O O3 0.484041 0.576894 0.228427
O O4 0.237897 0.682829 0.298382
O O5 0.881698 0.465370 0.276808
O O6 0.086642 0.202865 0.377567
O O7 0.953751 0.167864 0.973366
O O8 0.810935 0.088918 0.160810
O O9 0.379058 0.888218 0.137566
O O10 0.500000 0.000000 0.000000
O O11 0.313602 0.200762 0.704205
O O12 0.500000 0.000000 0.500000
O O13 0.031998 0.204163 0.679932
O O14 0.000000 0.500000 0.000000
#
# Coordination Sequence:
#
# PCOD9045148 Si02
#       6
#     2   2   2   2   2   2
#     4  12  27  49  81 109 162 202 257 326 388 466
#     4  10  23  49  80 112 157 204 260 319 396 459
#     4  12  28  46  79 119 152 206 263 316 395 469
#     4  12  27  52  78 113 152 205 260 322 393 462
#     4  10  25  47  83 110 156 206 257 326 391 464
#     4  10  24  47  78 112 150 208 253 319 394 454
#
# _framework density 26.881603999999999
#
# number of rings (size 3 to 8) (size 9 to 14) (size 15 to 20)
#    0.000    1.000    3.333    1.000   14.000    1.333 
#    3.000    5.833    3.667    0.000    0.000    0.000 
#    0.000    0.000    0.000    0.000    0.000    0.000 
#
# Total GULP energy -67171.039410 kJ/mol
# GULP energy per Si atom -5597.586618 kJ/mol
# Density = 2.682042 g / cm^3
# Si number density = 26.881604 Si / 1000 Ang^3
#
#
#
# Elastic Constant Matrix: (Units=GPa)
#
#
# Indices 1 2 3 4 5 6 
#
# 1 182.8389 45.1410 35.3948 -13.9909 7.9582 -1.2628
# 2 45.1410 162.5561 49.4754 -31.2761 7.2890 25.1995
# 3 35.3948 49.4754 106.6966 2.7394 5.8296 9.8682
# 4 -13.9909 -31.2761 2.7394 46.1194 0.4649 16.6565
# 5 7.9582 7.2890 5.8296 0.4649 42.9035 -2.2825
# 6 -1.2628 25.1995 9.8682 16.6565 -2.2825 52.7987
#
#
#
# Elastic Compliance Matrix: (Units=1/GPa)
#
#
# Indices 1 2 3 4 5 6 
#
# 1 0.006158 -0.001104 -0.001575 0.000996 -0.000718 0.000623
# 2 -0.001104 0.010955 -0.004170 0.010157 -0.001612 -0.007750
# 3 -0.001575 -0.004170 0.011867 -0.004403 -0.000506 0.001102
# 4 0.000996 0.010157 -0.004403 0.034584 -0.002486 -0.015019
# 5 -0.000718 -0.001612 -0.000506 -0.002486 0.023953 0.002666
# 6 0.000623 -0.007750 0.001102 -0.015019 0.002666 0.027301
#
#
# Mechanical properties :
#
#
# Convention : Reuss Voigt Hill
#
# Bulk Modulus (GPa) = 65.42891 79.12379 72.27635
# Shear Modulus (GPa) = 37.42223 49.83634 43.62929
#
# Velocity S-wave (km/s) = 3.73515 4.31039 4.03304
# Velocity P-wave (km/s) = 6.55700 7.36686 6.97370
#
# Compressibility (1/GPa) = 0.01528376
#
# Stress axis : x y z
#
# Youngs Moduli (GPa) = 162.37846 91.28011 84.26563
#
# Poissons Ratio (x) = 0.10074 0.13273
# Poissons Ratio (y) = 0.17921 0.35137
# Poissons Ratio (z) = 0.25577 0.38062
#
# Static dielectric constant tensor:
#      x y z
#    x 2.131000 0.038880 -0.124020 
#    y 0.038880 2.102270 0.067130 
#    z -0.124020 0.067130 2.119510 
# 
# From -- ./inp_files/148390.got.cif
#   From: 2010.05.17/outbox.cif.g08.bks.cpg/sg2_75_cif.got.tgz:148390.got - 2010.06.03 11:33:40.
