data_PCOD9045222
_publ_section_title
;
Structure prediction by ZEFSAII (Michael W. Deem and Ramdas Pophale) SiO2 
 PCOD9045222
Probable space group: P -1
;
_chemical_formula_sum "Si O2"
_cell_formula_units_Z 14
_cell_length_a 9.460105
_cell_length_b 4.944057
_cell_length_c 13.610781
_cell_angle_alpha 92.575058
_cell_angle_beta 115.999684
_cell_angle_gamma 95.736273
_cell_volume 566.493318
_symmetry_space_group_name_H-M "P -1"
_symmetry_group_IT_number 2
_symmetry_cell_setting 'triclinic'
loop_
_space_group_symop_operation_xyz
x,y,z
-x,-y,-z
loop_
_atom_site_type_symbol
_atom_site_label
_atom_site_fract_x
_atom_site_fract_y
_atom_site_fract_z
Si Si1 0.582719 0.833300 0.103382
Si Si2 0.015163 0.877624 0.816151
Si Si3 0.994223 0.800805 0.590416
Si Si4 0.832005 0.344443 0.834863
Si Si5 0.256464 0.533172 0.977380
Si Si6 0.470267 0.097737 0.697291
Si Si7 0.721148 0.429922 0.417689
O O1 0.729878 0.700261 0.102908
O O2 0.589246 0.985317 0.211467
O O3 0.438751 0.587432 0.071242
O O4 0.500000 0.000000 0.000000
O O5 0.014647 0.950965 0.702388
O O6 0.890680 0.599317 0.787527
O O7 0.176285 0.768826 0.901305
O O8 0.952742 0.119861 0.861990
O O9 0.830352 0.595018 0.536044
O O10 0.141615 0.632798 0.616987
O O11 0.000000 0.000000 0.500000
O O12 0.659401 0.177987 0.754810
O O13 0.827676 0.479748 0.943385
O O14 0.389999 0.853301 0.599636
O O15 0.391619 0.365941 0.654850
#
# Coordination Sequence:
#
# PCOD9045222 Si02
#       7
#     2   2   2   2   2   2   2
#     4  10  24  37  68 105 138 176 237 285 345 420
#     4  12  27  45  72 100 142 193 231 285 355 413
#     4  11  26  46  75 107 137 168 244 298 355 415
#     4  11  27  45  69 103 146 188 240 273 337 441
#     4  10  24  43  67 103 143 186 230 288 344 411
#     4  11  24  44  70  98 142 184 229 286 351 402
#     4  11  24  44  74  99 132 180 223 305 352 399
#
# _framework density 24.713439999999999
#
# number of rings (size 3 to 8) (size 9 to 14) (size 15 to 20)
#    0.000    1.143    1.429    2.571   18.000    0.000 
#    0.000    4.286    0.000    0.000    0.000    0.000 
#    0.000    0.000    0.000    0.000    0.000    0.000 
#
# Total GULP energy -78253.081044 kJ/mol
# GULP energy per Si atom -5589.505789 kJ/mol
# Density = 2.465719 g / cm^3
# Si number density = 24.713440 Si / 1000 Ang^3
#
#
#
# Elastic Constant Matrix: (Units=GPa)
#
#
# Indices 1 2 3 4 5 6 
#
# 1 136.9661 52.7684 45.6517 0.8676 35.5800 -22.3112
# 2 52.7684 123.5433 31.5595 -8.5271 -0.6474 -9.3974
# 3 45.6517 31.5595 104.8681 13.9713 6.0960 0.4528
# 4 0.8676 -8.5271 13.9713 37.4781 10.2421 14.6077
# 5 35.5800 -0.6474 6.0960 10.2421 43.2614 2.4953
# 6 -22.3112 -9.3974 0.4528 14.6077 2.4953 42.4940
#
#
#
# Elastic Compliance Matrix: (Units=1/GPa)
#
#
# Indices 1 2 3 4 5 6 
#
# 1 0.015060 -0.004719 -0.004552 0.000800 -0.012430 0.007367
# 2 -0.004719 0.010656 -0.001715 0.002632 0.003730 -0.001227
# 3 -0.004552 -0.001715 0.012564 -0.005383 0.003294 -0.001246
# 4 0.000800 0.002632 -0.005383 0.035534 -0.007655 -0.010706
# 5 -0.012430 0.003730 0.003294 -0.007655 0.035040 -0.005162
# 6 0.007367 -0.001227 -0.001246 -0.010706 -0.005162 0.031126
#
#
# Mechanical properties :
#
#
# Convention : Reuss Voigt Hill
#
# Bulk Modulus (GPa) = 61.31452 69.48186 65.39819
# Shear Modulus (GPa) = 29.87059 40.33988 35.10524
#
# Velocity S-wave (km/s) = 3.48038 4.04456 3.77303
# Velocity P-wave (km/s) = 6.40428 7.07017 6.74545
#
# Compressibility (1/GPa) = 0.01630935
#
# Stress axis : x y z
#
# Youngs Moduli (GPa) = 66.39960 93.84418 79.59052
#
# Poissons Ratio (x) = 0.44289 0.36227
# Poissons Ratio (y) = 0.31337 0.13646
# Poissons Ratio (z) = 0.30223 0.16090
#
# Static dielectric constant tensor:
#      x y z
#    x 2.079790 0.120020 0.045020 
#    y 0.120020 1.997100 0.057100 
#    z 0.045020 0.057100 1.958810 
# 
# From -- ./inp_files/488583.got.cif
#   From: 2010.05.17/outbox.cif.g08.bks.cpg/sg2_245_cif.got.tgz:488583.got - 2010.06.03 11:33:40.
