data_PCOD9045473
_publ_section_title
;
Structure prediction by ZEFSAII (Michael W. Deem and Ramdas Pophale) SiO2 
 PCOD9045473
Probable space group: P -1
;
_chemical_formula_sum "Si O2"
_cell_formula_units_Z 13
_cell_length_a 4.983721
_cell_length_b 7.886460
_cell_length_c 17.996508
_cell_angle_alpha 126.002704
_cell_angle_beta 84.414964
_cell_angle_gamma 114.474038
_cell_volume 510.439903
_symmetry_space_group_name_H-M "P -1"
_symmetry_group_IT_number 2
_symmetry_cell_setting 'triclinic'
loop_
_space_group_symop_operation_xyz
x,y,z
-x,-y,-z
loop_
_atom_site_type_symbol
_atom_site_label
_atom_site_fract_x
_atom_site_fract_y
_atom_site_fract_z
Si Si1 0.521851 0.865372 0.270664
Si Si2 0.735530 0.000453 0.055058
Si Si3 0.000000 0.000000 0.500000
Si Si4 0.732926 0.252121 0.468888
Si Si5 0.251617 0.717673 0.088598
Si Si6 0.924228 0.874744 0.786152
Si Si7 0.573556 0.622130 0.352392
O O1 0.285006 0.717622 0.175996
O O2 0.514216 0.694057 0.291759
O O3 0.517303 0.093947 0.368173
O O4 0.835157 0.989895 0.248989
O O5 0.557022 0.769602 0.050108
O O6 0.900869 0.181972 0.165179
O O7 0.500000 0.000000 0.000000
O O8 0.000000 0.000000 0.000000
O O9 0.887685 0.097306 0.456565
O O10 0.071976 0.255050 0.609571
O O11 0.507931 0.259876 0.541638
O O12 0.000000 0.500000 0.500000
O O13 0.203300 0.948825 0.136323
O O14 0.000000 0.500000 0.000000
O O15 0.644104 0.648310 0.704734
#
# Coordination Sequence:
#
# PCOD9045473 Si02
#       7
#     2   2   1   2   2   2   2
#     4  10  24  44  68 108 150 198 262 326 389 478
#     4  11  24  48  76 109 148 199 264 323 394 476
#     4  10  24  40  68 104 142 204 246 314 390 454
#     4  11  23  46  71 104 154 199 258 319 390 470
#     4  11  27  48  75 110 157 201 263 336 400 474
#     4  11  25  44  73 111 147 211 259 321 405 473
#     4  11  25  45  72 108 155 198 263 318 393 476
#
# _framework density 25.468228
#
# number of rings (size 3 to 8) (size 9 to 14) (size 15 to 20)
#    0.000    1.231    3.077    1.846    4.308    9.231 
#    0.000    0.000    0.000    0.000    0.000    0.000 
#    0.000    0.000    0.000    0.000    0.000    0.000 
#
# Total GULP energy -72426.871447 kJ/mol
# GULP energy per Si atom -5571.297804 kJ/mol
# Density = 2.541026 g / cm^3
# Si number density = 25.468228 Si / 1000 Ang^3
#
#
#
# Elastic Constant Matrix: (Units=GPa)
#
#
# Indices 1 2 3 4 5 6 
#
# 1 74.6885 7.8607 31.8506 -15.7288 14.7279 -2.3616
# 2 7.8607 105.3754 56.7855 -12.9941 4.9719 7.0335
# 3 31.8506 56.7855 176.1232 -3.9236 38.6571 13.1585
# 4 -15.7288 -12.9941 -3.9236 59.9225 11.7079 8.8058
# 5 14.7279 4.9719 38.6571 11.7079 52.9476 -8.7260
# 6 -2.3616 7.0335 13.1585 8.8058 -8.7260 33.8656
#
#
#
# Elastic Compliance Matrix: (Units=1/GPa)
#
#
# Indices 1 2 3 4 5 6 
#
# 1 0.016110 0.000799 -0.002050 0.005220 -0.004332 -0.000720
# 2 0.000799 0.011967 -0.004021 0.002581 0.000800 -0.001332
# 3 -0.002050 -0.004021 0.009273 0.001292 -0.006938 -0.005034
# 4 0.005220 0.002581 0.001292 0.021695 -0.008852 -0.008596
# 5 -0.004332 0.000800 -0.006938 -0.008852 0.029018 0.012006
# 6 -0.000720 -0.001332 -0.005034 -0.008596 0.012006 0.037040
#
#
# Mechanical properties :
#
#
# Convention : Reuss Voigt Hill
#
# Bulk Modulus (GPa) = 37.30673 61.02007 49.16340
# Shear Modulus (GPa) = 34.58252 46.65985 40.62119
#
# Velocity S-wave (km/s) = 3.68893 4.28492 3.99805
# Velocity P-wave (km/s) = 5.72926 6.96363 6.37638
#
# Compressibility (1/GPa) = 0.02680481
#
# Stress axis : x y z
#
# Youngs Moduli (GPa) = 62.07373 83.56478 107.84247
#
# Poissons Ratio (x) = -0.06678 0.22109
# Poissons Ratio (y) = -0.04960 0.43367
# Poissons Ratio (z) = 0.12726 0.33604
#
# Static dielectric constant tensor:
#      x y z
#    x 1.820200 -0.178890 -0.091210 
#    y -0.178890 1.955430 -0.017350 
#    z -0.091210 -0.017350 2.057820 
# 
# From -- ./inp_files/548410.got.cif
#   From: 2010.05.17/outbox.cif.g08.bks.cpg/sg2_275_cif.got.tgz:548410.got - 2010.06.03 11:33:40.
