data_PCOD9045293
_publ_section_title
;
Structure prediction by ZEFSAII (Michael W. Deem and Ramdas Pophale) SiO2 
 PCOD9045293
Probable space group: P -1
;
_chemical_formula_sum "Si O2"
_cell_formula_units_Z 14
_cell_length_a 4.976607
_cell_length_b 30.024905
_cell_length_c 5.135266
_cell_angle_alpha 118.316070
_cell_angle_beta 120.278471
_cell_angle_gamma 80.560463
_cell_volume 580.501277
_symmetry_space_group_name_H-M "P -1"
_symmetry_group_IT_number 2
_symmetry_cell_setting 'triclinic'
loop_
_space_group_symop_operation_xyz
x,y,z
-x,-y,-z
loop_
_atom_site_type_symbol
_atom_site_label
_atom_site_fract_x
_atom_site_fract_y
_atom_site_fract_z
Si Si1 0.408012 0.940747 0.239377
Si Si2 0.302782 0.100282 0.231319
Si Si3 0.773213 0.582285 0.628361
Si Si4 0.812172 0.259877 0.349686
Si Si5 0.739687 0.472620 0.992040
Si Si6 0.933621 0.374945 0.611793
Si Si7 0.457127 0.219482 0.572127
O O1 0.601135 0.910434 0.456104
O O2 0.500000 0.000000 0.500000
O O3 0.479934 0.925951 0.938505
O O4 0.044789 0.924518 0.061874
O O5 0.338403 0.160199 0.361344
O O6 0.637979 0.526385 0.261838
O O7 0.900906 0.622146 0.577706
O O8 0.792461 0.605647 0.997096
O O9 0.114262 0.556230 0.783096
O O10 0.790014 0.319497 0.464570
O O11 0.165523 0.251361 0.571216
O O12 0.594032 0.235786 0.404355
O O13 0.715951 0.232168 0.955356
O O14 0.658119 0.413994 0.605666
O O15 0.000000 0.500000 0.000000
#
# Coordination Sequence:
#
# PCOD9045293 Si02
#       7
#     2   2   2   2   2   2   2
#     4  12  25  44  72 105 141 186 229 282 340 404
#     4  12  24  44  69  99 146 178 235 282 340 404
#     4  10  24  39  65  90 127 161 212 254 340 378
#     4  12  27  44  72  98 138 175 241 278 353 404
#     4  10  24  42  65  94 127 166 211 262 335 401
#     4  10  26  41  67  92 129 167 213 280 326 403
#     4  12  26  45  69 103 133 188 226 289 340 404
#
# _framework density 24.117090000000001
#
# number of rings (size 3 to 8) (size 9 to 14) (size 15 to 20)
#    0.857    0.000    0.000    6.857    6.000    1.143 
#    0.000    0.000    0.000    0.000    0.000    0.000 
#    0.000    0.000    0.000    0.000    0.000    0.000 
#
# Total GULP energy -78375.849349 kJ/mol
# GULP energy per Si atom -5598.274954 kJ/mol
# Density = 2.406220 g / cm^3
# Si number density = 24.117090 Si / 1000 Ang^3
#
#
#
# Elastic Constant Matrix: (Units=GPa)
#
#
# Indices 1 2 3 4 5 6 
#
# 1 -438.9696 -719.5426 -202.0520 -581.4741 -501.4007 -177.2397
# 2 -719.5426 -934.8520 -256.9971 -782.0118 -683.2372 -234.3372
# 3 -202.0520 -256.9971 68.3668 -221.2165 -160.0713 -51.9436
# 4 -581.4741 -782.0118 -221.2165 -559.5237 -532.1759 -201.4329
# 5 -501.4007 -683.2372 -160.0713 -532.1759 -428.4236 -175.7704
# 6 -177.2397 -234.3372 -51.9436 -201.4329 -175.7704 -27.3572
#
#
#
# Elastic Compliance Matrix: (Units=1/GPa)
#
#
# Indices 1 2 3 4 5 6 
#
# 1 0.009681 -0.004109 0.001163 -0.000647 -0.003568 -0.002050
# 2 -0.004109 0.013948 -0.000332 -0.006005 -0.006018 -0.009345
# 3 0.001163 -0.000332 0.008764 0.002337 -0.005381 -0.003970
# 4 -0.000647 -0.006005 0.002337 0.014508 -0.008719 0.000384
# 5 -0.003568 -0.006018 -0.005381 -0.008719 0.022544 0.004228
# 6 -0.002050 -0.009345 -0.003970 0.000384 0.004228 0.034319
#
#
# Mechanical properties :
#
#
# Convention : Reuss Voigt Hill
#
# Bulk Modulus (GPa) = 38.70304 -406.95981 -184.12839
# Shear Modulus (GPa) = 42.04009 -211.51843 -84.73917
#
# Velocity S-wave (km/s) = 4.17965 -9.37524 -5.93404
# Velocity P-wave (km/s) = 6.27499 16.92050 11.11143
#
# Compressibility (1/GPa) = 0.02583777
#
# Stress axis : x y z
#
# Youngs Moduli (GPa) = 103.29487 71.69413 114.09910
#
# Poissons Ratio (x) = 0.29457 -0.13269
# Poissons Ratio (y) = 0.42441 0.03790
# Poissons Ratio (z) = -0.12013 0.02381
#
# Static dielectric constant tensor:
#      x y z
#    x 1.820090 -0.110540 0.004820 
#    y -0.110540 1.880660 0.030790 
#    z 0.004820 0.030790 1.964100 
# 
# From -- ./inp_files/11999.got.cif
#   From: 2010.05.17/outbox.cif.g08.bks.cpg/sg2_6_cif.got.tgz:11999.got - 2010.06.03 11:33:40.
