data_PCOD9045791
_publ_section_title
;
Structure prediction by ZEFSAII (Michael W. Deem and Ramdas Pophale) SiO2 
 PCOD9045791
Probable space group: P -1
;
_chemical_formula_sum "Si O2"
_cell_formula_units_Z 16
_cell_length_a 9.046886
_cell_length_b 8.916006
_cell_length_c 14.467860
_cell_angle_alpha 65.906098
_cell_angle_beta 62.020561
_cell_angle_gamma 105.606458
_cell_volume 772.178395
_symmetry_space_group_name_H-M "P -1"
_symmetry_group_IT_number 2
_symmetry_cell_setting 'triclinic'
loop_
_space_group_symop_operation_xyz
x,y,z
-x,-y,-z
loop_
_atom_site_type_symbol
_atom_site_label
_atom_site_fract_x
_atom_site_fract_y
_atom_site_fract_z
Si Si1 0.051323 0.809934 0.801026
Si Si2 0.357353 0.278321 0.140222
Si Si3 0.964449 0.172136 0.986188
Si Si4 0.218811 0.209321 0.401675
Si Si5 0.118750 0.528935 0.720255
Si Si6 0.848662 0.443959 0.643032
Si Si7 0.560474 0.854747 0.481052
Si Si8 0.494377 0.997352 0.891591
O O1 0.991821 0.754865 0.938866
O O2 0.081643 0.660585 0.769453
O O3 0.871821 0.813189 0.804775
O O4 0.268754 0.025410 0.677258
O O5 0.350728 0.275431 0.253307
O O6 0.435283 0.144316 0.121978
O O7 0.500000 0.500000 0.000000
O O8 0.731480 0.089763 0.054384
O O9 0.096086 0.353189 0.831188
O O10 0.000000 0.000000 0.000000
O O11 0.192386 0.385743 0.385654
O O12 0.330260 0.180919 0.459499
O O13 0.000000 0.000000 0.500000
O O14 0.340651 0.655732 0.575370
O O15 0.954147 0.453605 0.706600
O O16 0.648781 0.219901 0.750836
O O17 0.000000 0.500000 0.500000
O O18 0.500000 0.000000 0.500000
O O19 0.500000 0.000000 0.000000
#
# Coordination Sequence:
#
# PCOD9045791 Si02
#       8
#     2   2   2   2   2   2   2   2
#     4  11  24  46  70 104 136 179 235 289 348 409
#     4  12  25  42  75 103 136 181 244 286 341 418
#     4  12  28  45  70  99 145 185 228 284 354 420
#     4  12  23  46  71 102 136 185 235 287 339 418
#     4  11  24  48  68 104 138 182 234 288 343 417
#     4  12  27  45  73 104 143 185 233 288 353 417
#     4  10  24  41  70 100 138 172 228 289 344 400
#     4  12  26  47  68 100 145 183 228 291 355 412
#
# _framework density 20.720600999999998
#
# number of rings (size 3 to 8) (size 9 to 14) (size 15 to 20)
#    0.000    0.500    3.750    4.125    8.750    0.000 
#    0.000    1.250    0.000    0.000    0.000    0.000 
#    0.000    0.000    0.000    0.000    0.000    0.000 
#
# Total GULP energy -89541.183953 kJ/mol
# GULP energy per Si atom -5596.323997 kJ/mol
# Density = 2.067344 g / cm^3
# Si number density = 20.720601 Si / 1000 Ang^3
#
#
#
# Elastic Constant Matrix: (Units=GPa)
#
#
# Indices 1 2 3 4 5 6 
#
# 1 65.7798 10.0493 -19.0617 -7.3953 1.5264 -23.7853
# 2 10.0493 108.3942 27.3211 3.0247 1.6067 -37.3430
# 3 -19.0617 27.3211 101.1782 -13.1509 1.0526 -20.1736
# 4 -7.3953 3.0247 -13.1509 46.1926 10.9898 3.3280
# 5 1.5264 1.6067 1.0526 10.9898 45.2159 0.2359
# 6 -23.7853 -37.3430 -20.1736 3.3280 0.2359 40.9381
#
#
#
# Elastic Compliance Matrix: (Units=1/GPa)
#
#
# Indices 1 2 3 4 5 6 
#
# 1 0.026005 0.002561 0.009280 0.005723 -0.002689 0.021568
# 2 0.002561 0.014084 -0.000722 -0.001679 -0.000236 0.014117
# 3 0.009280 -0.000722 0.014870 0.005406 -0.002008 0.011633
# 4 0.005723 -0.001679 0.005406 0.025584 -0.006490 0.002416
# 5 -0.002689 -0.000236 -0.002008 -0.006490 0.023852 -0.002377
# 6 0.021568 0.014117 0.011633 0.002416 -0.002377 0.055385
#
#
# Mechanical properties :
#
#
# Convention : Reuss Voigt Hill
#
# Bulk Modulus (GPa) = 12.95401 34.66331 23.80866
# Shear Modulus (GPa) = 30.62339 43.60554 37.11447
#
# Velocity S-wave (km/s) = 3.84854 4.59241 4.23683
# Velocity P-wave (km/s) = 5.10036 6.69967 5.95396
#
# Compressibility (1/GPa) = 0.07719617
#
# Stress axis : x y z
#
# Youngs Moduli (GPa) = 38.45446 71.00325 67.25035
#
# Poissons Ratio (x) = -0.18180 -0.62409
# Poissons Ratio (y) = -0.09846 0.04853
# Poissons Ratio (z) = -0.35686 0.05124
#
# Static dielectric constant tensor:
#      x y z
#    x 1.669080 -0.016860 -0.061980 
#    y -0.016860 1.606850 -0.105100 
#    z -0.061980 -0.105100 1.665880 
# 
# From -- ./inp_files/184188.got.cif
#   From: 2010.05.17/outbox.cif.g08.bks.cpg/sg2_93_cif.got.tgz:184188.got - 2010.06.03 11:33:40.
