data_PCOD9045275
_publ_section_title
;
Structure prediction by ZEFSAII (Michael W. Deem and Ramdas Pophale) SiO2 
 PCOD9045275
Probable space group: P -1
;
_chemical_formula_sum "Si O2"
_cell_formula_units_Z 16
_cell_length_a 8.678339
_cell_length_b 15.243748
_cell_length_c 14.213296
_cell_angle_alpha 57.926914
_cell_angle_beta 84.958818
_cell_angle_gamma 37.656059
_cell_volume 746.026664
_symmetry_space_group_name_H-M "P -1"
_symmetry_group_IT_number 2
_symmetry_cell_setting 'triclinic'
loop_
_space_group_symop_operation_xyz
x,y,z
-x,-y,-z
loop_
_atom_site_type_symbol
_atom_site_label
_atom_site_fract_x
_atom_site_fract_y
_atom_site_fract_z
Si Si1 0.128001 0.186913 0.373462
Si Si2 0.163767 0.762692 0.477567
Si Si3 0.992049 0.517057 0.772615
Si Si4 0.372335 0.126380 0.075417
Si Si5 0.192230 0.610179 0.926230
Si Si6 0.505383 0.783626 0.823138
Si Si7 0.287951 0.470311 0.536013
Si Si8 0.199761 0.315191 0.699358
O O1 0.931025 0.408206 0.281561
O O2 0.978960 0.179869 0.444716
O O3 0.033242 0.226629 0.245478
O O4 0.500000 0.000000 0.500000
O O5 0.231153 0.608671 0.517708
O O6 0.490714 0.631300 0.508117
O O7 0.874987 0.995899 0.307778
O O8 0.714705 0.670347 0.780213
O O9 0.920747 0.515386 0.674238
O O10 0.292124 0.268445 0.930863
O O11 0.461775 0.132775 0.163867
O O12 0.044003 0.258106 0.045695
O O13 0.625436 0.892841 0.158997
O O14 0.500000 0.500000 0.000000
O O15 0.340731 0.405791 0.023929
O O16 0.412578 0.294276 0.684391
O O17 0.938730 0.638931 0.419578
#
# Coordination Sequence:
#
# PCOD9045275 Si02
#       8
#     2   2   2   2   2   2   2   2
#     4  12  22  41  72 101 131 178 226 274 339 403
#     4  11  22  41  65  96 132 176 224 280 336 393
#     4  11  21  39  64  98 124 167 228 274 316 405
#     4  11  21  41  67  91 131 181 222 266 337 412
#     4  11  25  42  67 103 136 169 227 287 334 392
#     4  11  21  43  69  93 131 183 222 269 340 410
#     4  10  24  39  62  91 135 174 220 276 339 397
#     4  11  23  40  64  94 130 176 226 272 332 400
#
# _framework density 21.446954999999999
#
# number of rings (size 3 to 8) (size 9 to 14) (size 15 to 20)
#    0.000    1.000    6.250    1.125    1.750    2.000 
#    0.000    1.250    0.000    3.750    0.000    0.000 
#    0.000    0.000    0.000    0.000    0.000    0.000 
#
# Total GULP energy -89087.198082 kJ/mol
# GULP energy per Si atom -5567.949880 kJ/mol
# Density = 2.139814 g / cm^3
# Si number density = 21.446955 Si / 1000 Ang^3
#
#
#
# Elastic Constant Matrix: (Units=GPa)
#
#
# Indices 1 2 3 4 5 6 
#
# 1 50.6283 19.3259 11.0063 6.8756 -1.0447 4.8704
# 2 19.3259 61.0440 5.3240 9.1693 -4.7014 9.8924
# 3 11.0063 5.3240 89.6929 7.3668 -15.9185 -3.8963
# 4 6.8756 9.1693 7.3668 27.5213 3.8685 -7.4109
# 5 -1.0447 -4.7014 -15.9185 3.8685 26.4617 1.3019
# 6 4.8704 9.8924 -3.8963 -7.4109 1.3019 29.2548
#
#
#
# Elastic Compliance Matrix: (Units=1/GPa)
#
#
# Indices 1 2 3 4 5 6 
#
# 1 0.023460 -0.006217 -0.002504 -0.003805 -0.000978 -0.003057
# 2 -0.006217 0.021473 0.000888 -0.008988 0.005843 -0.008645
# 3 -0.002504 0.000888 0.013320 -0.004349 0.008688 0.000402
# 4 -0.003805 -0.008988 -0.004349 0.047346 -0.012053 0.015624
# 5 -0.000978 0.005843 0.008688 -0.012053 0.046062 -0.005759
# 6 -0.003057 -0.008645 0.000402 0.015624 -0.005759 0.041882
#
#
# Mechanical properties :
#
#
# Convention : Reuss Voigt Hill
#
# Bulk Modulus (GPa) = 23.48063 30.29750 26.88906
# Shear Modulus (GPa) = 22.38086 27.69483 25.03785
#
# Velocity S-wave (km/s) = 3.23390 3.59739 3.42048
# Velocity P-wave (km/s) = 4.99161 5.60467 5.30700
#
# Compressibility (1/GPa) = 0.04258830
#
# Stress axis : x y z
#
# Youngs Moduli (GPa) = 42.62584 46.56914 75.07379
#
# Poissons Ratio (x) = 0.28952 0.18795
# Poissons Ratio (y) = 0.26501 -0.06666
# Poissons Ratio (z) = 0.10672 -0.04135
#
# Static dielectric constant tensor:
#      x y z
#    x 1.783860 -0.010350 -0.018060 
#    y -0.010350 1.802120 0.047830 
#    z -0.018060 0.047830 1.893930 
# 
# From -- ./inp_files/282614.got.cif
#   From: 2010.05.17/outbox.cif.g08.bks.cpg/sg2_142_cif.got.tgz:282614.got - 2010.06.03 11:33:40.
