data_PCOD9045434
_publ_section_title
;
Structure prediction by ZEFSAII (Michael W. Deem and Ramdas Pophale) SiO2 
 PCOD9045434
Probable space group: P -1
;
_chemical_formula_sum "Si O2"
_cell_formula_units_Z 12
_cell_length_a 15.393998
_cell_length_b 12.544918
_cell_length_c 4.795369
_cell_angle_alpha 85.399864
_cell_angle_beta 60.325930
_cell_angle_gamma 40.625167
_cell_volume 446.714550
_symmetry_space_group_name_H-M "P -1"
_symmetry_group_IT_number 2
_symmetry_cell_setting 'triclinic'
loop_
_space_group_symop_operation_xyz
x,y,z
-x,-y,-z
loop_
_atom_site_type_symbol
_atom_site_label
_atom_site_fract_x
_atom_site_fract_y
_atom_site_fract_z
Si Si1 0.124099 0.070927 0.321595
Si Si2 0.133949 0.283454 0.324703
Si Si3 0.718579 0.279376 0.982043
Si Si4 0.628949 0.949311 0.512385
Si Si5 0.492789 0.735926 0.564469
Si Si6 0.195570 0.655854 0.647943
O O1 0.056701 0.235466 0.557016
O O2 0.995824 0.182031 0.230783
O O3 0.159787 0.913649 0.346742
O O4 0.334789 0.913969 0.983571
O O5 0.303373 0.156792 0.281688
O O6 0.000000 0.500000 0.500000
O O7 0.189314 0.215616 0.930173
O O8 0.575520 0.326818 0.351392
O O9 0.813340 0.261305 0.082310
O O10 0.678174 0.402474 0.782827
O O11 0.500000 0.000000 0.500000
O O12 0.539182 0.146978 0.642803
O O13 0.692562 0.548216 0.398275
#
# Coordination Sequence:
#
# PCOD9045434 Si02
#       6
#     2   2   2   2   2   2
#     4   9  24  41  67  94 136 169 225 273 339 388
#     4  11  25  47  72 100 136 179 227 289 348 405
#     4  10  24  40  66  92 140 172 224 270 334 390
#     4  11  25  47  72 100 136 179 227 289 348 405
#     4   9  24  41  67  94 136 169 225 273 339 388
#     4  12  22  42  64 100 128 184 220 270 326 412
#
# _framework density 26.862794000000001
#
# number of rings (size 3 to 8) (size 9 to 14) (size 15 to 20)
#    1.000    0.667    0.000    3.000    4.667    5.333 
#    3.000    0.000    0.000    0.000    0.000    0.000 
#    0.000    0.000    0.000    0.000    0.000    0.000 
#
# Total GULP energy -66838.431557 kJ/mol
# GULP energy per Si atom -5569.869296 kJ/mol
# Density = 2.680165 g / cm^3
# Si number density = 26.862794 Si / 1000 Ang^3
#
#
#
# Elastic Constant Matrix: (Units=GPa)
#
#
# Indices 1 2 3 4 5 6 
#
# 1 111.2732 38.0487 4.4065 -1.5546 16.8687 -7.6383
# 2 38.0487 196.1942 28.0981 23.9226 21.8675 -14.0906
# 3 4.4065 28.0981 75.6184 -2.3816 12.5215 -9.0135
# 4 -1.5546 23.9226 -2.3816 42.3771 -7.3287 7.9610
# 5 16.8687 21.8675 12.5215 -7.3287 34.5407 -2.7261
# 6 -7.6383 -14.0906 -9.0135 7.9610 -2.7261 45.3257
#
#
#
# Elastic Compliance Matrix: (Units=1/GPa)
#
#
# Indices 1 2 3 4 5 6 
#
# 1 0.010205 -0.001618 0.000822 0.000429 -0.004083 0.001059
# 2 -0.001618 0.006865 -0.001721 -0.005107 -0.003843 0.002185
# 3 0.000822 -0.001721 0.014819 0.000671 -0.004371 0.002170
# 4 0.000429 -0.005107 0.000671 0.029127 0.008488 -0.005987
# 5 -0.004083 -0.003843 -0.004371 0.008488 0.036603 -0.002041
# 6 0.001059 0.002185 0.002170 -0.005987 -0.002041 0.024281
#
#
# Mechanical properties :
#
#
# Convention : Reuss Voigt Hill
#
# Bulk Modulus (GPa) = 37.23373 58.24360 47.73867
# Shear Modulus (GPa) = 36.79577 45.28418 41.03998
#
# Velocity S-wave (km/s) = 3.70505 4.11025 3.91290
# Velocity P-wave (km/s) = 5.67398 6.65241 6.18258
#
# Compressibility (1/GPa) = 0.02685737
#
# Stress axis : x y z
#
# Youngs Moduli (GPa) = 97.98824 145.66189 67.47972
#
# Poissons Ratio (x) = 0.23569 -0.05550
# Poissons Ratio (y) = 0.15855 0.11611
# Poissons Ratio (z) = -0.08059 0.25063
#
# Static dielectric constant tensor:
#      x y z
#    x 2.464190 0.352340 -0.587330 
#    y 0.352340 2.287320 -0.416600 
#    z -0.587330 -0.416600 2.970680 
# 
# From -- ./inp_files/59986.got.cif
#   From: 2010.05.17/outbox.cif.g08.bks.cpg/sg2_30_cif.got.tgz:59986.got - 2010.06.03 11:33:40.
