data_PCOD9045010
_publ_section_title
;
Structure prediction by ZEFSAII (Michael W. Deem and Ramdas Pophale) SiO2 
 PCOD9045010
Probable space group: P -1
;
_chemical_formula_sum "Si O2"
_cell_formula_units_Z 14
_cell_length_a 12.085727
_cell_length_b 8.308669
_cell_length_c 19.903983
_cell_angle_alpha 137.176456
_cell_angle_beta 147.474019
_cell_angle_gamma 65.331025
_cell_volume 610.059532
_symmetry_space_group_name_H-M "P -1"
_symmetry_group_IT_number 2
_symmetry_cell_setting 'triclinic'
loop_
_space_group_symop_operation_xyz
x,y,z
-x,-y,-z
loop_
_atom_site_type_symbol
_atom_site_label
_atom_site_fract_x
_atom_site_fract_y
_atom_site_fract_z
Si Si1 0.871052 0.171526 0.317913
Si Si2 0.135420 0.295551 0.065536
Si Si3 0.200345 0.150375 0.588089
Si Si4 0.029112 0.763109 0.763241
Si Si5 0.503245 0.576169 0.448406
Si Si6 0.389607 0.843949 0.274356
Si Si7 0.394348 0.626165 0.932480
O O1 0.851622 0.127980 0.215196
O O2 0.000000 0.500000 0.500000
O O3 0.043871 0.098479 0.424765
O O4 0.595937 0.961168 0.139305
O O5 0.258855 0.344605 0.215321
O O6 0.327985 0.578275 0.207850
O O7 0.873731 0.261348 0.925627
O O8 0.088393 0.021762 0.919709
O O9 0.398381 0.076851 0.647001
O O10 0.363160 0.473233 0.798266
O O11 0.000000 0.000000 0.500000
O O12 0.132457 0.590158 0.797409
O O13 0.740267 0.590764 0.545723
O O14 0.500000 0.500000 0.500000
O O15 0.538439 0.882295 0.560354
O O16 0.500000 0.500000 0.000000
#
# Coordination Sequence:
#
# PCOD9045010 Si02
#       7
#     2   2   2   2   2   2   2
#     4  12  26  44  73 104 143 194 245 296 356 435
#     4  10  23  48  73 101 139 186 239 307 352 423
#     4  12  26  45  70 107 152 195 233 301 370 436
#     4  11  26  44  73 104 137 188 246 295 361 436
#     4  11  26  43  72 104 139 186 233 299 361 425
#     4  10  24  43  72 103 138 184 245 287 363 426
#     4  12  27  45  68 107 146 191 237 297 370 431
#
# _framework density 22.948578999999999
#
# number of rings (size 3 to 8) (size 9 to 14) (size 15 to 20)
#    0.000    0.857    2.857    2.571    6.000    8.000 
#    0.000    0.000    0.000    0.000    0.000    0.000 
#    0.000    0.000    0.000    0.000    0.000    0.000 
#
# Total GULP energy -78276.859993 kJ/mol
# GULP energy per Si atom -5591.204285 kJ/mol
# Density = 2.289635 g / cm^3
# Si number density = 22.948579 Si / 1000 Ang^3
#
#
#
# Elastic Constant Matrix: (Units=GPa)
#
#
# Indices 1 2 3 4 5 6 
#
# 1 79.0919 39.6812 30.7801 -21.7266 12.7034 -4.7902
# 2 39.6812 89.4556 22.3699 -19.8123 -0.1569 -8.2061
# 3 30.7801 22.3699 118.7971 -10.2108 -12.6380 -4.6769
# 4 -21.7266 -19.8123 -10.2108 36.9860 9.8219 1.8028
# 5 12.7034 -0.1569 -12.6380 9.8219 45.0514 -10.2900
# 6 -4.7902 -8.2061 -4.6769 1.8028 -10.2900 36.2985
#
#
#
# Elastic Compliance Matrix: (Units=1/GPa)
#
#
# Indices 1 2 3 4 5 6 
#
# 1 0.022533 -0.006516 -0.004896 0.011417 -0.010874 -0.002780
# 2 -0.006516 0.015284 -0.000601 0.003643 0.001563 0.002780
# 3 -0.004896 -0.000601 0.010271 -0.001828 0.005135 0.002088
# 4 0.011417 0.003643 -0.001828 0.038810 -0.012983 -0.003513
# 5 -0.010874 0.001563 0.005135 -0.012983 0.031639 0.009194
# 6 -0.002780 0.002780 0.002088 -0.003513 0.009194 0.030861
#
#
# Mechanical properties :
#
#
# Convention : Reuss Voigt Hill
#
# Bulk Modulus (GPa) = 41.56069 52.55633 47.05851
# Shear Modulus (GPa) = 27.55664 36.63474 32.09569
#
# Velocity S-wave (km/s) = 3.46901 3.99981 3.74383
# Velocity P-wave (km/s) = 5.84766 6.65453 6.26410
#
# Compressibility (1/GPa) = 0.02406120
#
# Stress axis : x y z
#
# Youngs Moduli (GPa) = 44.38001 65.42748 97.36348
#
# Poissons Ratio (x) = 0.42634 0.47670
# Poissons Ratio (y) = 0.28919 0.05850
# Poissons Ratio (z) = 0.21729 0.03931
#
# Static dielectric constant tensor:
#      x y z
#    x 1.934580 -0.026700 0.127690 
#    y -0.026700 1.956570 -0.036330 
#    z 0.127690 -0.036330 1.937120 
# 
# From -- ./inp_files/283335.got.cif
#   From: 2010.05.17/outbox.cif.g08.bks.cpg/sg2_142_cif.got.tgz:283335.got - 2010.06.03 11:33:40.
