data_PCOD9045070
_publ_section_title
;
Structure prediction by ZEFSAII (Michael W. Deem and Ramdas Pophale) SiO2 
 PCOD9045070
Probable space group: P -1
;
_chemical_formula_sum "Si O2"
_cell_formula_units_Z 16
_cell_length_a 17.282680
_cell_length_b 5.259574
_cell_length_c 8.072218
_cell_angle_alpha 60.028197
_cell_angle_beta 95.372018
_cell_angle_gamma 91.060061
_cell_volume 632.504111
_symmetry_space_group_name_H-M "P -1"
_symmetry_group_IT_number 2
_symmetry_cell_setting 'triclinic'
loop_
_space_group_symop_operation_xyz
x,y,z
-x,-y,-z
loop_
_atom_site_type_symbol
_atom_site_label
_atom_site_fract_x
_atom_site_fract_y
_atom_site_fract_z
Si Si1 0.412339 0.021850 0.390352
Si Si2 0.867562 0.472111 0.198756
Si Si3 0.022717 0.334699 0.389665
Si Si4 0.361389 0.585704 0.989600
Si Si5 0.817364 0.446904 0.562927
Si Si6 0.210681 0.883116 0.000213
Si Si7 0.524964 0.941709 0.206497
Si Si8 0.332674 0.485296 0.658231
O O1 0.500000 0.000000 0.500000
O O2 0.442909 0.850350 0.291663
O O3 0.346635 0.832326 0.519224
O O4 0.386650 0.338309 0.209317
O O5 0.846471 0.333547 0.422421
O O6 0.961429 0.477774 0.201275
O O7 0.834649 0.303265 0.088897
O O8 0.831419 0.798577 0.106369
O O9 0.114905 0.371763 0.395530
O O10 0.000000 0.500000 0.500000
O O11 0.000000 0.000000 0.500000
O O12 0.321650 0.443772 0.866089
O O13 0.432557 0.747728 0.860528
O O14 0.300124 0.818845 0.981402
O O15 0.796011 0.224875 0.776144
O O16 0.737613 0.612261 0.438544
O O17 0.590393 0.693251 0.324023
O O18 0.500000 0.000000 0.000000
#
# Coordination Sequence:
#
# PCOD9045070 Si02
#       8
#     2   2   2   2   2   2   2   2
#     4  12  26  45  71 105 141 196 261 317 389 467
#     4  11  25  51  76 112 157 204 251 327 380 463
#     4  10  23  48  81 115 154 206 260 318 391 468
#     4  12  27  48  70 105 155 201 256 325 396 467
#     4  11  27  47  77 113 154 203 259 319 393 469
#     4  12  29  45  79 114 155 203 264 309 396 466
#     4  12  25  45  73  99 143 197 256 320 392 461
#     4  12  26  48  73 106 151 201 253 328 398 466
#
# _framework density 25.296275999999999
#
# number of rings (size 3 to 8) (size 9 to 14) (size 15 to 20)
#    0.000    0.500    3.750    3.750    5.250    5.000 
#    0.000    0.000    0.000    0.000    0.000    0.000 
#    0.000    0.000    0.000    0.000    0.000    0.000 
#
# Total GULP energy -89284.930230 kJ/mol
# GULP energy per Si atom -5580.308139 kJ/mol
# Density = 2.523870 g / cm^3
# Si number density = 25.296276 Si / 1000 Ang^3
#
#
#
# Elastic Constant Matrix: (Units=GPa)
#
#
# Indices 1 2 3 4 5 6 
#
# 1 115.9041 38.3068 49.0018 -13.4679 40.5708 7.9842
# 2 38.3068 121.6393 45.6754 -19.0801 23.8343 -6.8117
# 3 49.0018 45.6754 140.5649 -3.1386 16.8217 -4.4481
# 4 -13.4679 -19.0801 -3.1386 46.1694 -4.9540 12.3706
# 5 40.5708 23.8343 16.8217 -4.9540 43.4320 3.4807
# 6 7.9842 -6.8117 -4.4481 12.3706 3.4807 30.6894
#
#
#
# Elastic Compliance Matrix: (Units=1/GPa)
#
#
# Indices 1 2 3 4 5 6 
#
# 1 0.015352 -0.000803 -0.003775 0.003991 -0.011581 -0.005014
# 2 -0.000803 0.010824 -0.002655 0.003280 -0.003895 0.001346
# 3 -0.003775 -0.002655 0.009207 -0.002131 0.000976 0.002475
# 4 0.003991 0.003280 -0.002131 0.027021 -0.000704 -0.011431
# 5 -0.011581 -0.003895 0.000976 -0.000704 0.035640 -0.001469
# 6 -0.005014 0.001346 0.002475 -0.011431 -0.001469 0.039321
#
#
# Mechanical properties :
#
#
# Convention : Reuss Voigt Hill
#
# Bulk Modulus (GPa) = 47.80748 71.56404 59.68576
# Shear Modulus (GPa) = 31.48559 40.39978 35.94268
#
# Velocity S-wave (km/s) = 3.53182 4.00066 3.77353
# Velocity P-wave (km/s) = 5.96420 7.04927 6.52931
#
# Compressibility (1/GPa) = 0.02091723
#
# Stress axis : x y z
#
# Youngs Moduli (GPa) = 65.13852 92.38686 108.61563
#
# Poissons Ratio (x) = 0.07418 0.40997
# Poissons Ratio (y) = 0.05230 0.28841
# Poissons Ratio (z) = 0.24587 0.24531
#
# Static dielectric constant tensor:
#      x y z
#    x 1.596040 -0.021910 0.374930 
#    y -0.021910 2.236080 0.122180 
#    z 0.374930 0.122180 1.743350 
# 
# From -- ./inp_files/323211.got.cif
#   From: 2010.05.17/outbox.cif.g08.bks.cpg/sg2_162_cif.got.tgz:323211.got - 2010.06.03 11:33:40.
