data_PCOD9045615
_publ_section_title
;
Structure prediction by ZEFSAII (Michael W. Deem and Ramdas Pophale) SiO2 
 PCOD9045615
Probable space group: P -1
;
_chemical_formula_sum "Si O2"
_cell_formula_units_Z 14
_cell_length_a 8.746981
_cell_length_b 11.245461
_cell_length_c 10.940832
_cell_angle_alpha 145.289057
_cell_angle_beta 101.495219
_cell_angle_gamma 89.478386
_cell_volume 576.981076
_symmetry_space_group_name_H-M "P -1"
_symmetry_group_IT_number 2
_symmetry_cell_setting 'triclinic'
loop_
_space_group_symop_operation_xyz
x,y,z
-x,-y,-z
loop_
_atom_site_type_symbol
_atom_site_label
_atom_site_fract_x
_atom_site_fract_y
_atom_site_fract_z
Si Si1 0.673726 0.920071 0.531089
Si Si2 0.558282 0.310133 0.163698
Si Si3 0.272014 0.864176 0.740303
Si Si4 0.977619 0.025500 0.792036
Si Si5 0.182294 0.636740 0.958121
Si Si6 0.174275 0.272731 0.816860
Si Si7 0.361668 0.619833 0.338264
O O1 0.708861 0.829942 0.330858
O O2 0.494456 0.813839 0.457780
O O3 0.731227 0.179445 0.773206
O O4 0.799780 0.865550 0.605390
O O5 0.669299 0.263121 0.249711
O O6 0.466315 0.492241 0.326401
O O7 0.674310 0.374546 0.118959
O O8 0.417715 0.084596 0.928963
O O9 0.253672 0.720281 0.494060
O O10 0.108596 0.932345 0.799687
O O11 0.047880 0.093555 0.723880
O O12 0.943306 0.246135 0.024184
O O13 0.104904 0.415673 0.830542
O O14 0.270605 0.442585 0.076202
#
# Coordination Sequence:
#
# PCOD9045615 Si02
#       7
#     2   2   2   2   2   2   2
#     4  10  24  41  63  98 140 163 212 265 328 389
#     4  11  23  46  68  95 129 174 222 268 320 381
#     4  11  24  44  70  93 133 170 220 276 314 383
#     4  10  24  44  62 101 132 172 213 263 333 380
#     4  10  24  41  67  93 135 169 212 265 324 388
#     4  12  23  40  71  97 134 171 214 266 323 392
#     4  12  24  42  68 101 127 171 223 262 326 386
#
# _framework density 24.264227999999999
#
# number of rings (size 3 to 8) (size 9 to 14) (size 15 to 20)
#    0.857    0.286    4.286    1.714    2.000    2.286 
#    0.000    0.714    0.000    0.000    0.000    0.000 
#    0.000    0.000    0.000    0.000    0.000    0.000 
#
# Total GULP energy -78304.226702 kJ/mol
# GULP energy per Si atom -5593.159050 kJ/mol
# Density = 2.420900 g / cm^3
# Si number density = 24.264228 Si / 1000 Ang^3
#
#
#
# Elastic Constant Matrix: (Units=GPa)
#
#
# Indices 1 2 3 4 5 6 
#
# 1 65.0019 15.6953 10.9091 -2.7943 4.6902 -28.3887
# 2 15.6953 83.2894 6.9898 8.8472 3.3795 -29.4123
# 3 10.9091 6.9898 82.3765 6.9560 -0.8160 -0.4272
# 4 -2.7943 8.8472 6.9560 28.3112 -10.1958 2.5799
# 5 4.6902 3.3795 -0.8160 -10.1958 27.2591 1.4942
# 6 -28.3887 -29.4123 -0.4272 2.5799 1.4942 44.2113
#
#
#
# Elastic Compliance Matrix: (Units=1/GPa)
#
#
# Indices 1 2 3 4 5 6 
#
# 1 0.022866 0.002038 -0.003078 -0.001119 -0.005589 0.016263
# 2 0.002038 0.017812 -0.001035 -0.008763 -0.006629 0.013883
# 3 -0.003078 -0.001035 0.012868 -0.002893 0.000091 -0.002375
# 4 -0.001119 -0.008763 -0.002893 0.046448 0.019110 -0.009932
# 5 -0.005589 -0.006629 0.000091 0.019110 0.046204 -0.010674
# 6 0.016263 0.013883 -0.002375 -0.009932 -0.010674 0.043215
#
#
# Mechanical properties :
#
#
# Convention : Reuss Voigt Hill
#
# Bulk Modulus (GPa) = 20.24445 33.09515 26.66980
# Shear Modulus (GPa) = 23.80643 33.09455 28.45049
#
# Velocity S-wave (km/s) = 3.13570 3.69714 3.42793
# Velocity P-wave (km/s) = 4.63375 5.64750 5.16555
#
# Compressibility (1/GPa) = 0.04939625
#
# Stress axis : x y z
#
# Youngs Moduli (GPa) = 43.73210 56.14304 77.71433
#
# Poissons Ratio (x) = -0.11441 0.23918
# Poissons Ratio (y) = -0.08912 0.08043
# Poissons Ratio (z) = 0.13460 0.05810
#
# Static dielectric constant tensor:
#      x y z
#    x 1.915390 -0.072200 0.013990 
#    y -0.072200 1.992610 0.002990 
#    z 0.013990 0.002990 1.907260 
# 
# From -- ./inp_files/391728.got.cif
#   From: 2010.05.17/outbox.cif.g08.bks.cpg/sg2_196_cif.got.tgz:391728.got - 2010.06.03 11:33:40.
