data_PCOD9045197
_publ_section_title
;
Structure prediction by ZEFSAII (Michael W. Deem and Ramdas Pophale) SiO2 
 PCOD9045197
Probable space group: P -1
;
_chemical_formula_sum "Si O2"
_cell_formula_units_Z 14
_cell_length_a 21.676804
_cell_length_b 4.997770
_cell_length_c 7.720667
_cell_angle_alpha 85.020858
_cell_angle_beta 130.447199
_cell_angle_gamma 87.242856
_cell_volume 628.077573
_symmetry_space_group_name_H-M "P -1"
_symmetry_group_IT_number 2
_symmetry_cell_setting 'triclinic'
loop_
_space_group_symop_operation_xyz
x,y,z
-x,-y,-z
loop_
_atom_site_type_symbol
_atom_site_label
_atom_site_fract_x
_atom_site_fract_y
_atom_site_fract_z
Si Si1 0.935855 0.489509 0.192085
Si Si2 0.657496 0.644730 0.084002
Si Si3 0.051250 0.942575 0.379130
Si Si4 0.147113 0.211498 0.290104
Si Si5 0.487095 0.771164 0.848931
Si Si6 0.682762 0.095600 0.377181
Si Si7 0.177801 0.255554 0.726167
O O1 0.981133 0.185244 0.296039
O O2 0.872960 0.583370 0.225163
O O3 0.008697 0.676419 0.319950
O O4 0.887032 0.570297 0.923597
O O5 0.677832 0.337158 0.210915
O O6 0.725987 0.732810 0.074937
O O7 0.664191 0.831956 0.253756
O O8 0.562027 0.723662 0.852347
O O9 0.079519 0.026700 0.236099
O O10 0.134757 0.981177 0.637037
O O11 0.165604 0.356654 0.497694
O O12 0.226234 0.006203 0.384528
O O13 0.390708 0.824511 0.624773
O O14 0.500000 0.500000 0.000000
O O15 0.500000 0.000000 0.000000
#
# Coordination Sequence:
#
# PCOD9045197 Si02
#       7
#     2   2   2   2   2   2   2
#     4  12  22  40  50  77 102 139 174 214 256 300
#     4   9  17  30  49  75 100 130 164 204 250 300
#     4  10  24  36  56  71 106 135 176 214 256 298
#     4   9  22  35  56  75 104 134 174 212 255 300
#     4   8  14  26  46  71 100 125 159 200 245 299
#     4   9  17  30  49  75 100 130 164 204 250 300
#     4   9  22  35  56  75 104 134 174 212 255 300
#
# _framework density 22.290240000000001
#
# number of rings (size 3 to 8) (size 9 to 14) (size 15 to 20)
#    0.857    1.714    0.000    1.714    2.000    4.571 
#    0.000    0.000    0.000    0.857    0.000    0.000 
#    0.000   36.571    0.000    0.000    0.000    4.857 
#
# Total GULP energy -77945.525286 kJ/mol
# GULP energy per Si atom -5567.537520 kJ/mol
# Density = 2.223951 g / cm^3
# Si number density = 22.290240 Si / 1000 Ang^3
#
#
#
# Elastic Constant Matrix: (Units=GPa)
#
#
# Indices 1 2 3 4 5 6 
#
# 1 150.7500 3.1457 52.2866 -2.7431 49.2152 -2.9143
# 2 3.1457 89.5575 6.9900 -9.3494 -2.0055 1.2409
# 3 52.2866 6.9900 31.7654 -4.6135 14.3595 -3.1232
# 4 -2.7431 -9.3494 -4.6135 16.4445 -1.5873 5.8208
# 5 49.2152 -2.0055 14.3595 -1.5873 42.5385 -3.5760
# 6 -2.9143 1.2409 -3.1232 5.8208 -3.5760 19.5196
#
#
#
# Elastic Compliance Matrix: (Units=1/GPa)
#
#
# Indices 1 2 3 4 5 6 
#
# 1 0.022291 0.000793 -0.030727 -0.004888 -0.015821 -0.003080
# 2 0.000793 0.012253 -0.003666 0.007312 0.000896 -0.003263
# 3 -0.030727 -0.003666 0.081523 0.014386 0.008901 0.006030
# 4 -0.004888 0.007312 0.014386 0.075875 0.002200 -0.021116
# 5 -0.015821 0.000896 0.008901 0.002200 0.039400 0.005567
# 6 -0.003080 -0.003263 0.006030 -0.021116 0.005567 0.059260
#
#
# Mechanical properties :
#
#
# Convention : Reuss Voigt Hill
#
# Bulk Modulus (GPa) = 20.46332 44.10194 32.28263
# Shear Modulus (GPa) = 13.36576 29.67724 21.52150
#
# Velocity S-wave (km/s) = 2.45138 3.65279 3.11064
# Velocity P-wave (km/s) = 4.14881 6.13342 5.23600
#
# Compressibility (1/GPa) = 0.04886792
#
# Stress axis : x y z
#
# Youngs Moduli (GPa) = 44.86104 81.61356 12.26649
#
# Poissons Ratio (x) = -0.06475 0.37691
# Poissons Ratio (y) = -0.03559 0.04497
# Poissons Ratio (z) = 1.37844 0.29919
#
# Static dielectric constant tensor:
#      x y z
#    x 1.943500 0.017460 0.081820 
#    y 0.017460 1.826000 -0.004770 
#    z 0.081820 -0.004770 1.923030 
# 
# From -- ./inp_files/339356.got.cif
#   From: 2010.05.17/outbox.cif.g08.bks.cpg/sg2_170_cif.got.tgz:339356.got - 2010.06.03 11:33:40.
