data_PCOD9045625
_publ_section_title
;
Structure prediction by ZEFSAII (Michael W. Deem and Ramdas Pophale) SiO2 
 PCOD9045625
Probable space group: P -1
;
_chemical_formula_sum "Si O2"
_cell_formula_units_Z 16
_cell_length_a 14.765810
_cell_length_b 14.523899
_cell_length_c 8.424406
_cell_angle_alpha 52.291989
_cell_angle_beta 100.710814
_cell_angle_gamma 139.325216
_cell_volume 784.565360
_symmetry_space_group_name_H-M "P -1"
_symmetry_group_IT_number 2
_symmetry_cell_setting 'triclinic'
loop_
_space_group_symop_operation_xyz
x,y,z
-x,-y,-z
loop_
_atom_site_type_symbol
_atom_site_label
_atom_site_fract_x
_atom_site_fract_y
_atom_site_fract_z
Si Si1 0.298275 0.026472 0.924383
Si Si2 0.391297 0.193324 0.443473
Si Si3 0.562667 0.949884 0.658164
Si Si4 0.950301 0.052754 0.041726
Si Si5 0.814495 0.807291 0.573349
Si Si6 0.265292 0.506843 0.614719
Si Si7 0.638074 0.407796 0.794763
Si Si8 0.193938 0.701050 0.394323
O O1 0.285897 0.029933 0.727960
O O2 0.463641 0.253815 0.814233
O O3 0.155663 0.948196 0.050748
O O4 0.284983 0.874983 0.108487
O O5 0.409088 0.126685 0.371891
O O6 0.305375 0.226226 0.343204
O O7 0.571089 0.383707 0.382662
O O8 0.500000 0.000000 0.500000
O O9 0.738810 0.162477 0.572308
O O10 0.423187 0.765323 0.936452
O O11 0.842890 0.885099 0.322668
O O12 0.120183 0.292403 0.888991
O O13 0.000000 0.000000 0.000000
O O14 0.721224 0.587823 0.749186
O O15 0.000000 0.000000 0.500000
O O16 0.248508 0.482421 0.442274
O O17 0.260277 0.639857 0.498883
O O18 0.000000 0.500000 0.500000
#
# Coordination Sequence:
#
# PCOD9045625 Si02
#       8
#     2   2   2   2   2   2   2   2
#     4   9  22  40  64  95 127 165 214 264 320 382
#     4  10  24  42  65  91 130 172 214 260 325 379
#     4  11  24  42  64  96 131 168 216 267 320 384
#     4  11  22  39  66  95 128 160 215 266 319 379
#     4  11  26  43  62  93 134 168 211 267 327 381
#     4  11  22  40  69  95 124 171 213 267 322 375
#     4  10  24  41  64  93 125 166 218 259 319 387
#     4  11  22  40  66  95 130 165 218 265 321 383
#
# _framework density 20.393457000000001
#
# number of rings (size 3 to 8) (size 9 to 14) (size 15 to 20)
#    0.000    1.500    3.750    0.000    5.250    6.500 
#    0.000    0.625    0.000    0.000    0.000    0.000 
#    0.000    0.000    0.000    0.000    0.000    0.000 
#
# Total GULP energy -89077.471203 kJ/mol
# GULP energy per Si atom -5567.341950 kJ/mol
# Density = 2.034704 g / cm^3
# Si number density = 20.393457 Si / 1000 Ang^3
#
#
#
# Elastic Constant Matrix: (Units=GPa)
#
#
# Indices 1 2 3 4 5 6 
#
# 1 43.7997 -4.8713 13.0715 -12.7591 4.6647 8.5604
# 2 -4.8713 73.7223 16.7509 -16.3722 9.5976 5.3761
# 3 13.0715 16.7509 54.8825 -19.3786 7.9596 -1.5528
# 4 -12.7591 -16.3722 -19.3786 33.0863 -4.0215 -3.9517
# 5 4.6647 9.5976 7.9596 -4.0215 25.2514 -1.8300
# 6 8.5604 5.3761 -1.5528 -3.9517 -1.8300 31.5339
#
#
#
# Elastic Compliance Matrix: (Units=1/GPa)
#
#
# Indices 1 2 3 4 5 6 
#
# 1 0.030447 0.006847 -0.005095 0.010426 -0.005591 -0.008701
# 2 0.006847 0.017694 -0.003416 0.008153 -0.005931 -0.004366
# 3 -0.005095 -0.003416 0.025037 0.011099 -0.003567 0.004382
# 4 0.010426 0.008153 0.011099 0.044852 -0.001244 0.001875
# 5 -0.005591 -0.005931 -0.003567 -0.001244 0.044160 0.004760
# 6 -0.008701 -0.004366 0.004382 0.001875 0.004760 0.035545
#
#
# Mechanical properties :
#
#
# Convention : Reuss Voigt Hill
#
# Bulk Modulus (GPa) = 14.31627 24.70074 19.50851
# Shear Modulus (GPa) = 22.28688 27.80454 25.04571
#
# Velocity S-wave (km/s) = 3.30941 3.69644 3.50826
# Velocity P-wave (km/s) = 4.65168 5.50968 5.09876
#
# Compressibility (1/GPa) = 0.06985061
#
# Stress axis : x y z
#
# Youngs Moduli (GPa) = 32.84422 56.51556 39.94068
#
# Poissons Ratio (x) = -0.38699 0.20351
# Poissons Ratio (y) = -0.22490 0.13643
# Poissons Ratio (z) = 0.16735 0.19305
#
# Static dielectric constant tensor:
#      x y z
#    x 1.571440 0.002220 0.013990 
#    y 0.002220 1.747060 0.029650 
#    z 0.013990 0.029650 1.777150 
# 
# From -- ./inp_files/206269.got.cif
#   From: 2010.05.17/outbox.cif.g08.bks.cpg/sg2_104_cif.got.tgz:206269.got - 2010.06.03 11:33:40.
