data_PCOD9045658
_publ_section_title
;
Structure prediction by ZEFSAII (Michael W. Deem and Ramdas Pophale) SiO2 
 PCOD9045658
Probable space group: P -1
;
_chemical_formula_sum "Si O2"
_cell_formula_units_Z 16
_cell_length_a 10.060972
_cell_length_b 8.780014
_cell_length_c 12.226531
_cell_angle_alpha 100.821191
_cell_angle_beta 80.830192
_cell_angle_gamma 135.420889
_cell_volume 744.075470
_symmetry_space_group_name_H-M "P -1"
_symmetry_group_IT_number 2
_symmetry_cell_setting 'triclinic'
loop_
_space_group_symop_operation_xyz
x,y,z
-x,-y,-z
loop_
_atom_site_type_symbol
_atom_site_label
_atom_site_fract_x
_atom_site_fract_y
_atom_site_fract_z
Si Si1 0.454270 0.104749 0.376339
Si Si2 0.466309 0.343707 0.890912
Si Si3 0.043075 0.876830 0.417223
Si Si4 0.341620 0.008924 0.021217
Si Si5 0.994652 0.318843 0.822079
Si Si6 0.578585 0.408639 0.205032
Si Si7 0.190342 0.555163 0.489050
Si Si8 0.741746 0.351302 0.749484
O O1 0.517608 0.299337 0.317264
O O2 0.625915 0.217316 0.451770
O O3 0.251497 0.984596 0.438723
O O4 0.405619 0.911713 0.285738
O O5 0.412364 0.401171 0.799018
O O6 0.658534 0.406398 0.851114
O O7 0.500000 0.500000 0.000000
O O8 0.329703 0.097039 0.921775
O O9 0.042663 0.853781 0.282325
O O10 0.873398 0.633451 0.449882
O O11 0.000000 0.000000 0.500000
O O12 0.424895 0.202209 0.120655
O O13 0.141333 0.796546 0.070299
O O14 0.500000 0.000000 0.000000
O O15 0.929355 0.418097 0.776681
O O16 0.216208 0.494858 0.839016
O O17 0.234339 0.549899 0.357605
O O18 0.000000 0.500000 0.500000
#
# Coordination Sequence:
#
# PCOD9045658 Si02
#       8
#     2   2   2   2   2   2   2   2
#     4  11  22  42  67  92 135 180 211 263 329 390
#     4  10  24  41  65  97 126 168 216 274 330 371
#     4  11  25  40  62  97 131 171 213 261 327 388
#     4  11  21  43  69  89 127 167 213 269 323 382
#     4  11  22  42  67  91 128 169 218 254 324 389
#     4  11  22  40  67  92 131 164 211 269 323 380
#     4  12  23  41  65  98 133 167 224 265 313 397
#     4  11  22  42  67  94 131 175 217 267 318 389
#
# _framework density 21.503195999999999
#
# number of rings (size 3 to 8) (size 9 to 14) (size 15 to 20)
#    0.000    1.000    7.500    0.375    1.750    2.500 
#    0.000    0.000    5.500    0.000    0.000    0.000 
#    0.000    0.000    0.000    0.000    0.000    0.000 
#
# Total GULP energy -89242.257455 kJ/mol
# GULP energy per Si atom -5577.641091 kJ/mol
# Density = 2.145425 g / cm^3
# Si number density = 21.503196 Si / 1000 Ang^3
#
#
#
# Elastic Constant Matrix: (Units=GPa)
#
#
# Indices 1 2 3 4 5 6 
#
# 1 86.6964 31.2053 20.9003 1.6020 -13.1501 2.3494
# 2 31.2053 87.6718 13.1717 -28.0508 0.3365 8.3758
# 3 20.9003 13.1717 54.8701 -21.2235 -18.3012 -11.6388
# 4 1.6020 -28.0508 -21.2235 39.0216 -5.5976 4.0664
# 5 -13.1501 0.3365 -18.3012 -5.5976 36.7950 5.4718
# 6 2.3494 8.3758 -11.6388 4.0664 5.4718 35.3783
#
#
#
# Elastic Compliance Matrix: (Units=1/GPa)
#
#
# Indices 1 2 3 4 5 6 
#
# 1 0.016932 -0.008258 -0.009100 -0.011496 -0.000023 -0.000838
# 2 -0.008258 0.019957 0.005631 0.018734 0.003258 -0.004981
# 3 -0.009100 0.005631 0.038691 0.027621 0.019273 0.005844
# 4 -0.011496 0.018734 0.027621 0.057724 0.018855 -0.004136
# 5 -0.000023 0.003258 0.019273 0.018855 0.040008 -0.002784
# 6 -0.000838 -0.004981 0.005844 -0.004136 -0.002784 0.032329
#
#
# Mechanical properties :
#
#
# Convention : Reuss Voigt Hill
#
# Bulk Modulus (GPa) = 19.18389 39.97700 29.58045
# Shear Modulus (GPa) = 20.28647 33.16972 26.72809
#
# Velocity S-wave (km/s) = 3.07484 3.93179 3.52942
# Velocity P-wave (km/s) = 4.64187 6.26446 5.51319
#
# Compressibility (1/GPa) = 0.05212708
#
# Stress axis : x y z
#
# Youngs Moduli (GPa) = 59.05965 50.10837 25.84593
#
# Poissons Ratio (x) = 0.41378 0.23519
# Poissons Ratio (y) = 0.48770 -0.14554
# Poissons Ratio (z) = 0.53742 -0.28216
#
# Static dielectric constant tensor:
#      x y z
#    x 1.812330 -0.136160 0.004700 
#    y -0.136160 2.073940 0.088220 
#    z 0.004700 0.088220 1.931480 
# 
# From -- ./inp_files/208188.got.cif
#   From: 2010.05.17/outbox.cif.g08.bks.cpg/sg2_105_cif.got.tgz:208188.got - 2010.06.03 11:33:40.
