data_PCOD9045032
_publ_section_title
;
Structure prediction by ZEFSAII (Michael W. Deem and Ramdas Pophale) SiO2 
 PCOD9045032
Probable space group: P -1
;
_chemical_formula_sum "Si O2"
_cell_formula_units_Z 13
_cell_length_a 9.246589
_cell_length_b 8.157464
_cell_length_c 9.166218
_cell_angle_alpha 99.485411
_cell_angle_beta 96.187892
_cell_angle_gamma 127.591449
_cell_volume 520.809243
_symmetry_space_group_name_H-M "P -1"
_symmetry_group_IT_number 2
_symmetry_cell_setting 'triclinic'
loop_
_space_group_symop_operation_xyz
x,y,z
-x,-y,-z
loop_
_atom_site_type_symbol
_atom_site_label
_atom_site_fract_x
_atom_site_fract_y
_atom_site_fract_z
Si Si1 0.442728 0.913462 0.145156
Si Si2 0.282814 0.119026 0.644744
Si Si3 0.498248 0.291434 0.387687
Si Si4 0.891326 0.758751 0.148440
Si Si5 0.000000 0.500000 0.000000
Si Si6 0.796573 0.734819 0.812957
Si Si7 0.930993 0.625989 0.568281
O O1 0.579816 0.875799 0.225891
O O2 0.472505 0.100036 0.272208
O O3 0.225634 0.700805 0.083366
O O4 0.500000 0.000000 0.000000
O O5 0.383990 0.195169 0.512104
O O6 0.218519 0.243325 0.729931
O O7 0.087699 0.871856 0.570174
O O8 0.400810 0.365938 0.295716
O O9 0.717385 0.483369 0.469302
O O10 0.945438 0.607119 0.132682
O O11 0.777159 0.699965 0.976602
O O12 0.073165 0.010893 0.175522
O O13 0.904878 0.653840 0.743158
O O14 0.000000 0.500000 0.500000
#
# Coordination Sequence:
#
# PCOD9045032 Si02
#       7
#     2   2   2   2   1   2   2
#     4  12  28  48  76 112 152 195 252 311 373 441
#     4  11  27  49  73 112 153 194 248 311 368 449
#     4  12  25  49  74 110 151 199 246 306 372 451
#     4  10  24  49  78 106 152 195 254 309 372 439
#     4  12  28  50  82 110 142 200 256 312 368 446
#     4  10  23  48  74 109 152 197 243 313 371 444
#     4  11  25  44  76 108 148 199 243 305 378 435
#
# _framework density 24.961154000000001
#
# number of rings (size 3 to 8) (size 9 to 14) (size 15 to 20)
#    0.000    0.923    3.077    1.846    6.462    4.308 
#    8.308    0.000    0.000    0.000    0.000    0.000 
#    0.000    0.000    0.000    0.000    0.000    0.000 
#
# Total GULP energy -72662.675577 kJ/mol
# GULP energy per Si atom -5589.436583 kJ/mol
# Density = 2.490434 g / cm^3
# Si number density = 24.961154 Si / 1000 Ang^3
#
#
#
# Elastic Constant Matrix: (Units=GPa)
#
#
# Indices 1 2 3 4 5 6 
#
# 1 167.3677 63.0799 82.7227 15.9856 -37.2059 25.1978
# 2 63.0799 134.7007 80.4627 20.2758 -11.1470 39.3964
# 3 82.7227 80.4627 170.2445 7.6663 -35.2540 15.5128
# 4 15.9856 20.2758 7.6663 54.5028 -9.1351 -5.6753
# 5 -37.2059 -11.1470 -35.2540 -9.1351 59.7725 27.1527
# 6 25.1978 39.3964 15.5128 -5.6753 27.1527 53.0738
#
#
#
# Elastic Compliance Matrix: (Units=1/GPa)
#
#
# Indices 1 2 3 4 5 6 
#
# 1 0.010881 0.000457 -0.002530 -0.002445 0.009478 -0.009876
# 2 0.000457 0.015472 -0.004830 -0.005689 0.005735 -0.013832
# 3 -0.002530 -0.004830 0.010044 0.001754 0.003635 0.000179
# 4 -0.002445 -0.005689 0.001754 0.021454 -0.001986 0.008182
# 5 0.009478 0.005735 0.003635 -0.001986 0.039209 -0.030091
# 6 -0.009876 -0.013832 0.000179 0.008182 -0.030091 0.050015
#
#
# Mechanical properties :
#
#
# Convention : Reuss Voigt Hill
#
# Bulk Modulus (GPa) = 44.26955 102.76038 73.51497
# Shear Modulus (GPa) = 29.68939 49.87301 39.78120
#
# Velocity S-wave (km/s) = 3.45254 4.47478 3.99648
# Velocity P-wave (km/s) = 5.80235 8.24352 7.12822
#
# Compressibility (1/GPa) = 0.02258889
#
# Stress axis : x y z
#
# Youngs Moduli (GPa) = 91.90622 64.63438 99.56574
#
# Poissons Ratio (x) = -0.02953 0.25191
# Poissons Ratio (y) = -0.04199 0.48093
# Poissons Ratio (z) = 0.23253 0.31220
#
# Static dielectric constant tensor:
#      x y z
#    x 1.978530 -0.071490 0.028630 
#    y -0.071490 1.996590 -0.002780 
#    z 0.028630 -0.002780 1.969800 
# 
# From -- ./inp_files/159698.got.cif
#   From: 2010.05.17/outbox.cif.g08.bks.cpg/sg2_80_cif.got.tgz:159698.got - 2010.06.03 11:33:40.
