data_PCOD9045967
_publ_section_title
;
Structure prediction by ZEFSAII (Michael W. Deem and Ramdas Pophale) SiO2 
 PCOD9045967
Probable space group: P -1
;
_chemical_formula_sum "Si O2"
_cell_formula_units_Z 12
_cell_length_a 9.782684
_cell_length_b 9.801510
_cell_length_c 12.786106
_cell_angle_alpha 91.277183
_cell_angle_beta 106.224021
_cell_angle_gamma 28.084332
_cell_volume 481.202991
_symmetry_space_group_name_H-M "P -1"
_symmetry_group_IT_number 2
_symmetry_cell_setting 'triclinic'
loop_
_space_group_symop_operation_xyz
x,y,z
-x,-y,-z
loop_
_atom_site_type_symbol
_atom_site_label
_atom_site_fract_x
_atom_site_fract_y
_atom_site_fract_z
Si Si1 0.177846 0.138729 0.833572
Si Si2 0.092800 0.775702 0.693473
Si Si3 0.064724 0.514103 0.623775
Si Si4 0.392487 0.570179 0.358388
Si Si5 0.353574 0.757213 0.031504
Si Si6 0.696924 0.779457 0.762628
O O1 0.840284 0.356960 0.715777
O O2 0.064682 0.382946 0.865398
O O3 0.441650 0.920042 0.789057
O O4 0.305300 0.926658 0.948094
O O5 0.970146 0.756344 0.598121
O O6 0.287501 0.709698 0.657389
O O7 0.360202 0.468330 0.822942
O O8 0.821834 0.103105 0.704676
O O9 0.000000 0.500000 0.500000
O O10 0.802517 0.687384 0.660017
O O11 0.473887 0.116561 0.728273
O O12 0.500000 0.500000 0.500000
O O13 0.500000 0.500000 0.000000
O O14 0.000000 0.000000 0.000000
#
# Coordination Sequence:
#
# PCOD9045967 Si02
#       6
#     2   2   2   2   2   2
#     4  11  22  42  68  97 134 171 217 272 344 384
#     4  12  25  45  67 101 132 176 226 271 328 398
#     4  11  25  44  67  91 133 183 227 264 322 389
#     4  12  26  40  67 103 139 167 214 278 344 400
#     4  12  22  43  68  99 135 172 220 271 335 402
#     4  10  24  42  65  94 127 177 224 264 322 396
#
# _framework density 24.937498999999999
#
# number of rings (size 3 to 8) (size 9 to 14) (size 15 to 20)
#    0.000    0.667    3.333    4.000    7.000    0.000 
#    0.000    5.000    0.000    0.000    0.000    0.000 
#    0.000    0.000    0.000    0.000    0.000    0.000 
#
# Total GULP energy -66893.353225 kJ/mol
# GULP energy per Si atom -5574.446102 kJ/mol
# Density = 2.488074 g / cm^3
# Si number density = 24.937499 Si / 1000 Ang^3
#
#
#
# Elastic Constant Matrix: (Units=GPa)
#
#
# Indices 1 2 3 4 5 6 
#
# 1 65.3010 37.7826 -5.4744 6.1256 -19.8217 -8.5101
# 2 37.7826 182.0495 6.2144 -1.2797 -10.6420 -2.4062
# 3 -5.4744 6.2144 55.6309 -5.4932 -15.4369 -4.5694
# 4 6.1256 -1.2797 -5.4932 35.3548 2.8894 -12.2340
# 5 -19.8217 -10.6420 -15.4369 2.8894 36.0859 11.4728
# 6 -8.5101 -2.4062 -4.5694 -12.2340 11.4728 50.8506
#
#
#
# Elastic Compliance Matrix: (Units=1/GPa)
#
#
# Indices 1 2 3 4 5 6 
#
# 1 0.023077 -0.004188 0.006330 -0.004390 0.014533 -0.000102
# 2 -0.004188 0.006352 -0.001337 0.000799 -0.001033 -0.000095
# 3 0.006330 -0.001337 0.022372 0.001526 0.012344 0.000589
# 4 -0.004390 0.000799 0.001526 0.032984 -0.007012 0.008958
# 5 0.014533 -0.001033 0.012344 -0.007012 0.043799 -0.008076
# 6 -0.000102 -0.000095 0.000589 0.008958 -0.008076 0.023674
#
#
# Mechanical properties :
#
#
# Convention : Reuss Voigt Hill
#
# Bulk Modulus (GPa) = 18.72323 42.22516 30.47419
# Shear Modulus (GPa) = 29.68180 42.08887 35.88534
#
# Velocity S-wave (km/s) = 3.45374 4.11271 3.79755
# Velocity P-wave (km/s) = 4.84033 6.28663 5.61028
#
# Compressibility (1/GPa) = 0.05340960
#
# Stress axis : x y z
#
# Youngs Moduli (GPa) = 43.33247 157.43445 44.69855
#
# Poissons Ratio (x) = 0.65937 -0.28293
# Poissons Ratio (y) = 0.18149 0.05977
# Poissons Ratio (z) = -0.27428 0.21053
#
# Static dielectric constant tensor:
#      x y z
#    x 2.016620 0.054010 0.063650 
#    y 0.054010 1.918240 -0.048280 
#    z 0.063650 -0.048280 2.130430 
# 
# From -- ./inp_files/299917.got.cif
#   From: 2010.05.17/outbox.cif.g08.bks.cpg/sg2_150_cif.got.tgz:299917.got - 2010.06.03 11:33:40.
