data_PCOD9045390
_publ_section_title
;
Structure prediction by ZEFSAII (Michael W. Deem and Ramdas Pophale) SiO2 
 PCOD9045390
Probable space group: P -1
;
_chemical_formula_sum "Si O2"
_cell_formula_units_Z 13
_cell_length_a 9.272856
_cell_length_b 13.449498
_cell_length_c 8.116777
_cell_angle_alpha 106.217281
_cell_angle_beta 148.464431
_cell_angle_gamma 72.881168
_cell_volume 505.179681
_symmetry_space_group_name_H-M "P -1"
_symmetry_group_IT_number 2
_symmetry_cell_setting 'triclinic'
loop_
_space_group_symop_operation_xyz
x,y,z
-x,-y,-z
loop_
_atom_site_type_symbol
_atom_site_label
_atom_site_fract_x
_atom_site_fract_y
_atom_site_fract_z
Si Si1 0.361926 0.587214 0.205192
Si Si2 0.279633 0.365397 0.982329
Si Si3 0.218686 0.739026 0.433612
Si Si4 0.000000 0.000000 0.000000
Si Si5 0.609568 0.875759 0.473387
Si Si6 0.264539 0.975986 0.633277
Si Si7 0.153875 0.358394 0.484707
O O1 0.154060 0.631088 0.879152
O O2 0.277996 0.475171 0.124236
O O3 0.333835 0.672719 0.358815
O O4 0.668453 0.571587 0.422646
O O5 0.591047 0.309607 0.253669
O O6 0.172667 0.388171 0.705507
O O7 0.091134 0.286689 0.848060
O O8 0.270751 0.857661 0.529972
O O9 0.193853 0.093380 0.172132
O O10 0.284111 0.912024 0.191363
O O11 0.694697 0.758926 0.446480
O O12 0.746664 0.953622 0.510635
O O13 0.000000 0.000000 0.500000
O O14 0.500000 0.000000 0.000000
#
# Coordination Sequence:
#
# PCOD9045390 Si02
#       7
#     2   2   2   1   2   2   2
#     4  12  26  45  73 110 142 181 245 302 356 423
#     4  12  25  49  72 103 145 192 235 298 359 433
#     4  12  26  45  75 103 142 192 241 290 362 421
#     4  10  24  40  64  92 134 180 224 284 338 398
#     4  11  24  42  67  97 143 177 234 280 356 412
#     4  12  26  45  70 103 142 186 237 287 349 436
#     4  12  25  43  73 105 145 188 235 291 370 426
#
# _framework density 25.733418
#
# number of rings (size 3 to 8) (size 9 to 14) (size 15 to 20)
#    0.000    0.308    0.000    9.231    6.462    0.000 
#    0.000    0.000    0.000    0.000    0.000    0.000 
#    0.000    0.000    0.000    0.000    0.000    0.000 
#
# Total GULP energy -72699.413589 kJ/mol
# GULP energy per Si atom -5592.262584 kJ/mol
# Density = 2.567485 g / cm^3
# Si number density = 25.733418 Si / 1000 Ang^3
#
#
#
# Elastic Constant Matrix: (Units=GPa)
#
#
# Indices 1 2 3 4 5 6 
#
# 1 61.9508 17.9483 2.7607 13.1396 5.7359 3.3343
# 2 17.9483 162.3340 53.4111 19.1077 1.7783 4.0207
# 3 2.7607 53.4111 105.2318 17.7181 25.0099 -12.8372
# 4 13.1396 19.1077 17.7181 38.0613 -1.5238 8.1526
# 5 5.7359 1.7783 25.0099 -1.5238 53.8250 1.9842
# 6 3.3343 4.0207 -12.8372 8.1526 1.9842 32.4496
#
#
#
# Elastic Compliance Matrix: (Units=1/GPa)
#
#
# Indices 1 2 3 4 5 6 
#
# 1 0.018355 -0.002110 0.002756 -0.007005 -0.003418 0.001434
# 2 -0.002110 0.008083 -0.004869 -0.000380 0.002311 -0.002757
# 3 0.002756 -0.004869 0.016497 -0.008560 -0.008391 0.009510
# 4 -0.007005 -0.000380 -0.008560 0.035677 0.006187 -0.011961
# 5 -0.003418 0.002311 -0.008391 0.006187 0.023170 -0.006226
# 6 0.001434 -0.002757 0.009510 -0.011961 -0.006226 0.038159
#
#
# Mechanical properties :
#
#
# Convention : Reuss Voigt Hill
#
# Bulk Modulus (GPa) = 28.99345 53.08409 41.03877
# Shear Modulus (GPa) = 31.27262 41.89362 36.58312
#
# Velocity S-wave (km/s) = 3.48983 4.03921 3.77453
# Velocity P-wave (km/s) = 5.24689 6.51359 5.91425
#
# Compressibility (1/GPa) = 0.03449055
#
# Stress axis : x y z
#
# Youngs Moduli (GPa) = 54.48047 123.71605 60.61545
#
# Poissons Ratio (x) = 0.26102 -0.16706
# Poissons Ratio (y) = 0.11494 0.29512
# Poissons Ratio (z) = -0.15015 0.60234
#
# Static dielectric constant tensor:
#      x y z
#    x 1.927060 0.073640 0.014730 
#    y 0.073640 1.961110 0.130430 
#    z 0.014730 0.130430 1.276760 
# 
# From -- ./inp_files/203462.got.cif
#   From: 2010.05.17/outbox.cif.g08.bks.cpg/sg2_102_cif.got.tgz:203462.got - 2010.06.03 11:33:40.
