data_PCOD9045435
_publ_section_title
;
Structure prediction by ZEFSAII (Michael W. Deem and Ramdas Pophale) SiO2 
 PCOD9045435
Probable space group: P -1
;
_chemical_formula_sum "Si O2"
_cell_formula_units_Z 14
_cell_length_a 12.680123
_cell_length_b 29.060935
_cell_length_c 6.217144
_cell_angle_alpha 35.028354
_cell_angle_beta 134.427700
_cell_angle_gamma 152.613603
_cell_volume 601.689298
_symmetry_space_group_name_H-M "P -1"
_symmetry_group_IT_number 2
_symmetry_cell_setting 'triclinic'
loop_
_space_group_symop_operation_xyz
x,y,z
-x,-y,-z
loop_
_atom_site_type_symbol
_atom_site_label
_atom_site_fract_x
_atom_site_fract_y
_atom_site_fract_z
Si Si1 0.854067 0.800658 0.625881
Si Si2 0.368735 0.994563 0.524973
Si Si3 0.746559 0.873925 0.546301
Si Si4 0.595637 0.151979 0.642364
Si Si5 0.060289 0.433438 0.308574
Si Si6 0.547687 0.639139 0.427104
Si Si7 0.756078 0.615863 0.509440
O O1 0.787265 0.854658 0.443555
O O2 0.629326 0.688758 0.592021
O O3 0.868510 0.733438 0.075815
O O4 0.100354 0.909394 0.436157
O O5 0.518185 0.121867 0.392891
O O6 0.500000 0.000000 0.500000
O O7 0.343820 0.913382 0.972061
O O8 0.606772 0.895736 0.317255
O O9 0.620243 0.749085 0.974848
O O10 0.000000 0.000000 0.500000
O O11 0.815611 0.289127 0.528938
O O12 0.281727 0.509955 0.485521
O O13 0.134152 0.424980 0.216558
O O14 0.000000 0.500000 0.000000
O O15 0.716528 0.637116 0.602933
O O16 0.500000 0.500000 0.500000
#
# Coordination Sequence:
#
# PCOD9045435 Si02
#       7
#     2   2   2   2   2   2   2
#     4  11  23  42  65  98 128 166 226 267 325 392
#     4  11  26  42  69  99 127 174 225 274 327 382
#     4  11  23  42  65  95 132 177 215 269 331 389
#     4  11  24  46  67  92 137 172 218 274 326 388
#     4  11  21  42  66  93 131 174 213 259 329 388
#     4  10  24  40  66  95 130 173 214 270 323 391
#     4   9  21  41  65  89 125 174 208 261 324 387
#
# _framework density 23.267821000000001
#
# number of rings (size 3 to 8) (size 9 to 14) (size 15 to 20)
#    0.000    1.429    4.286    0.000    4.000    4.000 
#    0.000    2.143    0.000    0.000    0.000    0.000 
#    0.000    0.000    0.000    0.000    0.000    0.000 
#
# Total GULP energy -77945.849563 kJ/mol
# GULP energy per Si atom -5567.560683 kJ/mol
# Density = 2.321486 g / cm^3
# Si number density = 23.267821 Si / 1000 Ang^3
#
#
#
# Elastic Constant Matrix: (Units=GPa)
#
#
# Indices 1 2 3 4 5 6 
#
# 1 149.5471 52.1878 -0.1323 18.2581 18.4217 2.2998
# 2 52.1878 177.5101 12.0923 -10.1782 -9.6533 1.2205
# 3 -0.1323 12.0923 42.1404 -5.0868 16.1876 4.6842
# 4 18.2581 -10.1782 -5.0868 23.1842 1.3008 0.7713
# 5 18.4217 -9.6533 16.1876 1.3008 34.9176 -5.8309
# 6 2.2998 1.2205 4.6842 0.7713 -5.8309 54.0328
#
#
#
# Elastic Compliance Matrix: (Units=1/GPa)
#
#
# Indices 1 2 3 4 5 6 
#
# 1 0.010200 -0.004152 0.003420 -0.008609 -0.008024 -0.001380
# 2 -0.004152 0.007771 -0.004069 0.005411 0.006182 0.000944
# 3 0.003420 -0.004069 0.033441 0.004118 -0.019439 -0.005109
# 4 -0.008609 0.005411 0.004118 0.053098 0.002042 -0.000650
# 5 -0.008024 0.006182 -0.019439 0.002042 0.044631 0.006674
# 6 -0.001380 0.000944 -0.005109 -0.000650 0.006674 0.019717
#
#
# Mechanical properties :
#
#
# Convention : Reuss Voigt Hill
#
# Bulk Modulus (GPa) = 23.91848 55.27703 39.59776
# Shear Modulus (GPa) = 25.98782 42.76357 34.37570
#
# Velocity S-wave (km/s) = 3.34563 4.29171 3.84786
# Velocity P-wave (km/s) = 5.02258 6.95462 6.06601
#
# Compressibility (1/GPa) = 0.04180868
#
# Stress axis : x y z
#
# Youngs Moduli (GPa) = 98.04353 128.67807 29.90359
#
# Poissons Ratio (x) = 0.53429 -0.10227
# Poissons Ratio (y) = 0.40709 0.12169
# Poissons Ratio (z) = -0.33531 0.52364
#
# Static dielectric constant tensor:
#      x y z
#    x 2.186160 -0.153110 0.132000 
#    y -0.153110 2.213520 0.014950 
#    z 0.132000 0.014950 2.152510 
# 
# From -- ./inp_files/84440.got.cif
#   From: 2010.05.17/outbox.cif.g08.bks.cpg/sg2_43_cif.got.tgz:84440.got - 2010.06.03 11:33:40.
