data_PCOD9045047
_publ_section_title
;
Structure prediction by ZEFSAII (Michael W. Deem and Ramdas Pophale) SiO2 
 PCOD9045047
Probable space group: P -1
;
_chemical_formula_sum "Si O2"
_cell_formula_units_Z 14
_cell_length_a 9.009759
_cell_length_b 5.426631
_cell_length_c 18.063726
_cell_angle_alpha 60.470208
_cell_angle_beta 135.682092
_cell_angle_gamma 105.443692
_cell_volume 531.430159
_symmetry_space_group_name_H-M "P -1"
_symmetry_group_IT_number 2
_symmetry_cell_setting 'triclinic'
loop_
_space_group_symop_operation_xyz
x,y,z
-x,-y,-z
loop_
_atom_site_type_symbol
_atom_site_label
_atom_site_fract_x
_atom_site_fract_y
_atom_site_fract_z
Si Si1 0.285860 0.907457 0.532660
Si Si2 0.255279 0.908464 0.356857
Si Si3 0.155465 0.569200 0.233355
Si Si4 0.505742 0.705137 0.086876
Si Si5 0.155995 0.345613 0.016636
Si Si6 0.506798 0.177449 0.762637
Si Si7 0.822927 0.221051 0.330920
O O1 0.262631 0.783344 0.460660
O O2 0.076308 0.147563 0.430887
O O3 0.501558 0.055546 0.586183
O O4 0.259125 0.712649 0.623814
O O5 0.135775 0.234092 0.273043
O O6 0.150493 0.724215 0.286982
O O7 0.394935 0.586306 0.284347
O O8 0.986310 0.732749 0.090839
O O9 0.315021 0.550993 0.010506
O O10 0.460061 0.774779 0.146260
O O11 0.719877 0.472718 0.202349
O O12 0.500000 0.000000 0.000000
O O13 0.318697 0.103605 0.150790
O O14 0.000000 0.500000 0.000000
O O15 0.282044 0.065807 0.683701
#
# Coordination Sequence:
#
# PCOD9045047 Si02
#       7
#     2   2   2   2   2   2   2
#     4  10  23  48  76 108 149 208 257 320 382 459
#     4  11  26  46  76 115 152 195 265 328 378 452
#     4  12  24  45  76 113 154 198 255 324 388 458
#     4  11  26  46  75 112 154 197 254 322 387 471
#     4  11  24  43  75 109 150 203 256 314 393 469
#     4  11  23  43  71 107 152 200 256 313 388 468
#     4  10  23  50  73 108 153 206 254 310 397 467
#
# _framework density 26.344006
#
# number of rings (size 3 to 8) (size 9 to 14) (size 15 to 20)
#    0.000    1.143    2.857    2.143    2.000    6.857 
#    7.714    2.143    0.000    0.000    0.000    0.000 
#    0.000    0.000    0.000    0.000    0.000    0.000 
#
# Total GULP energy -78503.550454 kJ/mol
# GULP energy per Si atom -5607.396461 kJ/mol
# Density = 2.628405 g / cm^3
# Si number density = 26.344006 Si / 1000 Ang^3
#
#
#
# Elastic Constant Matrix: (Units=GPa)
#
#
# Indices 1 2 3 4 5 6 
#
# 1 86.9149 21.2392 43.3095 4.4351 -3.9556 -2.2276
# 2 21.2392 102.1430 38.4489 17.4895 -10.4068 7.6145
# 3 43.3095 38.4489 146.7151 8.8566 -12.0537 1.0259
# 4 4.4351 17.4895 8.8566 52.9598 -4.1525 -13.5320
# 5 -3.9556 -10.4068 -12.0537 -4.1525 56.3313 -0.0867
# 6 -2.2276 7.6145 1.0259 -13.5320 -0.0867 41.2769
#
#
#
# Elastic Compliance Matrix: (Units=1/GPa)
#
#
# Indices 1 2 3 4 5 6 
#
# 1 0.013742 -0.001633 -0.003664 0.000309 -0.000096 0.001235
# 2 -0.001633 0.012148 -0.002307 -0.004329 0.001311 -0.003688
# 3 -0.003664 -0.002307 0.008614 -0.000304 0.001137 -0.000084
# 4 0.000309 -0.004329 -0.000304 0.022497 0.000828 0.008200
# 5 -0.000096 0.001311 0.001137 0.000828 0.018292 0.000035
# 6 0.001235 -0.003688 -0.000084 0.008200 0.000035 0.027664
#
#
# Mechanical properties :
#
#
# Convention : Reuss Voigt Hill
#
# Bulk Modulus (GPa) = 51.82164 60.19649 56.00906
# Shear Modulus (GPa) = 40.12978 45.63194 42.88086
#
# Velocity S-wave (km/s) = 3.90718 4.16643 4.03889
# Velocity P-wave (km/s) = 6.32997 6.78567 6.56178
#
# Compressibility (1/GPa) = 0.01929696
#
# Stress axis : x y z
#
# Youngs Moduli (GPa) = 72.77117 82.31975 116.08598
#
# Poissons Ratio (x) = 0.13444 0.42530
# Poissons Ratio (y) = 0.11884 0.26776
# Poissons Ratio (z) = 0.26661 0.18988
#
# Static dielectric constant tensor:
#      x y z
#    x 2.099100 -0.000990 -0.004650 
#    y -0.000990 2.169280 -0.093770 
#    z -0.004650 -0.093770 2.032980 
# 
# From -- ./inp_files/552492.got.cif
#   From: 2010.05.17/outbox.cif.g08.bks.cpg/sg2_277_cif.got.tgz:552492.got - 2010.06.03 11:33:40.
