data_PCOD9045007
_publ_section_title
;
Structure prediction by ZEFSAII (Michael W. Deem and Ramdas Pophale) SiO2 
 PCOD9045007
Probable space group: P -1
;
_chemical_formula_sum "Si O2"
_cell_formula_units_Z 16
_cell_length_a 12.225846
_cell_length_b 8.027803
_cell_length_c 8.233186
_cell_angle_alpha 58.523954
_cell_angle_beta 92.773522
_cell_angle_gamma 76.139437
_cell_volume 654.245209
_symmetry_space_group_name_H-M "P -1"
_symmetry_group_IT_number 2
_symmetry_cell_setting 'triclinic'
loop_
_space_group_symop_operation_xyz
x,y,z
-x,-y,-z
loop_
_atom_site_type_symbol
_atom_site_label
_atom_site_fract_x
_atom_site_fract_y
_atom_site_fract_z
Si Si1 0.187586 0.674386 0.423798
Si Si2 0.748933 0.970613 0.226159
Si Si3 0.021414 0.216105 0.857024
Si Si4 0.712187 0.618925 0.904409
Si Si5 0.161474 0.086616 0.388647
Si Si6 0.913436 0.420640 0.206678
Si Si7 0.588946 0.777399 0.154714
Si Si8 0.619484 0.370630 0.793158
O O1 0.161780 0.577265 0.638091
O O2 0.307511 0.618367 0.366927
O O3 0.094457 0.644643 0.306262
O O4 0.159894 0.913333 0.347980
O O5 0.872133 0.847690 0.224833
O O6 0.777359 0.017224 0.387613
O O7 0.669892 0.820428 0.279529
O O8 0.688755 0.164721 0.006537
O O9 0.055529 0.365448 0.911303
O O10 0.000000 0.000000 0.000000
O O11 0.826643 0.426021 0.050095
O O12 0.657454 0.706129 0.028355
O O13 0.759451 0.782631 0.735733
O O14 0.622840 0.552554 0.821271
O O15 0.029967 0.232270 0.328431
O O16 0.507097 0.638050 0.250640
O O17 0.500000 0.000000 0.000000
#
# Coordination Sequence:
#
# PCOD9045007 Si02
#       8
#     2   2   2   2   2   2   2   2
#     4  12  25  43  67 102 146 184 227 280 343 411
#     4  11  23  44  69  99 140 180 228 282 345 411
#     4  12  23  40  69  97 141 181 224 279 350 404
#     4  12  25  44  69 103 137 178 241 282 343 414
#     4  12  26  42  67 105 145 185 228 280 346 416
#     4  12  26  43  67 104 148 183 226 284 342 418
#     4  10  23  48  72  96 134 183 230 292 345 402
#     4  11  25  45  73 100 136 185 234 286 344 402
#
# _framework density 24.455663000000001
#
# number of rings (size 3 to 8) (size 9 to 14) (size 15 to 20)
#    0.000    0.500    3.750    5.250    3.500    0.000 
#    0.000    9.375    0.000    0.000    0.000    0.000 
#    0.000    0.000    0.000    0.000    0.000    0.000 
#
# Total GULP energy -89612.464399 kJ/mol
# GULP energy per Si atom -5600.779025 kJ/mol
# Density = 2.440000 g / cm^3
# Si number density = 24.455663 Si / 1000 Ang^3
#
#
#
# Elastic Constant Matrix: (Units=GPa)
#
#
# Indices 1 2 3 4 5 6 
#
# 1 119.8184 11.4472 55.3275 7.4408 -2.6252 22.7902
# 2 11.4472 87.9328 20.3912 4.6452 3.1130 19.9961
# 3 55.3275 20.3912 92.0403 -3.6757 -3.8248 -1.7883
# 4 7.4408 4.6452 -3.6757 38.3982 8.8844 -2.2236
# 5 -2.6252 3.1130 -3.8248 8.8844 32.3204 4.2526
# 6 22.7902 19.9961 -1.7883 -2.2236 4.2526 49.1730
#
#
#
# Elastic Compliance Matrix: (Units=1/GPa)
#
#
# Indices 1 2 3 4 5 6 
#
# 1 0.014483 0.002432 -0.009514 -0.005038 0.002316 -0.008476
# 2 0.002432 0.013948 -0.004810 -0.003045 0.000058 -0.007117
# 3 -0.009514 -0.004810 0.017960 0.004663 -0.000422 0.007266
# 4 -0.005038 -0.003045 0.004663 0.030169 -0.008627 0.005853
# 5 0.002316 0.000058 -0.000422 -0.008627 0.034029 -0.004446
# 6 -0.008476 -0.007117 0.007266 0.005853 -0.004446 0.028072
#
#
# Mechanical properties :
#
#
# Convention : Reuss Voigt Hill
#
# Bulk Modulus (GPa) = 44.23407 52.68035 48.45721
# Shear Modulus (GPa) = 29.41521 38.15337 33.78429
#
# Velocity S-wave (km/s) = 3.47190 3.95410 3.72082
# Velocity P-wave (km/s) = 5.84798 6.51417 6.19004
#
# Compressibility (1/GPa) = 0.02260701
#
# Stress axis : x y z
#
# Youngs Moduli (GPa) = 69.04799 71.69353 55.68057
#
# Poissons Ratio (x) = -0.17439 0.52977
# Poissons Ratio (y) = -0.16796 0.26782
# Poissons Ratio (z) = 0.65695 0.34484
#
# Static dielectric constant tensor:
#      x y z
#    x 1.932340 -0.014780 0.019860 
#    y -0.014780 1.929360 -0.064370 
#    z 0.019860 -0.064370 1.974580 
# 
# From -- ./inp_files/237154.got.cif
#   From: 2010.05.17/outbox.cif.g08.bks.cpg/sg2_119_cif.got.tgz:237154.got - 2010.06.03 11:33:40.
