data_PCOD9045333
_publ_section_title
;
Structure prediction by ZEFSAII (Michael W. Deem and Ramdas Pophale) SiO2 
 PCOD9045333
Probable space group: P -1
;
_chemical_formula_sum "Si O2"
_cell_formula_units_Z 14
_cell_length_a 8.957594
_cell_length_b 8.682556
_cell_length_c 14.061522
_cell_angle_alpha 35.692235
_cell_angle_beta 89.913166
_cell_angle_gamma 76.856380
_cell_volume 588.168717
_symmetry_space_group_name_H-M "P -1"
_symmetry_group_IT_number 2
_symmetry_cell_setting 'triclinic'
loop_
_space_group_symop_operation_xyz
x,y,z
-x,-y,-z
loop_
_atom_site_type_symbol
_atom_site_label
_atom_site_fract_x
_atom_site_fract_y
_atom_site_fract_z
Si Si1 0.731229 0.548606 0.462274
Si Si2 0.681791 0.776540 0.107483
Si Si3 0.054735 0.123510 0.633534
Si Si4 0.632810 0.059336 0.773427
Si Si5 0.337006 0.261944 0.261475
Si Si6 0.694099 0.173252 0.367089
Si Si7 0.884279 0.070289 0.056441
O O1 0.832584 0.693701 0.448206
O O2 0.677461 0.337649 0.632628
O O3 0.564749 0.789428 0.303072
O O4 0.871824 0.325588 0.508003
O O5 0.722042 0.847637 0.964774
O O6 0.785884 0.870056 0.134916
O O7 0.676001 0.467629 0.268698
O O8 0.500000 0.000000 0.000000
O O9 0.152300 0.900474 0.665681
O O10 0.049071 0.001375 0.800276
O O11 0.681484 0.874288 0.770182
O O12 0.524952 0.224265 0.288040
O O13 0.229566 0.595026 0.109023
O O14 0.291512 0.078956 0.433572
O O15 0.000000 0.000000 0.000000
#
# Coordination Sequence:
#
# PCOD9045333 Si02
#       7
#     2   2   2   2   2   2   2
#     4  10  24  39  75 104 134 182 237 283 355 403
#     4  12  26  43  73 106 139 180 242 286 342 421
#     4  11  24  45  72  99 147 182 234 287 352 414
#     4  11  24  44  73 100 146 181 233 289 352 414
#     4  11  26  45  70 103 146 185 232 288 360 415
#     4  11  26  45  71 105 142 186 235 290 351 419
#     4  12  28  46  72 105 145 185 230 292 356 415
#
# _framework density 23.802695
#
# number of rings (size 3 to 8) (size 9 to 14) (size 15 to 20)
#    0.000    0.857    2.857    2.571   12.000    2.286 
#    0.000    4.286    0.000    0.000    0.000    0.000 
#    0.000    0.000    0.000    0.000    0.000    0.000 
#
# Total GULP energy -78330.800572 kJ/mol
# GULP energy per Si atom -5595.057184 kJ/mol
# Density = 2.374852 g / cm^3
# Si number density = 23.802695 Si / 1000 Ang^3
#
#
#
# Elastic Constant Matrix: (Units=GPa)
#
#
# Indices 1 2 3 4 5 6 
#
# 1 64.6671 9.1909 17.7512 -2.4979 -6.1189 -19.5227
# 2 9.1909 119.1542 39.1032 -4.8130 12.3919 -24.7873
# 3 17.7512 39.1032 131.4746 -7.7769 3.8200 5.0918
# 4 -2.4979 -4.8130 -7.7769 44.1153 4.8829 -0.0052
# 5 -6.1189 12.3919 3.8200 4.8829 38.7763 -4.3759
# 6 -19.5227 -24.7873 5.0918 -0.0052 -4.3759 46.9178
#
#
#
# Elastic Compliance Matrix: (Units=1/GPa)
#
#
# Indices 1 2 3 4 5 6 
#
# 1 0.019509 0.001191 -0.003465 0.000172 0.004090 0.009504
# 2 0.001191 0.011129 -0.003601 0.000912 -0.002390 0.006543
# 3 -0.003465 -0.003601 0.009415 0.001178 -0.000975 -0.004457
# 4 0.000172 0.000912 0.001178 0.023351 -0.003307 0.000120
# 5 0.004090 -0.002390 -0.000975 -0.003307 0.028068 0.003162
# 6 0.009504 0.006543 -0.004457 0.000120 0.003162 0.029504
#
#
# Mechanical properties :
#
#
# Convention : Reuss Voigt Hill
#
# Bulk Modulus (GPa) = 35.33113 49.70960 42.52037
# Shear Modulus (GPa) = 35.17178 42.57860 38.87519
#
# Velocity S-wave (km/s) = 3.84818 4.23403 4.04570
# Velocity P-wave (km/s) = 5.88389 6.69567 6.30286
#
# Compressibility (1/GPa) = 0.02830365
#
# Stress axis : x y z
#
# Youngs Moduli (GPa) = 51.25923 89.85650 106.20884
#
# Poissons Ratio (x) = -0.10703 0.36801
# Poissons Ratio (y) = -0.06105 0.38243
# Poissons Ratio (z) = 0.17761 0.32355
#
# Static dielectric constant tensor:
#      x y z
#    x 1.908310 -0.047210 -0.031370 
#    y -0.047210 1.985010 0.113290 
#    z -0.031370 0.113290 1.988300 
# 
# From -- ./inp_files/494238.got.cif
#   From: 2010.05.17/outbox.cif.g08.bks.cpg/sg2_248_cif.got.tgz:494238.got - 2010.06.03 11:33:40.
