data_PCOD9045489
_publ_section_title
;
Structure prediction by ZEFSAII (Michael W. Deem and Ramdas Pophale) SiO2 
 PCOD9045489
Probable space group: P -1
;
_chemical_formula_sum "Si O2"
_cell_formula_units_Z 16
_cell_length_a 8.840543
_cell_length_b 11.995686
_cell_length_c 9.237074
_cell_angle_alpha 79.653608
_cell_angle_beta 132.598199
_cell_angle_gamma 90.977922
_cell_volume 701.935348
_symmetry_space_group_name_H-M "P -1"
_symmetry_group_IT_number 2
_symmetry_cell_setting 'triclinic'
loop_
_space_group_symop_operation_xyz
x,y,z
-x,-y,-z
loop_
_atom_site_type_symbol
_atom_site_label
_atom_site_fract_x
_atom_site_fract_y
_atom_site_fract_z
Si Si1 0.743261 0.942584 0.639995
Si Si2 0.403890 0.361813 0.236513
Si Si3 0.044949 0.218529 0.958195
Si Si4 0.456168 0.239897 0.581197
Si Si5 0.311436 0.614513 0.148643
Si Si6 0.438723 0.123855 0.868768
Si Si7 0.655209 0.297428 0.155885
Si Si8 0.038432 0.858661 0.398834
O O1 0.736184 0.821260 0.582410
O O2 0.500000 0.000000 0.500000
O O3 0.860047 0.027650 0.601526
O O4 0.869268 0.900549 0.876600
O O5 0.523715 0.282533 0.458166
O O6 0.307079 0.482885 0.211727
O O7 0.546023 0.381409 0.188210
O O8 0.230284 0.293570 0.075730
O O9 0.851190 0.294212 0.893216
O O10 0.984733 0.197096 0.760623
O O11 0.466009 0.350619 0.662931
O O12 0.547924 0.143087 0.780776
O O13 0.269442 0.636433 0.947004
O O14 0.193213 0.131104 0.692173
O O15 0.505165 0.216198 0.002236
O O16 0.500000 0.000000 0.000000
O O17 0.820486 0.213981 0.374679
#
# Coordination Sequence:
#
# PCOD9045489 Si02
#       8
#     2   2   2   2   2   2   2   2
#     4  11  24  40  69  99 135 182 227 274 341 417
#     4  11  22  46  71  95 134 181 228 287 345 399
#     4  11  24  42  65 102 134 172 238 278 334 417
#     4  10  24  40  68  96 135 169 235 271 335 408
#     4  11  24  43  70  98 132 180 227 292 347 390
#     4  11  26  43  67 104 144 182 223 282 341 412
#     4  11  25  45  68 102 140 174 232 281 340 416
#     4  12  25  43  70  97 145 184 219 274 354 404
#
# _framework density 22.794121000000001
#
# number of rings (size 3 to 8) (size 9 to 14) (size 15 to 20)
#    0.000    1.000    1.250    5.250    8.750    1.000 
#    0.000    0.625    0.000    0.000    0.000    0.000 
#    0.000    0.000    0.000    0.000    0.000    0.000 
#
# Total GULP energy -89219.903024 kJ/mol
# GULP energy per Si atom -5576.243939 kJ/mol
# Density = 2.274224 g / cm^3
# Si number density = 22.794121 Si / 1000 Ang^3
#
#
#
# Elastic Constant Matrix: (Units=GPa)
#
#
# Indices 1 2 3 4 5 6 
#
# 1 75.5069 -3.3305 61.6637 -18.0305 -19.4716 -21.3861
# 2 -3.3305 45.8955 43.6842 -7.7351 -7.8392 -4.9962
# 3 61.6637 43.6842 131.2764 16.5288 -21.0461 13.7725
# 4 -18.0305 -7.7351 16.5288 25.8208 -0.4163 -8.4341
# 5 -19.4716 -7.8392 -21.0461 -0.4163 48.0316 1.8853
# 6 -21.3861 -4.9962 13.7725 -8.4341 1.8853 19.1994
#
#
#
# Elastic Compliance Matrix: (Units=1/GPa)
#
#
# Indices 1 2 3 4 5 6 
#
# 1 -0.000761 -0.011091 0.007691 -0.013808 0.001739 -0.015487
# 2 -0.011091 0.012707 0.004452 -0.012597 0.000117 -0.017787
# 3 0.007691 0.004452 0.000159 0.011309 0.003453 0.014240
# 4 -0.013808 -0.012597 0.011309 0.010925 -0.001748 -0.021800
# 5 0.001739 0.000117 0.003453 -0.001748 0.023181 -0.003553
# 6 -0.015487 -0.017787 0.014240 -0.021800 -0.003553 0.010763
#
#
# Mechanical properties :
#
#
# Convention : Reuss Voigt Hill
#
# Bulk Modulus (GPa) = 70.38297 50.74596 60.56447
# Shear Modulus (GPa) = 83.88451 28.65445 56.26948
#
# Velocity S-wave (km/s) = 6.07296 3.54940 4.97389
# Velocity P-wave (km/s) = 8.95093 6.25370 7.72101
#
# Compressibility (1/GPa) = 0.01420798
#
# Stress axis : x y z
#
# Youngs Moduli (GPa) = -1313.65933 78.69971 6279.03121
#
# Poissons Ratio (x) = 0.87288 -48.28907
# Poissons Ratio (y) = -14.57018 -27.95725
# Poissons Ratio (z) = 10.10274 -0.35041
#
# Static dielectric constant tensor:
#      x y z
#    x 1.981560 -0.088780 0.133550 
#    y -0.088780 1.955450 -0.119970 
#    z 0.133550 -0.119970 2.038990 
# 
# From -- ./inp_files/187031.got.cif
#   From: 2010.05.17/outbox.cif.g08.bks.cpg/sg2_94_cif.got.tgz:187031.got - 2010.06.03 11:33:40.
