data_PCOD9045546
_publ_section_title
;
Structure prediction by ZEFSAII (Michael W. Deem and Ramdas Pophale) SiO2 
 PCOD9045546
Probable space group: P -1
;
_chemical_formula_sum "Si O2"
_cell_formula_units_Z 14
_cell_length_a 14.323226
_cell_length_b 12.410235
_cell_length_c 8.446940
_cell_angle_alpha 126.839063
_cell_angle_beta 33.731725
_cell_angle_gamma 135.937821
_cell_volume 579.835829
_symmetry_space_group_name_H-M "P -1"
_symmetry_group_IT_number 2
_symmetry_cell_setting 'triclinic'
loop_
_space_group_symop_operation_xyz
x,y,z
-x,-y,-z
loop_
_atom_site_type_symbol
_atom_site_label
_atom_site_fract_x
_atom_site_fract_y
_atom_site_fract_z
Si Si1 0.732797 0.189753 0.874689
Si Si2 0.904532 0.965178 0.429634
Si Si3 0.717411 0.605439 0.349793
Si Si4 0.519121 0.051773 0.757493
Si Si5 0.406796 0.577147 0.314112
Si Si6 0.983192 0.472239 0.309946
Si Si7 0.289731 0.084089 0.824363
O O1 0.600090 0.169106 0.892448
O O2 0.909308 0.359476 0.777602
O O3 0.798693 0.063424 0.644866
O O4 0.609154 0.123411 0.148489
O O5 0.771574 0.782849 0.439680
O O6 0.000000 0.000000 0.500000
O O7 0.070989 0.028756 0.120208
O O8 0.500000 0.500000 0.500000
O O9 0.701602 0.535101 0.484971
O O10 0.886763 0.599994 0.002625
O O11 0.390724 0.087157 0.852279
O O12 0.688242 0.043124 0.418829
O O13 0.587222 0.741320 0.257837
O O14 0.242574 0.605052 0.486178
O O15 0.500000 0.500000 0.000000
O O16 0.000000 0.500000 0.500000
#
# Coordination Sequence:
#
# PCOD9045546 Si02
#       7
#     2   2   2   2   2   2   2
#     4  11  24  44  72  99 142 187 245 288 362 430
#     4  12  26  46  75 105 144 191 247 297 361 435
#     4  12  30  49  74 111 155 196 246 312 375 438
#     4  10  24  40  71  98 135 181 241 293 347 423
#     4  12  26  46  74 107 151 191 241 305 377 438
#     4  12  27  47  76 108 151 196 247 304 381 444
#     4  11  24  43  71 100 141 179 243 289 359 428
#
# _framework density 24.144763999999999
#
# number of rings (size 3 to 8) (size 9 to 14) (size 15 to 20)
#    0.000    0.571    1.429    5.571   12.000    0.571 
#    0.000    0.000    0.000    0.000    0.000    0.000 
#    0.000    0.000    0.000    0.000    0.000    0.000 
#
# Total GULP energy -78433.890104 kJ/mol
# GULP energy per Si atom -5602.420722 kJ/mol
# Density = 2.408981 g / cm^3
# Si number density = 24.144764 Si / 1000 Ang^3
#
#
#
# Elastic Constant Matrix: (Units=GPa)
#
#
# Indices 1 2 3 4 5 6 
#
# 1 63.5510 -12.4278 10.5089 8.6218 -7.6546 0.2969
# 2 -12.4278 119.1278 14.3951 0.1162 -9.4589 14.8547
# 3 10.5089 14.3951 164.0007 17.3326 -8.6959 2.8286
# 4 8.6218 0.1162 17.3326 47.3381 -2.1857 -6.9432
# 5 -7.6546 -9.4589 -8.6959 -2.1857 26.4801 -10.3973
# 6 0.2969 14.8547 2.8286 -6.9432 -10.3973 25.1699
#
#
#
# Elastic Compliance Matrix: (Units=1/GPa)
#
#
# Indices 1 2 3 4 5 6 
#
# 1 0.017320 0.002327 -0.000750 -0.002638 0.005373 -0.000001
# 2 0.002327 0.009495 -0.000712 -0.000845 0.001778 -0.005050
# 3 -0.000750 -0.000712 0.006522 -0.002242 0.001341 -0.000369
# 4 -0.002638 -0.000845 -0.002242 0.023901 0.003662 0.008888
# 5 0.005373 0.001778 0.001341 0.003662 0.048455 0.019763
# 6 -0.000001 -0.005050 -0.000369 0.008888 0.019763 0.053367
#
#
# Mechanical properties :
#
#
# Convention : Reuss Voigt Hill
#
# Bulk Modulus (GPa) = 28.51754 41.29240 34.90497
# Shear Modulus (GPa) = 29.58255 42.07785 35.83020
#
# Velocity S-wave (km/s) = 3.50411 4.17913 3.85642
# Velocity P-wave (km/s) = 5.31116 6.35814 5.85809
#
# Compressibility (1/GPa) = 0.03506614
#
# Stress axis : x y z
#
# Youngs Moduli (GPa) = 57.73835 105.32099 153.31551
#
# Poissons Ratio (x) = -0.24507 0.11504
# Poissons Ratio (y) = -0.13435 0.10913
# Poissons Ratio (z) = 0.04333 0.07497
#
# Static dielectric constant tensor:
#      x y z
#    x 2.096960 0.031860 0.009740 
#    y 0.031860 1.895250 -0.009210 
#    z 0.009740 -0.009210 1.964540 
# 
# From -- ./inp_files/240784.got.cif
#   From: 2010.05.17/outbox.cif.g08.bks.cpg/sg2_121_cif.got.tgz:240784.got - 2010.06.03 11:33:40.
