data_PCOD9045229
_publ_section_title
;
Structure prediction by ZEFSAII (Michael W. Deem and Ramdas Pophale) SiO2 
 PCOD9045229
Probable space group: P -1
;
_chemical_formula_sum "Si O2"
_cell_formula_units_Z 16
_cell_length_a 20.112815
_cell_length_b 8.505011
_cell_length_c 19.397303
_cell_angle_alpha 138.959021
_cell_angle_beta 157.332729
_cell_angle_gamma 29.107123
_cell_volume 597.633709
_symmetry_space_group_name_H-M "P -1"
_symmetry_group_IT_number 2
_symmetry_cell_setting 'triclinic'
loop_
_space_group_symop_operation_xyz
x,y,z
-x,-y,-z
loop_
_atom_site_type_symbol
_atom_site_label
_atom_site_fract_x
_atom_site_fract_y
_atom_site_fract_z
Si Si1 0.762440 0.431571 0.768661
Si Si2 0.864583 0.125857 0.271980
Si Si3 0.415282 0.301694 0.924042
Si Si4 0.900413 0.673787 0.732970
Si Si5 0.749509 0.254966 0.949511
Si Si6 0.374389 0.100769 0.326983
Si Si7 0.002209 0.378812 0.584760
Si Si8 0.278877 0.892960 0.502939
O O1 0.685560 0.731394 0.748806
O O2 0.562505 0.628069 0.702150
O O3 0.741716 0.228210 0.628933
O O4 0.035021 0.139684 0.955372
O O5 0.713393 0.441016 0.178100
O O6 0.900911 0.228034 0.412017
O O7 0.700131 0.050438 0.098246
O O8 0.127742 0.890508 0.412157
O O9 0.281359 0.178222 0.766618
O O10 0.356065 0.513894 0.006760
O O11 0.850338 0.635863 0.749620
O O12 0.966160 0.455116 0.656155
O O13 0.615086 0.005893 0.551516
O O14 0.096880 0.694791 0.927619
O O15 0.572392 0.237412 0.738308
O O16 0.846886 0.730555 0.509736
#
# Coordination Sequence:
#
# PCOD9045229 Si02
#       8
#     2   2   2   2   2   2   2   2
#     4  11  19  34  53  80 121 142 172 220 279 337
#     4  10  18  31  52  80 107 136 183 224 274 311
#     4   9  18  29  49  79 109 133 174 230 271 310
#     4  10  20  37  54  78 112 142 191 227 258 318
#     4  11  20  37  54  82 115 145 175 228 277 320
#     4  11  22  33  55  80 107 156 182 214 272 330
#     4  10  17  34  53  75 106 139 178 226 268 307
#     4  10  18  32  53  79 112 147 169 226 279 318
#
# _framework density 26.772251000000001
#
# number of rings (size 3 to 8) (size 9 to 14) (size 15 to 20)
#    0.000    1.750    5.000    3.750    0.000    0.000 
#    0.000    0.000    0.000    0.750    0.000    4.375 
#    0.000    0.000    0.000    0.000    0.000    0.000 
#
# Total GULP energy -89449.887072 kJ/mol
# GULP energy per Si atom -5590.617942 kJ/mol
# Density = 2.671132 g / cm^3
# Si number density = 26.772251 Si / 1000 Ang^3
#
#
#
# Elastic Constant Matrix: (Units=GPa)
#
#
# Indices 1 2 3 4 5 6 
#
# 1 88.9318 21.3122 35.7019 -4.2552 18.2160 -25.8203
# 2 21.3122 45.1508 23.1630 8.6389 8.6252 0.7538
# 3 35.7019 23.1630 96.5737 5.6966 35.9565 -4.7313
# 4 -4.2552 8.6389 5.6966 45.9197 -10.5100 11.4252
# 5 18.2160 8.6252 35.9565 -10.5100 37.9849 -8.0764
# 6 -25.8203 0.7538 -4.7313 11.4252 -8.0764 33.6912
#
#
#
# Elastic Compliance Matrix: (Units=1/GPa)
#
#
# Indices 1 2 3 4 5 6 
#
# 1 0.018736 -0.006709 -0.004589 0.000100 -0.000158 0.013793
# 2 -0.006709 0.028554 -0.003414 -0.004841 -0.002483 -0.005213
# 3 -0.004589 -0.003414 0.019695 -0.005548 -0.017856 -0.003073
# 4 0.000100 -0.004841 -0.005548 0.028022 0.012550 -0.007089
# 5 -0.000158 -0.002483 -0.017856 0.012550 0.048353 0.004762
# 6 0.013793 -0.005213 -0.003073 -0.007089 0.004762 0.043483
#
#
# Mechanical properties :
#
#
# Convention : Reuss Voigt Hill
#
# Bulk Modulus (GPa) = 26.62285 43.44559 35.03422
# Shear Modulus (GPa) = 21.85447 33.55112 27.70280
#
# Velocity S-wave (km/s) = 2.86021 3.54390 3.22026
# Velocity P-wave (km/s) = 4.56876 5.74532 5.19049
#
# Compressibility (1/GPa) = 0.03756172
#
# Stress axis : x y z
#
# Youngs Moduli (GPa) = 53.37228 35.02170 50.77456
#
# Poissons Ratio (x) = 0.23496 0.23300
# Poissons Ratio (y) = 0.35808 0.17333
# Poissons Ratio (z) = 0.24492 0.11955
#
# Static dielectric constant tensor:
#      x y z
#    x 2.070300 0.018090 -0.023550 
#    y 0.018090 2.158010 -0.031380 
#    z -0.023550 -0.031380 2.213320 
# 
# From -- ./inp_files/564734.got.cif
#   From: 2010.05.17/outbox.cif.g08.bks.cpg/sg2_283_cif.got.tgz:564734.got - 2010.06.03 11:33:40.
