data_PCOD9045214
_publ_section_title
;
Structure prediction by ZEFSAII (Michael W. Deem and Ramdas Pophale) SiO2 
 PCOD9045214
Probable space group: P -1
;
_chemical_formula_sum "Si O2"
_cell_formula_units_Z 16
_cell_length_a 7.853564
_cell_length_b 10.472526
_cell_length_c 14.558927
_cell_angle_alpha 61.235977
_cell_angle_beta 85.128168
_cell_angle_gamma 41.294670
_cell_volume 608.392044
_symmetry_space_group_name_H-M "P -1"
_symmetry_group_IT_number 2
_symmetry_cell_setting 'triclinic'
loop_
_space_group_symop_operation_xyz
x,y,z
-x,-y,-z
loop_
_atom_site_type_symbol
_atom_site_label
_atom_site_fract_x
_atom_site_fract_y
_atom_site_fract_z
Si Si1 0.594023 0.859363 0.925056
Si Si2 0.972189 0.575558 0.310604
Si Si3 0.530749 0.679106 0.363936
Si Si4 0.576723 0.340075 0.922963
Si Si5 0.423299 0.693418 0.563138
Si Si6 0.732950 0.182602 0.273071
Si Si7 0.116344 0.467809 0.149733
Si Si8 0.940113 0.014555 0.843865
O O1 0.778825 0.706118 0.876874
O O2 0.286813 0.138671 0.810045
O O3 0.511965 0.760141 0.009105
O O4 0.830820 0.752911 0.026122
O O5 0.832443 0.557768 0.393069
O O6 0.252724 0.468733 0.370222
O O7 0.047287 0.439725 0.259264
O O8 0.371608 0.794899 0.429312
O O9 0.579310 0.478929 0.396751
O O10 0.321802 0.894852 0.221185
O O11 0.289951 0.629756 0.810554
O O12 0.778327 0.251562 0.029644
O O13 0.782277 0.204616 0.869802
O O14 0.235482 0.865636 0.603037
O O15 0.403888 0.361831 0.198460
O O16 0.944179 0.977378 0.254306
#
# Coordination Sequence:
#
# PCOD9045214 Si02
#       8
#     2   2   2   2   2   2   2   2
#     4  11  23  39  60  93 133 171 212 257 318 392
#     4  11  24  43  68  92 129 171 212 270 324 378
#     4  11  23  45  71  95 125 172 220 272 320 381
#     4  11  23  37  62  96 132 170 208 264 318 393
#     4  10  24  45  70  95 126 169 223 271 323 373
#     4  11  23  40  63  94 135 171 207 271 319 381
#     4  10  24  37  59  94 134 169 211 258 319 387
#     4  11  23  36  66  93 130 170 213 256 327 382
#
# _framework density 26.298829999999999
#
# number of rings (size 3 to 8) (size 9 to 14) (size 15 to 20)
#    0.000    1.250    2.500    2.625    7.000    1.500 
#    0.000    0.000    0.000    2.250    0.000    0.000 
#    0.000    0.000    0.000    0.000    0.000    0.000 
#
# Total GULP energy -89447.526097 kJ/mol
# GULP energy per Si atom -5590.470381 kJ/mol
# Density = 2.623897 g / cm^3
# Si number density = 26.298830 Si / 1000 Ang^3
#
#
#
# Elastic Constant Matrix: (Units=GPa)
#
#
# Indices 1 2 3 4 5 6 
#
# 1 115.2948 15.4338 16.8674 9.6359 6.5486 -16.2622
# 2 15.4338 119.4571 37.0793 41.6389 -8.3157 -15.7657
# 3 16.8674 37.0793 126.9388 42.5368 22.7573 2.6196
# 4 9.6359 41.6389 42.5368 54.0820 -7.6275 -3.4148
# 5 6.5486 -8.3157 22.7573 -7.6275 40.4687 5.9547
# 6 -16.2622 -15.7657 2.6196 -3.4148 5.9547 33.3260
#
#
#
# Elastic Compliance Matrix: (Units=1/GPa)
#
#
# Indices 1 2 3 4 5 6 
#
# 1 0.009704 -0.000178 -0.000546 -0.001166 -0.002252 0.004977
# 2 -0.000178 0.012262 -0.001112 -0.008098 0.000941 0.004803
# 3 -0.000546 -0.001112 0.013938 -0.011495 -0.009956 -0.001287
# 4 -0.001166 -0.008098 -0.011495 0.035538 0.011981 -0.001996
# 5 -0.002252 0.000941 -0.009956 0.011981 0.033814 -0.004686
# 6 0.004977 0.004803 -0.001287 -0.001996 -0.004686 0.035442
#
#
# Mechanical properties :
#
#
# Convention : Reuss Voigt Hill
#
# Bulk Modulus (GPa) = 31.02385 55.60575 43.31480
# Shear Modulus (GPa) = 32.23443 45.06267 38.64855
#
# Velocity S-wave (km/s) = 3.50480 4.14392 3.83768
# Velocity P-wave (km/s) = 5.31040 6.63971 6.01191
#
# Compressibility (1/GPa) = 0.03223326
#
# Stress axis : x y z
#
# Youngs Moduli (GPa) = 103.04511 81.55595 71.74414
#
# Poissons Ratio (x) = 0.01450 0.03915
# Poissons Ratio (y) = 0.01832 0.07979
# Poissons Ratio (z) = 0.05623 0.09070
#
# Static dielectric constant tensor:
#      x y z
#    x 2.123320 -0.021730 -0.003520 
#    y -0.021730 2.092390 -0.029470 
#    z -0.003520 -0.029470 2.043960 
# 
# From -- ./inp_files/500278.got.cif
#   From: 2010.05.17/outbox.cif.g08.bks.cpg/sg2_251_cif.got.tgz:500278.got - 2010.06.03 11:33:40.
