data_PCOD9045184
_publ_section_title
;
Structure prediction by ZEFSAII (Michael W. Deem and Ramdas Pophale) SiO2 
 PCOD9045184
Probable space group: P -1
;
_chemical_formula_sum "Si O2"
_cell_formula_units_Z 14
_cell_length_a 17.560298
_cell_length_b 8.409092
_cell_length_c 6.125284
_cell_angle_alpha 128.490756
_cell_angle_beta 57.063922
_cell_angle_gamma 108.039974
_cell_volume 593.605200
_symmetry_space_group_name_H-M "P -1"
_symmetry_group_IT_number 2
_symmetry_cell_setting 'triclinic'
loop_
_space_group_symop_operation_xyz
x,y,z
-x,-y,-z
loop_
_atom_site_type_symbol
_atom_site_label
_atom_site_fract_x
_atom_site_fract_y
_atom_site_fract_z
Si Si1 0.789532 0.349859 0.906456
Si Si2 0.825444 0.994320 0.849680
Si Si3 0.474840 0.197732 0.345116
Si Si4 0.304162 0.326060 0.998335
Si Si5 0.943278 0.200396 0.204561
Si Si6 0.920125 0.634458 0.132091
Si Si7 0.422998 0.515857 0.318092
O O1 0.767958 0.146749 0.904600
O O2 0.872210 0.273050 0.557171
O O3 0.724990 0.492786 0.972993
O O4 0.830656 0.512103 0.144042
O O5 0.893090 0.844615 0.474993
O O6 0.883998 0.141545 0.034547
O O7 0.767914 0.840146 0.957022
O O8 0.389652 0.200821 0.646717
O O9 0.446124 0.360116 0.342602
O O10 0.561812 0.268681 0.407284
O O11 0.500000 0.000000 0.000000
O O12 0.335549 0.447651 0.267763
O O13 0.029680 0.336140 0.149225
O O14 0.000000 0.000000 0.000000
O O15 0.000000 0.500000 0.000000
O O16 0.500000 0.500000 0.000000
#
# Coordination Sequence:
#
# PCOD9045184 Si02
#       7
#     2   2   2   2   2   2   2
#     4  12  27  47  70 106 149 194 244 307 372 416
#     4  12  27  47  68 109 148 190 248 300 374 422
#     4  10  23  51  81 108 139 190 237 285 361 443
#     4  11  27  48  72 109 154 184 237 306 361 437
#     4  12  23  45  71  99 141 194 254 301 354 432
#     4  12  23  45  73  97 145 197 252 306 355 427
#     4   9  22  49  74 108 144 181 234 285 360 445
#
# _framework density 23.584700999999999
#
# number of rings (size 3 to 8) (size 9 to 14) (size 15 to 20)
#    0.000    0.857    2.857    3.429    2.000    2.286 
#   20.571    0.000    0.000    0.000    0.000    0.000 
#    0.000    0.000    0.000    0.000    0.000    0.000 
#
# Total GULP energy -78120.627719 kJ/mol
# GULP energy per Si atom -5580.044837 kJ/mol
# Density = 2.353102 g / cm^3
# Si number density = 23.584701 Si / 1000 Ang^3
#
#
#
# Elastic Constant Matrix: (Units=GPa)
#
#
# Indices 1 2 3 4 5 6 
#
# 1 109.8782 37.8654 37.2498 7.5789 9.8084 -4.6560
# 2 37.8654 119.6770 37.6958 -0.8158 -8.9085 -5.8469
# 3 37.2498 37.6958 153.0758 -2.2679 -8.3859 21.0456
# 4 7.5789 -0.8158 -2.2679 36.7162 9.6474 -1.5628
# 5 9.8084 -8.9085 -8.3859 9.6474 44.3670 1.8657
# 6 -4.6560 -5.8469 21.0456 -1.5628 1.8657 29.6355
#
#
#
# Elastic Compliance Matrix: (Units=1/GPa)
#
#
# Indices 1 2 3 4 5 6 
#
# 1 0.011606 -0.002899 -0.002787 -0.001576 -0.003474 0.003366
# 2 -0.002899 0.010237 -0.002099 0.000264 0.002119 0.002935
# 3 -0.002787 -0.002099 0.008845 0.000207 0.002126 -0.007256
# 4 -0.001576 0.000264 0.000207 0.029218 -0.005979 0.001574
# 5 -0.003474 0.002119 0.002126 -0.005979 0.025584 -0.003564
# 6 0.003366 0.002935 -0.007256 0.001574 -0.003564 0.040312
#
#
# Mechanical properties :
#
#
# Convention : Reuss Voigt Hill
#
# Bulk Modulus (GPa) = 66.14507 67.58366 66.86437
# Shear Modulus (GPa) = 34.15021 40.13174 37.14098
#
# Velocity S-wave (km/s) = 3.80936 4.12952 3.97267
# Velocity P-wave (km/s) = 6.88876 7.17323 7.03243
#
# Compressibility (1/GPa) = 0.01511828
#
# Stress axis : x y z
#
# Youngs Moduli (GPa) = 86.16027 97.68254 113.05938
#
# Poissons Ratio (x) = 0.28321 0.31507
# Poissons Ratio (y) = 0.24980 0.23732
# Poissons Ratio (z) = 0.24011 0.20504
#
# Static dielectric constant tensor:
#      x y z
#    x 1.732120 -0.032280 -0.001000 
#    y -0.032280 1.903710 -0.043040 
#    z -0.001000 -0.043040 1.869720 
# 
# From -- ./inp_files/8146.got.cif
#   From: 2010.05.17/outbox.cif.g08.bks.cpg/sg2_5_cif.got.tgz:8146.got - 2010.06.03 11:33:40.
