data_PCOD9045506
_publ_section_title
;
Structure prediction by ZEFSAII (Michael W. Deem and Ramdas Pophale) SiO2 
 PCOD9045506
Probable space group: P -1
;
_chemical_formula_sum "Si O2"
_cell_formula_units_Z 16
_cell_length_a 5.401843
_cell_length_b 11.822108
_cell_length_c 18.681879
_cell_angle_alpha 146.652335
_cell_angle_beta 87.956100
_cell_angle_gamma 89.946681
_cell_volume 654.396157
_symmetry_space_group_name_H-M "P -1"
_symmetry_group_IT_number 2
_symmetry_cell_setting 'triclinic'
loop_
_space_group_symop_operation_xyz
x,y,z
-x,-y,-z
loop_
_atom_site_type_symbol
_atom_site_label
_atom_site_fract_x
_atom_site_fract_y
_atom_site_fract_z
Si Si1 0.900293 0.444894 0.097287
Si Si2 0.820799 0.867000 0.976418
Si Si3 0.188622 0.501805 0.565472
Si Si4 0.467356 0.902145 0.768975
Si Si5 0.418508 0.328716 0.963417
Si Si6 0.767428 0.656483 0.736904
Si Si7 0.476398 0.241732 0.526556
Si Si8 0.194462 0.128916 0.611444
O O1 0.624910 0.368945 0.044585
O O2 0.906221 0.687391 0.239490
O O3 0.008274 0.328026 0.103319
O O4 0.124337 0.374605 0.003427
O O5 0.650638 0.769508 0.867177
O O6 0.696686 0.984712 0.106288
O O7 0.000000 0.000000 0.000000
O O8 0.363707 0.682693 0.635392
O O9 0.301452 0.282477 0.479405
O O10 0.000000 0.500000 0.500000
O O11 0.053037 0.590567 0.685884
O O12 0.720856 0.825031 0.763415
O O13 0.471027 0.090994 0.814523
O O14 0.500000 0.500000 0.000000
O O15 0.639003 0.440444 0.620622
O O16 0.341035 0.239864 0.604513
O O17 0.644806 0.031385 0.424779
O O18 0.000000 0.000000 0.500000
#
# Coordination Sequence:
#
# PCOD9045506 Si02
#       8
#     2   2   2   2   2   2   2   2
#     4  11  26  43  73 104 140 186 237 294 360 429
#     4  11  20  37  69 103 136 172 219 292 365 425
#     4  11  24  46  66 100 142 186 241 294 356 434
#     4  10  24  40  70 101 133 183 233 293 358 427
#     4  11  26  51  69 101 142 187 244 296 353 427
#     4  11  22  42  66  99 137 176 229 294 366 425
#     4  10  24  41  68  96 142 185 235 298 359 430
#     4  11  24  44  66 103 143 183 240 295 367 437
#
# _framework density 24.450021
#
# number of rings (size 3 to 8) (size 9 to 14) (size 15 to 20)
#    0.000    1.250    1.250    3.750   10.500    2.000 
#    6.750    0.000    0.000    0.000    0.000    0.000 
#    0.000    0.000    0.000    0.000    0.000    0.000 
#
# Total GULP energy -89194.932169 kJ/mol
# GULP energy per Si atom -5574.683261 kJ/mol
# Density = 2.439437 g / cm^3
# Si number density = 24.450021 Si / 1000 Ang^3
#
#
#
# Elastic Constant Matrix: (Units=GPa)
#
#
# Indices 1 2 3 4 5 6 
#
# 1 53.3443 13.9191 22.4823 10.1632 -9.3871 -10.2459
# 2 13.9191 145.7425 38.9610 45.7107 -8.3344 -21.3482
# 3 22.4823 38.9610 118.3393 29.9909 -23.1132 -19.8909
# 4 10.1632 45.7107 29.9909 50.7350 -7.4628 -2.2398
# 5 -9.3871 -8.3344 -23.1132 -7.4628 34.0587 5.4308
# 6 -10.2459 -21.3482 -19.8909 -2.2398 5.4308 48.4817
#
#
#
# Elastic Compliance Matrix: (Units=1/GPa)
#
#
# Indices 1 2 3 4 5 6 
#
# 1 0.021331 -0.000094 -0.002301 -0.002204 0.003326 0.003048
# 2 -0.000094 0.010356 -0.000569 -0.008867 -0.000450 0.003948
# 3 -0.002301 -0.000569 0.012068 -0.005167 0.005753 0.003331
# 4 -0.002204 -0.008867 -0.005167 0.031168 0.001375 -0.005204
# 5 0.003326 -0.000450 0.005753 0.001375 0.034523 -0.000939
# 6 0.003048 0.003948 0.003331 -0.005204 -0.000939 0.024240
#
#
# Mechanical properties :
#
#
# Convention : Reuss Voigt Hill
#
# Bulk Modulus (GPa) = 26.43605 52.01678 39.22642
# Shear Modulus (GPa) = 32.84666 42.79266 37.81966
#
# Velocity S-wave (km/s) = 3.66925 4.18809 3.93722
# Velocity P-wave (km/s) = 5.36534 6.68638 6.06196
#
# Compressibility (1/GPa) = 0.03782713
#
# Stress axis : x y z
#
# Youngs Moduli (GPa) = 46.87989 96.56101 82.86619
#
# Poissons Ratio (x) = 0.00908 0.19068
# Poissons Ratio (y) = 0.00441 0.04713
# Poissons Ratio (z) = 0.10787 0.05492
#
# Static dielectric constant tensor:
#      x y z
#    x 1.985420 -0.015230 0.042330 
#    y -0.015230 2.064140 -0.127360 
#    z 0.042330 -0.127360 2.031680 
# 
# From -- ./inp_files/71348.got.cif
#   From: 2010.05.17/outbox.cif.g08.bks.cpg/sg2_36_cif.got.tgz:71348.got - 2010.06.03 11:33:40.
