data_PCOD9045252
_publ_section_title
;
Structure prediction by ZEFSAII (Michael W. Deem and Ramdas Pophale) SiO2 
 PCOD9045252
Probable space group: P -1
;
_chemical_formula_sum "Si O2"
_cell_formula_units_Z 15
_cell_length_a 8.898239
_cell_length_b 26.050421
_cell_length_c 25.913242
_cell_angle_alpha 10.703754
_cell_angle_beta 36.827681
_cell_angle_gamma 36.329789
_cell_volume 658.806421
_symmetry_space_group_name_H-M "P -1"
_symmetry_group_IT_number 2
_symmetry_cell_setting 'triclinic'
loop_
_space_group_symop_operation_xyz
x,y,z
-x,-y,-z
loop_
_atom_site_type_symbol
_atom_site_label
_atom_site_fract_x
_atom_site_fract_y
_atom_site_fract_z
Si Si1 0.724058 0.427878 0.740297
Si Si2 0.519566 0.504103 0.051878
Si Si3 0.273609 0.046718 0.396845
Si Si4 0.500000 0.000000 0.000000
Si Si5 0.264766 0.507456 0.502648
Si Si6 0.998533 0.117979 0.139209
Si Si7 0.670085 0.421006 0.389992
Si Si8 0.292161 0.047204 0.711050
O O1 0.485635 0.515894 0.681793
O O2 0.980934 0.481562 0.589070
O O3 0.709844 0.629967 0.594477
O O4 0.721120 0.120484 0.066938
O O5 0.580582 0.205106 0.358642
O O6 0.500000 0.500000 0.000000
O O7 0.738358 0.672094 0.844574
O O8 0.256447 0.688825 0.961502
O O9 0.451003 0.064413 0.280813
O O10 0.000000 0.000000 0.500000
O O11 0.317613 0.299246 0.742388
O O12 0.691220 0.182010 0.801050
O O13 0.473812 0.372740 0.536425
O O14 0.936781 0.997570 0.219585
O O15 0.107097 0.846604 0.411288
O O16 0.210761 0.312184 0.888588
#
# Coordination Sequence:
#
# PCOD9045252 Si02
#       8
#     2   2   2   1   2   2   2   2
#     4  12  26  43  67  96 137 176 223 282 340 391
#     4  11  24  45  70 103 136 178 219 277 336 400
#     4  11  24  45  70 103 136 178 219 277 336 400
#     4  10  24  38  66  98 120 166 234 266 336 394
#     4  11  25  42  64  98 132 172 232 276 340 384
#     4  11  25  44  67  98 134 177 223 275 330 401
#     4  12  26  43  67  96 137 176 223 282 340 391
#     4  11  25  44  67  98 134 177 223 275 330 401
#
# _framework density 22.768447999999999
#
# number of rings (size 3 to 8) (size 9 to 14) (size 15 to 20)
#    0.000    0.800    0.000    7.600   11.200    3.200 
#    0.000    4.000    0.000    0.000    0.000    0.000 
#    0.000    0.000    0.000    0.000    0.000    0.000 
#
# Total GULP energy -83726.344447 kJ/mol
# GULP energy per Si atom -5581.756296 kJ/mol
# Density = 2.271663 g / cm^3
# Si number density = 22.768448 Si / 1000 Ang^3
#
#
#
# Elastic Constant Matrix: (Units=GPa)
#
#
# Indices 1 2 3 4 5 6 
#
# 1 88.3056 24.9648 2.5873 22.1358 7.7586 -21.8795
# 2 24.9648 46.5448 3.4635 3.5645 -5.3905 5.4652
# 3 2.5873 3.4635 94.0527 6.2328 -0.1189 -14.6170
# 4 22.1358 3.5645 6.2328 24.7972 -10.7902 -3.7824
# 5 7.7586 -5.3905 -0.1189 -10.7902 38.1928 -2.4899
# 6 -21.8795 5.4652 -14.6170 -3.7824 -2.4899 28.3253
#
#
#
# Elastic Compliance Matrix: (Units=1/GPa)
#
#
# Indices 1 2 3 4 5 6 
#
# 1 0.033037 -0.020901 0.006113 -0.031150 -0.016677 0.027081
# 2 -0.020901 0.035895 -0.005342 0.016899 0.012605 -0.022462
# 3 0.006113 -0.005342 0.012889 -0.007726 -0.003417 0.011072
# 4 -0.031150 0.016899 -0.007726 0.077653 0.029431 -0.018352
# 5 -0.016677 0.012605 -0.003417 0.029431 0.039021 -0.009717
# 6 0.027081 -0.022462 0.011072 -0.018352 -0.009717 0.062965
#
#
# Mechanical properties :
#
#
# Convention : Reuss Voigt Hill
#
# Bulk Modulus (GPa) = 24.05980 32.32604 28.19292
# Shear Modulus (GPa) = 15.84413 31.45558 23.64986
#
# Velocity S-wave (km/s) = 2.64082 3.72094 3.22640
# Velocity P-wave (km/s) = 4.45967 5.71744 5.12727
#
# Compressibility (1/GPa) = 0.04156311
#
# Stress axis : x y z
#
# Youngs Moduli (GPa) = 30.26874 27.85865 77.58395
#
# Poissons Ratio (x) = 0.58226 -0.47425
# Poissons Ratio (y) = 0.63263 0.41443
# Poissons Ratio (z) = -0.18502 0.14881
#
# Static dielectric constant tensor:
#      x y z
#    x 1.843080 0.035610 0.066640 
#    y 0.035610 1.830230 -0.121100 
#    z 0.066640 -0.121100 1.394910 
# 
# From -- ./inp_files/617629.got.cif
#   From: 2010.05.17/outbox.cif.g08.bks.cpg/sg2_309_cif.got.tgz:617629.got - 2010.06.03 11:33:40.
