data_PCOD9045542
_publ_section_title
;
Structure prediction by ZEFSAII (Michael W. Deem and Ramdas Pophale) SiO2 
 PCOD9045542
Probable space group: P -1
;
_chemical_formula_sum "Si O2"
_cell_formula_units_Z 14
_cell_length_a 11.917133
_cell_length_b 12.216097
_cell_length_c 11.390269
_cell_angle_alpha 93.481085
_cell_angle_beta 138.148162
_cell_angle_gamma 120.950452
_cell_volume 598.921449
_symmetry_space_group_name_H-M "P -1"
_symmetry_group_IT_number 2
_symmetry_cell_setting 'triclinic'
loop_
_space_group_symop_operation_xyz
x,y,z
-x,-y,-z
loop_
_atom_site_type_symbol
_atom_site_label
_atom_site_fract_x
_atom_site_fract_y
_atom_site_fract_z
Si Si1 0.738480 0.236820 0.202973
Si Si2 0.978726 0.217180 0.217300
Si Si3 0.718086 0.208377 0.441904
Si Si4 0.594141 0.228318 0.593808
Si Si5 0.170558 0.065564 0.757403
Si Si6 0.818231 0.585185 0.846406
Si Si7 0.050910 0.200375 0.835682
O O1 0.984686 0.331445 0.306797
O O2 0.854135 0.319139 0.430428
O O3 0.509357 0.209301 0.992782
O O4 0.500000 0.000000 0.000000
O O5 0.181097 0.345703 0.268215
O O6 0.002144 0.126506 0.317114
O O7 0.635289 0.014245 0.880026
O O8 0.695211 0.275456 0.539826
O O9 0.907532 0.207054 0.631840
O O10 0.624009 0.367911 0.671322
O O11 0.243792 0.999931 0.329344
O O12 0.834324 0.277338 0.849756
O O13 0.191375 0.177505 0.871431
O O14 0.000000 0.000000 0.500000
O O15 0.738519 0.617124 0.897554
#
# Coordination Sequence:
#
# PCOD9045542 Si02
#       7
#     2   2   2   2   2   2   2
#     4   8  17  30  53  78 103 138 179 221 253 314
#     4  10  17  34  54  78 111 136 181 222 254 317
#     4   9  15  32  53  78 103 139 178 215 259 309
#     4  10  19  32  55  82 109 139 180 214 259 320
#     4  10  20  31  54  85 102 141 181 213 273 318
#     4  10  20  33  54  85 106 141 178 216 263 311
#     4  11  18  33  57  80 111 137 172 221 265 316
#
# _framework density 23.375353
#
# number of rings (size 3 to 8) (size 9 to 14) (size 15 to 20)
#    0.000    2.571    2.857    3.429    0.000    0.571 
#    0.000    1.429    0.000    0.857    0.000    0.000 
#    0.000    0.000    0.000    0.000    0.000    0.000 
#
# Total GULP energy -78225.976514 kJ/mol
# GULP energy per Si atom -5587.569751 kJ/mol
# Density = 2.332215 g / cm^3
# Si number density = 23.375353 Si / 1000 Ang^3
#
#
#
# Elastic Constant Matrix: (Units=GPa)
#
#
# Indices 1 2 3 4 5 6 
#
# 1 160.5936 62.3252 48.0951 -19.6433 -24.7704 -27.7763
# 2 62.3252 104.2595 45.5218 -23.1814 -26.1249 -6.9425
# 3 48.0951 45.5218 69.2607 -18.1065 -22.3172 2.7312
# 4 -19.6433 -23.1814 -18.1065 35.7053 6.3597 -8.7626
# 5 -24.7704 -26.1249 -22.3172 6.3597 31.3753 -4.7850
# 6 -27.7763 -6.9425 2.7312 -8.7626 -4.7850 40.9396
#
#
#
# Elastic Compliance Matrix: (Units=1/GPa)
#
#
# Indices 1 2 3 4 5 6 
#
# 1 0.010968 -0.002236 -0.004039 0.003870 0.004464 0.008681
# 2 -0.002236 0.017051 -0.005591 0.006627 0.007734 0.004070
# 3 -0.004039 -0.005591 0.024948 0.004453 0.008479 -0.003408
# 4 0.003870 0.006627 0.004453 0.038712 0.005786 0.012414
# 5 0.004464 0.007734 0.008479 0.005786 0.048320 0.010661
# 6 0.008681 0.004070 -0.003408 0.012414 0.010661 0.035137
#
#
# Mechanical properties :
#
#
# Convention : Reuss Voigt Hill
#
# Bulk Modulus (GPa) = 34.20415 71.77756 52.99085
# Shear Modulus (GPa) = 23.96797 33.48216 28.72506
#
# Velocity S-wave (km/s) = 3.20559 3.78877 3.50931
# Velocity P-wave (km/s) = 5.32592 7.06491 6.25613
#
# Compressibility (1/GPa) = 0.02923622
#
# Stress axis : x y z
#
# Youngs Moduli (GPa) = 91.17824 58.64689 40.08348
#
# Poissons Ratio (x) = 0.13113 0.16189
# Poissons Ratio (y) = 0.20386 0.22409
# Poissons Ratio (z) = 0.36825 0.32787
#
# Static dielectric constant tensor:
#      x y z
#    x 1.930930 0.010690 0.036270 
#    y 0.010690 1.894220 0.025410 
#    z 0.036270 0.025410 1.905780 
# 
# From -- ./inp_files/428472.got.cif
#   From: 2010.05.17/outbox.cif.g08.bks.cpg/sg2_215_cif.got.tgz:428472.got - 2010.06.03 11:33:40.
