data_PCOD9045201
_publ_section_title
;
Structure prediction by ZEFSAII (Michael W. Deem and Ramdas Pophale) SiO2 
 PCOD9045201
Probable space group: P -1
;
_chemical_formula_sum "Si O2"
_cell_formula_units_Z 16
_cell_length_a 18.340393
_cell_length_b 12.331461
_cell_length_c 5.148183
_cell_angle_alpha 114.498933
_cell_angle_beta 125.958419
_cell_angle_gamma 64.607570
_cell_volume 830.023082
_symmetry_space_group_name_H-M "P -1"
_symmetry_group_IT_number 2
_symmetry_cell_setting 'triclinic'
loop_
_space_group_symop_operation_xyz
x,y,z
-x,-y,-z
loop_
_atom_site_type_symbol
_atom_site_label
_atom_site_fract_x
_atom_site_fract_y
_atom_site_fract_z
Si Si1 0.942818 0.934319 0.617930
Si Si2 0.685159 0.326408 0.195422
Si Si3 0.329793 0.124803 0.317764
Si Si4 0.222236 0.011231 0.346601
Si Si5 0.384905 0.244283 0.060016
Si Si6 0.874552 0.158982 0.304828
Si Si7 0.406907 0.877728 0.448866
Si Si8 0.611114 0.479775 0.696237
O O1 0.025188 0.826030 0.562245
O O2 0.854630 0.906109 0.547411
O O3 0.901654 0.041122 0.432506
O O4 0.000000 0.000000 0.000000
O O5 0.796440 0.268993 0.371380
O O6 0.649608 0.381314 0.453674
O O7 0.634181 0.221687 0.890671
O O8 0.656031 0.429872 0.015472
O O9 0.328630 0.187550 0.101149
O O10 0.237885 0.088826 0.202665
O O11 0.403222 0.991732 0.362002
O O12 0.359068 0.209592 0.684011
O O13 0.329773 0.944348 0.570264
O O14 0.180315 0.894177 0.087669
O O15 0.493407 0.181952 0.284778
O O16 0.368917 0.389848 0.199207
O O17 0.500000 0.500000 0.500000
#
# Coordination Sequence:
#
# PCOD9045201 Si02
#       8
#     2   2   2   2   2   2   2   2
#     4   9  17  32  55  86 125 146 179 229 308 380
#     4  11  24  39  62  87 118 159 199 244 296 346
#     4  10  24  36  58  85 118 159 191 243 297 350
#     4   8  19  32  52  85 118 150 182 225 299 361
#     4  12  23  40  55  80 119 161 209 242 275 341
#     4   9  19  33  56  87 123 149 184 238 300 370
#     4   9  21  36  58  86 120 153 195 241 301 351
#     4  12  26  41  60  81 115 166 213 247 283 324
#
# _framework density 19.276572999999999
#
# number of rings (size 3 to 8) (size 9 to 14) (size 15 to 20)
#    0.750    1.250    1.250    1.875    8.750    1.000 
#    2.250    0.000    0.000    0.000    0.000    5.250 
#    0.000    0.000    0.000    0.000    0.000    0.000 
#
# Total GULP energy -89144.711693 kJ/mol
# GULP energy per Si atom -5571.544481 kJ/mol
# Density = 1.923270 g / cm^3
# Si number density = 19.276573 Si / 1000 Ang^3
#
#
#
# Elastic Constant Matrix: (Units=GPa)
#
#
# Indices 1 2 3 4 5 6 
#
# 1 119.8529 28.2214 4.0720 -7.0677 17.2523 -20.4848
# 2 28.2214 61.1237 1.7204 5.3196 8.3587 -6.7203
# 3 4.0720 1.7204 42.6462 5.3114 -5.9091 -3.9899
# 4 -7.0677 5.3196 5.3114 30.1795 0.7270 5.3162
# 5 17.2523 8.3587 -5.9091 0.7270 21.9573 -1.3034
# 6 -20.4848 -6.7203 -3.9899 5.3162 -1.3034 32.6261
#
#
#
# Elastic Compliance Matrix: (Units=1/GPa)
#
#
# Indices 1 2 3 4 5 6 
#
# 1 0.011557 -0.003863 -0.001902 0.002956 -0.007898 0.005431
# 2 -0.003863 0.019339 -0.000217 -0.004548 -0.004110 0.002109
# 3 -0.001902 -0.000217 0.025893 -0.005747 0.008927 0.003221
# 4 0.002956 -0.004548 -0.005747 0.036773 -0.003707 -0.005924
# 5 -0.007898 -0.004110 0.008927 -0.003707 0.055726 -0.001883
# 6 0.005431 0.002109 0.003221 -0.005924 -0.001883 0.035778
#
#
# Mechanical properties :
#
#
# Convention : Reuss Voigt Hill
#
# Bulk Modulus (GPa) = 22.30846 32.40560 27.35703
# Shear Modulus (GPa) = 23.58798 29.59319 26.59059
#
# Velocity S-wave (km/s) = 3.50188 3.92240 3.71809
# Velocity P-wave (km/s) = 5.28667 6.11236 5.71445
#
# Compressibility (1/GPa) = 0.04482604
#
# Stress axis : x y z
#
# Youngs Moduli (GPa) = 86.52731 51.70777 38.62045
#
# Poissons Ratio (x) = 0.19973 0.07345
# Poissons Ratio (y) = 0.33422 0.00839
# Poissons Ratio (z) = 0.16457 0.01123
#
# Static dielectric constant tensor:
#      x y z
#    x 1.762850 -0.009680 -0.008530 
#    y -0.009680 1.669050 -0.001810 
#    z -0.008530 -0.001810 1.761570 
# 
# From -- ./inp_files/109406.got.cif
#   From: 2010.05.17/outbox.cif.g08.bks.cpg/sg2_55_cif.got.tgz:109406.got - 2010.06.03 11:33:40.
