data_PCOD9045475
_publ_section_title
;
Structure prediction by ZEFSAII (Michael W. Deem and Ramdas Pophale) SiO2 
 PCOD9045475
Probable space group: P -1
;
_chemical_formula_sum "Si O2"
_cell_formula_units_Z 12
_cell_length_a 5.624918
_cell_length_b 14.295463
_cell_length_c 8.877443
_cell_angle_alpha 52.161654
_cell_angle_beta 118.533162
_cell_angle_gamma 115.166428
_cell_volume 486.202215
_symmetry_space_group_name_H-M "P -1"
_symmetry_group_IT_number 2
_symmetry_cell_setting 'triclinic'
loop_
_space_group_symop_operation_xyz
x,y,z
-x,-y,-z
loop_
_atom_site_type_symbol
_atom_site_label
_atom_site_fract_x
_atom_site_fract_y
_atom_site_fract_z
Si Si1 0.081139 0.706610 0.253742
Si Si2 0.285220 0.588405 0.000678
Si Si3 0.459358 0.857330 0.761513
Si Si4 0.064982 0.990177 0.355332
Si Si5 0.637564 0.854832 0.121589
Si Si6 0.259882 0.526329 0.722147
O O1 0.365482 0.785232 0.196809
O O2 0.152364 0.623388 0.494044
O O3 0.846446 0.775908 0.182196
O O4 0.954343 0.600878 0.199996
O O5 0.310274 0.727754 0.901273
O O6 0.367909 0.590181 0.846887
O O7 0.485258 0.523566 0.223851
O O8 0.000000 0.500000 0.000000
O O9 0.283976 0.900499 0.530962
O O10 0.767552 0.877923 0.768469
O O11 0.526949 0.924422 0.877592
O O12 0.836849 0.937285 0.218231
O O13 0.000000 0.000000 0.500000
#
# Coordination Sequence:
#
# PCOD9045475 Si02
#       6
#     2   2   2   2   2   2
#     4  11  26  45  72 111 147 198 240 308 364 453
#     4  11  23  41  72 106 147 195 241 306 368 444
#     4  11  26  49  73 109 150 193 256 304 378 438
#     4  11  29  47  77 106 147 198 251 317 371 442
#     4  12  27  49  79 107 151 194 251 307 377 436
#     4  10  24  40  68 105 152 189 249 289 378 436
#
# _framework density 24.681090000000001
#
# number of rings (size 3 to 8) (size 9 to 14) (size 15 to 20)
#    0.000    1.000    1.667    2.500   14.000    3.333 
#    0.000    0.000    0.000    0.000    0.000    0.000 
#    0.000    0.000    0.000    0.000    0.000    0.000 
#
# Total GULP energy -66910.565549 kJ/mol
# GULP energy per Si atom -5575.880462 kJ/mol
# Density = 2.462491 g / cm^3
# Si number density = 24.681090 Si / 1000 Ang^3
#
#
#
# Elastic Constant Matrix: (Units=GPa)
#
#
# Indices 1 2 3 4 5 6 
#
# 1 100.4541 35.0375 13.6313 -18.4255 -7.0075 23.1009
# 2 35.0375 93.0739 27.7636 20.8823 -2.7508 21.1686
# 3 13.6313 27.7636 99.6320 8.3399 8.8331 2.7487
# 4 -18.4255 20.8823 8.3399 45.5372 3.5218 -4.5925
# 5 -7.0075 -2.7508 8.8331 3.5218 39.9455 -1.1155
# 6 23.1009 21.1686 2.7487 -4.5925 -1.1155 49.7146
#
#
#
# Elastic Compliance Matrix: (Units=1/GPa)
#
#
# Indices 1 2 3 4 5 6 
#
# 1 0.014770 -0.006424 -0.001001 0.008662 0.001516 -0.003239
# 2 -0.006424 0.017819 -0.003171 -0.010858 0.001608 -0.005394
# 3 -0.001001 -0.003171 0.011336 -0.000703 -0.002809 0.001061
# 4 0.008662 -0.010858 -0.000703 0.031055 -0.001714 0.003468
# 5 0.001516 0.001608 -0.002809 -0.001714 0.026161 -0.000805
# 6 -0.003239 -0.005394 0.001061 0.003468 -0.000805 0.024160
#
#
# Mechanical properties :
#
#
# Convention : Reuss Voigt Hill
#
# Bulk Modulus (GPa) = 43.98807 49.55832 46.77319
# Shear Modulus (GPa) = 32.45254 41.48795 36.97024
#
# Velocity S-wave (km/s) = 3.63005 4.10440 3.87449
# Velocity P-wave (km/s) = 5.95239 6.52568 6.24562
#
# Compressibility (1/GPa) = 0.02273344
#
# Stress axis : x y z
#
# Youngs Moduli (GPa) = 67.70286 56.12045 88.21274
#
# Poissons Ratio (x) = 0.36050 0.08829
# Poissons Ratio (y) = 0.43490 0.27976
# Poissons Ratio (z) = 0.06776 0.17798
#
# Static dielectric constant tensor:
#      x y z
#    x 2.237040 -0.072620 0.099790 
#    y -0.072620 2.034270 -0.066380 
#    z 0.099790 -0.066380 2.071980 
# 
# From -- ./inp_files/19293.got.cif
#   From: 2010.05.17/outbox.cif.g08.bks.cpg/sg2_10_cif.got.tgz:19293.got - 2010.06.03 11:33:40.
