data_PCOD9045907
_publ_section_title
;
Structure prediction by ZEFSAII (Michael W. Deem and Ramdas Pophale) SiO2 
 PCOD9045907
Probable space group: P -1
;
_chemical_formula_sum "Si O2"
_cell_formula_units_Z 15
_cell_length_a 9.073724
_cell_length_b 15.605454
_cell_length_c 6.715790
_cell_angle_alpha 53.997673
_cell_angle_beta 90.686764
_cell_angle_gamma 75.266653
_cell_volume 728.000015
_symmetry_space_group_name_H-M "P -1"
_symmetry_group_IT_number 2
_symmetry_cell_setting 'triclinic'
loop_
_space_group_symop_operation_xyz
x,y,z
-x,-y,-z
loop_
_atom_site_type_symbol
_atom_site_label
_atom_site_fract_x
_atom_site_fract_y
_atom_site_fract_z
Si Si1 0.926069 0.287403 0.552396
Si Si2 0.727268 0.511346 0.455988
Si Si3 0.150499 0.192119 0.354550
Si Si4 0.437910 0.123395 0.743680
Si Si5 0.204690 0.273581 0.830190
Si Si6 0.567316 0.419177 0.922495
Si Si7 0.718896 0.182682 0.463149
Si Si8 0.000000 0.000000 0.500000
O O1 0.820176 0.406092 0.467590
O O2 0.819589 0.211150 0.606245
O O3 0.021954 0.285633 0.353767
O O4 0.061164 0.240015 0.782144
O O5 0.821657 0.596169 0.381095
O O6 0.677355 0.467383 0.721432
O O7 0.573919 0.576862 0.235049
O O8 0.296231 0.134774 0.575999
O O9 0.071800 0.101673 0.408913
O O10 0.209791 0.245852 0.098094
O O11 0.360999 0.207401 0.807032
O O12 0.573080 0.155544 0.591163
O O13 0.500000 0.000000 0.000000
O O14 0.500000 0.500000 0.000000
O O15 0.656436 0.295481 0.175244
O O16 0.830476 0.079347 0.483279
#
# Coordination Sequence:
#
# PCOD9045907 Si02
#       8
#     2   2   2   2   2   2   2   1
#     4  10  24  42  63  99 135 172 223 270 330 400
#     4  11  24  40  66 102 131 181 223 271 334 401
#     4  10  24  46  66  99 132 180 222 274 343 393
#     4  11  25  44  68  99 132 170 226 285 331 393
#     4  11  24  42  66  96 138 174 220 273 335 404
#     4  11  23  41  66  99 137 174 223 274 331 400
#     4  11  23  46  70  97 137 179 223 280 336 396
#     4  10  24  42  70  96 126 180 230 268 330 398
#
# _framework density 20.604395
#
# number of rings (size 3 to 8) (size 9 to 14) (size 15 to 20)
#    0.000    1.333    1.333    2.800    5.600    5.867 
#    0.000    4.000    0.000    0.000    0.000    0.000 
#    0.000    0.000    0.000    0.000    0.000    0.000 
#
# Total GULP energy -83590.775907 kJ/mol
# GULP energy per Si atom -5572.718394 kJ/mol
# Density = 2.055750 g / cm^3
# Si number density = 20.604395 Si / 1000 Ang^3
#
#
#
# Elastic Constant Matrix: (Units=GPa)
#
#
# Indices 1 2 3 4 5 6 
#
# 1 103.4986 25.6997 43.0922 1.4765 -19.4109 -13.2142
# 2 25.6997 146.5545 45.4368 2.2942 -16.1453 -31.6276
# 3 43.0922 45.4368 109.0236 7.7261 -21.9081 -7.2943
# 4 1.4765 2.2942 7.7261 16.2331 -4.0258 0.4638
# 5 -19.4109 -16.1453 -21.9081 -4.0258 23.2084 -1.8063
# 6 -13.2142 -31.6276 -7.2943 0.4638 -1.8063 32.2406
#
#
#
# Elastic Compliance Matrix: (Units=1/GPa)
#
#
# Indices 1 2 3 4 5 6 
#
# 1 0.013450 0.001140 -0.003631 0.002530 0.009545 0.006308
# 2 0.001140 0.010471 -0.002885 0.001108 0.006519 0.010436
# 3 -0.003631 -0.002885 0.013412 -0.003917 0.006872 -0.000842
# 4 0.002530 0.001108 -0.003917 0.065697 0.010655 0.000890
# 5 0.009545 0.006519 0.006872 0.010655 0.065137 0.015358
# 6 0.006308 0.010436 -0.000842 0.000890 0.015358 0.044497
#
#
# Mechanical properties :
#
#
# Convention : Reuss Voigt Hill
#
# Bulk Modulus (GPa) = 37.61911 65.28158 51.45035
# Shear Modulus (GPa) = 21.52634 30.65963 26.09298
#
# Velocity S-wave (km/s) = 3.23576 3.86166 3.56248
# Velocity P-wave (km/s) = 5.67958 7.18578 6.47661
#
# Compressibility (1/GPa) = 0.02658224
#
# Stress axis : x y z
#
# Youngs Moduli (GPa) = 74.35009 95.50405 74.56160
#
# Poissons Ratio (x) = -0.10891 0.27070
# Poissons Ratio (y) = -0.08478 0.21510
# Poissons Ratio (z) = 0.26993 0.27551
#
# Static dielectric constant tensor:
#      x y z
#    x 1.776840 -0.019220 0.042060 
#    y -0.019220 1.717520 0.017420 
#    z 0.042060 0.017420 1.715850 
# 
# From -- ./inp_files/36922.got.cif
#   From: 2010.05.17/outbox.cif.g08.bks.cpg/sg2_19_cif.got.tgz:36922.got - 2010.06.03 11:33:40.
