data_PCOD9045372
_publ_section_title
;
Structure prediction by ZEFSAII (Michael W. Deem and Ramdas Pophale) SiO2 
 PCOD9045372
Probable space group: P -1
;
_chemical_formula_sum "Si O2"
_cell_formula_units_Z 14
_cell_length_a 11.757526
_cell_length_b 8.602502
_cell_length_c 12.239832
_cell_angle_alpha 139.641929
_cell_angle_beta 48.279047
_cell_angle_gamma 112.187189
_cell_volume 576.492498
_symmetry_space_group_name_H-M "P -1"
_symmetry_group_IT_number 2
_symmetry_cell_setting 'triclinic'
loop_
_space_group_symop_operation_xyz
x,y,z
-x,-y,-z
loop_
_atom_site_type_symbol
_atom_site_label
_atom_site_fract_x
_atom_site_fract_y
_atom_site_fract_z
Si Si1 0.411283 0.411728 0.409327
Si Si2 0.202850 0.600714 0.394200
Si Si3 0.486425 0.728439 0.334632
Si Si4 0.310620 0.035055 0.056503
Si Si5 0.811665 0.349214 0.956914
Si Si6 0.056980 0.245250 0.177824
Si Si7 0.903221 0.495526 0.217306
O O1 0.500000 0.500000 0.500000
O O2 0.288599 0.325812 0.241390
O O3 0.423326 0.615027 0.420579
O O4 0.516094 0.138459 0.163632
O O5 0.343281 0.724509 0.340419
O O6 0.102541 0.508886 0.314828
O O7 0.079449 0.749657 0.642587
O O8 0.500000 0.000000 0.500000
O O9 0.660304 0.544061 0.102870
O O10 0.212149 0.039490 0.008229
O O11 0.241233 0.404954 0.556181
O O12 0.229450 0.908877 0.133388
O O13 0.977616 0.335901 0.788401
O O14 0.834504 0.447543 0.118130
O O15 0.992648 0.745555 0.911056
#
# Coordination Sequence:
#
# PCOD9045372 Si02
#       7
#     2   2   2   2   2   2   2
#     4  11  21  41  63 100 126 172 224 260 329 384
#     4   9  20  41  67  97 129 171 221 261 326 397
#     4  11  23  42  68  93 130 169 216 279 322 384
#     4   9  20  40  67  92 131 168 215 271 314 394
#     4  10  24  40  62  99 134 166 222 268 333 366
#     4   9  20  40  68  94 127 175 219 251 332 391
#     4  11  21  42  62  95 137 166 219 268 315 399
#
# _framework density 24.284787999999999
#
# number of rings (size 3 to 8) (size 9 to 14) (size 15 to 20)
#    0.857    1.143    4.286    0.000    0.000    6.286 
#    0.000    1.429    3.143    0.000    0.000    0.000 
#    0.000    0.000    0.000    0.000    0.000    0.000 
#
# Total GULP energy -78183.636731 kJ/mol
# GULP energy per Si atom -5584.545481 kJ/mol
# Density = 2.422951 g / cm^3
# Si number density = 24.284788 Si / 1000 Ang^3
#
#
#
# Elastic Constant Matrix: (Units=GPa)
#
#
# Indices 1 2 3 4 5 6 
#
# 1 92.1720 10.1689 17.6619 -6.3219 -10.5363 20.6146
# 2 10.1689 118.8682 52.5460 -6.5101 -12.9947 40.4868
# 3 17.6619 52.5460 87.0461 -3.6538 -14.1678 10.7116
# 4 -6.3219 -6.5101 -3.6538 42.2356 7.7965 -1.3251
# 5 -10.5363 -12.9947 -14.1678 7.7965 38.3316 -0.5978
# 6 20.6146 40.4868 10.7116 -1.3251 -0.5978 45.7474
#
#
#
# Elastic Compliance Matrix: (Units=1/GPa)
#
#
# Indices 1 2 3 4 5 6 
#
# 1 0.013423 0.003580 -0.003262 0.001411 0.003280 -0.008370
# 2 0.003580 0.017580 -0.008925 0.001427 0.003121 -0.015000
# 3 -0.003262 -0.008925 0.017290 -0.000698 0.002694 0.005335
# 4 0.001411 0.001427 -0.000698 0.024836 -0.004455 -0.001074
# 5 0.003280 0.003121 0.002694 -0.004455 0.029878 -0.004609
# 6 -0.008370 -0.015000 0.005335 -0.001074 -0.004609 0.037565
#
#
# Mechanical properties :
#
#
# Convention : Reuss Voigt Hill
#
# Bulk Modulus (GPa) = 32.17502 50.98220 41.57861
# Shear Modulus (GPa) = 29.73619 39.77689 34.75654
#
# Velocity S-wave (km/s) = 3.50305 4.05153 3.78723
# Velocity P-wave (km/s) = 5.44423 6.55176 6.02350
#
# Compressibility (1/GPa) = 0.03108001
#
# Stress axis : x y z
#
# Youngs Moduli (GPa) = 74.49954 56.88261 57.83605
#
# Poissons Ratio (x) = -0.20364 0.18864
# Poissons Ratio (y) = -0.26671 0.51619
# Poissons Ratio (z) = 0.24299 0.50768
#
# Static dielectric constant tensor:
#      x y z
#    x 2.128050 0.039650 0.064270 
#    y 0.039650 1.932500 0.040200 
#    z 0.064270 0.040200 1.921120 
# 
# From -- ./inp_files/518370.got.cif
#   From: 2010.05.17/outbox.cif.g08.bks.cpg/sg2_260_cif.got.tgz:518370.got - 2010.06.03 11:33:40.
