data_PCOD9045770
_publ_section_title
;
Structure prediction by ZEFSAII (Michael W. Deem and Ramdas Pophale) SiO2 
 PCOD9045770
Probable space group: P -1
;
_chemical_formula_sum "Si O2"
_cell_formula_units_Z 16
_cell_length_a 14.353307
_cell_length_b 8.501976
_cell_length_c 11.860205
_cell_angle_alpha 145.012172
_cell_angle_beta 110.218074
_cell_angle_gamma 53.898191
_cell_volume 640.481689
_symmetry_space_group_name_H-M "P -1"
_symmetry_group_IT_number 2
_symmetry_cell_setting 'triclinic'
loop_
_space_group_symop_operation_xyz
x,y,z
-x,-y,-z
loop_
_atom_site_type_symbol
_atom_site_label
_atom_site_fract_x
_atom_site_fract_y
_atom_site_fract_z
Si Si1 0.977663 0.407396 0.814034
Si Si2 0.273155 0.792870 0.253587
Si Si3 0.057525 0.505788 0.673195
Si Si4 0.339813 0.403016 0.419826
Si Si5 0.537865 0.484079 0.279775
Si Si6 0.291491 0.292374 0.117791
Si Si7 0.084110 0.764156 0.621078
Si Si8 0.632518 0.289020 0.983965
O O1 0.049328 0.462680 0.779585
O O2 0.835655 0.644533 0.863809
O O3 0.014734 0.039394 0.652700
O O4 0.000000 0.500000 0.000000
O O5 0.405323 0.677934 0.285971
O O6 0.255670 0.511217 0.119843
O O7 0.275370 0.768144 0.105176
O O8 0.175797 0.153844 0.473957
O O9 0.057209 0.784115 0.757601
O O10 0.943720 0.503578 0.583042
O O11 0.447280 0.364090 0.512223
O O12 0.323609 0.495788 0.336455
O O13 0.220826 0.640127 0.582623
O O14 0.349125 0.064547 0.201876
O O15 0.622176 0.463049 0.199381
O O16 0.600133 0.086916 0.088794
O O17 0.500000 0.500000 0.000000
#
# Coordination Sequence:
#
# PCOD9045770 Si02
#       8
#     2   2   2   2   2   2   2   2
#     4  12  25  44  67 101 141 177 228 287 344 405
#     4  11  21  42  67  96 135 171 224 279 338 407
#     4  11  23  42  71  98 129 181 230 274 346 413
#     4  11  21  42  66  93 135 176 217 282 336 397
#     4  10  24  41  68  99 130 179 228 272 338 408
#     4  11  23  43  66  94 137 175 224 283 337 402
#     4  11  22  41  69  97 131 177 229 276 342 409
#     4   9  21  41  63  93 130 176 217 272 333 391
#
# _framework density 24.981200000000001
#
# number of rings (size 3 to 8) (size 9 to 14) (size 15 to 20)
#    0.000    1.250    3.750    2.250    0.000    3.000 
#    2.250    3.750    0.000    0.000    0.000    0.000 
#    0.000    0.000    0.000    0.000    0.000    0.000 
#
# Total GULP energy -89151.710481 kJ/mol
# GULP energy per Si atom -5571.981905 kJ/mol
# Density = 2.492434 g / cm^3
# Si number density = 24.981200 Si / 1000 Ang^3
#
#
#
# Elastic Constant Matrix: (Units=GPa)
#
#
# Indices 1 2 3 4 5 6 
#
# 1 52.6820 24.3457 17.0870 -10.3587 -25.8323 10.5142
# 2 24.3457 118.2603 40.6600 -6.6778 -18.2426 1.8334
# 3 17.0870 40.6600 54.5044 -17.3144 -20.7127 5.2104
# 4 -10.3587 -6.6778 -17.3144 48.3716 2.4544 -17.2483
# 5 -25.8323 -18.2426 -20.7127 2.4544 25.7685 -9.0716
# 6 10.5142 1.8334 5.2104 -17.2483 -9.0716 59.6273
#
#
#
# Elastic Compliance Matrix: (Units=1/GPa)
#
#
# Indices 1 2 3 4 5 6 
#
# 1 0.043329 -0.004891 0.012260 0.011276 0.049542 0.002238
# 2 -0.004891 0.012082 -0.009881 -0.002729 -0.004050 -0.000051
# 3 0.012260 -0.009881 0.041062 0.015780 0.038553 0.004984
# 4 0.011276 -0.002729 0.015780 0.030403 0.022295 0.008903
# 5 0.049542 -0.004050 0.038553 0.022295 0.118890 0.012557
# 6 0.002238 -0.000051 0.004984 0.008903 0.012557 0.020428
#
#
# Mechanical properties :
#
#
# Convention : Reuss Voigt Hill
#
# Bulk Modulus (GPa) = 10.93496 43.29242 27.11369
# Shear Modulus (GPa) = 16.57272 36.31042 26.44157
#
# Velocity S-wave (km/s) = 2.57846 3.81663 3.25693
# Velocity P-wave (km/s) = 3.64025 6.06546 5.00206
#
# Compressibility (1/GPa) = 0.09144979
#
# Stress axis : x y z
#
# Youngs Moduli (GPa) = 23.07928 82.76797 24.35350
#
# Poissons Ratio (x) = 0.40481 -0.29858
# Poissons Ratio (y) = 0.11288 0.24064
# Poissons Ratio (z) = -0.28296 0.81782
#
# Static dielectric constant tensor:
#      x y z
#    x 5.079550 5.098550 4.188200 
#    y 5.098550 10.134900 7.042880 
#    z 4.188200 7.042880 7.723320 
# 
# From -- ./inp_files/391633.got.cif
#   From: 2010.05.17/outbox.cif.g08.bks.cpg/sg2_196_cif.got.tgz:391633.got - 2010.06.03 11:33:40.
