data_PCOD9045042
_publ_section_title
;
Structure prediction by ZEFSAII (Michael W. Deem and Ramdas Pophale) SiO2 
 PCOD9045042
Probable space group: P -1
;
_chemical_formula_sum "Si O2"
_cell_formula_units_Z 12
_cell_length_a 9.774482
_cell_length_b 8.671036
_cell_length_c 6.975988
_cell_angle_alpha 106.685244
_cell_angle_beta 68.180664
_cell_angle_gamma 66.354332
_cell_volume 431.632860
_symmetry_space_group_name_H-M "P -1"
_symmetry_group_IT_number 2
_symmetry_cell_setting 'triclinic'
loop_
_space_group_symop_operation_xyz
x,y,z
-x,-y,-z
loop_
_atom_site_type_symbol
_atom_site_label
_atom_site_fract_x
_atom_site_fract_y
_atom_site_fract_z
Si Si1 0.445698 0.049673 0.324463
Si Si2 0.930268 0.702768 0.219135
Si Si3 0.469467 0.682088 0.198399
Si Si4 0.201964 0.991037 0.958310
Si Si5 0.110134 0.739517 0.495329
Si Si6 0.303224 0.566671 0.682101
O O1 0.472898 0.852609 0.160177
O O2 0.237590 0.219186 0.521592
O O3 0.500000 0.000000 0.500000
O O4 0.591795 0.077295 0.169403
O O5 0.796699 0.432901 0.454977
O O6 0.073516 0.689646 0.288527
O O7 0.875152 0.858612 0.129925
O O8 0.000000 0.500000 0.000000
O O9 0.263054 0.784187 0.415324
O O10 0.500000 0.500000 0.000000
O O11 0.365622 0.417282 0.771120
O O12 0.923287 0.901388 0.753118
O O13 0.207320 0.794924 0.864289
O O14 0.500000 0.500000 0.500000
#
# Coordination Sequence:
#
# PCOD9045042 Si02
#       6
#     2   2   2   2   2   2
#     4  10  24  49  76 113 159 204 253 321 394 453
#     4  11  27  47  75 114 163 199 260 324 389 455
#     4  11  27  48  82 113 155 206 255 320 397 463
#     4  11  26  48  79 114 159 201 264 323 382 468
#     4  11  26  46  77 114 151 206 259 316 389 450
#     4  10  23  48  75 113 156 198 260 315 382 472
#
# _framework density 27.801403000000001
#
# number of rings (size 3 to 8) (size 9 to 14) (size 15 to 20)
#    0.000    1.333    0.000    4.500    9.333    6.667 
#    0.000    0.000    0.000    1.000    0.000    0.000 
#    0.000    0.000    0.000    0.000    0.000    0.000 
#
# Total GULP energy -67137.335145 kJ/mol
# GULP energy per Si atom -5594.777929 kJ/mol
# Density = 2.773813 g / cm^3
# Si number density = 27.801403 Si / 1000 Ang^3
#
#
#
# Elastic Constant Matrix: (Units=GPa)
#
#
# Indices 1 2 3 4 5 6 
#
# 1 169.7651 56.2080 62.1752 -13.9089 -4.4165 -9.7774
# 2 56.2080 158.3324 57.0125 15.4113 26.8175 -14.5147
# 3 62.1752 57.0125 169.4997 5.3363 -5.0840 -6.9926
# 4 -13.9089 15.4113 5.3363 47.0353 0.8812 8.7862
# 5 -4.4165 26.8175 -5.0840 0.8812 69.7162 -20.7186
# 6 -9.7774 -14.5147 -6.9926 8.7862 -20.7186 54.4569
#
#
#
# Elastic Compliance Matrix: (Units=1/GPa)
#
#
# Indices 1 2 3 4 5 6 
#
# 1 0.007819 -0.002554 -0.002049 0.003266 0.001429 0.000477
# 2 -0.002554 0.008970 -0.002032 -0.003575 -0.003436 0.000941
# 3 -0.002049 -0.002032 0.007438 -0.000949 0.001427 0.000741
# 4 0.003266 -0.003575 -0.000949 0.024341 -0.000121 -0.004462
# 5 0.001429 -0.003436 0.001427 -0.000121 0.017731 0.006289
# 6 0.000477 0.000941 0.000741 -0.004462 0.006289 0.021907
#
#
# Mechanical properties :
#
#
# Convention : Reuss Voigt Hill
#
# Bulk Modulus (GPa) = 91.26808 94.26539 92.76673
# Shear Modulus (GPa) = 47.56042 55.72178 51.64110
#
# Velocity S-wave (km/s) = 4.14057 4.48177 4.31455
# Velocity P-wave (km/s) = 7.46719 7.79500 7.63286
#
# Compressibility (1/GPa) = 0.01095673
#
# Stress axis : x y z
#
# Youngs Moduli (GPa) = 127.89712 111.47805 134.44066
#
# Poissons Ratio (x) = 0.28470 0.27551
# Poissons Ratio (y) = 0.32663 0.27320
# Poissons Ratio (z) = 0.26210 0.22654
#
# Static dielectric constant tensor:
#      x y z
#    x 2.253850 0.002980 -0.004340 
#    y 0.002980 2.293620 -0.055530 
#    z -0.004340 -0.055530 2.245780 
# 
# From -- ./inp_files/148183.got.cif
#   From: 2010.05.17/outbox.cif.g08.bks.cpg/sg2_75_cif.got.tgz:148183.got - 2010.06.03 11:33:40.
