data_PCOD9045810
_publ_section_title
;
Structure prediction by ZEFSAII (Michael W. Deem and Ramdas Pophale) SiO2 
 PCOD9045810
Probable space group: P -1
;
_chemical_formula_sum "Si O2"
_cell_formula_units_Z 16
_cell_length_a 16.873903
_cell_length_b 10.268618
_cell_length_c 5.440168
_cell_angle_alpha 62.444796
_cell_angle_beta 111.319877
_cell_angle_gamma 122.278114
_cell_volume 697.965543
_symmetry_space_group_name_H-M "P -1"
_symmetry_group_IT_number 2
_symmetry_cell_setting 'triclinic'
loop_
_space_group_symop_operation_xyz
x,y,z
-x,-y,-z
loop_
_atom_site_type_symbol
_atom_site_label
_atom_site_fract_x
_atom_site_fract_y
_atom_site_fract_z
Si Si1 0.582591 0.551598 0.748235
Si Si2 0.939196 0.473952 0.207332
Si Si3 0.371787 0.877796 0.266687
Si Si4 0.228589 0.157383 0.324545
Si Si5 0.499581 0.245665 0.223243
Si Si6 0.086101 0.071757 0.840418
Si Si7 0.935781 0.773049 0.728730
Si Si8 0.741457 0.160727 0.317472
O O1 0.500000 0.500000 0.500000
O O2 0.686822 0.667219 0.673030
O O3 0.563475 0.670666 0.813070
O O4 0.572647 0.386759 0.008134
O O5 0.847872 0.301761 0.284048
O O6 0.000000 0.500000 0.500000
O O7 0.906244 0.615483 0.996849
O O8 0.000000 0.500000 0.000000
O O9 0.443408 0.797783 0.464783
O O10 0.304520 0.834644 0.472444
O O11 0.434795 0.074784 0.168594
O O12 0.318009 0.826102 0.993934
O O13 0.138174 0.152277 0.367074
O O14 0.256939 0.014707 0.545562
O O15 0.188389 0.126270 0.026423
O O16 0.076159 0.227365 0.576871
O O17 0.044645 0.902280 0.785431
O O18 0.000000 0.000000 0.000000
#
# Coordination Sequence:
#
# PCOD9045810 Si02
#       8
#     2   2   2   2   2   2   2   2
#     4  11  24  43  68 102 140 180 236 291 357 411
#     4  12  29  47  70 103 148 186 232 294 358 418
#     4  11  26  47  73 102 141 190 238 287 358 422
#     4  11  24  40  70  96 138 178 234 288 342 427
#     4  10  25  44  71  99 139 186 231 297 353 425
#     4   9  21  41  69  95 132 172 236 280 351 410
#     4  10  24  41  70  99 131 187 227 290 351 421
#     4  12  27  46  71 106 140 186 240 290 349 429
#
# _framework density 22.923767000000002
#
# number of rings (size 3 to 8) (size 9 to 14) (size 15 to 20)
#    0.000    1.250    1.250    2.250   14.000    4.000 
#    0.000    0.000    0.000    0.000    0.000    0.000 
#    0.000    0.000    0.000    0.000    0.000    0.000 
#
# Total GULP energy -89316.399579 kJ/mol
# GULP energy per Si atom -5582.274974 kJ/mol
# Density = 2.287159 g / cm^3
# Si number density = 22.923767 Si / 1000 Ang^3
#
#
#
# Elastic Constant Matrix: (Units=GPa)
#
#
# Indices 1 2 3 4 5 6 
#
# 1 45.0346 9.5324 3.3150 -5.7126 -6.6845 3.3869
# 2 9.5324 117.3982 50.6867 -6.5546 -2.4510 42.5448
# 3 3.3150 50.6867 125.2461 -1.6549 3.1818 8.9087
# 4 -5.7126 -6.5546 -1.6549 46.6272 10.6243 3.1878
# 5 -6.6845 -2.4510 3.1818 10.6243 28.0011 -0.1040
# 6 3.3869 42.5448 8.9087 3.1878 -0.1040 38.2495
#
#
#
# Elastic Compliance Matrix: (Units=1/GPa)
#
#
# Indices 1 2 3 4 5 6 
#
# 1 0.023493 -0.001492 -0.000084 0.001589 0.004882 -0.000520
# 2 -0.001492 0.018395 -0.006009 0.003369 0.000587 -0.019208
# 3 -0.000084 -0.006009 0.010140 -0.000449 -0.001512 0.004363
# 4 0.001589 0.003369 -0.000449 0.024452 -0.008574 -0.005845
# 5 0.004882 0.000587 -0.001512 -0.008574 0.040355 0.000091
# 6 -0.000520 -0.019208 0.004363 -0.005845 0.000091 0.047026
#
#
# Mechanical properties :
#
#
# Convention : Reuss Voigt Hill
#
# Bulk Modulus (GPa) = 27.13150 46.08301 36.60725
# Shear Modulus (GPa) = 26.13448 37.51854 31.82651
#
# Velocity S-wave (km/s) = 3.38014 4.04996 3.73012
# Velocity P-wave (km/s) = 5.20529 6.48197 5.87839
#
# Compressibility (1/GPa) = 0.03685752
#
# Stress axis : x y z
#
# Youngs Moduli (GPa) = 42.56673 54.36299 98.61469
#
# Poissons Ratio (x) = 0.08112 0.00828
# Poissons Ratio (y) = 0.06352 0.59257
# Poissons Ratio (z) = 0.00357 0.32667
#
# Static dielectric constant tensor:
#      x y z
#    x 1.913120 -0.090160 -0.063370 
#    y -0.090160 1.950440 0.077860 
#    z -0.063370 0.077860 2.063060 
# 
# From -- ./inp_files/109525.got.cif
#   From: 2010.05.17/outbox.cif.g08.bks.cpg/sg2_55_cif.got.tgz:109525.got - 2010.06.03 11:33:40.
