data_PCOD9045865
_publ_section_title
;
Structure prediction by ZEFSAII (Michael W. Deem and Ramdas Pophale) SiO2 
 PCOD9045865
Probable space group: P -1
;
_chemical_formula_sum "Si O2"
_cell_formula_units_Z 12
_cell_length_a 14.467892
_cell_length_b 6.405323
_cell_length_c 21.722938
_cell_angle_alpha 133.023509
_cell_angle_beta 24.212787
_cell_angle_gamma 130.150107
_cell_volume 601.888310
_symmetry_space_group_name_H-M "P -1"
_symmetry_group_IT_number 2
_symmetry_cell_setting 'triclinic'
loop_
_space_group_symop_operation_xyz
x,y,z
-x,-y,-z
loop_
_atom_site_type_symbol
_atom_site_label
_atom_site_fract_x
_atom_site_fract_y
_atom_site_fract_z
Si Si1 0.494079 0.631007 0.220986
Si Si2 0.489354 0.664520 0.368958
Si Si3 0.806987 0.309682 0.893584
Si Si4 0.745636 0.940868 0.620010
Si Si5 0.566395 0.998712 0.869009
Si Si6 0.676175 0.702874 0.393995
O O1 0.586622 0.649429 0.237866
O O2 0.350195 0.323467 0.238382
O O3 0.335454 0.880140 0.352230
O O4 0.702031 0.591936 0.040871
O O5 0.306257 0.393859 0.428285
O O6 0.651921 0.630308 0.321421
O O7 0.384715 0.968676 0.498240
O O8 0.072701 0.326026 0.740367
O O9 0.710718 0.227272 0.868204
O O10 0.684873 0.057873 0.961223
O O11 0.591966 0.044980 0.790756
O O12 0.000000 0.000000 0.500000
O O13 0.500000 0.500000 0.500000
#
# Coordination Sequence:
#
# PCOD9045865 Si02
#       6
#     2   2   2   2   2   2
#     4   9  20  41  60  92 121 159 206 251 314 361
#     4  10  24  42  60  92 126 158 215 252 307 366
#     4   9  20  42  63  86 132 160 202 264 299 369
#     4  11  23  36  67  97 124 162 204 258 312 371
#     4   8  20  39  59  95 122 162 199 255 317 354
#     4  11  24  43  65  90 121 170 213 251 306 365
#
# _framework density 19.937253999999999
#
# number of rings (size 3 to 8) (size 9 to 14) (size 15 to 20)
#    1.000    1.333    0.000    1.000    7.000    2.667 
#    6.000    1.667    0.000    0.000    0.000    0.000 
#    0.000    0.000    0.000    0.000    0.000    0.000 
#
# Total GULP energy -66821.846010 kJ/mol
# GULP energy per Si atom -5568.487167 kJ/mol
# Density = 1.989188 g / cm^3
# Si number density = 19.937254 Si / 1000 Ang^3
#
#
#
# Elastic Constant Matrix: (Units=GPa)
#
#
# Indices 1 2 3 4 5 6 
#
# 1 97.1941 39.8899 32.6688 -4.7285 8.3852 9.1345
# 2 39.8899 84.6464 37.3075 0.8715 -7.5667 11.9547
# 3 32.6688 37.3075 63.2866 -9.1161 -18.3855 7.6434
# 4 -4.7285 0.8715 -9.1161 24.5060 10.0380 -2.2936
# 5 8.3852 -7.5667 -18.3855 10.0380 26.7795 4.2998
# 6 9.1345 11.9547 7.6434 -2.2936 4.2998 32.4645
#
#
#
# Elastic Compliance Matrix: (Units=1/GPa)
#
#
# Indices 1 2 3 4 5 6 
#
# 1 0.017574 -0.005881 -0.009761 0.007098 -0.016889 0.002258
# 2 -0.005881 0.018905 -0.006791 -0.007285 0.006058 -0.005025
# 3 -0.009761 -0.006791 0.032631 -0.000061 0.024476 -0.005681
# 4 0.007098 -0.007285 -0.000061 0.053684 -0.025714 0.007898
# 5 -0.016889 0.006058 0.024476 -0.025714 0.073152 -0.014747
# 6 0.002258 -0.005025 -0.005681 0.007898 -0.014747 0.035867
#
#
# Mechanical properties :
#
#
# Convention : Reuss Voigt Hill
#
# Bulk Modulus (GPa) = 41.24980 51.65107 46.45044
# Shear Modulus (GPa) = 17.55864 25.76741 21.66303
#
# Velocity S-wave (km/s) = 2.97087 3.59893 3.29988
# Velocity P-wave (km/s) = 5.70112 6.57517 6.15368
#
# Compressibility (1/GPa) = 0.02424254
#
# Stress axis : x y z
#
# Youngs Moduli (GPa) = 56.90378 52.89711 30.64553
#
# Poissons Ratio (x) = 0.31109 0.29914
# Poissons Ratio (y) = 0.33465 0.20812
# Poissons Ratio (z) = 0.55546 0.35923
#
# Static dielectric constant tensor:
#      x y z
#    x 1.723910 -0.012610 0.057630 
#    y -0.012610 1.712780 -0.002940 
#    z 0.057630 -0.002940 1.695230 
# 
# From -- ./inp_files/131325.got.cif
#   From: 2010.05.17/outbox.cif.g08.bks.cpg/sg2_66_cif.got.tgz:131325.got - 2010.06.03 11:33:40.
