data_PCOD9045066
_publ_section_title
;
Structure prediction by ZEFSAII (Michael W. Deem and Ramdas Pophale) SiO2 
 PCOD9045066
Probable space group: P -1
;
_chemical_formula_sum "Si O2"
_cell_formula_units_Z 14
_cell_length_a 8.259707
_cell_length_b 24.443379
_cell_length_c 5.326407
_cell_angle_alpha 116.165399
_cell_angle_beta 63.104542
_cell_angle_gamma 145.725362
_cell_volume 535.252609
_symmetry_space_group_name_H-M "P -1"
_symmetry_group_IT_number 2
_symmetry_cell_setting 'triclinic'
loop_
_space_group_symop_operation_xyz
x,y,z
-x,-y,-z
loop_
_atom_site_type_symbol
_atom_site_label
_atom_site_fract_x
_atom_site_fract_y
_atom_site_fract_z
Si Si1 0.694343 0.885914 0.406932
Si Si2 0.328371 0.012604 0.740568
Si Si3 0.760383 0.682253 0.336338
Si Si4 0.833314 0.813125 0.837538
Si Si5 0.249523 0.833551 0.879444
Si Si6 0.149100 0.407026 0.589165
Si Si7 0.871494 0.528858 0.760323
O O1 0.605198 0.907773 0.286143
O O2 0.416797 0.816945 0.643434
O O3 0.000000 0.000000 0.500000
O O4 0.716809 0.822786 0.166108
O O5 0.500000 0.000000 0.500000
O O6 0.990316 0.905847 0.746684
O O7 0.456777 0.054464 0.010468
O O8 0.893141 0.671829 0.431696
O O9 0.480237 0.575218 0.198109
O O10 0.651862 0.717015 0.610750
O O11 0.010565 0.761734 0.119369
O O12 0.089070 0.836435 0.807125
O O13 0.500000 0.500000 0.500000
O O14 0.051396 0.401859 0.370648
O O15 0.051276 0.427045 0.924650
O O16 0.000000 0.500000 0.500000
#
# Coordination Sequence:
#
# PCOD9045066 Si02
#       7
#     2   2   2   2   2   2   2
#     4  12  26  43  71  98 141 199 251 292 363 432
#     4  12  22  45  68  96 141 198 242 292 367 433
#     4  11  26  45  72 104 142 186 241 302 365 439
#     4  12  26  44  70 102 144 187 252 302 358 435
#     4  12  25  44  68 101 144 188 242 297 365 420
#     4  10  23  48  80 103 145 198 237 291 386 461
#     4  11  25  51  80 111 147 193 241 302 380 462
#
# _framework density 26.155873
#
# number of rings (size 3 to 8) (size 9 to 14) (size 15 to 20)
#    0.000    0.571    4.286    3.857    6.000    0.000 
#    7.714    0.000    0.000    0.000    0.000    0.000 
#    0.000    0.000    0.000    0.000    0.000    0.000 
#
# Total GULP energy -78267.352998 kJ/mol
# GULP energy per Si atom -5590.525214 kJ/mol
# Density = 2.609634 g / cm^3
# Si number density = 26.155873 Si / 1000 Ang^3
#
#
#
# Elastic Constant Matrix: (Units=GPa)
#
#
# Indices 1 2 3 4 5 6 
#
# 1 58.4245 13.3122 22.0674 -5.1468 -15.0696 -2.3191
# 2 13.3122 124.6332 38.8631 1.5759 -1.1400 -13.2954
# 3 22.0674 38.8631 173.9626 1.5961 -48.4372 -0.0616
# 4 -5.1468 1.5759 1.5961 45.2678 -5.3943 5.6241
# 5 -15.0696 -1.1400 -48.4372 -5.3943 54.1823 0.4090
# 6 -2.3191 -13.2954 -0.0616 5.6241 0.4090 34.5757
#
#
#
# Elastic Compliance Matrix: (Units=1/GPa)
#
#
# Indices 1 2 3 4 5 6 
#
# 1 0.019341 -0.001842 -0.000668 0.002879 0.005029 0.000060
# 2 -0.001842 0.009435 -0.002651 -0.001247 -0.002836 0.003736
# 3 -0.000668 -0.002651 0.008487 0.000759 0.007430 -0.001261
# 4 0.002879 -0.001247 0.000759 0.023403 0.003814 -0.004137
# 5 0.005029 -0.002836 0.007430 0.003814 0.026830 -0.001678
# 6 0.000060 0.003736 -0.001261 -0.004137 -0.001678 0.031053
#
#
# Mechanical properties :
#
#
# Convention : Reuss Voigt Hill
#
# Bulk Modulus (GPa) = 37.11672 56.16729 46.64201
# Shear Modulus (GPa) = 36.27070 45.65700 40.96385
#
# Velocity S-wave (km/s) = 3.72790 4.18254 3.96175
# Velocity P-wave (km/s) = 5.72285 6.69668 6.22883
#
# Compressibility (1/GPa) = 0.02694204
#
# Stress axis : x y z
#
# Youngs Moduli (GPa) = 51.70287 105.98503 117.82932
#
# Poissons Ratio (x) = 0.19517 0.07872
# Poissons Ratio (y) = 0.09521 0.31238
# Poissons Ratio (z) = 0.03454 0.28098
#
# Static dielectric constant tensor:
#      x y z
#    x 2.061140 -0.017340 0.034810 
#    y -0.017340 2.198310 0.094560 
#    z 0.034810 0.094560 2.201350 
# 
# From -- ./inp_files/53657.got.cif
#   From: 2010.05.17/outbox.cif.g08.bks.cpg/sg2_27_cif.got.tgz:53657.got - 2010.06.03 11:33:40.
