data_PCOD9045057
_publ_section_title
;
Structure prediction by ZEFSAII (Michael W. Deem and Ramdas Pophale) SiO2 
 PCOD9045057
Probable space group: P -1
;
_chemical_formula_sum "Si O2"
_cell_formula_units_Z 12
_cell_length_a 8.039770
_cell_length_b 16.320696
_cell_length_c 5.225478
_cell_angle_alpha 104.021639
_cell_angle_beta 103.426552
_cell_angle_gamma 37.445346
_cell_volume 403.539050
_symmetry_space_group_name_H-M "P -1"
_symmetry_group_IT_number 2
_symmetry_cell_setting 'triclinic'
loop_
_space_group_symop_operation_xyz
x,y,z
-x,-y,-z
loop_
_atom_site_type_symbol
_atom_site_label
_atom_site_fract_x
_atom_site_fract_y
_atom_site_fract_z
Si Si1 0.260332 0.371003 0.173110
Si Si2 0.819043 0.953401 0.279130
Si Si3 0.205356 0.911954 0.163039
Si Si4 0.422096 0.566110 0.792742
Si Si5 0.175585 0.211464 0.117102
Si Si6 0.516087 0.661055 0.209305
O O1 0.449363 0.383823 0.136185
O O2 0.139815 0.323572 0.156957
O O3 0.324141 0.372983 0.502475
O O4 0.000000 0.500000 0.000000
O O5 0.860856 0.013293 0.085231
O O6 0.825433 0.001231 0.585575
O O7 0.478050 0.083253 0.231413
O O8 0.851744 0.838922 0.175517
O O9 0.198684 0.820274 0.264394
O O10 0.094633 0.711045 0.767139
O O11 0.500000 0.500000 0.500000
O O12 0.499833 0.438603 0.860529
O O13 0.518791 0.757085 0.096111
#
# Coordination Sequence:
#
# PCOD9045057 Si02
#       6
#     2   2   2   2   2   2
#     4  12  27  50  80 114 161 218 277 339 398 484
#     4  10  23  48  77 114 164 201 267 334 410 482
#     4  11  23  44  78 115 157 212 258 326 424 489
#     4  12  28  51  78 112 159 216 269 334 401 481
#     4  11  24  49  79 120 158 207 272 339 401 477
#     4  12  26  50  77 113 161 214 269 327 419 487
#
# _framework density 29.736898
#
# number of rings (size 3 to 8) (size 9 to 14) (size 15 to 20)
#    0.000    0.667    3.333    3.500    2.333    4.000 
#    6.000    2.500    0.000    0.000    0.000    0.000 
#    0.000    0.000    0.000    0.000    0.000    0.000 
#
# Total GULP energy -66839.860332 kJ/mol
# GULP energy per Si atom -5569.988361 kJ/mol
# Density = 2.966922 g / cm^3
# Si number density = 29.736898 Si / 1000 Ang^3
#
#
#
# Elastic Constant Matrix: (Units=GPa)
#
#
# Indices 1 2 3 4 5 6 
#
# 1 203.3341 50.6398 103.4562 14.6575 46.2555 -18.2103
# 2 50.6398 222.2328 131.1653 31.8162 35.2777 12.7209
# 3 103.4562 131.1653 321.2464 37.5630 18.5357 17.7655
# 4 14.6575 31.8162 37.5630 63.8965 14.5485 12.1238
# 5 46.2555 35.2777 18.5357 14.5485 61.2992 7.0197
# 6 -18.2103 12.7209 17.7655 12.1238 7.0197 78.3810
#
#
#
# Elastic Compliance Matrix: (Units=1/GPa)
#
#
# Indices 1 2 3 4 5 6 
#
# 1 0.007558 0.000426 -0.002467 0.000260 -0.005574 0.002705
# 2 0.000426 0.006523 -0.002488 -0.001202 -0.003045 0.000063
# 3 -0.002467 -0.002488 0.005030 -0.001421 0.002257 -0.001292
# 4 0.000260 -0.001202 -0.001421 0.018110 -0.003151 -0.001942
# 5 -0.005574 -0.003045 0.002257 -0.003151 0.022665 -0.002855
# 6 0.002705 0.000063 -0.001292 -0.001942 -0.002855 0.014225
#
#
# Mechanical properties :
#
#
# Convention : Reuss Voigt Hill
#
# Bulk Modulus (GPa) = 99.44716 146.37064 122.90890
# Shear Modulus (GPa) = 57.79007 71.48547 64.63777
#
# Velocity S-wave (km/s) = 4.41316 4.90831 4.66731
# Velocity P-wave (km/s) = 7.71252 9.02501 8.39445
#
# Compressibility (1/GPa) = 0.01005559
#
# Stress axis : x y z
#
# Youngs Moduli (GPa) = 132.30213 153.30671 198.79013
#
# Poissons Ratio (x) = -0.06536 0.49033
# Poissons Ratio (y) = -0.05641 0.49456
# Poissons Ratio (z) = 0.32633 0.38140
#
# Static dielectric constant tensor:
#      x y z
#    x 2.020920 -1.253200 -0.869850 
#    y -1.253200 0.573240 -0.549890 
#    z -0.869850 -0.549890 2.241640 
# 
# From -- ./inp_files/39551.got.cif
#   From: 2010.05.17/outbox.cif.g08.bks.cpg/sg2_20_cif.got.tgz:39551.got - 2010.06.03 11:33:40.
