data_PCOD9045389
_publ_section_title
;
Structure prediction by ZEFSAII (Michael W. Deem and Ramdas Pophale) SiO2 
 PCOD9045389
Probable space group: P -1
;
_chemical_formula_sum "Si O2"
_cell_formula_units_Z 13
_cell_length_a 9.235584
_cell_length_b 7.944748
_cell_length_c 16.211544
_cell_angle_alpha 54.507806
_cell_angle_beta 120.078798
_cell_angle_gamma 148.621349
_cell_volume 504.244196
_symmetry_space_group_name_H-M "P -1"
_symmetry_group_IT_number 2
_symmetry_cell_setting 'triclinic'
loop_
_space_group_symop_operation_xyz
x,y,z
-x,-y,-z
loop_
_atom_site_type_symbol
_atom_site_label
_atom_site_fract_x
_atom_site_fract_y
_atom_site_fract_z
Si Si1 0.426319 0.383468 0.614533
Si Si2 0.805448 0.409171 0.129770
Si Si3 0.044306 0.138940 0.095045
Si Si4 0.720192 0.088335 0.769280
Si Si5 0.000000 0.000000 0.500000
Si Si6 0.461856 0.237927 0.845121
Si Si7 0.250192 0.672415 0.466988
O O1 0.217752 0.040302 0.597918
O O2 0.421832 0.332338 0.723577
O O3 0.246260 0.417488 0.530307
O O4 0.738891 0.708026 0.579565
O O5 0.090337 0.611153 0.194028
O O6 0.587087 0.230937 0.191277
O O7 0.657005 0.102620 0.113848
O O8 0.878945 0.684927 0.020253
O O9 0.222506 0.442521 0.126896
O O10 0.146276 0.006508 0.172079
O O11 0.724374 0.852225 0.108928
O O12 0.733859 0.211863 0.650560
O O13 0.000000 0.500000 0.500000
O O14 0.500000 0.000000 0.500000
#
# Coordination Sequence:
#
# PCOD9045389 Si02
#       7
#     2   2   2   2   1   2   2
#     4  11  24  41  67  95 137 169 227 271 342 404
#     4  12  26  44  69 106 136 177 237 294 340 404
#     4  12  24  47  69  98 141 186 228 286 347 416
#     4  12  26  44  72 100 137 183 234 282 350 406
#     4  10  24  40  64  92 134 172 216 278 334 384
#     4  12  25  43  72 101 138 183 230 281 356 408
#     4  12  25  44  67  99 136 178 225 276 340 418
#
# _framework density 25.781158999999999
#
# number of rings (size 3 to 8) (size 9 to 14) (size 15 to 20)
#    0.000    0.308    0.000    9.231    6.462    0.000 
#    0.000    0.000    0.000    0.000    0.000    0.000 
#    0.000    0.000    0.000    0.000    0.000    0.000 
#
# Total GULP energy -72748.206057 kJ/mol
# GULP energy per Si atom -5596.015851 kJ/mol
# Density = 2.572248 g / cm^3
# Si number density = 25.781159 Si / 1000 Ang^3
#
#
#
# Elastic Constant Matrix: (Units=GPa)
#
#
# Indices 1 2 3 4 5 6 
#
# 1 104.7598 14.2754 14.0427 -32.9211 4.4511 6.4616
# 2 14.2754 136.7644 13.1530 9.3286 -3.8773 24.9708
# 3 14.0427 13.1530 160.2915 -12.1944 6.2773 -2.5529
# 4 -32.9211 9.3286 -12.1944 49.1061 -3.1923 -8.9536
# 5 4.4511 -3.8773 6.2773 -3.1923 29.3607 -6.8536
# 6 6.4616 24.9708 -2.5529 -8.9536 -6.8536 59.3744
#
#
#
# Elastic Compliance Matrix: (Units=1/GPa)
#
#
# Indices 1 2 3 4 5 6 
#
# 1 0.012645 -0.002062 -0.000212 0.008879 -0.001014 0.000704
# 2 -0.002062 0.008623 -0.000903 -0.003957 0.000279 -0.004005
# 3 -0.000212 -0.000903 0.006519 0.001725 -0.001103 0.000816
# 4 0.008879 -0.003957 0.001725 0.028606 0.002117 0.005330
# 5 -0.001014 0.000279 -0.001103 0.002117 0.035741 0.004390
# 6 0.000704 -0.004005 0.000816 0.005330 0.004390 0.019796
#
#
# Mechanical properties :
#
#
# Convention : Reuss Voigt Hill
#
# Bulk Modulus (GPa) = 46.65838 53.86197 50.26018
# Shear Modulus (GPa) = 39.86352 51.59119 45.72736
#
# Velocity S-wave (km/s) = 3.93648 4.47824 4.21607
# Velocity P-wave (km/s) = 6.22883 6.90484 6.57553
#
# Compressibility (1/GPa) = 0.02143238
#
# Stress axis : x y z
#
# Youngs Moduli (GPa) = 79.08267 115.96793 153.40464
#
# Poissons Ratio (x) = 0.23917 0.03255
# Poissons Ratio (y) = 0.16310 0.13847
# Poissons Ratio (z) = 0.01678 0.10468
#
# Static dielectric constant tensor:
#      x y z
#    x 1.171900 1.410250 0.525100 
#    y 1.410250 -0.554430 -0.823040 
#    z 0.525100 -0.823040 1.714220 
# 
# From -- ./inp_files/299919.got.cif
#   From: 2010.05.17/outbox.cif.g08.bks.cpg/sg2_150_cif.got.tgz:299919.got - 2010.06.03 11:33:40.
