data_PCOD9045314
_publ_section_title
;
Structure prediction by ZEFSAII (Michael W. Deem and Ramdas Pophale) SiO2 
 PCOD9045314
Probable space group: P -1
;
_chemical_formula_sum "Si O2"
_cell_formula_units_Z 16
_cell_length_a 11.378486
_cell_length_b 11.920937
_cell_length_c 11.918181
_cell_angle_alpha 61.886209
_cell_angle_beta 131.961075
_cell_angle_gamma 80.658154
_cell_volume 727.025208
_symmetry_space_group_name_H-M "P -1"
_symmetry_group_IT_number 2
_symmetry_cell_setting 'triclinic'
loop_
_space_group_symop_operation_xyz
x,y,z
-x,-y,-z
loop_
_atom_site_type_symbol
_atom_site_label
_atom_site_fract_x
_atom_site_fract_y
_atom_site_fract_z
Si Si1 0.419156 0.096587 0.744739
Si Si2 0.478796 0.255274 0.995046
Si Si3 0.976098 0.348345 0.485174
Si Si4 0.162157 0.849878 0.575517
Si Si5 0.941789 0.012307 0.809543
Si Si6 0.059088 0.697748 0.257298
Si Si7 0.564439 0.286167 0.793664
Si Si8 0.626694 0.974503 0.704015
O O1 0.576131 0.127145 0.854777
O O2 0.188139 0.263998 0.584244
O O3 0.468443 0.924531 0.898523
O O4 0.433030 0.083894 0.625557
O O5 0.589796 0.247479 0.181059
O O6 0.210225 0.433300 0.741560
O O7 0.566896 0.287345 0.930325
O O8 0.872308 0.280478 0.395962
O O9 0.013024 0.295882 0.664228
O O10 0.104358 0.936559 0.375732
O O11 0.000000 0.000000 0.500000
O O12 0.737182 0.045272 0.709666
O O13 0.933318 0.152637 0.801081
O O14 0.201035 0.800224 0.071528
O O15 0.317963 0.489080 0.502395
O O16 0.855742 0.776544 0.003305
O O17 0.500000 0.000000 0.500000
#
# Coordination Sequence:
#
# PCOD9045314 Si02
#       8
#     2   2   2   2   2   2   2   2
#     4  12  25  41  66 100 134 178 222 272 340 395
#     4  11  22  39  66 103 144 167 218 282 347 397
#     4  10  24  39  68 104 134 174 223 284 334 399
#     4  11  19  39  69  97 132 179 218 277 342 395
#     4  11  23  48  67  96 135 181 228 273 333 396
#     4  10  24  46  73 101 131 174 234 275 337 402
#     4  11  24  40  74 102 126 177 229 281 334 398
#     4  12  28  46  69  97 138 183 224 277 336 401
#
# _framework density 22.007490000000001
#
# number of rings (size 3 to 8) (size 9 to 14) (size 15 to 20)
#    0.000    1.000    3.750    2.625    3.500    1.500 
#    0.000    0.625    0.000    0.000    0.000    0.000 
#    0.000    0.000    0.000    0.000    0.000    0.000 
#
# Total GULP energy -89371.905545 kJ/mol
# GULP energy per Si atom -5585.744097 kJ/mol
# Density = 2.195740 g / cm^3
# Si number density = 22.007490 Si / 1000 Ang^3
#
#
#
# Elastic Constant Matrix: (Units=GPa)
#
#
# Indices 1 2 3 4 5 6 
#
# 1 119.4564 26.5565 41.2452 -7.3266 11.7784 -19.1598
# 2 26.5565 88.7251 53.2701 13.7821 -6.8700 -3.4588
# 3 41.2452 53.2701 134.0113 15.7981 9.4753 -16.6048
# 4 -7.3266 13.7821 15.7981 44.4600 -6.0554 -1.3728
# 5 11.7784 -6.8700 9.4753 -6.0554 21.1167 6.9356
# 6 -19.1598 -3.4588 -16.6048 -1.3728 6.9356 45.0187
#
#
#
# Elastic Compliance Matrix: (Units=1/GPa)
#
#
# Indices 1 2 3 4 5 6 
#
# 1 0.011366 -0.003504 -0.001146 0.002437 -0.008060 0.005461
# 2 -0.003504 0.017634 -0.007099 -0.002056 0.011810 -0.004637
# 3 -0.001146 -0.007099 0.012368 -0.003574 -0.009867 0.004940
# 4 0.002437 -0.002056 -0.003574 0.025760 0.007214 -0.000765
# 5 -0.008060 0.011810 -0.009867 0.007214 0.067560 -0.016351
# 6 0.005461 -0.004637 0.004940 -0.000765 -0.016351 0.028499
#
#
# Mechanical properties :
#
#
# Convention : Reuss Voigt Hill
#
# Bulk Modulus (GPa) = 55.95540 64.92625 60.44083
# Shear Modulus (GPa) = 25.95499 36.86048 31.40773
#
# Velocity S-wave (km/s) = 3.43792 4.09700 3.78185
# Velocity P-wave (km/s) = 6.42183 7.20739 6.82592
#
# Compressibility (1/GPa) = 0.01787138
#
# Stress axis : x y z
#
# Youngs Moduli (GPa) = 87.98107 56.70708 80.85629
#
# Poissons Ratio (x) = 0.19868 0.09268
# Poissons Ratio (y) = 0.30825 0.57397
# Poissons Ratio (z) = 0.10084 0.40254
#
# Static dielectric constant tensor:
#      x y z
#    x 1.860950 -0.006270 0.025700 
#    y -0.006270 1.801660 0.015460 
#    z 0.025700 0.015460 1.887540 
# 
# From -- ./inp_files/427889.got.cif
#   From: 2010.05.17/outbox.cif.g08.bks.cpg/sg2_214_cif.got.tgz:427889.got - 2010.06.03 11:33:40.
