data_PCOD9045649
_publ_section_title
;
Structure prediction by ZEFSAII (Michael W. Deem and Ramdas Pophale) SiO2 
 PCOD9045649
Probable space group: P -1
;
_chemical_formula_sum "Si O2"
_cell_formula_units_Z 14
_cell_length_a 22.429835
_cell_length_b 5.331161
_cell_length_c 9.913892
_cell_angle_alpha 55.502117
_cell_angle_beta 142.416548
_cell_angle_gamma 116.532943
_cell_volume 595.886004
_symmetry_space_group_name_H-M "P -1"
_symmetry_group_IT_number 2
_symmetry_cell_setting 'triclinic'
loop_
_space_group_symop_operation_xyz
x,y,z
-x,-y,-z
loop_
_atom_site_type_symbol
_atom_site_label
_atom_site_fract_x
_atom_site_fract_y
_atom_site_fract_z
Si Si1 0.249844 0.148815 0.011906
Si Si2 0.030523 0.270817 0.308596
Si Si3 0.368435 0.442175 0.891330
Si Si4 0.700775 0.945808 0.574750
Si Si5 0.568398 0.707407 0.214432
Si Si6 0.090616 0.854737 0.130597
Si Si7 0.876018 0.317269 0.241638
O O1 0.308397 0.045390 0.282831
O O2 0.312039 0.322872 0.956063
O O3 0.170284 0.396293 0.851297
O O4 0.200554 0.857690 0.940363
O O5 0.107357 0.529194 0.328964
O O6 0.973005 0.373580 0.308509
O O7 0.086937 0.953871 0.513654
O O8 0.946593 0.228894 0.059191
O O9 0.332439 0.760018 0.661997
O O10 0.362537 0.241557 0.806857
O O11 0.485604 0.449423 0.130935
O O12 0.816706 0.930206 0.763709
O O13 0.635216 0.684369 0.472210
O O14 0.500000 0.000000 0.000000
O O15 0.000000 0.000000 0.000000
#
# Coordination Sequence:
#
# PCOD9045649 Si02
#       7
#     2   2   2   2   2   2   2
#     4  12  27  44  73 107 143 184 243 289 360 422
#     4  10  24  41  65  88 145 185 243 289 351 405
#     4  10  24  46  73 103 140 184 234 288 368 424
#     4  11  24  43  71 102 143 183 236 298 348 419
#     4   9  22  46  73 104 137 182 231 294 358 437
#     4  11  23  40  65 101 133 189 237 289 349 417
#     4  11  26  45  64 102 141 190 240 297 345 420
#
# _framework density 23.494427000000002
#
# number of rings (size 3 to 8) (size 9 to 14) (size 15 to 20)
#    0.000    1.429    1.429    1.714   10.000    4.000 
#    0.000    6.429    0.000    0.000    0.000    0.000 
#    0.000    0.000    0.000    0.000    0.000    0.000 
#
# Total GULP energy -78195.359085 kJ/mol
# GULP energy per Si atom -5585.382792 kJ/mol
# Density = 2.344095 g / cm^3
# Si number density = 23.494427 Si / 1000 Ang^3
#
#
#
# Elastic Constant Matrix: (Units=GPa)
#
#
# Indices 1 2 3 4 5 6 
#
# 1 114.8962 20.9670 37.0776 3.1870 -7.9984 1.6829
# 2 20.9670 50.1905 27.0622 7.8453 -4.4811 -6.8690
# 3 37.0776 27.0622 104.1330 18.8510 -11.4208 17.7258
# 4 3.1870 7.8453 18.8510 36.1080 -1.3053 0.2946
# 5 -7.9984 -4.4811 -11.4208 -1.3053 31.5555 -10.8724
# 6 1.6829 -6.8690 17.7258 0.2946 -10.8724 35.1048
#
#
#
# Elastic Compliance Matrix: (Units=1/GPa)
#
#
# Indices 1 2 3 4 5 6 
#
# 1 0.010264 -0.002428 -0.003307 0.001394 0.001518 0.001161
# 2 -0.002428 0.026789 -0.007049 -0.001862 0.004073 0.010195
# 3 -0.003307 -0.007049 0.015240 -0.006047 0.000416 -0.008736
# 4 0.001394 -0.001862 -0.006047 0.031114 0.000001 0.002361
# 5 0.001518 0.004073 0.000416 0.000001 0.036921 0.011949
# 6 0.001161 0.010195 -0.008736 0.002361 0.011949 0.038518
#
#
# Mechanical properties :
#
#
# Convention : Reuss Voigt Hill
#
# Bulk Modulus (GPa) = 37.41860 48.82593 43.12227
# Shear Modulus (GPa) = 25.86369 32.82785 29.34577
#
# Velocity S-wave (km/s) = 3.32150 3.74205 3.53803
# Velocity P-wave (km/s) = 5.53814 6.28471 5.92320
#
# Compressibility (1/GPa) = 0.02672467
#
# Stress axis : x y z
#
# Youngs Moduli (GPa) = 97.43025 37.32862 65.61742
#
# Poissons Ratio (x) = 0.09063 0.21699
# Poissons Ratio (y) = 0.23656 0.46254
# Poissons Ratio (z) = 0.32220 0.26313
#
# Static dielectric constant tensor:
#      x y z
#    x 1.896250 -0.008980 -0.025890 
#    y -0.008980 2.026700 -0.007590 
#    z -0.025890 -0.007590 1.934400 
# 
# From -- ./inp_files/137231.got.cif
#   From: 2010.05.17/outbox.cif.g08.bks.cpg/sg2_69_cif.got.tgz:137231.got - 2010.06.03 11:33:40.
