data_PCOD9045848
_publ_section_title
;
Structure prediction by ZEFSAII (Michael W. Deem and Ramdas Pophale) SiO2 
 PCOD9045848
Probable space group: P -1
;
_chemical_formula_sum "Si O2"
_cell_formula_units_Z 13
_cell_length_a 11.769704
_cell_length_b 9.154194
_cell_length_c 4.991727
_cell_angle_alpha 99.348571
_cell_angle_beta 107.338386
_cell_angle_gamma 68.026268
_cell_volume 475.298704
_symmetry_space_group_name_H-M "P -1"
_symmetry_group_IT_number 2
_symmetry_cell_setting 'triclinic'
loop_
_space_group_symop_operation_xyz
x,y,z
-x,-y,-z
loop_
_atom_site_type_symbol
_atom_site_label
_atom_site_fract_x
_atom_site_fract_y
_atom_site_fract_z
Si Si1 0.737365 0.254988 0.708608
Si Si2 0.283930 0.205293 0.283608
Si Si3 0.425758 0.676974 0.881558
Si Si4 0.912501 0.931730 0.747391
Si Si5 0.806146 0.605434 0.204144
Si Si6 0.500000 0.000000 0.000000
Si Si7 0.934144 0.340583 0.600077
O O1 0.623850 0.340973 0.454655
O O2 0.854976 0.316382 0.785795
O O3 0.794939 0.075050 0.592509
O O4 0.690465 0.257715 0.974270
O O5 0.156487 0.161926 0.148798
O O6 0.273582 0.251719 0.604682
O O7 0.403143 0.066474 0.211145
O O8 0.262480 0.354148 0.115929
O O9 0.500000 0.500000 0.000000
O O10 0.481158 0.821045 0.951266
O O11 0.996088 0.823173 0.546437
O O12 0.000000 0.000000 0.000000
O O13 0.830462 0.454721 0.361055
O O14 0.951141 0.596019 0.255176
#
# Coordination Sequence:
#
# PCOD9045848 Si02
#       7
#     2   2   2   2   2   1   2
#     4  12  26  48  76 111 151 200 257 320 387 456
#     4  11  26  45  73 104 147 195 254 308 381 450
#     4  12  31  53  78 114 149 204 265 320 385 452
#     4  11  23  45  74 112 150 200 250 314 386 469
#     4  10  25  45  68 112 144 199 247 307 389 451
#     4  12  30  52  84 106 158 200 262 324 380 456
#     4  10  24  41  74 104 154 191 247 317 378 466
#
# _framework density 27.351219
#
# number of rings (size 3 to 8) (size 9 to 14) (size 15 to 20)
#    0.000    0.923    1.538    2.769    8.615   10.462 
#    0.000    0.000    0.000    0.000    0.000    0.000 
#    0.000    0.000    0.000    0.000    0.000    0.000 
#
# Total GULP energy -72564.454471 kJ/mol
# GULP energy per Si atom -5581.881113 kJ/mol
# Density = 2.728897 g / cm^3
# Si number density = 27.351219 Si / 1000 Ang^3
#
#
#
# Elastic Constant Matrix: (Units=GPa)
#
#
# Indices 1 2 3 4 5 6 
#
# 1 135.7561 28.8377 45.1683 13.0468 -38.1333 15.4526
# 2 28.8377 112.1550 11.6351 11.4629 -5.7289 0.6599
# 3 45.1683 11.6351 122.3197 5.6476 -17.8819 2.3078
# 4 13.0468 11.4629 5.6476 54.1303 -11.8405 -7.8901
# 5 -38.1333 -5.7289 -17.8819 -11.8405 56.2094 -9.1048
# 6 15.4526 0.6599 2.3078 -7.8901 -9.1048 35.8121
#
#
#
# Elastic Compliance Matrix: (Units=1/GPa)
#
#
# Indices 1 2 3 4 5 6 
#
# 1 0.010763 -0.002056 -0.002874 -0.001160 0.005399 -0.003304
# 2 -0.002056 0.009594 -0.000197 -0.001670 -0.000807 0.000150
# 3 -0.002874 -0.000197 0.009407 0.000162 0.001216 0.000982
# 4 -0.001160 -0.001670 0.000162 0.021002 0.004539 0.006302
# 5 0.005399 -0.000807 0.001216 0.004539 0.023454 0.004570
# 6 -0.003304 0.000150 0.000982 0.006302 0.004570 0.031833
#
#
# Mechanical properties :
#
#
# Convention : Reuss Voigt Hill
#
# Bulk Modulus (GPa) = 51.25382 60.16810 55.71096
# Shear Modulus (GPa) = 40.71336 48.20300 44.45818
#
# Velocity S-wave (km/s) = 3.86234 4.20261 4.03607
# Velocity P-wave (km/s) = 6.21853 6.75243 6.49097
#
# Compressibility (1/GPa) = 0.01951074
#
# Stress axis : x y z
#
# Youngs Moduli (GPa) = 92.91176 104.23355 106.30370
#
# Poissons Ratio (x) = 0.21426 0.30549
# Poissons Ratio (y) = 0.19098 0.02096
# Poissons Ratio (z) = 0.26700 0.02056
#
# Static dielectric constant tensor:
#      x y z
#    x 2.109360 -0.006260 0.067880 
#    y -0.006260 2.210500 -0.032330 
#    z 0.067880 -0.032330 2.072480 
# 
# From -- ./inp_files/87575.got.cif
#   From: 2010.05.17/outbox.cif.g08.bks.cpg/sg2_44_cif.got.tgz:87575.got - 2010.06.03 11:33:40.
