data_PCOD9045203
_publ_section_title
;
Structure prediction by ZEFSAII (Michael W. Deem and Ramdas Pophale) SiO2 
 PCOD9045203
Probable space group: P -1
;
_chemical_formula_sum "Si O2"
_cell_formula_units_Z 16
_cell_length_a 17.672186
_cell_length_b 26.862855
_cell_length_c 14.943855
_cell_angle_alpha 18.431169
_cell_angle_beta 27.054392
_cell_angle_gamma 21.300086
_cell_volume 813.378785
_symmetry_space_group_name_H-M "P -1"
_symmetry_group_IT_number 2
_symmetry_cell_setting 'triclinic'
loop_
_space_group_symop_operation_xyz
x,y,z
-x,-y,-z
loop_
_atom_site_type_symbol
_atom_site_label
_atom_site_fract_x
_atom_site_fract_y
_atom_site_fract_z
Si Si1 0.884494 0.228175 0.211161
Si Si2 0.522736 0.395135 0.975086
Si Si3 0.141572 0.315775 0.290919
Si Si4 0.860497 0.576753 0.687123
Si Si5 0.278376 0.816700 0.217854
Si Si6 0.267629 0.479741 0.722128
Si Si7 0.758544 0.084520 0.107397
Si Si8 0.079403 0.756064 0.065178
O O1 0.643661 0.368205 0.259328
O O2 0.973551 0.340511 0.968457
O O3 0.883060 0.261352 0.050104
O O4 0.000000 0.000000 0.500000
O O5 0.365269 0.340216 0.259565
O O6 0.625946 0.284259 0.962426
O O7 0.707883 0.326675 0.964805
O O8 0.179378 0.352073 0.289610
O O9 0.892036 0.443378 0.321995
O O10 0.245326 0.087239 0.555880
O O11 0.214380 0.387882 0.013008
O O12 0.981585 0.646942 0.389630
O O13 0.230862 0.669321 0.483900
O O14 0.490655 0.682498 0.278685
O O15 0.315745 0.885124 0.967989
O O16 0.088956 0.011823 0.131359
O O17 0.000000 0.000000 0.000000
#
# Coordination Sequence:
#
# PCOD9045203 Si02
#       8
#     2   2   2   2   2   2   2   2
#     4  10  26  47  68  96 131 173 220 279 329 375
#     4  10  24  41  74  95 133 174 216 270 330 386
#     4  11  21  41  61  93 138 167 216 261 327 394
#     4  10  24  42  70  96 127 175 224 272 314 396
#     4  11  23  38  62  95 133 171 211 265 326 393
#     4  10  24  36  58  95 138 174 201 266 334 392
#     4  12  20  39  66 101 129 172 218 259 325 400
#     4  12  22  46  70  94 129 173 227 270 318 389
#
# _framework density 19.671033000000001
#
# number of rings (size 3 to 8) (size 9 to 14) (size 15 to 20)
#    0.750    0.500    3.750    1.500    3.500    2.000 
#    0.000    0.625    0.000    0.000    0.000    0.000 
#    0.000    0.000    0.000    0.000    0.000    0.000 
#
# Total GULP energy -89261.543289 kJ/mol
# GULP energy per Si atom -5578.846456 kJ/mol
# Density = 1.962626 g / cm^3
# Si number density = 19.671033 Si / 1000 Ang^3
#
#
#
# Elastic Constant Matrix: (Units=GPa)
#
#
# Indices 1 2 3 4 5 6 
#
# 1 85.8733 56.2436 2.7621 -9.2773 8.2264 -26.7867
# 2 56.2436 124.4821 40.5851 -32.1895 -2.7420 -13.4454
# 3 2.7621 40.5851 101.0103 -11.7978 -18.8110 1.1783
# 4 -9.2773 -32.1895 -11.7978 40.7573 -3.3378 -1.5174
# 5 8.2264 -2.7420 -18.8110 -3.3378 36.1569 -7.6031
# 6 -26.7867 -13.4454 1.1783 -1.5174 -7.6031 56.9945
#
#
#
# Elastic Compliance Matrix: (Units=1/GPa)
#
#
# Indices 1 2 3 4 5 6 
#
# 1 0.020124 -0.009913 0.002532 -0.002503 -0.002852 0.006620
# 2 -0.009913 0.016631 -0.004956 0.009586 0.001794 -0.000138
# 3 0.002532 -0.004956 0.013054 0.000958 0.006051 0.000584
# 4 -0.002503 0.009586 0.000958 0.032349 0.005336 0.002638
# 5 -0.002852 0.001794 0.006051 0.005336 0.032814 0.003477
# 6 0.006620 -0.000138 0.000584 0.002638 0.003477 0.021146
#
#
# Mechanical properties :
#
#
# Convention : Reuss Voigt Hill
#
# Bulk Modulus (GPa) = 39.78416 56.72747 48.25581
# Shear Modulus (GPa) = 29.55595 40.90006 35.22801
#
# Velocity S-wave (km/s) = 3.88043 4.56477 4.23644
# Velocity P-wave (km/s) = 6.35182 7.52885 6.96524
#
# Compressibility (1/GPa) = 0.02513563
#
# Stress axis : x y z
#
# Youngs Moduli (GPa) = 49.69185 60.12775 76.60540
#
# Poissons Ratio (x) = 0.59604 -0.19396
# Poissons Ratio (y) = 0.49259 0.37965
# Poissons Ratio (z) = -0.12582 0.29799
#
# Static dielectric constant tensor:
#      x y z
#    x 1.687430 -0.032230 -0.000730 
#    y -0.032230 1.730150 0.009000 
#    z -0.000730 0.009000 1.724140 
# 
# From -- ./inp_files/539371.got.cif
#   From: 2010.05.17/outbox.cif.g08.bks.cpg/sg2_270_cif.got.tgz:539371.got - 2010.06.03 11:33:40.
