data_PCOD9045540
_publ_section_title
;
Structure prediction by ZEFSAII (Michael W. Deem and Ramdas Pophale) SiO2 
 PCOD9045540
Probable space group: P -1
;
_chemical_formula_sum "Si O2"
_cell_formula_units_Z 16
_cell_length_a 19.596625
_cell_length_b 11.650050
_cell_length_c 7.403822
_cell_angle_alpha 79.109121
_cell_angle_beta 89.798178
_cell_angle_gamma 23.875159
_cell_volume 607.864767
_symmetry_space_group_name_H-M "P -1"
_symmetry_group_IT_number 2
_symmetry_cell_setting 'triclinic'
loop_
_space_group_symop_operation_xyz
x,y,z
-x,-y,-z
loop_
_atom_site_type_symbol
_atom_site_label
_atom_site_fract_x
_atom_site_fract_y
_atom_site_fract_z
Si Si1 0.408759 0.714485 0.601030
Si Si2 0.754753 0.849677 0.047716
Si Si3 0.211390 0.772955 0.154841
Si Si4 0.659112 0.409498 0.170921
Si Si5 0.328947 0.191049 0.249233
Si Si6 0.743202 0.460035 0.465661
Si Si7 0.093968 0.400841 0.347561
Si Si8 0.116393 0.602346 0.814272
O O1 0.500000 0.500000 0.500000
O O2 0.577674 0.522523 0.728670
O O3 0.337870 0.731864 0.739306
O O4 0.247379 0.054050 0.432314
O O5 0.831190 0.607150 0.204849
O O6 0.919234 0.678703 0.127141
O O7 0.720368 0.849067 0.851769
O O8 0.553223 0.217575 0.993281
O O9 0.188703 0.691034 0.295710
O O10 0.201709 0.781840 0.936657
O O11 0.072773 0.083605 0.164437
O O12 0.698910 0.418427 0.350894
O O13 0.192873 0.372055 0.360438
O O14 0.547556 0.840238 0.385103
O O15 0.270327 0.378693 0.041084
O O16 0.874046 0.325497 0.373455
O O17 0.000000 0.500000 0.500000
#
# Coordination Sequence:
#
# PCOD9045540 Si02
#       8
#     2   2   2   2   2   2   2   2
#     4  12  23  41  64  94 130 170 200 256 325 377
#     4   9  22  40  62  92 122 163 214 243 318 368
#     4  12  24  42  64  97 127 162 212 261 321 366
#     4  11  25  40  67  94 131 165 203 266 313 382
#     4   9  21  39  65  87 118 167 201 255 310 365
#     4  11  22  47  65  89 128 169 218 249 321 366
#     4  12  23  37  63  97 129 156 205 265 308 379
#     4  10  24  40  71  87 121 172 213 264 299 379
#
# _framework density 26.321643999999999
#
# number of rings (size 3 to 8) (size 9 to 14) (size 15 to 20)
#    0.750    0.500    2.500    3.750    3.500    0.500 
#    0.000    1.875    0.000    0.000    0.000    0.000 
#    0.000    0.000    0.000    0.000    0.000    0.000 
#
# Total GULP energy -89408.299583 kJ/mol
# GULP energy per Si atom -5588.018724 kJ/mol
# Density = 2.626174 g / cm^3
# Si number density = 26.321644 Si / 1000 Ang^3
#
#
#
# Elastic Constant Matrix: (Units=GPa)
#
#
# Indices 1 2 3 4 5 6 
#
# 1 62.8840 25.1007 30.6330 -0.6278 -14.4897 -13.6419
# 2 25.1007 80.2215 55.8725 6.9690 -4.6497 -20.3856
# 3 30.6330 55.8725 110.5854 12.7987 -34.8616 -6.8440
# 4 -0.6278 6.9690 12.7987 48.6156 -11.7585 1.2133
# 5 -14.4897 -4.6497 -34.8616 -11.7585 47.4913 1.8700
# 6 -13.6419 -20.3856 -6.8440 1.2133 1.8700 29.2808
#
#
#
# Elastic Compliance Matrix: (Units=1/GPa)
#
#
# Indices 1 2 3 4 5 6 
#
# 1 0.020888 -0.002751 -0.002893 0.002292 0.004281 0.006772
# 2 -0.002751 0.027277 -0.015082 -0.002900 -0.010548 0.014978
# 3 -0.002893 -0.015082 0.021256 -0.000001 0.013549 -0.007745
# 4 0.002292 -0.002900 -0.000001 0.022544 0.006086 -0.002274
# 5 0.004281 -0.010548 0.013549 0.006086 0.032961 -0.004539
# 6 0.006772 0.014978 -0.007745 -0.002274 -0.004539 0.046308
#
#
# Mechanical properties :
#
#
# Convention : Reuss Voigt Hill
#
# Bulk Modulus (GPa) = 35.75318 52.98926 44.37122
# Shear Modulus (GPa) = 22.52147 34.54982 28.53565
#
# Velocity S-wave (km/s) = 2.92828 3.62691 3.29616
# Velocity P-wave (km/s) = 5.00458 6.14121 5.60180
#
# Compressibility (1/GPa) = 0.02796954
#
# Stress axis : x y z
#
# Youngs Moduli (GPa) = 47.87443 36.66055 47.04484
#
# Poissons Ratio (x) = 0.10086 0.13609
# Poissons Ratio (y) = 0.13171 0.70954
# Poissons Ratio (z) = 0.13849 0.55292
#
# Static dielectric constant tensor:
#      x y z
#    x 2.088310 -0.013760 0.022140 
#    y -0.013760 2.258900 0.117100 
#    z 0.022140 0.117100 2.095550 
# 
# From -- ./inp_files/354329.got.cif
#   From: 2010.05.17/outbox.cif.g08.bks.cpg/sg2_178_cif.got.tgz:354329.got - 2010.06.03 11:33:40.
