data_PCOD9045635
_publ_section_title
;
Structure prediction by ZEFSAII (Michael W. Deem and Ramdas Pophale) SiO2 
 PCOD9045635
Probable space group: P -1
;
_chemical_formula_sum "Si O2"
_cell_formula_units_Z 14
_cell_length_a 14.362239
_cell_length_b 6.595371
_cell_length_c 21.641336
_cell_angle_alpha 101.017670
_cell_angle_beta 159.514762
_cell_angle_gamma 87.809259
_cell_volume 642.322669
_symmetry_space_group_name_H-M "P -1"
_symmetry_group_IT_number 2
_symmetry_cell_setting 'triclinic'
loop_
_space_group_symop_operation_xyz
x,y,z
-x,-y,-z
loop_
_atom_site_type_symbol
_atom_site_label
_atom_site_fract_x
_atom_site_fract_y
_atom_site_fract_z
Si Si1 0.271116 0.063103 0.033749
Si Si2 0.388250 0.264470 0.380553
Si Si3 0.451994 0.718145 0.654835
Si Si4 0.471948 0.378255 0.056633
Si Si5 0.054758 0.768850 0.686000
Si Si6 0.253869 0.103113 0.713512
Si Si7 0.852478 0.117029 0.618503
O O1 0.352860 0.178611 0.158564
O O2 0.387115 0.248789 0.062189
O O3 0.452243 0.910112 0.129458
O O4 0.929483 0.911492 0.808109
O O5 0.500000 0.500000 0.500000
O O6 0.383037 0.309382 0.305716
O O7 0.627417 0.156588 0.526813
O O8 0.295446 0.875078 0.539203
O O9 0.199537 0.474861 0.499767
O O10 0.654370 0.271141 0.123086
O O11 0.667535 0.638764 0.205787
O O12 0.163794 0.327565 0.830496
O O13 0.145464 0.935925 0.694198
O O14 0.926459 0.899568 0.660379
O O15 0.000000 0.000000 0.500000
#
# Coordination Sequence:
#
# PCOD9045635 Si02
#       7
#     2   2   2   2   2   2   2
#     4  11  23  44  68  99 131 175 215 265 329 382
#     4  10  24  46  70  92 131 172 222 272 322 383
#     4  10  24  43  68  95 134 169 219 268 323 387
#     4  11  24  39  67  99 135 170 217 267 322 394
#     4  11  22  40  65  97 134 171 217 261 333 378
#     4  11  23  40  67  96 138 169 213 270 323 393
#     4  10  24  41  64  95 133 169 218 270 322 384
#
# _framework density 21.795898999999999
#
# number of rings (size 3 to 8) (size 9 to 14) (size 15 to 20)
#    0.857    0.571    0.000    5.143    2.000    6.286 
#    2.571    0.714    0.000    0.000    0.000    0.000 
#    0.000    0.000    0.000    0.000    0.000    0.000 
#
# Total GULP energy -78239.724738 kJ/mol
# GULP energy per Si atom -5588.551767 kJ/mol
# Density = 2.174629 g / cm^3
# Si number density = 21.795899 Si / 1000 Ang^3
#
#
#
# Elastic Constant Matrix: (Units=GPa)
#
#
# Indices 1 2 3 4 5 6 
#
# 1 118.4876 60.3654 51.4350 -1.4112 -3.3019 -11.4162
# 2 60.3654 95.0787 61.5862 -0.3494 21.5776 -13.5325
# 3 51.4350 61.5862 140.3858 -4.5999 16.8788 -9.9783
# 4 -1.4112 -0.3494 -4.5999 36.6837 -3.0466 7.7229
# 5 -3.3019 21.5776 16.8788 -3.0466 41.6002 -8.2046
# 6 -11.4162 -13.5325 -9.9783 7.7229 -8.2046 39.5711
#
#
#
# Elastic Compliance Matrix: (Units=1/GPa)
#
#
# Indices 1 2 3 4 5 6 
#
# 1 0.014349 -0.009203 -0.001925 0.000413 0.007098 0.001898
# 2 -0.009203 0.022188 -0.005093 -0.002024 -0.009929 0.001985
# 3 -0.001925 -0.005093 0.010279 0.001084 -0.001653 -0.000260
# 4 0.000413 -0.002024 0.001084 0.028700 0.001648 -0.005559
# 5 0.007098 -0.009929 -0.001653 0.001648 0.031417 0.004427
# 6 0.001898 0.001985 -0.000260 -0.005559 0.004427 0.028435
#
#
# Mechanical properties :
#
#
# Convention : Reuss Voigt Hill
#
# Bulk Modulus (GPa) = 69.57106 77.85837 73.71472
# Shear Modulus (GPa) = 28.96847 35.60870 32.28858
#
# Velocity S-wave (km/s) = 3.64961 4.04633 3.85308
# Velocity P-wave (km/s) = 7.05324 7.59141 7.32727
#
# Compressibility (1/GPa) = 0.01437379
#
# Stress axis : x y z
#
# Youngs Moduli (GPa) = 69.68913 45.06946 97.28657
#
# Poissons Ratio (x) = 0.41475 0.18730
# Poissons Ratio (y) = 0.64132 0.49553
# Poissons Ratio (z) = 0.13417 0.22956
#
# Static dielectric constant tensor:
#      x y z
#    x 1.860950 -0.019340 0.010110 
#    y -0.019340 1.814190 -0.031530 
#    z 0.010110 -0.031530 1.749450 
# 
# From -- ./inp_files/611327.got.cif
#   From: 2010.05.17/outbox.cif.g08.bks.cpg/sg2_306_cif.got.tgz:611327.got - 2010.06.03 11:33:40.
