data_PCOD9045404
_publ_section_title
;
Structure prediction by ZEFSAII (Michael W. Deem and Ramdas Pophale) SiO2 
 PCOD9045404
Probable space group: P -1
;
_chemical_formula_sum "Si O2"
_cell_formula_units_Z 12
_cell_length_a 9.821814
_cell_length_b 8.600813
_cell_length_c 7.219625
_cell_angle_alpha 77.428840
_cell_angle_beta 88.867422
_cell_angle_gamma 73.414001
_cell_volume 569.908240
_symmetry_space_group_name_H-M "P -1"
_symmetry_group_IT_number 2
_symmetry_cell_setting 'triclinic'
loop_
_space_group_symop_operation_xyz
x,y,z
-x,-y,-z
loop_
_atom_site_type_symbol
_atom_site_label
_atom_site_fract_x
_atom_site_fract_y
_atom_site_fract_z
Si Si1 0.520037 0.747860 0.455321
Si Si2 0.440014 0.561135 0.187293
Si Si3 0.265826 0.031557 0.543696
Si Si4 0.106439 0.094198 0.887031
Si Si5 0.898188 0.741416 0.806869
Si Si6 0.126548 0.619029 0.120071
O O1 0.517096 0.675345 0.268462
O O2 0.548850 0.596395 0.638801
O O3 0.635997 0.846832 0.450976
O O4 0.366492 0.872685 0.479322
O O5 0.273660 0.655200 0.142210
O O6 0.500000 0.500000 0.000000
O O7 0.204948 0.996371 0.750408
O O8 0.135533 0.132672 0.393278
O O9 0.998212 0.269691 0.774753
O O10 0.184185 0.153913 0.041558
O O11 0.000000 0.000000 0.000000
O O12 0.853530 0.576206 0.810209
O O13 0.057837 0.672748 0.903827
#
# Coordination Sequence:
#
# PCOD9045404 Si02
#       6
#     2   2   2   2   2   2
#     4  10  26  42  64 101 127 174 219 252 326 396
#     4  11  24  44  68  92 132 170 218 267 313 386
#     4  11  23  44  66  94 137 168 211 271 324 382
#     4  10  24  40  64  99 125 170 215 268 327 371
#     4   9  21  41  64  91 129 163 216 262 324 382
#     4   9  21  43  61  96 125 162 220 262 317 383
#
# _framework density 21.056021000000001
#
# number of rings (size 3 to 8) (size 9 to 14) (size 15 to 20)
#    1.000    1.000    1.667    0.000    7.000    1.333 
#    6.000    3.333    0.000    0.000    0.000    0.000 
#    0.000    0.000    0.000    0.000    0.000    0.000 
#
# Total GULP energy -66894.105552 kJ/mol
# GULP energy per Si atom -5574.508796 kJ/mol
# Density = 2.100810 g / cm^3
# Si number density = 21.056021 Si / 1000 Ang^3
#
#
#
# Elastic Constant Matrix: (Units=GPa)
#
#
# Indices 1 2 3 4 5 6 
#
# 1 32.8833 8.0969 16.9550 -1.7751 6.2566 -5.2124
# 2 8.0969 66.8636 27.8594 9.8112 0.9379 -0.4459
# 3 16.9550 27.8594 101.3371 14.7478 -3.7499 -9.1767
# 4 -1.7751 9.8112 14.7478 30.9999 -6.7216 -1.4976
# 5 6.2566 0.9379 -3.7499 -6.7216 33.2833 -1.7824
# 6 -5.2124 -0.4459 -9.1767 -1.4976 -1.7824 13.1542
#
#
#
# Elastic Compliance Matrix: (Units=1/GPa)
#
#
# Indices 1 2 3 4 5 6 
#
# 1 0.036922 -0.002778 -0.005375 0.004771 -0.005941 0.010525
# 2 -0.002778 0.017664 -0.004198 -0.004284 -0.001535 -0.004127
# 3 -0.005375 -0.004198 0.013267 -0.004515 0.002073 0.006750
# 4 0.004771 -0.004284 -0.004515 0.037630 0.006516 0.003763
# 5 -0.005941 -0.001535 0.002073 0.006516 0.032982 0.004251
# 6 0.010525 -0.004127 0.006750 0.003763 0.004251 0.085765
#
#
# Mechanical properties :
#
#
# Convention : Reuss Voigt Hill
#
# Bulk Modulus (GPa) = 23.17485 34.10073 28.63779
# Shear Modulus (GPa) = 18.98856 25.36567 22.17711
#
# Velocity S-wave (km/s) = 3.00628 3.47461 3.24889
# Velocity P-wave (km/s) = 4.80421 5.68574 5.26346
#
# Compressibility (1/GPa) = 0.04315023
#
# Stress axis : x y z
#
# Youngs Moduli (GPa) = 27.08400 56.61162 75.37757
#
# Poissons Ratio (x) = 0.15728 0.40514
# Poissons Ratio (y) = 0.07524 0.31646
# Poissons Ratio (z) = 0.14557 0.23768
#
# Static dielectric constant tensor:
#      x y z
#    x 1.746170 -0.006990 0.010500 
#    y -0.006990 1.808050 0.014170 
#    z 0.010500 0.014170 1.752720 
# 
# From -- ./inp_files/60676.got.cif
#   From: 2010.05.17/outbox.cif.g08.bks.cpg/sg2_31_cif.got.tgz:60676.got - 2010.06.03 11:33:40.
