data_PCOD9045031
_publ_section_title
;
Structure prediction by ZEFSAII (Michael W. Deem and Ramdas Pophale) SiO2 
 PCOD9045031
Probable space group: P -1
;
_chemical_formula_sum "Si O2"
_cell_formula_units_Z 14
_cell_length_a 12.749857
_cell_length_b 7.707434
_cell_length_c 14.776979
_cell_angle_alpha 127.944856
_cell_angle_beta 151.908335
_cell_angle_gamma 48.028921
_cell_volume 507.085450
_symmetry_space_group_name_H-M "P -1"
_symmetry_group_IT_number 2
_symmetry_cell_setting 'triclinic'
loop_
_space_group_symop_operation_xyz
x,y,z
-x,-y,-z
loop_
_atom_site_type_symbol
_atom_site_label
_atom_site_fract_x
_atom_site_fract_y
_atom_site_fract_z
Si Si1 0.520490 0.061577 0.252141
Si Si2 0.977344 0.930511 0.188695
Si Si3 0.740929 0.632752 0.378393
Si Si4 0.359248 0.480180 0.068765
Si Si5 0.433144 0.598684 0.356995
Si Si6 0.217432 0.001129 0.730531
Si Si7 0.130231 0.325503 0.323955
O O1 0.541366 0.317751 0.356602
O O2 0.657144 0.889800 0.217520
O O3 0.652081 0.908269 0.387489
O O4 0.245595 0.099557 0.043510
O O5 0.206025 0.700314 0.279755
O O6 0.891195 0.969922 0.241021
O O7 0.046573 0.128726 0.246599
O O8 0.520225 0.569734 0.152840
O O9 0.781493 0.552411 0.487392
O O10 0.000000 0.500000 0.500000
O O11 0.323985 0.635896 0.183127
O O12 0.537199 0.221652 0.140791
O O13 0.101185 0.504174 0.846099
O O14 0.627583 0.726229 0.564526
O O15 0.000000 0.000000 0.500000
#
# Coordination Sequence:
#
# PCOD9045031 Si02
#       7
#     2   2   2   2   2   2   2
#     4  11  24  49  73 113 154 197 254 316 380 446
#     4  12  24  47  83 110 149 207 253 308 383 453
#     4  11  23  43  77 110 153 192 252 318 375 448
#     4  10  23  48  74 108 150 197 249 313 372 451
#     4  10  26  50  75 110 158 201 249 315 377 452
#     4  11  25  48  75 112 151 190 255 317 377 444
#     4  11  24  47  77 111 149 203 257 302 381 450
#
# _framework density 27.608758000000002
#
# number of rings (size 3 to 8) (size 9 to 14) (size 15 to 20)
#    0.000    1.143    1.429    3.857    2.000    1.714 
#   25.714    6.429    0.000    0.000    0.000    0.000 
#    0.000    0.000    0.000    0.000    0.000    0.000 
#
# Total GULP energy -78121.797064 kJ/mol
# GULP energy per Si atom -5580.128362 kJ/mol
# Density = 2.754592 g / cm^3
# Si number density = 27.608758 Si / 1000 Ang^3
#
#
#
# Elastic Constant Matrix: (Units=GPa)
#
#
# Indices 1 2 3 4 5 6 
#
# 1 129.9923 55.1331 81.0615 -17.3084 27.2518 -15.4338
# 2 55.1331 98.9679 42.0633 -14.5753 10.3014 7.5667
# 3 81.0615 42.0633 207.2100 -23.4306 19.4184 -7.0758
# 4 -17.3084 -14.5753 -23.4306 41.9867 7.6769 14.7196
# 5 27.2518 10.3014 19.4184 7.6769 52.5787 -1.5333
# 6 -15.4338 7.5667 -7.0758 14.7196 -1.5333 55.7436
#
#
#
# Elastic Compliance Matrix: (Units=1/GPa)
#
#
# Indices 1 2 3 4 5 6 
#
# 1 0.014075 -0.005903 -0.003568 0.001342 -0.004907 0.003756
# 2 -0.005903 0.014545 -0.000290 0.004205 -0.000436 -0.004768
# 3 -0.003568 -0.000290 0.006634 0.002590 -0.000946 -0.000816
# 4 0.001342 0.004205 0.002590 0.031563 -0.007330 -0.008407
# 5 -0.004907 -0.000436 -0.000946 -0.007330 0.023101 0.001151
# 6 0.003756 -0.004768 -0.000816 -0.008407 0.001151 0.021774
#
#
# Mechanical properties :
#
#
# Convention : Reuss Voigt Hill
#
# Bulk Modulus (GPa) = 63.56113 88.07623 75.81868
# Shear Modulus (GPa) = 36.64128 47.25595 41.94862
#
# Velocity S-wave (km/s) = 3.64698 4.14167 3.90217
# Velocity P-wave (km/s) = 6.38796 7.40554 6.91549
#
# Compressibility (1/GPa) = 0.01573289
#
# Stress axis : x y z
#
# Youngs Moduli (GPa) = 71.04968 68.75133 150.73247
#
# Poissons Ratio (x) = 0.40584 0.53779
# Poissons Ratio (y) = 0.41940 0.04368
# Poissons Ratio (z) = 0.25350 0.01992
#
# Static dielectric constant tensor:
#      x y z
#    x 2.495710 0.032110 0.049590 
#    y 0.032110 2.307610 0.110290 
#    z 0.049590 0.110290 2.157290 
# 
# From -- ./inp_files/516167.got.cif
#   From: 2010.05.17/outbox.cif.g08.bks.cpg/sg2_259_cif.got.tgz:516167.got - 2010.06.03 11:33:40.
