data_PCOD9045545
_publ_section_title
;
Structure prediction by ZEFSAII (Michael W. Deem and Ramdas Pophale) SiO2 
 PCOD9045545
Probable space group: P -1
;
_chemical_formula_sum "Si O2"
_cell_formula_units_Z 14
_cell_length_a 11.041353
_cell_length_b 8.103795
_cell_length_c 18.013485
_cell_angle_alpha 148.147652
_cell_angle_beta 40.178072
_cell_angle_gamma 121.659900
_cell_volume 511.014877
_symmetry_space_group_name_H-M "P -1"
_symmetry_group_IT_number 2
_symmetry_cell_setting 'triclinic'
loop_
_space_group_symop_operation_xyz
x,y,z
-x,-y,-z
loop_
_atom_site_type_symbol
_atom_site_label
_atom_site_fract_x
_atom_site_fract_y
_atom_site_fract_z
Si Si1 0.505457 0.274796 0.539973
Si Si2 0.612027 0.949102 0.745886
Si Si3 0.652990 0.713653 0.870522
Si Si4 0.887296 0.165683 0.909450
Si Si5 0.036296 0.805495 0.559160
Si Si6 0.645590 0.762404 0.158764
Si Si7 0.950786 0.343250 0.110841
O O1 0.570560 0.599366 0.650162
O O2 0.500000 0.000000 0.500000
O O3 0.644940 0.065147 0.328309
O O4 0.274932 0.424496 0.675374
O O5 0.837837 0.929767 0.648399
O O6 0.541001 0.062956 0.740159
O O7 0.466922 0.234097 0.977367
O O8 0.759115 0.354662 0.644198
O O9 0.834006 0.855894 0.847745
O O10 0.500000 0.000000 0.000000
O O11 0.944893 0.315052 0.013080
O O12 0.036023 0.031899 0.718032
O O13 0.688031 0.450765 0.076124
O O14 0.000000 0.500000 0.500000
O O15 0.839454 0.608762 0.955555
O O16 0.000000 0.000000 0.000000
#
# Coordination Sequence:
#
# PCOD9045545 Si02
#       7
#     2   2   2   2   2   2   2
#     4  12  26  43  71 104 138 187 230 283 351 416
#     4  12  24  43  69 101 140 177 231 287 346 415
#     4  11  21  43  68  97 128 178 234 281 340 411
#     4  11  23  45  67 101 141 178 230 287 343 414
#     4  10  24  40  71  98 129 183 226 283 353 399
#     4  12  27  43  68 104 143 181 227 293 345 415
#     4  12  25  45  70 102 141 183 233 284 346 412
#
# _framework density 27.396464000000002
#
# number of rings (size 3 to 8) (size 9 to 14) (size 15 to 20)
#    0.000    0.571    7.143    0.857    4.000    1.714 
#    2.571    0.714    0.000    0.000    0.000    1.000 
#    0.000    0.000    0.000    0.000    0.000    0.000 
#
# Total GULP energy -78262.720939 kJ/mol
# GULP energy per Si atom -5590.194353 kJ/mol
# Density = 2.733411 g / cm^3
# Si number density = 27.396464 Si / 1000 Ang^3
#
#
#
# Elastic Constant Matrix: (Units=GPa)
#
#
# Indices 1 2 3 4 5 6 
#
# 1 132.3880 35.7822 57.5044 9.4903 2.8075 -20.3142
# 2 35.7822 126.0480 40.9047 19.8794 -4.2097 -9.1495
# 3 57.5044 40.9047 192.2840 -14.7016 5.2433 -2.2970
# 4 9.4903 19.8794 -14.7016 47.8540 3.5913 -0.3506
# 5 2.8075 -4.2097 5.2433 3.5913 59.9920 5.4586
# 6 -20.3142 -9.1495 -2.2970 -0.3506 5.4586 54.1219
#
#
#
# Elastic Compliance Matrix: (Units=1/GPa)
#
#
# Indices 1 2 3 4 5 6 
#
# 1 0.009792 -0.001310 -0.002763 -0.002186 -0.000485 0.003371
# 2 -0.001310 0.009789 -0.002055 -0.004515 0.001113 0.000935
# 3 -0.002763 -0.002055 0.006741 0.003520 -0.000724 -0.001003
# 4 -0.002186 -0.004515 0.003520 0.024421 -0.001885 -0.001086
# 5 -0.000485 0.001113 -0.000724 -0.001885 0.017106 -0.001762
# 6 0.003371 0.000935 -0.001003 -0.001086 -0.001762 0.020028
#
#
# Mechanical properties :
#
#
# Convention : Reuss Voigt Hill
#
# Bulk Modulus (GPa) = 71.09400 79.90029 75.49714
# Shear Modulus (GPa) = 47.69931 53.49550 50.59741
#
# Velocity S-wave (km/s) = 4.17715 4.42367 4.30217
# Velocity P-wave (km/s) = 7.01934 7.43771 7.23155
#
# Compressibility (1/GPa) = 0.01406589
#
# Stress axis : x y z
#
# Youngs Moduli (GPa) = 102.12214 102.15221 148.34271
#
# Poissons Ratio (x) = 0.13379 0.40994
# Poissons Ratio (y) = 0.13375 0.30487
# Poissons Ratio (z) = 0.28221 0.20994
#
# Static dielectric constant tensor:
#      x y z
#    x 2.261000 0.155850 -0.011990 
#    y 0.155850 2.232630 0.039010 
#    z -0.011990 0.039010 2.231330 
# 
# From -- ./inp_files/567041.got.cif
#   From: 2010.05.17/outbox.cif.g08.bks.cpg/sg2_284_cif.got.tgz:567041.got - 2010.06.03 11:33:40.
