data_PCOD9045798
_publ_section_title
;
Structure prediction by ZEFSAII (Michael W. Deem and Ramdas Pophale) SiO2 
 PCOD9045798
Probable space group: P -1
;
_chemical_formula_sum "Si O2"
_cell_formula_units_Z 16
_cell_length_a 8.830129
_cell_length_b 14.850141
_cell_length_c 9.172273
_cell_angle_alpha 141.033822
_cell_angle_beta 65.186411
_cell_angle_gamma 103.187003
_cell_volume 676.303586
_symmetry_space_group_name_H-M "P -1"
_symmetry_group_IT_number 2
_symmetry_cell_setting 'triclinic'
loop_
_space_group_symop_operation_xyz
x,y,z
-x,-y,-z
loop_
_atom_site_type_symbol
_atom_site_label
_atom_site_fract_x
_atom_site_fract_y
_atom_site_fract_z
Si Si1 0.197594 0.830766 0.589158
Si Si2 0.624085 0.610546 0.756369
Si Si3 0.634164 0.585260 0.412005
Si Si4 0.090567 0.539764 0.364708
Si Si5 0.060835 0.045985 0.378738
Si Si6 0.532127 0.830051 0.295199
Si Si7 0.372477 0.887367 0.886319
Si Si8 0.171182 0.323056 0.810002
O O1 0.093241 0.704869 0.523193
O O2 0.362467 0.775904 0.352333
O O3 0.276150 0.896413 0.781615
O O4 0.075155 0.946182 0.685805
O O5 0.722509 0.600278 0.550792
O O6 0.448559 0.557882 0.730000
O O7 0.714271 0.510184 0.722038
O O8 0.591595 0.767431 0.034994
O O9 0.484635 0.726813 0.646076
O O10 0.746045 0.583997 0.223512
O O11 0.000000 0.500000 0.500000
O O12 0.066199 0.431033 0.105313
O O13 0.088373 0.210725 0.605764
O O14 0.000000 0.000000 0.500000
O O15 0.227331 0.934715 0.124016
O O16 0.679777 0.776359 0.283674
O O17 0.500000 0.000000 0.500000
O O18 0.500000 0.000000 0.000000
#
# Coordination Sequence:
#
# PCOD9045798 Si02
#       8
#     2   2   2   2   2   2   2   2
#     4  12  26  47  73 105 148 193 238 304 375 425
#     4  10  24  41  70 103 139 178 242 299 355 431
#     4  11  22  43  72 101 135 181 245 302 355 416
#     4  11  26  47  70 102 145 194 241 296 370 441
#     4  12  29  46  68 110 151 191 241 305 369 439
#     4  11  23  43  72 103 137 187 243 296 363 437
#     4  12  25  47  76 103 142 194 252 295 363 443
#     4  11  24  47  70 100 143 187 249 298 355 443
#
# _framework density 23.658014999999999
#
# number of rings (size 3 to 8) (size 9 to 14) (size 15 to 20)
#    0.000    0.750    3.750    1.875    8.750    2.500 
#    4.500    0.000    0.000    0.000    0.000    0.000 
#    0.000    0.000    0.000    0.000    0.000    0.000 
#
# Total GULP energy -89506.004066 kJ/mol
# GULP energy per Si atom -5594.125254 kJ/mol
# Density = 2.360417 g / cm^3
# Si number density = 23.658015 Si / 1000 Ang^3
#
#
#
# Elastic Constant Matrix: (Units=GPa)
#
#
# Indices 1 2 3 4 5 6 
#
# 1 68.3431 17.0690 8.2722 -1.3425 4.4085 -18.6581
# 2 17.0690 107.0356 26.9958 -14.7423 -3.1392 -10.3595
# 3 8.2722 26.9958 90.6336 -26.8459 3.0977 -12.2151
# 4 -1.3425 -14.7423 -26.8459 43.5324 5.7051 1.0000
# 5 4.4085 -3.1392 3.0977 5.7051 36.3881 -4.6460
# 6 -18.6581 -10.3595 -12.2151 1.0000 -4.6460 34.9814
#
#
#
# Elastic Compliance Matrix: (Units=1/GPa)
#
#
# Indices 1 2 3 4 5 6 
#
# 1 0.017565 -0.002057 0.000197 -0.000075 -0.001204 0.008671
# 2 -0.002057 0.010683 -0.002269 0.001962 0.001233 0.001382
# 3 0.000197 -0.002269 0.014872 0.008619 -0.002317 0.004072
# 4 -0.000075 0.001962 0.008619 0.029547 -0.004926 0.002052
# 5 -0.001204 0.001233 -0.002317 -0.004926 0.029076 0.002917
# 6 0.008671 0.001382 0.004072 0.002052 0.002917 0.035371
#
#
# Mechanical properties :
#
#
# Convention : Reuss Voigt Hill
#
# Bulk Modulus (GPa) = 28.68415 41.18735 34.93575
# Shear Modulus (GPa) = 31.84822 37.22539 34.53680
#
# Velocity S-wave (km/s) = 3.67303 3.97101 3.82492
# Velocity P-wave (km/s) = 5.48990 6.20262 5.85711
#
# Compressibility (1/GPa) = 0.03486246
#
# Stress axis : x y z
#
# Youngs Moduli (GPa) = 56.93028 93.60528 67.23836
#
# Poissons Ratio (x) = 0.19257 -0.01326
# Poissons Ratio (y) = 0.11712 0.15257
# Poissons Ratio (z) = -0.01122 0.21240
#
# Static dielectric constant tensor:
#      x y z
#    x 1.981990 0.032940 -0.002630 
#    y 0.032940 1.940650 0.024450 
#    z -0.002630 0.024450 1.950410 
# 
# From -- ./inp_files/209187.got.cif
#   From: 2010.05.17/outbox.cif.g08.bks.cpg/sg2_105_cif.got.tgz:209187.got - 2010.06.03 11:33:40.
