data_PCOD9045841
_publ_section_title
;
Structure prediction by ZEFSAII (Michael W. Deem and Ramdas Pophale) SiO2 
 PCOD9045841
Probable space group: P -1
;
_chemical_formula_sum "Si O2"
_cell_formula_units_Z 16
_cell_length_a 8.230272
_cell_length_b 11.417017
_cell_length_c 10.519864
_cell_angle_alpha 135.629003
_cell_angle_beta 86.114850
_cell_angle_gamma 108.116039
_cell_volume 638.992903
_symmetry_space_group_name_H-M "P -1"
_symmetry_group_IT_number 2
_symmetry_cell_setting 'triclinic'
loop_
_space_group_symop_operation_xyz
x,y,z
-x,-y,-z
loop_
_atom_site_type_symbol
_atom_site_label
_atom_site_fract_x
_atom_site_fract_y
_atom_site_fract_z
Si Si1 0.261898 0.407722 0.706901
Si Si2 0.740993 0.921926 0.919683
Si Si3 0.407886 0.666064 0.428213
Si Si4 0.332849 0.013583 0.623587
Si Si5 0.656102 0.394140 0.887460
Si Si6 0.325399 0.713935 0.743538
Si Si7 0.057521 0.079141 0.856517
Si Si8 0.927314 0.212564 0.726205
O O1 0.398702 0.338578 0.576180
O O2 0.249587 0.568025 0.745059
O O3 0.069325 0.273974 0.653402
O O4 0.345026 0.479884 0.897846
O O5 0.537304 0.801420 0.819885
O O6 0.834722 0.844270 0.960913
O O7 0.865076 0.950101 0.813004
O O8 0.743345 0.121972 0.111595
O O9 0.408713 0.861571 0.537644
O O10 0.328546 0.546299 0.214195
O O11 0.305379 0.626522 0.536254
O O12 0.514599 0.790905 0.230286
O O13 0.227139 0.965915 0.459315
O O14 0.185823 0.996019 0.720708
O O15 0.826955 0.345318 0.860138
O O16 0.021468 0.194719 0.835751
#
# Coordination Sequence:
#
# PCOD9045841 Si02
#       8
#     2   2   2   2   2   2   2   2
#     4  12  26  45  70 107 146 188 231 291 358 423
#     4  10  24  41  73 104 141 182 241 295 347 414
#     4  11  24  43  69 103 142 188 233 287 353 421
#     4  11  24  44  72 106 138 184 240 290 348 418
#     4  11  25  46  73 105 141 188 238 290 350 425
#     4  11  24  46  71 101 145 192 234 287 354 426
#     4  11  22  41  67 108 138 178 233 297 348 411
#     4  11  25  42  72 108 143 178 232 300 357 413
#
# _framework density 25.039401999999999
#
# number of rings (size 3 to 8) (size 9 to 14) (size 15 to 20)
#    0.000    1.000    1.250    5.250    7.000    1.000 
#    0.000    7.500    0.000    0.000    0.000    0.000 
#    0.000    0.000    0.000    0.000    0.000    0.000 
#
# Total GULP energy -89556.216940 kJ/mol
# GULP energy per Si atom -5597.263559 kJ/mol
# Density = 2.498241 g / cm^3
# Si number density = 25.039402 Si / 1000 Ang^3
#
#
#
# Elastic Constant Matrix: (Units=GPa)
#
#
# Indices 1 2 3 4 5 6 
#
# 1 125.5940 50.0989 26.5070 2.0196 -15.5851 3.4341
# 2 50.0989 122.8769 19.1256 -30.1852 9.4015 -5.3830
# 3 26.5070 19.1256 87.6512 -26.9795 -1.7891 11.7317
# 4 2.0196 -30.1852 -26.9795 38.4167 -0.2877 -2.2507
# 5 -15.5851 9.4015 -1.7891 -0.2877 50.1977 -3.0521
# 6 3.4341 -5.3830 11.7317 -2.2507 -3.0521 40.7206
#
#
#
# Elastic Compliance Matrix: (Units=1/GPa)
#
#
# Indices 1 2 3 4 5 6 
#
# 1 0.012758 -0.007277 -0.005151 -0.010011 0.005039 -0.000729
# 2 -0.007277 0.014523 0.002950 0.013953 -0.004666 0.002105
# 3 -0.005151 0.002950 0.017201 0.014453 -0.001666 -0.003457
# 4 -0.010011 0.013953 0.014453 0.047680 -0.004885 0.000794
# 5 0.005039 -0.004666 -0.001666 -0.004885 0.022323 0.000841
# 6 -0.000729 0.002105 -0.003457 0.000794 0.000841 0.026000
#
#
# Mechanical properties :
#
#
# Convention : Reuss Voigt Hill
#
# Bulk Modulus (GPa) = 39.17781 58.62057 48.89919
# Shear Modulus (GPa) = 29.77066 41.89304 35.83185
#
# Velocity S-wave (km/s) = 3.45186 4.09477 3.78698
# Velocity P-wave (km/s) = 5.61850 6.76893 6.22037
#
# Compressibility (1/GPa) = 0.02552465
#
# Stress axis : x y z
#
# Youngs Moduli (GPa) = 78.38135 68.85709 58.13764
#
# Poissons Ratio (x) = 0.50104 0.29949
# Poissons Ratio (y) = 0.57035 -0.17148
# Poissons Ratio (z) = 0.40377 -0.20310
#
# Static dielectric constant tensor:
#      x y z
#    x 1.954240 -0.003460 0.019730 
#    y -0.003460 1.964160 0.014060 
#    z 0.019730 0.014060 2.023910 
# 
# From -- ./inp_files/182424.got.cif
#   From: 2010.05.17/outbox.cif.g08.bks.cpg/sg2_92_cif.got.tgz:182424.got - 2010.06.03 11:33:40.
