data_PCOD9045827
_publ_section_title
;
Structure prediction by ZEFSAII (Michael W. Deem and Ramdas Pophale) SiO2 
 PCOD9045827
Probable space group: P -1
;
_chemical_formula_sum "Si O2"
_cell_formula_units_Z 16
_cell_length_a 5.116565
_cell_length_b 25.552418
_cell_length_c 12.702391
_cell_angle_alpha 148.513547
_cell_angle_beta 116.276692
_cell_angle_gamma 55.115033
_cell_volume 707.581979
_symmetry_space_group_name_H-M "P -1"
_symmetry_group_IT_number 2
_symmetry_cell_setting 'triclinic'
loop_
_space_group_symop_operation_xyz
x,y,z
-x,-y,-z
loop_
_atom_site_type_symbol
_atom_site_label
_atom_site_fract_x
_atom_site_fract_y
_atom_site_fract_z
Si Si1 0.312068 0.389510 0.886467
Si Si2 0.616020 0.184062 0.047476
Si Si3 0.772264 0.124082 0.204884
Si Si4 0.974636 0.983086 0.309349
Si Si5 0.378733 0.168347 0.420282
Si Si6 0.274175 0.437352 0.358024
Si Si7 0.988202 0.367800 0.997944
Si Si8 0.140156 0.135333 0.729742
O O1 0.371237 0.288182 0.645625
O O2 0.615923 0.419926 0.991475
O O3 0.231852 0.345682 0.907363
O O4 0.000000 0.500000 0.000000
O O5 0.594147 0.179259 0.160126
O O6 0.493433 0.310189 0.207814
O O7 0.411892 0.134124 0.856783
O O8 0.958827 0.097094 0.917069
O O9 0.533598 0.132022 0.270243
O O10 0.022890 0.174005 0.371633
O O11 0.000000 0.000000 0.000000
O O12 0.062677 0.900267 0.283223
O O13 0.616312 0.077510 0.388600
O O14 0.168809 0.057141 0.500836
O O15 0.500000 0.500000 0.500000
O O16 0.000000 0.500000 0.500000
O O17 0.093101 0.436963 0.217424
O O18 0.015035 0.256347 0.868048
#
# Coordination Sequence:
#
# PCOD9045827 Si02
#       8
#     2   2   2   2   2   2   2   2
#     4  12  27  49  75 107 141 191 249 302 363 429
#     4  11  26  41  74  99 144 183 244 282 365 423
#     4  12  26  46  70 103 147 193 237 290 357 435
#     4  11  23  42  72 107 142 180 239 293 366 427
#     4  12  27  46  73 104 145 189 240 299 357 424
#     4  11  27  47  72 104 143 188 240 296 358 427
#     4  11  25  47  79 103 147 184 243 307 366 426
#     4  10  24  41  72 108 142 180 230 298 365 421
#
# _framework density 22.612219
#
# number of rings (size 3 to 8) (size 9 to 14) (size 15 to 20)
#    0.000    0.750    2.500    3.375    8.750    3.000 
#    0.000    0.000    0.000    0.000    0.000    0.000 
#    0.000    0.000    0.000    0.000    0.000    0.000 
#
# Total GULP energy -89383.592077 kJ/mol
# GULP energy per Si atom -5586.474505 kJ/mol
# Density = 2.256075 g / cm^3
# Si number density = 22.612219 Si / 1000 Ang^3
#
#
#
# Elastic Constant Matrix: (Units=GPa)
#
#
# Indices 1 2 3 4 5 6 
#
# 1 89.7988 6.4294 31.9151 -5.4572 13.9093 -2.8414
# 2 6.4294 78.5331 24.7553 -7.8577 6.3498 -2.4283
# 3 31.9151 24.7553 131.8205 2.0508 10.5076 -3.6099
# 4 -5.4572 -7.8577 2.0508 30.6464 -0.6165 -3.2450
# 5 13.9093 6.3498 10.5076 -0.6165 43.8675 -11.0870
# 6 -2.8414 -2.4283 -3.6099 -3.2450 -11.0870 29.9191
#
#
#
# Elastic Compliance Matrix: (Units=1/GPa)
#
#
# Indices 1 2 3 4 5 6 
#
# 1 0.012834 0.000404 -0.002953 0.002508 -0.003410 -0.000096
# 2 0.000404 0.014063 -0.002677 0.003918 -0.001262 0.000814
# 3 -0.002953 -0.002677 0.008899 -0.001816 -0.000814 0.000078
# 4 0.002508 0.003918 -0.001816 0.034676 0.000657 0.004342
# 5 -0.003410 -0.001262 -0.000814 0.000657 0.026645 0.009421
# 6 -0.000096 0.000814 0.000078 0.004342 0.009421 0.037452
#
#
# Mechanical properties :
#
#
# Convention : Reuss Voigt Hill
#
# Bulk Modulus (GPa) = 39.45664 47.37241 43.41452
# Shear Modulus (GPa) = 32.57993 36.69011 34.63502
#
# Velocity S-wave (km/s) = 3.79992 4.03249 3.91793
# Velocity P-wave (km/s) = 6.06132 6.53274 6.30144
#
# Compressibility (1/GPa) = 0.02534428
#
# Stress axis : x y z
#
# Youngs Moduli (GPa) = 77.91764 71.10646 112.37280
#
# Poissons Ratio (x) = -0.02871 0.33183
# Poissons Ratio (y) = -0.03146 0.30081
# Poissons Ratio (z) = 0.23009 0.19034
#
# Static dielectric constant tensor:
#      x y z
#    x 2.004610 -0.042360 -0.065450 
#    y -0.042360 1.880460 -0.012640 
#    z -0.065450 -0.012640 1.895500 
# 
# From -- ./inp_files/371490.got.cif
#   From: 2010.05.17/outbox.cif.g08.bks.cpg/sg2_186_cif.got.tgz:371490.got - 2010.06.03 11:33:40.
