data_PCOD9045124
_publ_section_title
;
Structure prediction by ZEFSAII (Michael W. Deem and Ramdas Pophale) SiO2 
 PCOD9045124
Probable space group: P -1
;
_chemical_formula_sum "Si O2"
_cell_formula_units_Z 14
_cell_length_a 6.498969
_cell_length_b 19.271276
_cell_length_c 6.101186
_cell_angle_alpha 109.879363
_cell_angle_beta 100.915739
_cell_angle_gamma 57.953325
_cell_volume 609.058018
_symmetry_space_group_name_H-M "P -1"
_symmetry_group_IT_number 2
_symmetry_cell_setting 'triclinic'
loop_
_space_group_symop_operation_xyz
x,y,z
-x,-y,-z
loop_
_atom_site_type_symbol
_atom_site_label
_atom_site_fract_x
_atom_site_fract_y
_atom_site_fract_z
Si Si1 0.516162 0.820611 0.278172
Si Si2 0.335284 0.595286 0.982782
Si Si3 0.098169 0.925821 0.624982
Si Si4 0.058832 0.705486 0.431882
Si Si5 0.556016 0.300055 0.202674
Si Si6 0.949384 0.595377 0.594418
Si Si7 0.658224 0.020044 0.890584
O O1 0.311916 0.846710 0.453994
O O2 0.478752 0.904602 0.232450
O O3 0.786826 0.771235 0.375250
O O4 0.471461 0.764391 0.031003
O O5 0.242795 0.667345 0.226562
O O6 0.500000 0.500000 0.000000
O O7 0.472840 0.619575 0.856462
O O8 0.093058 0.603756 0.838104
O O9 0.216984 0.946383 0.876134
O O10 0.000000 0.000000 0.500000
O O11 0.854300 0.937960 0.702151
O O12 0.182789 0.737177 0.669002
O O13 0.050497 0.624071 0.442558
O O14 0.335103 0.338189 0.368673
O O15 0.000000 0.500000 0.500000
O O16 0.500000 0.000000 0.000000
#
# Coordination Sequence:
#
# PCOD9045124 Si02
#       7
#     2   2   2   2   2   2   2
#     4  11  25  47  71 101 144 180 225 293 351 407
#     4  11  24  43  68 101 137 189 240 282 351 415
#     4   9  22  47  70 102 138 178 222 273 354 420
#     4  11  26  45  66 104 139 180 239 284 353 406
#     4  11  26  45  66 103 141 178 239 289 345 411
#     4  11  24  43  69  99 140 187 238 289 342 419
#     4  10  23  49  74 104 135 178 232 273 342 434
#
# _framework density 22.986315999999999
#
# number of rings (size 3 to 8) (size 9 to 14) (size 15 to 20)
#    0.000    1.429    1.429    1.714    6.000    5.714 
#   20.571    0.000    0.000    0.000    0.000    0.000 
#    0.000    0.000    0.000    0.000    0.000    0.000 
#
# Total GULP energy -78296.841337 kJ/mol
# GULP energy per Si atom -5592.631524 kJ/mol
# Density = 2.293400 g / cm^3
# Si number density = 22.986316 Si / 1000 Ang^3
#
#
#
# Elastic Constant Matrix: (Units=GPa)
#
#
# Indices 1 2 3 4 5 6 
#
# 1 112.4779 35.5820 29.5088 -0.9692 -4.5544 -5.2005
# 2 35.5820 109.8073 21.8289 -13.5622 11.4690 -14.5107
# 3 29.5088 21.8289 81.0082 2.2259 5.6695 -14.8020
# 4 -0.9692 -13.5622 2.2259 41.7570 -4.0684 -1.7442
# 5 -4.5544 11.4690 5.6695 -4.0684 53.0161 -3.9109
# 6 -5.2005 -14.5107 -14.8020 -1.7442 -3.9109 37.6892
#
#
#
# Elastic Compliance Matrix: (Units=1/GPa)
#
#
# Indices 1 2 3 4 5 6 
#
# 1 0.010818 -0.003209 -0.003357 -0.000466 0.001881 -0.000888
# 2 -0.003209 0.011527 -0.001260 0.003676 -0.002098 0.003453
# 3 -0.003357 -0.001260 0.014895 -0.001217 -0.001355 0.004704
# 4 -0.000466 0.003676 -0.001217 0.025425 0.001408 0.002196
# 5 0.001881 -0.002098 -0.001355 0.001408 0.019807 0.001040
# 6 -0.000888 0.003453 0.004704 0.002196 0.001040 0.029797
#
#
# Mechanical properties :
#
#
# Convention : Reuss Voigt Hill
#
# Bulk Modulus (GPa) = 46.32612 53.01474 49.67043
# Shear Modulus (GPa) = 37.00506 40.91738 38.96122
#
# Velocity S-wave (km/s) = 4.01668 4.22367 4.12147
# Velocity P-wave (km/s) = 6.45826 6.84832 6.65615
#
# Compressibility (1/GPa) = 0.02158609
#
# Stress axis : x y z
#
# Youngs Moduli (GPa) = 92.44104 86.75434 67.13821
#
# Poissons Ratio (x) = 0.27843 0.22537
# Poissons Ratio (y) = 0.29668 0.08462
# Poissons Ratio (z) = 0.31030 0.10934
#
# Static dielectric constant tensor:
#      x y z
#    x 1.904790 0.021330 0.038080 
#    y 0.021330 1.880030 0.021020 
#    z 0.038080 0.021020 1.870820 
# 
# From -- ./inp_files/7933.got.cif
#   From: 2010.05.17/outbox.cif.g08.bks.cpg/sg2_4_cif.got.tgz:7933.got - 2010.06.03 11:33:40.
