data_PCOD9045414
_publ_section_title
;
Structure prediction by ZEFSAII (Michael W. Deem and Ramdas Pophale) SiO2 
 PCOD9045414
Probable space group: P -1
;
_chemical_formula_sum "Si O2"
_cell_formula_units_Z 14
_cell_length_a 8.283065
_cell_length_b 8.101533
_cell_length_c 14.265544
_cell_angle_alpha 108.347720
_cell_angle_beta 45.298578
_cell_angle_gamma 119.583757
_cell_volume 590.907238
_symmetry_space_group_name_H-M "P -1"
_symmetry_group_IT_number 2
_symmetry_cell_setting 'triclinic'
loop_
_space_group_symop_operation_xyz
x,y,z
-x,-y,-z
loop_
_atom_site_type_symbol
_atom_site_label
_atom_site_fract_x
_atom_site_fract_y
_atom_site_fract_z
Si Si1 0.441801 0.679098 0.079563
Si Si2 0.352074 0.538469 0.284976
Si Si3 0.125727 0.941470 0.024721
Si Si4 0.352821 0.140025 0.473691
Si Si5 0.213338 0.731850 0.542947
Si Si6 0.965628 0.188507 0.764111
Si Si7 0.457571 0.189149 0.221501
O O1 0.451312 0.693921 0.191353
O O2 0.663280 0.865478 0.985375
O O3 0.178928 0.672885 0.152265
O O4 0.500000 0.500000 0.000000
O O5 0.338926 0.629870 0.405397
O O6 0.480044 0.391576 0.211079
O O7 0.067367 0.408690 0.350529
O O8 0.281794 0.827004 0.901980
O O9 0.963540 0.839503 0.163247
O O10 0.000000 0.000000 0.000000
O O11 0.625742 0.208494 0.418826
O O12 0.372831 0.170575 0.360870
O O13 0.194284 0.240023 0.608845
O O14 0.223104 0.918377 0.517441
O O15 0.754070 0.990799 0.775750
#
# Coordination Sequence:
#
# PCOD9045414 Si02
#       7
#     2   2   2   2   2   2   2
#     4  11  24  43  68  92 131 175 218 266 329 386
#     4  11  23  42  65  96 136 172 213 264 337 389
#     4  11  26  45  69  95 129 173 227 268 321 391
#     4  11  24  41  69  99 130 172 225 269 319 386
#     4  10  24  40  65  93 138 167 216 267 329 379
#     4  11  23  43  70  96 131 175 221 264 326 396
#     4  11  23  42  69  96 133 174 220 264 329 394
#
# _framework density 23.692381000000001
#
# number of rings (size 3 to 8) (size 9 to 14) (size 15 to 20)
#    0.000    1.143    1.429    5.571   10.000    0.571 
#    2.571    1.429    0.000    0.000    0.000    0.000 
#    0.000    0.000    0.000    0.000    0.000    0.000 
#
# Total GULP energy -78425.176790 kJ/mol
# GULP energy per Si atom -5601.798342 kJ/mol
# Density = 2.363846 g / cm^3
# Si number density = 23.692381 Si / 1000 Ang^3
#
#
#
# Elastic Constant Matrix: (Units=GPa)
#
#
# Indices 1 2 3 4 5 6 
#
# 1 116.4802 4.2183 48.0508 -4.0803 21.6748 -24.2339
# 2 4.2183 38.8215 14.3136 6.0798 -8.0602 -7.9111
# 3 48.0508 14.3136 125.0705 10.2467 4.6822 -14.8744
# 4 -4.0803 6.0798 10.2467 38.3002 -17.5873 -7.2678
# 5 21.6748 -8.0602 4.6822 -17.5873 40.5784 0.4949
# 6 -24.2339 -7.9111 -14.8744 -7.2678 0.4949 26.9748
#
#
#
# Elastic Compliance Matrix: (Units=1/GPa)
#
#
# Indices 1 2 3 4 5 6 
#
# 1 0.013631 0.000645 -0.003929 0.001645 -0.006118 0.010824
# 2 0.000645 0.029503 -0.002972 0.000332 0.005910 0.007575
# 3 -0.003929 -0.002972 0.010181 -0.003049 -0.000993 0.000409
# 4 0.001645 0.000332 -0.003049 0.035624 0.014866 0.009220
# 5 -0.006118 0.005910 -0.000993 0.014866 0.035655 -0.000959
# 6 0.010824 0.007575 0.000409 0.009220 -0.000959 0.051744
#
#
# Mechanical properties :
#
#
# Convention : Reuss Voigt Hill
#
# Bulk Modulus (GPa) = 24.50795 45.94861 35.22828
# Shear Modulus (GPa) = 24.69740 35.42331 30.06036
#
# Velocity S-wave (km/s) = 3.23215 3.87089 3.56585
# Velocity P-wave (km/s) = 4.92908 6.27808 5.64403
#
# Compressibility (1/GPa) = 0.04080308
#
# Stress axis : x y z
#
# Youngs Moduli (GPa) = 73.36401 33.89461 98.22464
#
# Poissons Ratio (x) = -0.02187 0.38594
# Poissons Ratio (y) = -0.04735 0.29193
# Poissons Ratio (z) = 0.28826 0.10074
#
# Static dielectric constant tensor:
#      x y z
#    x 1.876340 -0.003570 -0.005380 
#    y -0.003570 1.884280 0.000480 
#    z -0.005380 0.000480 1.892780 
# 
# From -- ./inp_files/318718.got.cif
#   From: 2010.05.17/outbox.cif.g08.bks.cpg/sg2_160_cif.got.tgz:318718.got - 2010.06.03 11:33:40.
