data_PCOD9045067
_publ_section_title
;
Structure prediction by ZEFSAII (Michael W. Deem and Ramdas Pophale) SiO2 
 PCOD9045067
Probable space group: P -1
;
_chemical_formula_sum "Si O2"
_cell_formula_units_Z 12
_cell_length_a 5.772500
_cell_length_b 16.816986
_cell_length_c 5.242442
_cell_angle_alpha 69.756060
_cell_angle_beta 101.108658
_cell_angle_gamma 101.175221
_cell_volume 464.043130
_symmetry_space_group_name_H-M "P -1"
_symmetry_group_IT_number 2
_symmetry_cell_setting 'triclinic'
loop_
_space_group_symop_operation_xyz
x,y,z
-x,-y,-z
loop_
_atom_site_type_symbol
_atom_site_label
_atom_site_fract_x
_atom_site_fract_y
_atom_site_fract_z
Si Si1 0.992728 0.913659 0.933913
Si Si2 0.684176 0.418138 0.349184
Si Si3 0.371598 0.811729 0.265663
Si Si4 0.212348 0.390416 0.654241
Si Si5 0.482917 0.711300 0.905269
Si Si6 0.679146 0.953249 0.437995
O O1 0.765076 0.888581 0.738107
O O2 0.159037 0.958801 0.698132
O O3 0.116221 0.845305 0.188196
O O4 0.000000 0.000000 0.000000
O O5 0.428797 0.393345 0.480748
O O6 0.740591 0.519601 0.286642
O O7 0.647512 0.384476 0.088270
O O8 0.934051 0.383488 0.521779
O O9 0.432851 0.757346 0.580547
O O10 0.567662 0.897328 0.238858
O O11 0.386250 0.760858 0.064804
O O12 0.259168 0.311059 0.931121
O O13 0.500000 0.000000 0.500000
#
# Coordination Sequence:
#
# PCOD9045067 Si02
#       6
#     2   2   2   2   2   2
#     4  11  25  44  73 102 133 189 249 306 358 448
#     4  10  23  48  80 111 151 203 257 303 368 449
#     4  12  27  45  72 108 146 194 238 310 380 441
#     4  10  23  48  80 111 150 205 255 306 364 452
#     4  12  26  47  69 113 155 191 243 311 386 445
#     4  11  24  46  71  97 137 183 247 301 363 438
#
# _framework density 25.859663999999999
#
# number of rings (size 3 to 8) (size 9 to 14) (size 15 to 20)
#    0.000    1.000    3.333    2.000    4.667    4.000 
#    0.000    5.000    0.000    0.000    0.000    0.000 
#    0.000    0.000    0.000    0.000    0.000    0.000 
#
# Total GULP energy -66905.889647 kJ/mol
# GULP energy per Si atom -5575.490804 kJ/mol
# Density = 2.580081 g / cm^3
# Si number density = 25.859664 Si / 1000 Ang^3
#
#
#
# Elastic Constant Matrix: (Units=GPa)
#
#
# Indices 1 2 3 4 5 6 
#
# 1 106.1261 45.2092 53.4280 -1.9954 27.1781 -19.9986
# 2 45.2092 137.7764 59.2432 35.5874 23.0694 -27.4698
# 3 53.4280 59.2432 138.9662 9.6662 28.7855 -26.2245
# 4 -1.9954 35.5874 9.6662 69.2140 -7.9411 9.1753
# 5 27.1781 23.0694 28.7855 -7.9411 52.3102 -7.7990
# 6 -19.9986 -27.4698 -26.2245 9.1753 -7.7990 50.2872
#
#
#
# Elastic Compliance Matrix: (Units=1/GPa)
#
#
# Indices 1 2 3 4 5 6 
#
# 1 0.013296 -0.002510 -0.003118 0.001499 -0.003641 0.001452
# 2 -0.002510 0.012577 -0.002137 -0.007365 -0.003353 0.005582
# 3 -0.003118 -0.002137 0.010545 -0.001185 -0.002997 0.002844
# 4 0.001499 -0.007365 -0.001185 0.019945 0.005122 -0.006890
# 5 -0.003641 -0.003353 -0.002997 0.005122 0.024622 -0.001958
# 6 0.001452 0.005582 0.002844 -0.006890 -0.001958 0.025949
#
#
# Mechanical properties :
#
#
# Convention : Reuss Voigt Hill
#
# Bulk Modulus (GPa) = 47.87079 77.62550 62.74814
# Shear Modulus (GPa) = 38.63202 49.36152 43.99677
#
# Velocity S-wave (km/s) = 3.86931 4.37375 4.12924
# Velocity P-wave (km/s) = 6.20596 7.45583 6.85942
#
# Compressibility (1/GPa) = 0.02088957
#
# Stress axis : x y z
#
# Youngs Moduli (GPa) = 75.21041 79.50805 94.82888
#
# Poissons Ratio (x) = 0.19959 0.29565
# Poissons Ratio (y) = 0.18880 0.20261
# Poissons Ratio (z) = 0.23448 0.16988
#
# Static dielectric constant tensor:
#      x y z
#    x 1.784700 -0.060820 0.022890 
#    y -0.060820 2.020770 -0.065330 
#    z 0.022890 -0.065330 2.170050 
# 
# From -- ./inp_files/7695.got.cif
#   From: 2010.05.17/outbox.cif.g08.bks.cpg/sg2_4_cif.got.tgz:7695.got - 2010.06.03 11:33:40.
