data_PCOD9045487
_publ_section_title
;
Structure prediction by ZEFSAII (Michael W. Deem and Ramdas Pophale) SiO2 
 PCOD9045487
Probable space group: P -1
;
_chemical_formula_sum "Si O2"
_cell_formula_units_Z 14
_cell_length_a 8.653538
_cell_length_b 9.949120
_cell_length_c 9.551487
_cell_angle_alpha 66.427640
_cell_angle_beta 46.255416
_cell_angle_gamma 80.831453
_cell_volume 535.913684
_symmetry_space_group_name_H-M "P -1"
_symmetry_group_IT_number 2
_symmetry_cell_setting 'triclinic'
loop_
_space_group_symop_operation_xyz
x,y,z
-x,-y,-z
loop_
_atom_site_type_symbol
_atom_site_label
_atom_site_fract_x
_atom_site_fract_y
_atom_site_fract_z
Si Si1 0.917042 0.569058 0.722664
Si Si2 0.239252 0.597531 0.859085
Si Si3 0.297112 0.456508 0.413324
Si Si4 0.428468 0.793476 0.104662
Si Si5 0.922045 0.865921 0.706661
Si Si6 0.779378 0.053968 0.300558
Si Si7 0.559897 0.987222 0.215255
O O1 0.813408 0.624907 0.622815
O O2 0.025895 0.721837 0.666713
O O3 0.096714 0.462733 0.639449
O O4 0.737961 0.474447 0.972709
O O5 0.475684 0.577722 0.655065
O O6 0.244536 0.774268 0.786851
O O7 0.000000 0.500000 0.000000
O O8 0.332129 0.626185 0.265261
O O9 0.453297 0.879115 0.202902
O O10 0.669931 0.806504 0.888383
O O11 0.328407 0.872338 0.006800
O O12 0.981187 0.926879 0.797969
O O13 0.000000 0.000000 0.500000
O O14 0.731259 0.951434 0.237843
O O15 0.625272 0.996558 0.556104
#
# Coordination Sequence:
#
# PCOD9045487 Si02
#       7
#     2   2   2   2   2   2   2
#     4  11  25  45  68 105 135 185 233 285 344 417
#     4  12  24  43  69 100 138 182 223 286 352 409
#     4  11  25  44  72  99 140 180 237 284 343 421
#     4  11  22  43  70  97 133 185 227 287 342 413
#     4  12  24  43  69  97 138 181 236 285 350 415
#     4  11  23  44  64  99 136 174 230 285 346 411
#     4  10  24  40  68  96 131 180 225 284 348 403
#
# _framework density 26.123609999999999
#
# number of rings (size 3 to 8) (size 9 to 14) (size 15 to 20)
#    0.000    0.857    4.286    2.143    4.000    1.143 
#    2.571    0.000    0.000    0.000    0.000    0.000 
#    0.000    0.000    0.000    0.000    0.000    0.000 
#
# Total GULP energy -78108.253320 kJ/mol
# GULP energy per Si atom -5579.160951 kJ/mol
# Density = 2.606415 g / cm^3
# Si number density = 26.123610 Si / 1000 Ang^3
#
#
#
# Elastic Constant Matrix: (Units=GPa)
#
#
# Indices 1 2 3 4 5 6 
#
# 1 116.4707 15.0360 5.7750 23.9860 8.1990 10.9387
# 2 15.0360 61.2339 41.8920 2.5478 10.1869 3.6605
# 3 5.7750 41.8920 90.2633 -2.4737 12.4740 12.2664
# 4 23.9860 2.5478 -2.4737 47.2648 1.8959 0.2963
# 5 8.1990 10.1869 12.4740 1.8959 49.8740 13.6665
# 6 10.9387 3.6605 12.2664 0.2963 13.6665 40.9485
#
#
#
# Elastic Compliance Matrix: (Units=1/GPa)
#
#
# Indices 1 2 3 4 5 6 
#
# 1 0.010175 -0.002647 0.000852 -0.004942 -0.000459 -0.002547
# 2 -0.002647 0.025162 -0.011547 -0.000532 -0.002556 0.002774
# 3 0.000852 -0.011547 0.017096 0.001150 -0.001008 -0.003988
# 4 -0.004942 -0.000532 0.001150 0.023770 -0.000554 0.001036
# 5 -0.000459 -0.002556 -0.001008 -0.000554 0.022829 -0.006962
# 6 -0.002547 0.002774 -0.003988 0.001036 -0.006962 0.028364
#
#
# Mechanical properties :
#
#
# Convention : Reuss Voigt Hill
#
# Bulk Modulus (GPa) = 38.83686 43.70820 41.27253
# Shear Modulus (GPa) = 30.73858 41.30181 36.02019
#
# Velocity S-wave (km/s) = 3.43397 3.98051 3.71730
# Velocity P-wave (km/s) = 5.53369 6.15578 5.85300
#
# Compressibility (1/GPa) = 0.02574874
#
# Stress axis : x y z
#
# Youngs Moduli (GPa) = 98.28403 39.74288 58.49321
#
# Poissons Ratio (x) = 0.10519 -0.04981
# Poissons Ratio (y) = 0.26013 0.67540
# Poissons Ratio (z) = -0.08370 0.45890
#
# Static dielectric constant tensor:
#      x y z
#    x 2.197240 0.004990 -0.022150 
#    y 0.004990 2.143490 0.052750 
#    z -0.022150 0.052750 2.063500 
# 
# From -- ./inp_files/184730.got.cif
#   From: 2010.05.17/outbox.cif.g08.bks.cpg/sg2_93_cif.got.tgz:184730.got - 2010.06.03 11:33:40.
