data_PCOD9045076
_publ_section_title
;
Structure prediction by ZEFSAII (Michael W. Deem and Ramdas Pophale) SiO2 
 PCOD9045076
Probable space group: P -1
;
_chemical_formula_sum "Si O2"
_cell_formula_units_Z 14
_cell_length_a 12.754096
_cell_length_b 15.634354
_cell_length_c 12.033777
_cell_angle_alpha 151.565428
_cell_angle_beta 136.473354
_cell_angle_gamma 34.196057
_cell_volume 642.126807
_symmetry_space_group_name_H-M "P -1"
_symmetry_group_IT_number 2
_symmetry_cell_setting 'triclinic'
loop_
_space_group_symop_operation_xyz
x,y,z
-x,-y,-z
loop_
_atom_site_type_symbol
_atom_site_label
_atom_site_fract_x
_atom_site_fract_y
_atom_site_fract_z
Si Si1 0.645175 0.547590 0.712438
Si Si2 0.566422 0.079765 0.421929
Si Si3 0.024861 0.074383 0.484325
Si Si4 0.559393 0.714996 0.091836
Si Si5 0.914822 0.326862 0.057523
Si Si6 0.722939 0.681844 0.710668
Si Si7 0.305274 0.577189 0.786434
O O1 0.500000 0.500000 0.500000
O O2 0.593455 0.636843 0.899694
O O3 0.657635 0.697371 0.803094
O O4 0.850239 0.320986 0.613259
O O5 0.779755 0.955138 0.408548
O O6 0.435923 0.123142 0.265907
O O7 0.482322 0.331200 0.678727
O O8 0.542583 0.940773 0.334717
O O9 0.000000 0.000000 0.500000
O O10 0.034581 0.904905 0.211675
O O11 0.378210 0.729322 0.009065
O O12 0.737307 0.525223 0.080679
O O13 0.856416 0.350703 0.168174
O O14 0.089050 0.336093 0.178750
O O15 0.746121 0.470173 0.427349
#
# Coordination Sequence:
#
# PCOD9045076 Si02
#       7
#     2   2   2   2   2   2   2
#     4  12  24  44  69  98 140 174 230 284 338 402
#     4  10  25  45  68 100 136 177 228 277 333 409
#     4  12  24  44  66 103 137 178 228 277 340 400
#     4  12  24  44  72 100 131 189 222 280 345 393
#     4  12  24  43  73  97 141 181 222 285 333 406
#     4  10  24  44  65 102 138 177 222 283 335 398
#     4  10  23  49  65 101 142 174 231 275 337 402
#
# _framework density 21.802547000000001
#
# number of rings (size 3 to 8) (size 9 to 14) (size 15 to 20)
#    0.857    0.000    4.286    2.571    4.000    2.286 
#    2.571    1.429    0.000    0.000    0.000    0.000 
#    0.000    0.000    0.000    0.000    0.000    0.000 
#
# Total GULP energy -78302.673870 kJ/mol
# GULP energy per Si atom -5593.048134 kJ/mol
# Density = 2.175292 g / cm^3
# Si number density = 21.802547 Si / 1000 Ang^3
#
#
#
# Elastic Constant Matrix: (Units=GPa)
#
#
# Indices 1 2 3 4 5 6 
#
# 1 136.9686 15.0270 19.3485 -18.5382 17.6776 -1.8492
# 2 15.0270 46.3126 6.8196 -12.4911 6.9838 -7.6678
# 3 19.3485 6.8196 17.0473 -3.1724 11.8557 9.1918
# 4 -18.5382 -12.4911 -3.1724 34.7501 -1.3680 10.0825
# 5 17.6776 6.9838 11.8557 -1.3680 48.2921 -9.5775
# 6 -1.8492 -7.6678 9.1918 10.0825 -9.5775 34.7592
#
#
#
# Elastic Compliance Matrix: (Units=1/GPa)
#
#
# Indices 1 2 3 4 5 6 
#
# 1 0.009390 -0.000079 -0.011385 0.003198 -0.000033 0.002556
# 2 -0.000079 0.026621 -0.015722 0.005571 0.001972 0.008953
# 3 -0.011385 -0.015722 0.136329 0.015159 -0.037476 -0.054848
# 4 0.003198 0.005571 0.015159 0.038152 -0.007753 -0.015813
# 5 -0.000033 0.001972 -0.037476 -0.007753 0.033757 0.021894
# 6 0.002556 0.008953 -0.054848 -0.015813 0.021894 0.056004
#
#
# Mechanical properties :
#
#
# Convention : Reuss Voigt Hill
#
# Bulk Modulus (GPa) = 8.47695 31.41319 19.94507
# Shear Modulus (GPa) = 12.69205 34.16919 23.43062
#
# Velocity S-wave (km/s) = 2.41537 3.96310 3.28178
# Velocity P-wave (km/s) = 3.41689 5.94818 4.85057
#
# Compressibility (1/GPa) = 0.11796691
#
# Stress axis : x y z
#
# Youngs Moduli (GPa) = 106.50068 37.56471 7.33519
#
# Poissons Ratio (x) = 0.00298 0.08351
# Poissons Ratio (y) = 0.00845 0.11532
# Poissons Ratio (z) = 1.21254 0.59058
#
# Static dielectric constant tensor:
#      x y z
#    x 1.759350 0.017410 -0.013650 
#    y 0.017410 1.775860 0.017020 
#    z -0.013650 0.017020 1.835750 
# 
# From -- ./inp_files/158074.got.cif
#   From: 2010.05.17/outbox.cif.g08.bks.cpg/sg2_80_cif.got.tgz:158074.got - 2010.06.03 11:33:40.
