data_PCOD9045051
_publ_section_title
;
Structure prediction by ZEFSAII (Michael W. Deem and Ramdas Pophale) SiO2 
 PCOD9045051
Probable space group: P -1
;
_chemical_formula_sum "Si O2"
_cell_formula_units_Z 16
_cell_length_a 7.992333
_cell_length_b 5.654907
_cell_length_c 17.327161
_cell_angle_alpha 66.951564
_cell_angle_beta 64.139298
_cell_angle_gamma 58.828146
_cell_volume 588.813341
_symmetry_space_group_name_H-M "P -1"
_symmetry_group_IT_number 2
_symmetry_cell_setting 'triclinic'
loop_
_space_group_symop_operation_xyz
x,y,z
-x,-y,-z
loop_
_atom_site_type_symbol
_atom_site_label
_atom_site_fract_x
_atom_site_fract_y
_atom_site_fract_z
Si Si1 0.352195 0.796354 0.092573
Si Si2 0.813144 0.291889 0.304725
Si Si3 0.184472 0.098526 0.936024
Si Si4 0.875164 0.609942 0.854265
Si Si5 0.524233 0.278000 0.589873
Si Si6 0.215951 0.297019 0.376279
Si Si7 0.799736 0.775890 0.434400
Si Si8 0.596807 0.281009 0.200509
O O1 0.247722 0.578743 0.118581
O O2 0.550161 0.571968 0.126009
O O3 0.242244 0.066937 0.135496
O O4 0.340136 0.955805 0.993461
O O5 0.604433 0.557621 0.333049
O O6 0.771439 0.200302 0.240301
O O7 0.001846 0.370424 0.247798
O O8 0.847716 0.049188 0.390927
O O9 0.046353 0.429605 0.906157
O O10 0.315060 0.964139 0.849927
O O11 0.000000 0.000000 0.000000
O O12 0.500000 0.500000 0.500000
O O13 0.395784 0.126931 0.593669
O O14 0.740005 0.033001 0.598133
O O15 0.241811 0.324951 0.461169
O O16 0.385246 0.327493 0.282105
O O17 0.985207 0.525857 0.387328
#
# Coordination Sequence:
#
# PCOD9045051 Si02
#       8
#     2   2   2   2   2   2   2   2
#     4  11  26  48  74 110 150 193 251 319 387 461
#     4  12  25  44  73 102 149 198 249 309 381 446
#     4  10  23  48  77 106 148 198 248 312 393 460
#     4  11  25  46  77 110 147 199 254 314 380 463
#     4  12  24  43  70 104 143 197 251 304 378 446
#     4  11  24  45  72 102 149 191 256 306 380 449
#     4  11  25  48  69 102 150 203 240 318 373 455
#     4  12  25  46  75 110 149 197 255 320 377 458
#
# _framework density 27.173297999999999
#
# number of rings (size 3 to 8) (size 9 to 14) (size 15 to 20)
#    0.000    0.750    2.500    4.875    3.500    3.500 
#    2.250    3.750    0.000    0.000    0.000    0.000 
#    0.000    0.000    0.000    0.000    0.000    0.000 
#
# Total GULP energy -89542.687813 kJ/mol
# GULP energy per Si atom -5596.417988 kJ/mol
# Density = 2.711145 g / cm^3
# Si number density = 27.173298 Si / 1000 Ang^3
#
#
#
# Elastic Constant Matrix: (Units=GPa)
#
#
# Indices 1 2 3 4 5 6 
#
# 1 93.8524 10.1731 20.5711 10.5593 4.9932 -8.5343
# 2 10.1731 150.7309 8.6297 18.0929 -11.8965 -17.0503
# 3 20.5711 8.6297 113.0086 4.7863 -1.7329 7.5162
# 4 10.5593 18.0929 4.7863 53.9748 4.0343 -6.6731
# 5 4.9932 -11.8965 -1.7329 4.0343 48.7228 2.3862
# 6 -8.5343 -17.0503 7.5162 -6.6731 2.3862 38.7373
#
#
#
# Elastic Compliance Matrix: (Units=1/GPa)
#
#
# Indices 1 2 3 4 5 6 
#
# 1 0.011667 -0.000273 -0.002237 -0.001558 -0.001345 0.002699
# 2 -0.000273 0.007413 -0.000584 -0.002169 0.001858 0.002828
# 3 -0.002237 -0.000584 0.009517 -0.000594 0.000608 -0.002736
# 4 -0.001558 -0.002169 -0.000594 0.020072 -0.002171 0.002409
# 5 -0.001345 0.001858 0.000608 -0.002171 0.021380 -0.001287
# 6 0.002699 0.002828 -0.002736 0.002409 -0.001287 0.028679
#
#
# Mechanical properties :
#
#
# Convention : Reuss Voigt Hill
#
# Bulk Modulus (GPa) = 44.62510 48.48220 46.55365
# Shear Modulus (GPa) = 44.48892 49.50150 46.99521
#
# Velocity S-wave (km/s) = 4.05066 4.27276 4.16319
# Velocity P-wave (km/s) = 6.19154 6.49789 6.34657
#
# Compressibility (1/GPa) = 0.02240891
#
# Stress axis : x y z
#
# Youngs Moduli (GPa) = 85.70988 134.89572 105.07293
#
# Poissons Ratio (x) = 0.03685 0.23505
# Poissons Ratio (y) = 0.02342 0.06137
# Poissons Ratio (z) = 0.19174 0.07879
#
# Static dielectric constant tensor:
#      x y z
#    x 2.230600 0.117130 -0.040910 
#    y 0.117130 2.111070 -0.055560 
#    z -0.040910 -0.055560 2.163100 
# 
# From -- ./inp_files/553340.got.cif
#   From: 2010.05.17/outbox.cif.g08.bks.cpg/sg2_277_cif.got.tgz:553340.got - 2010.06.03 11:33:40.
