data_PCOD9045978
_publ_section_title
;
Structure prediction by ZEFSAII (Michael W. Deem and Ramdas Pophale) SiO2 
 PCOD9045978
Probable space group: P -1
;
_chemical_formula_sum "Si O2"
_cell_formula_units_Z 16
_cell_length_a 13.075998
_cell_length_b 13.901858
_cell_length_c 11.123864
_cell_angle_alpha 119.611277
_cell_angle_beta 85.535388
_cell_angle_gamma 146.264324
_cell_volume 706.849084
_symmetry_space_group_name_H-M "P -1"
_symmetry_group_IT_number 2
_symmetry_cell_setting 'triclinic'
loop_
_space_group_symop_operation_xyz
x,y,z
-x,-y,-z
loop_
_atom_site_type_symbol
_atom_site_label
_atom_site_fract_x
_atom_site_fract_y
_atom_site_fract_z
Si Si1 0.423890 0.194194 0.317226
Si Si2 0.764209 0.511684 0.697489
Si Si3 0.020271 0.274605 0.758507
Si Si4 0.839776 0.333608 0.534310
Si Si5 0.464480 0.570632 0.965194
Si Si6 0.347317 0.083028 0.657245
Si Si7 0.805704 0.905874 0.925570
Si Si8 0.321711 0.718617 0.849883
O O1 0.629518 0.432414 0.545380
O O2 0.568006 0.258710 0.245832
O O3 0.198554 0.910797 0.239481
O O4 0.294192 0.168105 0.244027
O O5 0.739156 0.355699 0.581940
O O6 0.602844 0.373467 0.746265
O O7 0.044590 0.833375 0.891381
O O8 0.254636 0.588469 0.898556
O O9 0.174126 0.323231 0.827657
O O10 0.873335 0.113249 0.543985
O O11 0.000000 0.500000 0.500000
O O12 0.050462 0.505186 0.715169
O O13 0.649095 0.042313 0.381514
O O14 0.655017 0.847875 0.180055
O O15 0.562394 0.646799 0.869899
O O16 0.500000 0.500000 0.000000
O O17 0.000000 0.000000 0.000000
O O18 0.500000 0.000000 0.000000
#
# Coordination Sequence:
#
# PCOD9045978 Si02
#       8
#     2   2   2   2   2   2   2   2
#     4  11  23  44  67  94 135 175 224 277 334 397
#     4  11  23  43  68  96 133 176 223 278 330 401
#     4  10  24  43  65  95 133 176 222 277 331 398
#     4  11  21  37  63  95 131 173 221 266 332 396
#     4  12  25  43  70  96 132 177 221 280 338 397
#     4  10  24  42  65  96 134 174 221 275 332 398
#     4  12  26  44  69  99 132 173 226 282 337 401
#     4  11  23  39  63  98 135 179 223 272 334 396
#
# _framework density 22.635667999999999
#
# number of rings (size 3 to 8) (size 9 to 14) (size 15 to 20)
#    0.000    1.000    2.500    4.125    3.500    1.500 
#    0.000    0.000    0.000    0.000    0.000    0.000 
#    0.000    0.000    0.000    0.000    0.000    0.000 
#
# Total GULP energy -89306.245181 kJ/mol
# GULP energy per Si atom -5581.640324 kJ/mol
# Density = 2.258415 g / cm^3
# Si number density = 22.635668 Si / 1000 Ang^3
#
#
#
# Elastic Constant Matrix: (Units=GPa)
#
#
# Indices 1 2 3 4 5 6 
#
# 1 70.5041 0.5088 11.8989 -13.0005 22.1923 -10.9410
# 2 0.5088 106.8471 8.0825 -1.9634 10.4030 -0.1646
# 3 11.8989 8.0825 47.2728 -6.4976 21.7384 -6.7289
# 4 -13.0005 -1.9634 -6.4976 33.4331 -7.2829 7.6235
# 5 22.1923 10.4030 21.7384 -7.2829 31.8394 -2.2847
# 6 -10.9410 -0.1646 -6.7289 7.6235 -2.2847 31.2597
#
#
#
# Elastic Compliance Matrix: (Units=1/GPa)
#
#
# Indices 1 2 3 4 5 6 
#
# 1 0.020011 0.001228 0.003047 0.003866 -0.015142 0.005617
# 2 0.001228 0.009747 -0.000144 0.000143 -0.003901 0.000130
# 3 0.003047 -0.000144 0.032153 0.000954 -0.023378 0.006046
# 4 0.003866 0.000143 0.000954 0.033924 0.003905 -0.006428
# 5 -0.015142 -0.003901 -0.023378 0.003905 0.059592 -0.006950
# 6 0.005617 0.000130 0.006046 -0.006428 -0.006950 0.036318
#
#
# Mechanical properties :
#
#
# Convention : Reuss Voigt Hill
#
# Bulk Modulus (GPa) = 14.25017 29.51160 21.88089
# Shear Modulus (GPa) = 24.16931 32.91538 28.54234
#
# Velocity S-wave (km/s) = 3.27119 3.81745 3.55483
# Velocity P-wave (km/s) = 4.53616 5.70057 5.15137
#
# Compressibility (1/GPa) = 0.07017459
#
# Stress axis : x y z
#
# Youngs Moduli (GPa) = 49.97170 102.59795 31.10103
#
# Poissons Ratio (x) = -0.12601 -0.09477
# Poissons Ratio (y) = -0.06138 0.00447
# Poissons Ratio (z) = -0.15227 0.01475
#
# Static dielectric constant tensor:
#      x y z
#    x 1.842610 -0.087830 -0.058580 
#    y -0.087830 1.925440 0.009010 
#    z -0.058580 0.009010 1.851790 
# 
# From -- ./inp_files/399376.got.cif
#   From: 2010.05.17/outbox.cif.g08.bks.cpg/sg2_200_cif.got.tgz:399376.got - 2010.06.03 11:33:40.
