data_PCOD9045612
_publ_section_title
;
Structure prediction by ZEFSAII (Michael W. Deem and Ramdas Pophale) SiO2 
 PCOD9045612
Probable space group: P -1
;
_chemical_formula_sum "Si O2"
_cell_formula_units_Z 16
_cell_length_a 22.246418
_cell_length_b 10.430054
_cell_length_c 6.998185
_cell_angle_alpha 69.052234
_cell_angle_beta 56.070507
_cell_angle_gamma 29.890100
_cell_volume 639.268009
_symmetry_space_group_name_H-M "P -1"
_symmetry_group_IT_number 2
_symmetry_cell_setting 'triclinic'
loop_
_space_group_symop_operation_xyz
x,y,z
-x,-y,-z
loop_
_atom_site_type_symbol
_atom_site_label
_atom_site_fract_x
_atom_site_fract_y
_atom_site_fract_z
Si Si1 0.416042 0.967132 0.084921
Si Si2 0.185694 0.785930 0.865480
Si Si3 0.017734 0.560833 0.625755
Si Si4 0.657125 0.727580 0.279974
Si Si5 0.296997 0.632048 0.145606
Si Si6 0.028875 0.080234 0.638083
Si Si7 0.283568 0.138283 0.626336
Si Si8 0.312713 0.903483 0.028259
O O1 0.383594 0.020623 0.336719
O O2 0.583729 0.678790 0.897250
O O3 0.345874 0.946210 0.125616
O O4 0.350714 0.197929 0.958561
O O5 0.283138 0.521843 0.712152
O O6 0.108638 0.004670 0.728929
O O7 0.269397 0.715040 0.928769
O O8 0.069471 0.880121 0.130251
O O9 0.052858 0.660331 0.449973
O O10 0.000000 0.500000 0.500000
O O11 0.140314 0.317618 0.683604
O O12 0.857898 0.825615 0.847852
O O13 0.750952 0.675905 0.273257
O O14 0.500000 0.000000 0.500000
O O15 0.151541 0.832879 0.405448
O O16 0.356235 0.676094 0.106915
O O17 0.363440 0.899823 0.749988
#
# Coordination Sequence:
#
# PCOD9045612 Si02
#       8
#     2   2   2   2   2   2   2   2
#     4  11  23  42  64  93 130 168 213 269 316 378
#     4  11  24  42  66  93 132 169 211 266 318 382
#     4  11  22  41  69  92 128 167 211 271 318 375
#     4  11  25  43  65  97 130 169 218 262 317 385
#     4  11  24  41  66  92 128 173 212 260 322 382
#     4  10  25  42  62  95 130 164 215 265 321 379
#     4  11  24  41  67  95 128 169 215 266 323 375
#     4  10  24  41  63  97 129 166 215 262 323 383
#
# _framework density 25.028628000000001
#
# number of rings (size 3 to 8) (size 9 to 14) (size 15 to 20)
#    0.000    1.250    1.250    3.375    3.500   10.500 
#    0.000    0.000    0.000    0.000    0.000    0.000 
#    0.000    0.000    0.000    0.000    0.000    0.000 
#
# Total GULP energy -89593.693565 kJ/mol
# GULP energy per Si atom -5599.605848 kJ/mol
# Density = 2.497166 g / cm^3
# Si number density = 25.028628 Si / 1000 Ang^3
#
#
#
# Elastic Constant Matrix: (Units=GPa)
#
#
# Indices 1 2 3 4 5 6 
#
# 1 84.9921 -1.9425 1.7233 4.4780 14.9330 -4.0058
# 2 -1.9425 52.6468 20.6944 5.8347 6.1730 2.5386
# 3 1.7233 20.6944 118.9803 4.0413 16.2624 5.4013
# 4 4.4780 5.8347 4.0413 44.9196 -10.8057 -5.4912
# 5 14.9330 6.1730 16.2624 -10.8057 30.2259 -4.2933
# 6 -4.0058 2.5386 5.4013 -5.4912 -4.2933 28.7607
#
#
#
# Elastic Compliance Matrix: (Units=1/GPa)
#
#
# Indices 1 2 3 4 5 6 
#
# 1 0.013539 0.001650 0.000895 -0.003861 -0.008960 -0.000503
# 2 0.001650 0.021412 -0.002684 -0.004433 -0.005735 -0.002859
# 3 0.000895 -0.002684 0.009988 -0.002599 -0.006624 -0.002999
# 4 -0.003861 -0.004433 -0.002599 0.028144 0.015412 0.008016
# 5 -0.008960 -0.005735 -0.006624 0.015412 0.049290 0.010802
# 6 -0.000503 -0.002859 -0.002999 0.008016 0.010802 0.038658
#
#
# Mechanical properties :
#
#
# Convention : Reuss Voigt Hill
#
# Bulk Modulus (GPa) = 22.38958 33.06330 27.72644
# Shear Modulus (GPa) = 28.37754 36.52416 32.45085
#
# Velocity S-wave (km/s) = 3.37085 3.82422 3.60467
# Velocity P-wave (km/s) = 4.91072 5.72175 5.33168
#
# Compressibility (1/GPa) = 0.04466364
#
# Stress axis : x y z
#
# Youngs Moduli (GPa) = 73.85884 46.70264 100.11672
#
# Poissons Ratio (x) = -0.07708 -0.08965
# Poissons Ratio (y) = -0.12189 0.26870
# Poissons Ratio (z) = -0.06614 0.12534
#
# Static dielectric constant tensor:
#      x y z
#    x 2.021400 -0.052000 -0.025310 
#    y -0.052000 1.967390 0.009790 
#    z -0.025310 0.009790 1.980400 
# 
# From -- ./inp_files/69397.got.cif
#   From: 2010.05.17/outbox.cif.g08.bks.cpg/sg2_35_cif.got.tgz:69397.got - 2010.06.03 11:33:40.
