data_PCOD9045849
_publ_section_title
;
Structure prediction by ZEFSAII (Michael W. Deem and Ramdas Pophale) SiO2 
 PCOD9045849
Probable space group: P -1
;
_chemical_formula_sum "Si O2"
_cell_formula_units_Z 15
_cell_length_a 8.869260
_cell_length_b 11.417978
_cell_length_c 16.486743
_cell_angle_alpha 29.571996
_cell_angle_beta 128.250592
_cell_angle_gamma 128.185135
_cell_volume 633.228192
_symmetry_space_group_name_H-M "P -1"
_symmetry_group_IT_number 2
_symmetry_cell_setting 'triclinic'
loop_
_space_group_symop_operation_xyz
x,y,z
-x,-y,-z
loop_
_atom_site_type_symbol
_atom_site_label
_atom_site_fract_x
_atom_site_fract_y
_atom_site_fract_z
Si Si1 0.826451 0.668176 0.171097
Si Si2 0.248907 0.556367 0.390591
Si Si3 0.889325 0.551750 0.851595
Si Si4 0.553133 0.762412 0.696224
Si Si5 0.605357 0.859391 0.388280
Si Si6 0.371196 0.236268 0.101354
Si Si7 0.000000 0.000000 0.500000
Si Si8 0.695703 0.107330 0.950226
O O1 0.650194 0.435623 0.248688
O O2 0.029384 0.592089 0.305962
O O3 0.814499 0.771129 0.013327
O O4 0.780051 0.877248 0.087314
O O5 0.403984 0.656707 0.452443
O O6 0.260308 0.280338 0.538859
O O7 0.329455 0.725620 0.237463
O O8 0.695651 0.634524 0.768805
O O9 0.833426 0.301168 0.935696
O O10 0.004926 0.762991 0.704132
O O11 0.000000 0.500000 0.000000
O O12 0.661038 0.847683 0.766618
O O13 0.500000 0.000000 0.500000
O O14 0.516219 0.087225 0.195194
O O15 0.757814 0.943854 0.459534
O O16 0.500000 0.500000 0.000000
O O17 0.500000 0.000000 0.000000
#
# Coordination Sequence:
#
# PCOD9045849 Si02
#       8
#     2   2   2   2   2   2   1   2
#     4  11  25  49  81 112 152 216 271 338 411 488
#     4  11  26  46  76 110 151 205 272 325 405 490
#     4  12  30  49  81 120 159 218 274 332 414 494
#     4  11  26  47  70 116 163 202 270 348 408 479
#     4  11  25  45  75 112 149 205 265 324 400 479
#     4  10  24  41  74 107 148 198 258 328 393 478
#     4  12  28  48  82 110 162 214 270 332 404 486
#     4  12  25  48  76 112 166 202 267 345 397 490
#
# _framework density 23.688143
#
# number of rings (size 3 to 8) (size 9 to 14) (size 15 to 20)
#    0.000    0.800    4.000    1.200   13.067    0.000 
#    0.000    0.000    2.933    4.000    0.000    0.000 
#    0.000    0.000    0.000    0.000    0.000    0.000 
#
# Total GULP energy -83586.084269 kJ/mol
# GULP energy per Si atom -5572.405618 kJ/mol
# Density = 2.363423 g / cm^3
# Si number density = 23.688143 Si / 1000 Ang^3
#
#
#
# Elastic Constant Matrix: (Units=GPa)
#
#
# Indices 1 2 3 4 5 6 
#
# 1 129.0243 67.1970 54.4732 -6.6973 27.6236 9.2854
# 2 67.1970 126.6343 64.3359 -4.8966 11.9843 -8.9610
# 3 54.4732 64.3359 118.0342 -20.7601 23.5198 -1.2172
# 4 -6.6973 -4.8966 -20.7601 40.6749 -0.7533 15.0500
# 5 27.6236 11.9843 23.5198 -0.7533 60.0063 -2.8042
# 6 9.2854 -8.9610 -1.2172 15.0500 -2.8042 35.6850
#
#
#
# Elastic Compliance Matrix: (Units=1/GPa)
#
#
# Indices 1 2 3 4 5 6 
#
# 1 0.013188 -0.006280 -0.001255 0.003190 -0.004601 -0.006758
# 2 -0.006280 0.014574 -0.006459 -0.005312 0.002797 0.007534
# 3 -0.001255 -0.006459 0.014763 0.008159 -0.004029 -0.004550
# 4 0.003190 -0.005312 0.008159 0.034806 -0.003957 -0.016876
# 5 -0.004601 0.002797 -0.004029 -0.003957 0.019987 0.005002
# 6 -0.006758 0.007534 -0.004550 -0.016876 0.005002 0.039029
#
#
# Mechanical properties :
#
#
# Convention : Reuss Voigt Hill
#
# Bulk Modulus (GPa) = 68.79563 82.85613 75.82588
# Shear Modulus (GPa) = 29.55408 39.78568 34.66988
#
# Velocity S-wave (km/s) = 3.53602 4.10269 3.82985
# Velocity P-wave (km/s) = 6.76583 7.58265 7.18586
#
# Compressibility (1/GPa) = 0.01453581
#
# Stress axis : x y z
#
# Youngs Moduli (GPa) = 75.82683 68.61687 67.73598
#
# Poissons Ratio (x) = 0.43090 0.08503
# Poissons Ratio (y) = 0.47618 0.43754
# Poissons Ratio (z) = 0.09519 0.44323
#
# Static dielectric constant tensor:
#      x y z
#    x 1.884850 -0.060390 -0.072140 
#    y -0.060390 2.019400 0.053500 
#    z -0.072140 0.053500 1.944820 
# 
# From -- ./inp_files/558910.got.cif
#   From: 2010.05.17/outbox.cif.g08.bks.cpg/sg2_280_cif.got.tgz:558910.got - 2010.06.03 11:33:40.
