data_PCOD9045263
_publ_section_title
;
Structure prediction by ZEFSAII (Michael W. Deem and Ramdas Pophale) SiO2 
 PCOD9045263
Probable space group: P -1
;
_chemical_formula_sum "Si O2"
_cell_formula_units_Z 13
_cell_length_a 8.943008
_cell_length_b 9.505623
_cell_length_c 7.966428
_cell_angle_alpha 89.712890
_cell_angle_beta 95.734657
_cell_angle_gamma 56.671330
_cell_volume 561.541101
_symmetry_space_group_name_H-M "P -1"
_symmetry_group_IT_number 2
_symmetry_cell_setting 'triclinic'
loop_
_space_group_symop_operation_xyz
x,y,z
-x,-y,-z
loop_
_atom_site_type_symbol
_atom_site_label
_atom_site_fract_x
_atom_site_fract_y
_atom_site_fract_z
Si Si1 0.537683 0.061622 0.173404
Si Si2 0.101443 0.099139 0.621921
Si Si3 0.000000 0.500000 0.000000
Si Si4 0.630908 0.617476 0.386084
Si Si5 0.741075 0.253402 0.505443
Si Si6 0.393237 0.407459 0.998613
Si Si7 0.192403 0.259101 0.345914
O O1 0.384727 0.107939 0.293288
O O2 0.740033 0.919191 0.249509
O O3 0.506678 0.242756 0.129561
O O4 0.500000 0.000000 0.000000
O O5 0.106051 0.179766 0.445830
O O6 0.896504 0.209936 0.658769
O O7 0.163967 0.907233 0.603350
O O8 0.929612 0.623437 0.821621
O O9 0.185787 0.504366 0.034291
O O10 0.681552 0.427753 0.412656
O O11 0.430888 0.733266 0.437035
O O12 0.620826 0.652760 0.188648
O O13 0.763373 0.641194 0.514607
O O14 0.500000 0.500000 0.000000
#
# Coordination Sequence:
#
# PCOD9045263 Si02
#       7
#     2   2   1   2   2   2   2
#     4  11  24  41  63  98 141 178 225 287 348 410
#     4  11  22  44  67  98 133 181 224 281 347 414
#     4  10  26  46  64 108 136 174 234 290 342 412
#     4  11  23  45  71  99 131 188 229 281 348 405
#     4  10  24  38  71  98 132 167 239 282 325 421
#     4  11  25  45  71  99 143 181 226 289 346 410
#     4  11  24  43  71  93 138 177 232 285 344 413
#
# _framework density 23.150576000000001
#
# number of rings (size 3 to 8) (size 9 to 14) (size 15 to 20)
#    0.000    1.231    1.538    3.231    8.615    6.154 
#    0.000    0.769    0.000    0.000    0.000    0.000 
#    0.000    0.000    0.000    0.000    0.000    0.000 
#
# Total GULP energy -72432.585503 kJ/mol
# GULP energy per Si atom -5571.737346 kJ/mol
# Density = 2.309788 g / cm^3
# Si number density = 23.150576 Si / 1000 Ang^3
#
#
#
# Elastic Constant Matrix: (Units=GPa)
#
#
# Indices 1 2 3 4 5 6 
#
# 1 139.4812 42.7547 29.0785 -21.7413 22.5165 12.5541
# 2 42.7547 47.9589 22.7002 -19.0011 5.9047 17.3441
# 3 29.0785 22.7002 97.3105 -19.2582 30.6644 -0.9888
# 4 -21.7413 -19.0011 -19.2582 37.3024 -9.5528 11.5013
# 5 22.5165 5.9047 30.6644 -9.5528 32.7778 -14.4076
# 6 12.5541 17.3441 -0.9888 11.5013 -14.4076 37.9359
#
#
#
# Elastic Compliance Matrix: (Units=1/GPa)
#
#
# Indices 1 2 3 4 5 6 
#
# 1 0.011382 -0.006368 0.001819 0.003548 -0.009804 -0.005607
# 2 -0.006368 0.054276 -0.001444 0.031653 -0.010855 -0.036465
# 3 0.001819 -0.001444 0.017425 0.007176 -0.019123 -0.008926
# 4 0.003548 0.031653 0.007176 0.056649 -0.015229 -0.038417
# 5 -0.009804 -0.010855 -0.019123 -0.015229 0.069705 0.038800
# 6 -0.005607 -0.036465 -0.008926 -0.038417 0.038800 0.071038
#
#
# Mechanical properties :
#
#
# Convention : Reuss Voigt Hill
#
# Bulk Modulus (GPa) = 14.06509 52.64639 33.35574
# Shear Modulus (GPa) = 15.81475 34.28436 25.04955
#
# Velocity S-wave (km/s) = 2.61650 3.85246 3.29299
# Velocity P-wave (km/s) = 3.90087 6.52524 5.37567
#
# Compressibility (1/GPa) = 0.07109802
#
# Stress axis : x y z
#
# Youngs Moduli (GPa) = 87.85417 18.42435 57.38838
#
# Poissons Ratio (x) = 0.11732 -0.10437
# Poissons Ratio (y) = 0.55943 0.08286
# Poissons Ratio (z) = -0.15978 0.02660
#
# Static dielectric constant tensor:
#      x y z
#    x 1.937860 -0.020230 0.039990 
#    y -0.020230 1.884710 0.026020 
#    z 0.039990 0.026020 1.862900 
# 
# From -- ./inp_files/158369.got.cif
#   From: 2010.05.17/outbox.cif.g08.bks.cpg/sg2_80_cif.got.tgz:158369.got - 2010.06.03 11:33:40.
