data_PCOD9045558
_publ_section_title
;
Structure prediction by ZEFSAII (Michael W. Deem and Ramdas Pophale) SiO2 
 PCOD9045558
Probable space group: P -1
;
_chemical_formula_sum "Si O2"
_cell_formula_units_Z 15
_cell_length_a 14.191855
_cell_length_b 12.756467
_cell_length_c 9.603182
_cell_angle_alpha 117.347010
_cell_angle_beta 79.128048
_cell_angle_gamma 46.364476
_cell_volume 690.221858
_symmetry_space_group_name_H-M "P -1"
_symmetry_group_IT_number 2
_symmetry_cell_setting 'triclinic'
loop_
_space_group_symop_operation_xyz
x,y,z
-x,-y,-z
loop_
_atom_site_type_symbol
_atom_site_label
_atom_site_fract_x
_atom_site_fract_y
_atom_site_fract_z
Si Si1 0.500000 0.000000 0.500000
Si Si2 0.398871 0.376649 0.706239
Si Si3 0.348536 0.857608 0.761284
Si Si4 0.879927 0.959333 0.807776
Si Si5 0.831709 0.579919 0.595269
Si Si6 0.686186 0.210897 0.718041
Si Si7 0.043967 0.032378 0.766453
Si Si8 0.394032 0.084230 0.876270
O O1 0.582059 0.783508 0.407111
O O2 0.361803 0.168727 0.783807
O O3 0.446790 0.377641 0.539122
O O4 0.581180 0.220051 0.665122
O O5 0.181778 0.659689 0.999840
O O6 0.311640 0.039497 0.888487
O O7 0.174913 0.973569 0.796002
O O8 0.324870 0.834500 0.909934
O O9 0.044804 0.675614 0.622121
O O10 0.808719 0.033439 0.712041
O O11 0.993460 0.959675 0.797768
O O12 0.640943 0.813500 0.685250
O O13 0.000000 0.500000 0.500000
O O14 0.722074 0.704567 0.852474
O O15 0.500000 0.500000 0.000000
O O16 0.835379 0.109865 0.500921
#
# Coordination Sequence:
#
# PCOD9045558 Si02
#       8
#     1   2   2   2   2   2   2   2
#     4  10  24  40  72  94 130 188 212 272 346 390
#     4  10  24  46  66  97 141 175 227 283 334 408
#     4  10  24  45  65 100 134 174 229 278 334 407
#     4  12  25  43  74  98 132 188 223 281 352 395
#     4  11  25  45  68 101 138 171 231 283 334 410
#     4  11  25  46  68 100 139 173 230 285 336 405
#     4  11  25  47  67 102 136 178 230 282 336 410
#     4  10  24  47  67 100 137 177 225 287 333 404
#
# _framework density 21.732143000000001
#
# number of rings (size 3 to 8) (size 9 to 14) (size 15 to 20)
#    0.000    1.333    2.667    0.800    7.467    1.600 
#    0.000    2.667    0.000    0.000    0.000    0.000 
#    0.000    0.000    0.000    0.000    0.000    0.000 
#
# Total GULP energy -83574.318517 kJ/mol
# GULP energy per Si atom -5571.621234 kJ/mol
# Density = 2.168268 g / cm^3
# Si number density = 21.732143 Si / 1000 Ang^3
#
#
#
# Elastic Constant Matrix: (Units=GPa)
#
#
# Indices 1 2 3 4 5 6 
#
# 1 83.4556 34.5887 40.3396 -4.3014 1.7871 11.1302
# 2 34.5887 47.6495 32.1170 -13.9319 -17.7492 10.4325
# 3 40.3396 32.1170 114.8978 -14.0674 -15.6138 5.4436
# 4 -4.3014 -13.9319 -14.0674 52.3757 2.7922 3.4261
# 5 1.7871 -17.7492 -15.6138 2.7922 21.8212 -12.5856
# 6 11.1302 10.4325 5.4436 3.4261 -12.5856 21.2713
#
#
#
# Elastic Compliance Matrix: (Units=1/GPa)
#
#
# Indices 1 2 3 4 5 6 
#
# 1 0.036534 -0.035165 -0.009628 -0.003808 -0.056623 -0.032295
# 2 -0.035165 0.070064 0.003161 0.010815 0.076007 0.026457
# 3 -0.009628 0.003161 0.013517 0.001936 0.019158 0.011052
# 4 -0.003808 0.010815 0.001936 0.022185 0.005160 -0.004328
# 5 -0.056623 0.076007 0.019158 0.005160 0.178546 0.092257
# 6 -0.032295 0.026457 0.011052 -0.004328 0.092257 0.103388
#
#
# Mechanical properties :
#
#
# Convention : Reuss Voigt Hill
#
# Bulk Modulus (GPa) = 27.13661 51.12151 39.12906
# Shear Modulus (GPa) = 9.61940 28.35748 18.98844
#
# Velocity S-wave (km/s) = 2.10617 3.61621 2.95913
# Velocity P-wave (km/s) = 4.29285 6.40394 5.45156
#
# Compressibility (1/GPa) = 0.03685058
#
# Stress axis : x y z
#
# Youngs Moduli (GPa) = 27.37179 14.27261 73.98045
#
# Poissons Ratio (x) = 0.50190 0.71229
# Poissons Ratio (y) = 0.96253 -0.23384
# Poissons Ratio (z) = 0.26354 -0.04511
#
# Static dielectric constant tensor:
#      x y z
#    x 1.813580 -0.032150 0.020790 
#    y -0.032150 1.758100 -0.051470 
#    z 0.020790 -0.051470 1.853610 
# 
# From -- ./inp_files/40291.got.cif
#   From: 2010.05.17/outbox.cif.g08.bks.cpg/sg2_21_cif.got.tgz:40291.got - 2010.06.03 11:33:40.
