data_PCOD9045364
_publ_section_title
;
Structure prediction by ZEFSAII (Michael W. Deem and Ramdas Pophale) SiO2 
 PCOD9045364
Probable space group: P -1
;
_chemical_formula_sum "Si O2"
_cell_formula_units_Z 14
_cell_length_a 5.297638
_cell_length_b 9.154573
_cell_length_c 23.844505
_cell_angle_alpha 139.214492
_cell_angle_beta 63.254139
_cell_angle_gamma 121.825885
_cell_volume 639.135838
_symmetry_space_group_name_H-M "P -1"
_symmetry_group_IT_number 2
_symmetry_cell_setting 'triclinic'
loop_
_space_group_symop_operation_xyz
x,y,z
-x,-y,-z
loop_
_atom_site_type_symbol
_atom_site_label
_atom_site_fract_x
_atom_site_fract_y
_atom_site_fract_z
Si Si1 0.779207 0.759761 0.717013
Si Si2 0.114847 0.211953 0.095500
Si Si3 0.405384 0.477526 0.938706
Si Si4 0.832665 0.095161 0.898301
Si Si5 0.147044 0.992465 0.422860
Si Si6 0.857628 0.220690 0.423050
Si Si7 0.888189 0.448081 0.280780
O O1 0.456377 0.580465 0.680177
O O2 0.993274 0.835088 0.664751
O O3 0.955290 0.657578 0.716358
O O4 0.704306 0.974920 0.817890
O O5 0.328566 0.436715 0.106749
O O6 0.893422 0.311918 0.182226
O O7 0.245640 0.092974 0.098320
O O8 0.000000 0.000000 0.000000
O O9 0.179886 0.214972 0.881816
O O10 0.500000 0.500000 0.000000
O O11 0.254955 0.683452 0.006696
O O12 0.499567 0.134115 0.429350
O O13 0.969645 0.097691 0.427001
O O14 0.000000 0.000000 0.500000
O O15 0.084543 0.719308 0.334596
O O16 0.000000 0.500000 0.500000
#
# Coordination Sequence:
#
# PCOD9045364 Si02
#       7
#     2   2   2   2   2   2   2
#     4  11  24  45  68  94 137 171 229 271 341 401
#     4  11  22  41  66  91 135 179 230 277 350 395
#     4  11  22  39  62  92 127 172 233 281 339 403
#     4  10  24  40  62  92 129 179 221 289 337 401
#     4  12  25  45  71 104 141 173 224 277 334 407
#     4  12  25  44  73 102 135 181 218 274 342 405
#     4  11  25  44  68  99 133 180 223 282 339 402
#
# _framework density 21.904577
#
# number of rings (size 3 to 8) (size 9 to 14) (size 15 to 20)
#    0.000    0.857    1.429    5.571    4.000    2.286 
#    0.000    0.000    0.000    0.000    0.000    0.000 
#    0.000    0.000    0.000    0.000    0.000    0.000 
#
# Total GULP energy -78198.943139 kJ/mol
# GULP energy per Si atom -5585.638796 kJ/mol
# Density = 2.185472 g / cm^3
# Si number density = 21.904577 Si / 1000 Ang^3
#
#
#
# Elastic Constant Matrix: (Units=GPa)
#
#
# Indices 1 2 3 4 5 6 
#
# 1 52.2376 5.5132 -11.0592 -3.2372 6.3655 13.1547
# 2 5.5132 92.3861 0.0358 -17.4053 3.2073 7.0707
# 3 -11.0592 0.0358 80.7056 -10.1070 8.0613 1.7231
# 4 -3.2372 -17.4053 -10.1070 44.6029 5.6707 4.1881
# 5 6.3655 3.2073 8.0613 5.6707 24.0017 2.6374
# 6 13.1547 7.0707 1.7231 4.1881 2.6374 54.3611
#
#
#
# Elastic Compliance Matrix: (Units=1/GPa)
#
#
# Indices 1 2 3 4 5 6 
#
# 1 0.022747 0.000156 0.004572 0.004290 -0.007986 -0.005613
# 2 0.000156 0.012117 0.001065 0.005558 -0.003120 -0.001924
# 3 0.004572 0.001065 0.014412 0.005093 -0.007207 -0.001744
# 4 0.004290 0.005558 0.005093 0.027627 -0.009725 -0.003579
# 5 -0.007986 -0.003120 -0.007207 -0.009725 0.048813 0.000948
# 6 -0.005613 -0.001924 -0.001744 -0.003579 0.000948 0.020289
#
#
# Mechanical properties :
#
#
# Convention : Reuss Voigt Hill
#
# Bulk Modulus (GPa) = 16.43092 23.81209 20.12150
# Shear Modulus (GPa) = 32.31919 39.98244 36.15082
#
# Velocity S-wave (km/s) = 3.84533 4.27699 4.06689
# Velocity P-wave (km/s) = 5.21851 5.94008 5.59095
#
# Compressibility (1/GPa) = 0.06086087
#
# Stress axis : x y z
#
# Youngs Moduli (GPa) = 43.96155 82.52713 69.38836
#
# Poissons Ratio (x) = -0.01286 -0.31723
# Poissons Ratio (y) = -0.00685 -0.07389
# Poissons Ratio (z) = -0.20098 -0.08788
#
# Static dielectric constant tensor:
#      x y z
#    x 1.876350 0.041370 -0.019910 
#    y 0.041370 1.807780 0.038610 
#    z -0.019910 0.038610 1.881630 
# 
# From -- ./inp_files/288309.got.cif
#   From: 2010.05.17/outbox.cif.g08.bks.cpg/sg2_145_cif.got.tgz:288309.got - 2010.06.03 11:33:40.
