data_PCOD9045890
_publ_section_title
;
Structure prediction by ZEFSAII (Michael W. Deem and Ramdas Pophale) SiO2 
 PCOD9045890
Probable space group: P -1
;
_chemical_formula_sum "Si O2"
_cell_formula_units_Z 12
_cell_length_a 4.813873
_cell_length_b 6.692432
_cell_length_c 18.512951
_cell_angle_alpha 125.066844
_cell_angle_beta 105.479333
_cell_angle_gamma 87.900632
_cell_volume 465.276692
_symmetry_space_group_name_H-M "P -1"
_symmetry_group_IT_number 2
_symmetry_cell_setting 'triclinic'
loop_
_space_group_symop_operation_xyz
x,y,z
-x,-y,-z
loop_
_atom_site_type_symbol
_atom_site_label
_atom_site_fract_x
_atom_site_fract_y
_atom_site_fract_z
Si Si1 0.791316 0.250259 0.914232
Si Si2 0.719753 0.722042 0.526497
Si Si3 0.286893 0.918691 0.857032
Si Si4 0.281624 0.733994 0.326842
Si Si5 0.101367 0.582095 0.646739
Si Si6 0.672926 0.598903 0.199867
O O1 0.574962 0.112060 0.930205
O O2 0.551315 0.321515 0.856141
O O3 0.284712 0.686596 0.861177
O O4 0.000000 0.500000 0.000000
O O5 0.500000 0.500000 0.500000
O O6 0.781491 0.643769 0.433254
O O7 0.994565 0.721102 0.598556
O O8 0.627141 0.989113 0.581873
O O9 0.998202 0.263366 0.745315
O O10 0.003800 0.053568 0.867465
O O11 0.527410 0.644459 0.276294
O O12 0.149525 0.545264 0.341907
O O13 0.293846 0.789353 0.751246
#
# Coordination Sequence:
#
# PCOD9045890 Si02
#       6
#     2   2   2   2   2   2
#     4  12  26  45  73 106 139 176 225 291 354 420
#     4  11  25  38  65  98 138 184 232 290 340 395
#     4  11  25  45  72  98 141 182 232 282 345 422
#     4  11  25  43  69  96 144 184 237 283 336 412
#     4  10  24  42  62  97 133 188 230 283 343 398
#     4  11  25  45  72 104 134 191 231 282 349 413
#
# _framework density 25.791101999999999
#
# number of rings (size 3 to 8) (size 9 to 14) (size 15 to 20)
#    0.000    1.000    0.000    6.000   14.000    2.000 
#    0.000    0.000    0.000    0.000    0.000    0.000 
#    0.000    0.000    0.000    0.000    0.000    0.000 
#
# Total GULP energy -67194.451271 kJ/mol
# GULP energy per Si atom -5599.537606 kJ/mol
# Density = 2.573240 g / cm^3
# Si number density = 25.791102 Si / 1000 Ang^3
#
#
#
# Elastic Constant Matrix: (Units=GPa)
#
#
# Indices 1 2 3 4 5 6 
#
# 1 84.1064 20.1524 14.5522 5.8565 11.2514 -24.1783
# 2 20.1524 142.7596 53.2953 37.5072 2.2873 -33.0166
# 3 14.5522 53.2953 119.9923 8.0089 6.1932 -12.9658
# 4 5.8565 37.5072 8.0089 25.7629 7.9646 3.7519
# 5 11.2514 2.2873 6.1932 7.9646 36.9964 7.6701
# 6 -24.1783 -33.0166 -12.9658 3.7519 7.6701 54.7778
#
#
#
# Elastic Compliance Matrix: (Units=1/GPa)
#
#
# Indices 1 2 3 4 5 6 
#
# 1 0.015184 0.001673 -0.001046 -0.005200 -0.005199 0.008547
# 2 0.001673 0.019819 -0.005741 -0.030284 0.003057 0.012972
# 3 -0.001046 -0.005741 0.010537 0.006196 -0.002102 -0.001558
# 4 -0.005200 -0.030284 0.006196 0.089273 -0.011925 -0.023527
# 5 -0.005199 0.003057 -0.002102 -0.011925 0.032306 -0.004656
# 6 0.008547 0.012972 -0.001558 -0.023527 -0.004656 0.031741
#
#
# Mechanical properties :
#
#
# Convention : Reuss Voigt Hill
#
# Bulk Modulus (GPa) = 28.31698 58.09536 43.20617
# Shear Modulus (GPa) = 22.63889 40.76466 31.70178
#
# Velocity S-wave (km/s) = 2.96595 3.97995 3.50976
# Velocity P-wave (km/s) = 4.76784 6.61016 5.76310
#
# Compressibility (1/GPa) = 0.03531450
#
# Stress axis : x y z
#
# Youngs Moduli (GPa) = 65.85707 50.45624 94.90368
#
# Poissons Ratio (x) = -0.08442 0.09924
# Poissons Ratio (y) = -0.11019 0.54480
# Poissons Ratio (z) = 0.06886 0.28965
#
# Static dielectric constant tensor:
#      x y z
#    x 2.026210 -0.043690 0.028590 
#    y -0.043690 2.071450 -0.075150 
#    z 0.028590 -0.075150 2.068290 
# 
# From -- ./inp_files/51087.got.cif
#   From: 2010.05.17/outbox.cif.g08.bks.cpg/sg2_26_cif.got.tgz:51087.got - 2010.06.03 11:33:40.
