data_PCOD9045015
_publ_section_title
;
Structure prediction by ZEFSAII (Michael W. Deem and Ramdas Pophale) SiO2 
 PCOD9045015
Probable space group: P -1
;
_chemical_formula_sum "Si O2"
_cell_formula_units_Z 14
_cell_length_a 9.764725
_cell_length_b 6.758283
_cell_length_c 9.828168
_cell_angle_alpha 71.427582
_cell_angle_beta 94.451044
_cell_angle_gamma 124.121550
_cell_volume 504.732765
_symmetry_space_group_name_H-M "P -1"
_symmetry_group_IT_number 2
_symmetry_cell_setting 'triclinic'
loop_
_space_group_symop_operation_xyz
x,y,z
-x,-y,-z
loop_
_atom_site_type_symbol
_atom_site_label
_atom_site_fract_x
_atom_site_fract_y
_atom_site_fract_z
Si Si1 0.843324 0.561212 0.068509
Si Si2 0.558936 0.534852 0.149714
Si Si3 0.684759 0.561355 0.625132
Si Si4 0.595309 0.925274 0.417395
Si Si5 0.951689 0.256725 0.467221
Si Si6 0.684341 0.064759 0.995479
Si Si7 0.876266 0.024054 0.803477
O O1 0.673520 0.433302 0.173982
O O2 0.811369 0.332645 0.020431
O O3 0.980874 0.727165 0.155814
O O4 0.868576 0.782934 0.919175
O O5 0.395700 0.410805 0.252097
O O6 0.676961 0.836231 0.123662
O O7 0.500000 0.500000 0.000000
O O8 0.649079 0.724042 0.486731
O O9 0.562147 0.260178 0.651994
O O10 0.876316 0.659122 0.610536
O O11 0.500000 0.000000 0.500000
O O12 0.790842 0.163616 0.381129
O O13 0.000000 0.500000 0.500000
O O14 0.905321 0.068202 0.635073
O O15 0.724714 0.029492 0.852833
O O16 0.500000 0.000000 0.000000
#
# Coordination Sequence:
#
# PCOD9045015 Si02
#       7
#     2   2   2   2   2   2   2
#     4  10  23  48  73 104 149 198 252 319 385 452
#     4  11  25  44  74 109 144 194 247 317 385 454
#     4  11  28  50  77 112 156 206 254 317 398 457
#     4  11  26  51  77 109 154 207 259 312 380 466
#     4  12  27  49  78 115 155 208 256 321 389 469
#     4  11  23  41  72 105 138 195 245 307 380 445
#     4  10  26  46  72 106 152 195 254 316 383 460
#
# _framework density 27.737449999999999
#
# number of rings (size 3 to 8) (size 9 to 14) (size 15 to 20)
#    0.000    1.143    2.857    0.857   10.000    2.286 
#    2.571    0.000    0.000    0.000    0.000    0.000 
#    0.000    0.000    0.000    0.000    0.000    0.000 
#
# Total GULP energy -78148.767006 kJ/mol
# GULP energy per Si atom -5582.054786 kJ/mol
# Density = 2.767432 g / cm^3
# Si number density = 27.737450 Si / 1000 Ang^3
#
#
#
# Elastic Constant Matrix: (Units=GPa)
#
#
# Indices 1 2 3 4 5 6 
#
# 1 170.9577 36.2051 43.4428 4.5413 -28.3606 27.4018
# 2 36.2051 194.8071 24.0063 4.5336 -9.2637 13.7359
# 3 43.4428 24.0063 103.8632 -3.5484 -17.0269 8.0610
# 4 4.5413 4.5336 -3.5484 33.7510 -9.7993 -9.8235
# 5 -28.3606 -9.2637 -17.0269 -9.7993 54.5838 -3.1523
# 6 27.4018 13.7359 8.0610 -9.8235 -3.1523 50.6947
#
#
#
# Elastic Compliance Matrix: (Units=1/GPa)
#
#
# Indices 1 2 3 4 5 6 
#
# 1 0.007676 -0.000712 -0.002376 -0.001498 0.002643 -0.003704
# 2 -0.000712 0.005486 -0.000914 -0.001071 0.000017 -0.001163
# 3 -0.002376 -0.000914 0.011317 0.002501 0.002611 0.000380
# 4 -0.001498 -0.001071 0.002501 0.034365 0.006438 0.007762
# 5 0.002643 0.000017 0.002611 0.006438 0.021710 0.000749
# 6 -0.003704 -0.001163 0.000380 0.007762 0.000749 0.023533
#
#
# Mechanical properties :
#
#
# Convention : Reuss Voigt Hill
#
# Bulk Modulus (GPa) = 60.69842 75.21516 67.95679
# Shear Modulus (GPa) = 42.52258 52.20415 47.36337
#
# Velocity S-wave (km/s) = 3.91965 4.34300 4.13675
# Velocity P-wave (km/s) = 6.51273 7.23357 6.88259
#
# Compressibility (1/GPa) = 0.01647489
#
# Stress axis : x y z
#
# Youngs Moduli (GPa) = 130.27447 182.28511 88.36004
#
# Poissons Ratio (x) = 0.12979 0.20998
# Poissons Ratio (y) = 0.09276 0.08074
# Poissons Ratio (z) = 0.30959 0.16657
#
# Static dielectric constant tensor:
#      x y z
#    x 2.221070 0.001960 -0.022000 
#    y 0.001960 2.368710 -0.091380 
#    z -0.022000 -0.091380 2.323860 
# 
# From -- ./inp_files/409166.got.cif
#   From: 2010.05.17/outbox.cif.g08.bks.cpg/sg2_205_cif.got.tgz:409166.got - 2010.06.03 11:33:40.
