data_PCOD9045993
_publ_section_title
;
Structure prediction by ZEFSAII (Michael W. Deem and Ramdas Pophale) SiO2 
 PCOD9045993
Probable space group: P -1
;
_chemical_formula_sum "Si O2"
_cell_formula_units_Z 16
_cell_length_a 5.155248
_cell_length_b 8.937120
_cell_length_c 18.929454
_cell_angle_alpha 73.839979
_cell_angle_beta 81.929410
_cell_angle_gamma 51.959243
_cell_volume 659.174124
_symmetry_space_group_name_H-M "P -1"
_symmetry_group_IT_number 2
_symmetry_cell_setting 'triclinic'
loop_
_space_group_symop_operation_xyz
x,y,z
-x,-y,-z
loop_
_atom_site_type_symbol
_atom_site_label
_atom_site_fract_x
_atom_site_fract_y
_atom_site_fract_z
Si Si1 0.469206 0.683139 0.787824
Si Si2 0.002251 0.815228 0.984928
Si Si3 0.303655 0.047301 0.246601
Si Si4 0.562265 0.844120 0.118888
Si Si5 0.357234 0.301815 0.618300
Si Si6 0.351943 0.472970 0.925867
Si Si7 0.610815 0.519011 0.653896
Si Si8 0.614428 0.137260 0.481860
O O1 0.636053 0.791157 0.768353
O O2 0.512383 0.569264 0.872468
O O3 0.594297 0.536349 0.736428
O O4 0.076149 0.845319 0.771562
O O5 0.037038 0.647449 0.957628
O O6 0.809190 0.003751 0.917876
O O7 0.785403 0.870385 0.056047
O O8 0.376916 0.702239 0.010305
O O9 0.535947 0.901910 0.192982
O O10 0.401196 0.914533 0.329130
O O11 0.698846 0.624672 0.124392
O O12 0.417848 0.442241 0.638351
O O13 0.433708 0.286448 0.534743
O O14 0.988229 0.375754 0.634247
O O15 0.464903 0.733110 0.601114
O O16 0.500000 0.000000 0.500000
O O17 0.000000 0.000000 0.500000
#
# Coordination Sequence:
#
# PCOD9045993 Si02
#       8
#     2   2   2   2   2   2   2   2
#     4  12  27  46  69 100 140 182 232 288 351 417
#     4  10  24  42  66 100 134 174 234 288 356 420
#     4  12  27  46  69 100 140 182 232 288 351 417
#     4  11  24  42  69  96 136 178 234 286 358 419
#     4  12  25  45  72 104 141 185 236 285 344 414
#     4  11  24  42  69  96 136 178 234 286 358 419
#     4  12  25  45  72 104 141 185 236 285 344 414
#     4  12  24  44  72 106 146 186 230 286 348 408
#
# _framework density 24.272796
#
# number of rings (size 3 to 8) (size 9 to 14) (size 15 to 20)
#    0.000    0.500    1.250    6.750    5.250    4.000 
#    0.000    0.000    0.000    0.000    0.000    0.000 
#    0.000    0.000    0.000    0.000    0.000    0.000 
#
# Total GULP energy -89667.658159 kJ/mol
# GULP energy per Si atom -5604.228635 kJ/mol
# Density = 2.421755 g / cm^3
# Si number density = 24.272796 Si / 1000 Ang^3
#
#
#
# Elastic Constant Matrix: (Units=GPa)
#
#
# Indices 1 2 3 4 5 6 
#
# 1 74.7317 12.0451 1.7854 -14.5927 -0.0923 0.0816
# 2 12.0451 72.6882 -5.1838 8.1061 11.0837 5.6440
# 3 1.7854 -5.1838 80.6356 17.5087 -0.6983 -2.9588
# 4 -14.5927 8.1061 17.5087 57.8183 -2.7658 -3.2302
# 5 -0.0923 11.0837 -0.6983 -2.7658 20.7267 1.9760
# 6 0.0816 5.6440 -2.9588 -3.2302 1.9760 60.7672
#
#
#
# Elastic Compliance Matrix: (Units=1/GPa)
#
#
# Indices 1 2 3 4 5 6 
#
# 1 0.014951 -0.003554 -0.001586 0.004896 0.002528 0.000411
# 2 -0.003554 0.016475 0.001944 -0.004312 -0.009206 -0.001361
# 3 -0.001586 0.001944 0.013611 -0.004840 -0.001260 0.000268
# 4 0.004896 -0.004312 -0.004840 0.020895 0.004847 0.001111
# 5 0.002528 -0.009206 -0.001260 0.004847 0.053853 -0.000703
# 6 0.000411 -0.001361 0.000268 0.001111 -0.000703 0.016677
#
#
# Mechanical properties :
#
#
# Convention : Reuss Voigt Hill
#
# Bulk Modulus (GPa) = 25.87491 27.26100 26.56795
# Shear Modulus (GPa) = 32.10592 42.48968 37.29780
#
# Velocity S-wave (km/s) = 3.64086 4.18844 3.92421
# Velocity P-wave (km/s) = 5.32519 5.88610 5.61266
#
# Compressibility (1/GPa) = 0.03864748
#
# Stress axis : x y z
#
# Youngs Moduli (GPa) = 66.88736 60.69697 73.46775
#
# Poissons Ratio (x) = 0.21570 0.11649
# Poissons Ratio (y) = 0.23770 -0.14286
# Poissons Ratio (z) = 0.10605 -0.11802
#
# Static dielectric constant tensor:
#      x y z
#    x 1.938330 0.021920 0.019370 
#    y 0.021920 1.931780 0.007230 
#    z 0.019370 0.007230 1.896960 
# 
# From -- ./inp_files/548026.got.cif
#   From: 2010.05.17/outbox.cif.g08.bks.cpg/sg2_275_cif.got.tgz:548026.got - 2010.06.03 11:33:40.
