data_PCOD9045693
_publ_section_title
;
Structure prediction by ZEFSAII (Michael W. Deem and Ramdas Pophale) SiO2 
 PCOD9045693
Probable space group: P -1
;
_chemical_formula_sum "Si O2"
_cell_formula_units_Z 15
_cell_length_a 17.379726
_cell_length_b 8.630173
_cell_length_c 8.273869
_cell_angle_alpha 76.657578
_cell_angle_beta 141.471484
_cell_angle_gamma 121.868784
_cell_volume 616.300540
_symmetry_space_group_name_H-M "P -1"
_symmetry_group_IT_number 2
_symmetry_cell_setting 'triclinic'
loop_
_space_group_symop_operation_xyz
x,y,z
-x,-y,-z
loop_
_atom_site_type_symbol
_atom_site_label
_atom_site_fract_x
_atom_site_fract_y
_atom_site_fract_z
Si Si1 0.731169 0.956800 0.234512
Si Si2 0.909003 0.269808 0.935952
Si Si3 0.555904 0.789185 0.425045
Si Si4 0.611298 0.592510 0.313419
Si Si5 0.155371 0.052298 0.921401
Si Si6 0.008414 0.263184 0.756031
Si Si7 0.500000 0.000000 0.000000
Si Si8 0.709286 0.364665 0.725901
O O1 0.732836 0.813462 0.401232
O O2 0.573801 0.930160 0.001570
O O3 0.768261 0.907140 0.136041
O O4 0.857181 0.185363 0.424880
O O5 0.750031 0.229811 0.738577
O O6 0.940056 0.197893 0.839761
O O7 0.951757 0.180680 0.170324
O O8 0.000000 0.500000 0.000000
O O9 0.520751 0.599616 0.314887
O O10 0.715211 0.873961 0.749917
O O11 0.435997 0.743711 0.375028
O O12 0.552867 0.917495 0.248935
O O13 0.687294 0.487336 0.526585
O O14 0.500000 0.500000 0.000000
O O15 0.072368 0.153284 0.801930
O O16 0.149046 0.484376 0.960903
#
# Coordination Sequence:
#
# PCOD9045693 Si02
#       8
#     2   2   2   2   2   2   1   2
#     4  11  26  43  70 105 137 184 235 279 347 412
#     4  10  24  41  66  99 131 182 230 284 347 400
#     4  11  24  44  73  99 137 183 232 283 350 404
#     4  11  24  40  67 102 137 179 227 289 340 407
#     4  12  24  45  74 100 139 188 232 282 345 421
#     4  11  25  45  71  99 143 185 228 286 346 416
#     4  10  24  46  66 100 138 174 228 290 332 406
#     4  11  24  45  71 104 140 180 234 287 345 414
#
# _framework density 24.338774999999998
#
# number of rings (size 3 to 8) (size 9 to 14) (size 15 to 20)
#    0.000    1.067    1.333    4.400    5.600    7.467 
#    0.000    7.333    0.000    0.000    0.000    0.000 
#    0.000    0.000    0.000    0.000    0.000    0.000 
#
# Total GULP energy -83572.778319 kJ/mol
# GULP energy per Si atom -5571.518555 kJ/mol
# Density = 2.428338 g / cm^3
# Si number density = 24.338775 Si / 1000 Ang^3
#
#
#
# Elastic Constant Matrix: (Units=GPa)
#
#
# Indices 1 2 3 4 5 6 
#
# 1 190.1162 13.5935 -12.9583 -11.8140 -2.5672 -12.4027
# 2 13.5935 52.2073 7.2311 -8.0234 -8.0624 -8.7389
# 3 -12.9583 7.2311 53.6815 9.1667 -13.3233 3.6028
# 4 -11.8140 -8.0234 9.1667 36.9001 2.3592 5.3172
# 5 -2.5672 -8.0624 -13.3233 2.3592 29.8754 -5.5740
# 6 -12.4027 -8.7389 3.6028 5.3172 -5.5740 39.6789
#
#
#
# Elastic Compliance Matrix: (Units=1/GPa)
#
#
# Indices 1 2 3 4 5 6 
#
# 1 0.005605 -0.001138 0.001517 0.000904 0.001039 0.001389
# 2 -0.001138 0.022129 -0.003027 0.004158 0.005120 0.004955
# 3 0.001517 -0.003027 0.023025 -0.006540 0.010100 0.000012
# 4 0.000904 0.004158 -0.006540 0.030647 -0.004692 -0.002974
# 5 0.001039 0.005120 0.010100 -0.004692 0.041113 0.006939
# 6 0.001389 0.004955 0.000012 -0.002974 0.006939 0.028100
#
#
# Mechanical properties :
#
#
# Convention : Reuss Voigt Hill
#
# Bulk Modulus (GPa) = 21.99611 34.63752 28.31681
# Shear Modulus (GPa) = 29.22769 40.50014 34.86391
#
# Velocity S-wave (km/s) = 3.46912 4.08366 3.78887
# Velocity P-wave (km/s) = 5.01033 6.04131 5.54981
#
# Compressibility (1/GPa) = 0.04546259
#
# Stress axis : x y z
#
# Youngs Moduli (GPa) = 178.39762 45.18925 43.43090
#
# Poissons Ratio (x) = 0.05142 -0.06587
# Poissons Ratio (y) = 0.20299 0.13148
# Poissons Ratio (z) = -0.27056 0.13680
#
# Static dielectric constant tensor:
#      x y z
#    x 1.876820 0.051800 -0.033250 
#    y 0.051800 2.006180 0.140860 
#    z -0.033250 0.140860 1.910290 
# 
# From -- ./inp_files/328958.got.cif
#   From: 2010.05.17/outbox.cif.g08.bks.cpg/sg2_165_cif.got.tgz:328958.got - 2010.06.03 11:33:40.
