data_PCOD9045519
_publ_section_title
;
Structure prediction by ZEFSAII (Michael W. Deem and Ramdas Pophale) SiO2 
 PCOD9045519
Probable space group: P -1
;
_chemical_formula_sum "Si O2"
_cell_formula_units_Z 14
_cell_length_a 8.505776
_cell_length_b 13.107798
_cell_length_c 11.961540
_cell_angle_alpha 126.065433
_cell_angle_beta 109.940995
_cell_angle_gamma 33.565566
_cell_volume 561.697360
_symmetry_space_group_name_H-M "P -1"
_symmetry_group_IT_number 2
_symmetry_cell_setting 'triclinic'
loop_
_space_group_symop_operation_xyz
x,y,z
-x,-y,-z
loop_
_atom_site_type_symbol
_atom_site_label
_atom_site_fract_x
_atom_site_fract_y
_atom_site_fract_z
Si Si1 0.581108 0.130905 0.436418
Si Si2 0.853419 0.333781 0.607220
Si Si3 0.327097 0.157830 0.855332
Si Si4 0.839376 0.966472 0.957677
Si Si5 0.194951 0.610037 0.986742
Si Si6 0.755540 0.679497 0.296849
Si Si7 0.245626 0.608514 0.636592
O O1 0.415160 0.186114 0.543294
O O2 0.426364 0.361709 0.521546
O O3 0.541269 0.064454 0.278399
O O4 0.929454 0.890843 0.407964
O O5 0.509991 0.537464 0.691310
O O6 0.863866 0.290152 0.449956
O O7 0.953345 0.415557 0.687893
O O8 0.379450 0.188902 0.768029
O O9 0.490918 0.146242 0.974921
O O10 0.975589 0.353389 0.928853
O O11 0.946183 0.857995 0.035116
O O12 0.985657 0.787959 0.779276
O O13 0.000000 0.000000 0.000000
O O14 0.237506 0.473771 0.817714
O O15 0.500000 0.500000 0.000000
#
# Coordination Sequence:
#
# PCOD9045519 Si02
#       7
#     2   2   2   2   2   2   2
#     4  11  23  44  75 104 142 190 244 294 369 424
#     4  10  24  40  70 109 141 186 237 306 357 430
#     4  11  26  46  72 105 144 188 235 310 352 432
#     4  12  27  46  70 100 148 189 245 292 363 434
#     4  12  28  45  71 104 140 195 244 290 366 435
#     4  11  23  44  73  99 144 183 241 290 370 422
#     4  11  24  43  71 106 145 187 242 299 361 426
#
# _framework density 24.924451999999999
#
# number of rings (size 3 to 8) (size 9 to 14) (size 15 to 20)
#    0.000    0.857    1.429    5.571    8.000    4.571 
#    0.000    0.000    0.000    0.000    0.000    0.000 
#    0.000    0.000    0.000    0.000    0.000    0.000 
#
# Total GULP energy -78181.017688 kJ/mol
# GULP energy per Si atom -5584.358406 kJ/mol
# Density = 2.486772 g / cm^3
# Si number density = 24.924452 Si / 1000 Ang^3
#
#
#
# Elastic Constant Matrix: (Units=GPa)
#
#
# Indices 1 2 3 4 5 6 
#
# 1 96.0687 51.4433 19.6195 -13.0157 16.7909 -26.4910
# 2 51.4433 88.9984 17.3173 -20.3614 12.5330 -11.8063
# 3 19.6195 17.3173 86.0526 10.4162 10.0347 -15.0600
# 4 -13.0157 -20.3614 10.4162 28.6370 -4.2811 1.1366
# 5 16.7909 12.5330 10.0347 -4.2811 52.1391 -10.4138
# 6 -26.4910 -11.8063 -15.0600 1.1366 -10.4138 49.8327
#
#
#
# Elastic Compliance Matrix: (Units=1/GPa)
#
#
# Indices 1 2 3 4 5 6 
#
# 1 0.017499 -0.008303 -0.001183 0.001930 -0.001950 0.006526
# 2 -0.008303 0.019152 -0.003456 0.011061 -0.000617 -0.001302
# 3 -0.001183 -0.003456 0.014295 -0.008556 -0.001700 0.002712
# 4 0.001930 0.011061 -0.008556 0.047103 0.002329 0.000473
# 5 -0.001950 -0.000617 -0.001700 0.002329 0.021001 0.002639
# 6 0.006526 -0.001302 0.002712 0.000473 0.002639 0.024588
#
#
# Mechanical properties :
#
#
# Convention : Reuss Voigt Hill
#
# Bulk Modulus (GPa) = 39.90000 49.76442 44.83221
# Shear Modulus (GPa) = 28.10963 38.30441 33.20702
#
# Velocity S-wave (km/s) = 3.36191 3.92448 3.65404
# Velocity P-wave (km/s) = 5.57790 6.36749 5.98573
#
# Compressibility (1/GPa) = 0.02506266
#
# Stress axis : x y z
#
# Youngs Moduli (GPa) = 57.14762 52.21264 69.95669
#
# Poissons Ratio (x) = 0.43350 0.08274
# Poissons Ratio (y) = 0.47448 0.24177
# Poissons Ratio (z) = 0.06759 0.18045
#
# Static dielectric constant tensor:
#      x y z
#    x 2.069160 0.012490 0.074230 
#    y 0.012490 2.065990 0.054700 
#    z 0.074230 0.054700 2.031450 
# 
# From -- ./inp_files/399657.got.cif
#   From: 2010.05.17/outbox.cif.g08.bks.cpg/sg2_200_cif.got.tgz:399657.got - 2010.06.03 11:33:40.
