data_PCOD9045099
_publ_section_title
;
Structure prediction by ZEFSAII (Michael W. Deem and Ramdas Pophale) SiO2 
 PCOD9045099
Probable space group: P -1
;
_chemical_formula_sum "Si O2"
_cell_formula_units_Z 16
_cell_length_a 7.044131
_cell_length_b 9.322012
_cell_length_c 18.842214
_cell_angle_alpha 52.513921
_cell_angle_beta 131.301082
_cell_angle_gamma 119.436022
_cell_volume 729.153821
_symmetry_space_group_name_H-M "P -1"
_symmetry_group_IT_number 2
_symmetry_cell_setting 'triclinic'
loop_
_space_group_symop_operation_xyz
x,y,z
-x,-y,-z
loop_
_atom_site_type_symbol
_atom_site_label
_atom_site_fract_x
_atom_site_fract_y
_atom_site_fract_z
Si Si1 0.910956 0.974974 0.718199
Si Si2 0.312531 0.316296 0.027127
Si Si3 0.238467 0.609930 0.181561
Si Si4 0.185317 0.625081 0.457324
Si Si5 0.668977 0.845450 0.565145
Si Si6 0.461237 0.001735 0.904687
Si Si7 0.921313 0.586999 0.647063
Si Si8 0.532089 0.683196 0.772364
O O1 0.895308 0.869891 0.671353
O O2 0.637560 0.886651 0.709234
O O3 0.916318 0.186811 0.641904
O O4 0.158845 0.947341 0.831421
O O5 0.356743 0.303454 0.125443
O O6 0.393584 0.147289 0.053753
O O7 0.500000 0.500000 0.000000
O O8 0.025861 0.341019 0.929792
O O9 0.437191 0.798888 0.164843
O O10 0.170255 0.526435 0.268823
O O11 0.339983 0.458192 0.202358
O O12 0.441211 0.676678 0.550756
O O13 0.196796 0.527744 0.414499
O O14 0.000000 0.500000 0.500000
O O15 0.831425 0.787838 0.556583
O O16 0.500000 0.000000 0.500000
O O17 0.500000 0.000000 0.000000
O O18 0.229359 0.621506 0.712678
#
# Coordination Sequence:
#
# PCOD9045099 Si02
#       8
#     2   2   2   2   2   2   2   2
#     4  11  24  46  75 105 148 191 242 307 360 434
#     4  12  24  44  70 108 150 199 249 290 362 436
#     4  12  26  45  75 104 155 191 248 308 360 439
#     4  11  26  46  76 108 148 191 245 310 375 439
#     4  10  23  49  71 105 141 182 247 298 358 440
#     4  12  27  45  73 113 154 197 246 300 368 442
#     4  12  25  46  78 107 143 193 243 301 384 431
#     4  12  24  46  75 107 148 195 246 302 362 442
#
# _framework density 21.943242999999999
#
# number of rings (size 3 to 8) (size 9 to 14) (size 15 to 20)
#    0.000    0.500    2.500    5.625    5.250    0.000 
#    0.000    8.750    0.000    0.000    0.000    0.000 
#    0.000    0.000    0.000    0.000    0.000    0.000 
#
# Total GULP energy -89228.970479 kJ/mol
# GULP energy per Si atom -5576.810655 kJ/mol
# Density = 2.189330 g / cm^3
# Si number density = 21.943243 Si / 1000 Ang^3
#
#
#
# Elastic Constant Matrix: (Units=GPa)
#
#
# Indices 1 2 3 4 5 6 
#
# 1 116.0247 77.3356 52.5013 -3.4390 -1.6864 -8.5610
# 2 77.3356 159.9168 68.8782 12.2051 -4.2218 -16.6165
# 3 52.5013 68.8782 100.8744 14.0234 4.2940 -6.7550
# 4 -3.4390 12.2051 14.0234 51.6266 5.3960 0.4889
# 5 -1.6864 -4.2218 4.2940 5.3960 49.4482 5.0307
# 6 -8.5610 -16.6165 -6.7550 0.4889 5.0307 45.3404
#
#
#
# Elastic Compliance Matrix: (Units=1/GPa)
#
#
# Indices 1 2 3 4 5 6 
#
# 1 0.014146 -0.005267 -0.004226 0.003332 0.000029 0.000072
# 2 -0.005267 0.011157 -0.004505 -0.001905 0.001136 0.002318
# 3 -0.004226 -0.004505 0.015724 -0.003327 -0.001541 0.000101
# 4 0.003332 -0.001905 -0.003327 0.021162 -0.002011 -0.000570
# 5 0.000029 0.001136 -0.001541 -0.002011 0.020889 -0.002104
# 6 0.000072 0.002318 0.000101 -0.000570 -0.002104 0.023173
#
#
# Mechanical properties :
#
#
# Convention : Reuss Voigt Hill
#
# Bulk Modulus (GPa) = 76.73922 86.02734 81.38328
# Shear Modulus (GPa) = 36.07774 41.15644 38.61709
#
# Velocity S-wave (km/s) = 4.05920 4.33550 4.19962
# Velocity P-wave (km/s) = 7.55096 8.02195 7.79002
#
# Compressibility (1/GPa) = 0.01303115
#
# Stress axis : x y z
#
# Youngs Moduli (GPa) = 70.69036 89.62946 63.59826
#
# Poissons Ratio (x) = 0.47208 0.26875
# Poissons Ratio (y) = 0.37233 0.28652
# Poissons Ratio (z) = 0.29872 0.40379
#
# Static dielectric constant tensor:
#      x y z
#    x 1.707990 0.019100 0.025480 
#    y 0.019100 1.788980 -0.070960 
#    z 0.025480 -0.070960 1.854550 
# 
# From -- ./inp_files/547932.got.cif
#   From: 2010.05.17/outbox.cif.g08.bks.cpg/sg2_274_cif.got.tgz:547932.got - 2010.06.03 11:33:40.
