data_PCOD9045205
_publ_section_title
;
Structure prediction by ZEFSAII (Michael W. Deem and Ramdas Pophale) SiO2 
 PCOD9045205
Probable space group: P -1
;
_chemical_formula_sum "Si O2"
_cell_formula_units_Z 15
_cell_length_a 12.149238
_cell_length_b 12.161415
_cell_length_c 12.531662
_cell_angle_alpha 145.061347
_cell_angle_beta 73.810178
_cell_angle_gamma 80.774363
_cell_volume 720.096179
_symmetry_space_group_name_H-M "P -1"
_symmetry_group_IT_number 2
_symmetry_cell_setting 'triclinic'
loop_
_space_group_symop_operation_xyz
x,y,z
-x,-y,-z
loop_
_atom_site_type_symbol
_atom_site_label
_atom_site_fract_x
_atom_site_fract_y
_atom_site_fract_z
Si Si1 0.183930 0.636150 0.307360
Si Si2 0.324472 0.710752 0.158386
Si Si3 0.411165 0.361973 0.225266
Si Si4 0.659751 0.727917 0.604718
Si Si5 0.656848 0.870909 0.286894
Si Si6 0.434766 0.421905 0.685840
Si Si7 0.880927 0.737661 0.447645
Si Si8 0.000000 0.500000 0.000000
O O1 0.192148 0.806772 0.359438
O O2 0.271615 0.568443 0.340840
O O3 0.006617 0.755382 0.462427
O O4 0.294184 0.352282 0.987197
O O5 0.275467 0.970838 0.328304
O O6 0.500000 0.500000 0.000000
O O7 0.330984 0.565688 0.937436
O O8 0.342348 0.398727 0.389961
O O9 0.527839 0.408906 0.231223
O O10 0.511266 0.054437 0.917482
O O11 0.639702 0.623316 0.421092
O O12 0.819711 0.667720 0.498909
O O13 0.500000 0.000000 0.500000
O O14 0.603019 0.124223 0.439636
O O15 0.805554 0.723347 0.207650
O O16 0.969242 0.525999 0.159112
#
# Coordination Sequence:
#
# PCOD9045205 Si02
#       8
#     2   2   2   2   2   2   2   1
#     4  11  23  40  62  96 136 173 214 265 345 400
#     4  12  22  39  67 101 135 169 213 276 340 396
#     4  11  24  44  67  96 127 179 227 276 323 393
#     4  11  24  44  70  92 130 176 232 274 324 393
#     4  11  21  37  62  95 135 174 212 270 335 404
#     4  12  22  39  72  97 132 168 225 280 334 391
#     4  11  24  42  62  98 136 174 214 275 336 399
#     4  10  24  36  60  96 132 170 216 260 338 402
#
# _framework density 20.830549000000001
#
# number of rings (size 3 to 8) (size 9 to 14) (size 15 to 20)
#    0.000    0.800    5.333    2.400    1.867    0.533 
#    0.000    0.000    0.000    4.000    0.000    0.000 
#    0.000    0.000    0.000    0.000    0.000    0.000 
#
# Total GULP energy -83583.438408 kJ/mol
# GULP energy per Si atom -5572.229227 kJ/mol
# Density = 2.078314 g / cm^3
# Si number density = 20.830549 Si / 1000 Ang^3
#
#
#
# Elastic Constant Matrix: (Units=GPa)
#
#
# Indices 1 2 3 4 5 6 
#
# 1 92.4847 44.4083 20.9186 -15.2055 -12.5599 0.4566
# 2 44.4083 101.4411 11.1566 -20.7899 -6.4548 15.5716
# 3 20.9186 11.1566 50.9781 -12.7287 -6.4086 -5.1674
# 4 -15.2055 -20.7899 -12.7287 30.5831 1.3598 1.2705
# 5 -12.5599 -6.4548 -6.4086 1.3598 40.7067 -2.3219
# 6 0.4566 15.5716 -5.1674 1.2705 -2.3219 32.9195
#
#
#
# Elastic Compliance Matrix: (Units=1/GPa)
#
#
# Indices 1 2 3 4 5 6 
#
# 1 0.015307 -0.006073 -0.003920 0.001615 0.003215 0.002209
# 2 -0.006073 0.015192 0.000349 0.007763 -0.000089 -0.007353
# 3 -0.003920 0.000349 0.023803 0.007937 0.002527 0.003498
# 4 0.001615 0.007763 0.007937 0.042187 0.001343 -0.003982
# 5 0.003215 -0.000089 0.002527 0.001343 0.026021 0.002178
# 6 0.002209 -0.007353 0.003498 -0.003982 0.002178 0.034681
#
#
# Mechanical properties :
#
#
# Convention : Reuss Voigt Hill
#
# Bulk Modulus (GPa) = 28.56139 44.20789 36.38464
# Shear Modulus (GPa) = 26.57440 32.06988 29.32214
#
# Velocity S-wave (km/s) = 3.57563 3.92798 3.75594
# Velocity P-wave (km/s) = 5.54868 6.46844 6.02613
#
# Compressibility (1/GPa) = 0.03501231
#
# Stress axis : x y z
#
# Youngs Moduli (GPa) = 65.33037 65.82294 42.01204
#
# Poissons Ratio (x) = 0.39976 0.16471
# Poissons Ratio (y) = 0.39677 -0.01466
# Poissons Ratio (z) = 0.25613 -0.02298
#
# Static dielectric constant tensor:
#      x y z
#    x 1.787840 0.040300 0.026330 
#    y 0.040300 1.746410 0.024410 
#    z 0.026330 0.024410 1.765510 
# 
# From -- ./inp_files/253312.got.cif
#   From: 2010.05.17/outbox.cif.g08.bks.cpg/sg2_127_cif.got.tgz:253312.got - 2010.06.03 11:33:40.
