data_PCOD9045544
_publ_section_title
;
Structure prediction by ZEFSAII (Michael W. Deem and Ramdas Pophale) SiO2 
 PCOD9045544
Probable space group: P -1
;
_chemical_formula_sum "Si O2"
_cell_formula_units_Z 14
_cell_length_a 14.095406
_cell_length_b 8.607285
_cell_length_c 14.526452
_cell_angle_alpha 146.933820
_cell_angle_beta 139.737849
_cell_angle_gamma 39.985444
_cell_volume 579.948971
_symmetry_space_group_name_H-M "P -1"
_symmetry_group_IT_number 2
_symmetry_cell_setting 'triclinic'
loop_
_space_group_symop_operation_xyz
x,y,z
-x,-y,-z
loop_
_atom_site_type_symbol
_atom_site_label
_atom_site_fract_x
_atom_site_fract_y
_atom_site_fract_z
Si Si1 0.431745 0.915719 0.313483
Si Si2 0.470992 0.204746 0.987090
Si Si3 0.804984 0.820755 0.026953
Si Si4 0.024059 0.041080 0.428878
Si Si5 0.077724 0.296015 0.273188
Si Si6 0.933714 0.306388 0.980958
Si Si7 0.385296 0.859157 0.592265
O O1 0.425194 0.572030 0.139947
O O2 0.500000 0.000000 0.500000
O O3 0.253425 0.158647 0.293823
O O4 0.542391 0.972788 0.345211
O O5 0.646426 0.082890 0.013309
O O6 0.500000 0.000000 0.000000
O O7 0.376892 0.054539 0.776677
O O8 0.909713 0.692182 0.952026
O O9 0.789432 0.542688 0.936673
O O10 0.907176 0.933145 0.229335
O O11 0.962826 0.401729 0.549832
O O12 0.205698 0.886074 0.458020
O O13 0.000000 0.000000 0.500000
O O14 0.065454 0.029233 0.194382
O O15 0.952526 0.359632 0.128562
O O16 0.500000 0.500000 0.500000
#
# Coordination Sequence:
#
# PCOD9045544 Si02
#       7
#     2   2   2   2   2   2   2
#     4  12  27  47  73 106 149 187 239 298 363 426
#     4  12  26  46  75 104 147 191 240 291 366 428
#     4  11  24  43  70  99 138 181 243 277 349 419
#     4  12  25  44  71 102 139 183 236 288 350 418
#     4  11  24  44  71  98 141 176 236 284 355 413
#     4  10  24  40  71  97 133 180 233 289 339 412
#     4  12  29  47  72 106 150 191 238 299 364 423
#
# _framework density 24.140053999999999
#
# number of rings (size 3 to 8) (size 9 to 14) (size 15 to 20)
#    0.000    0.571    1.429    5.571   12.000    0.571 
#    0.000    0.000    0.000    0.000    0.000    0.000 
#    0.000    0.000    0.000    0.000    0.000    0.000 
#
# Total GULP energy -78335.518232 kJ/mol
# GULP energy per Si atom -5595.394159 kJ/mol
# Density = 2.408511 g / cm^3
# Si number density = 24.140054 Si / 1000 Ang^3
#
#
#
# Elastic Constant Matrix: (Units=GPa)
#
#
# Indices 1 2 3 4 5 6 
#
# 1 79.8867 30.1752 -0.7128 13.0302 17.7854 9.2995
# 2 30.1752 102.0927 35.1594 26.9199 -0.3376 -18.1861
# 3 -0.7128 35.1594 123.5572 27.3018 -1.3202 19.1213
# 4 13.0302 26.9199 27.3018 53.2831 2.3254 -1.9679
# 5 17.7854 -0.3376 -1.3202 2.3254 33.5777 -2.6868
# 6 9.2995 -18.1861 19.1213 -1.9679 -2.6868 52.5010
#
#
#
# Elastic Compliance Matrix: (Units=1/GPa)
#
#
# Indices 1 2 3 4 5 6 
#
# 1 0.019335 -0.007956 0.004143 -0.002675 -0.010640 -0.008334
# 2 -0.007956 0.016596 -0.005352 -0.003581 0.005158 0.009237
# 3 0.004143 -0.005352 0.011712 -0.004484 -0.002047 -0.007126
# 4 -0.002675 -0.003581 -0.004484 0.023606 -0.000291 0.001736
# 5 -0.010640 0.005158 -0.002047 -0.000291 0.035909 0.006244
# 6 -0.008334 0.009237 -0.007126 0.001736 0.006244 0.026703
#
#
# Mechanical properties :
#
#
# Convention : Reuss Voigt Hill
#
# Bulk Modulus (GPa) = 34.11390 48.30892 41.21141
# Shear Modulus (GPa) = 30.87141 43.93335 37.40238
#
# Velocity S-wave (km/s) = 3.57998 4.27070 3.94050
# Velocity P-wave (km/s) = 5.59023 6.66137 6.14917
#
# Compressibility (1/GPa) = 0.02931357
#
# Stress axis : x y z
#
# Youngs Moduli (GPa) = 51.71903 60.25435 85.38277
#
# Poissons Ratio (x) = 0.47939 -0.35371
# Poissons Ratio (y) = 0.41148 0.45694
# Poissons Ratio (z) = -0.21426 0.32246
#
# Static dielectric constant tensor:
#      x y z
#    x 2.009060 -0.018870 0.023920 
#    y -0.018870 2.033850 0.038830 
#    z 0.023920 0.038830 1.928300 
# 
# From -- ./inp_files/159379.got.cif
#   From: 2010.05.17/outbox.cif.g08.bks.cpg/sg2_80_cif.got.tgz:159379.got - 2010.06.03 11:33:40.
