data_PCOD9045163
_publ_section_title
;
Structure prediction by ZEFSAII (Michael W. Deem and Ramdas Pophale) SiO2 
 PCOD9045163
Probable space group: P -1
;
_chemical_formula_sum "Si O2"
_cell_formula_units_Z 16
_cell_length_a 17.432909
_cell_length_b 7.017871
_cell_length_c 15.455095
_cell_angle_alpha 120.545099
_cell_angle_beta 22.284782
_cell_angle_gamma 114.516592
_cell_volume 608.595547
_symmetry_space_group_name_H-M "P -1"
_symmetry_group_IT_number 2
_symmetry_cell_setting 'triclinic'
loop_
_space_group_symop_operation_xyz
x,y,z
-x,-y,-z
loop_
_atom_site_type_symbol
_atom_site_label
_atom_site_fract_x
_atom_site_fract_y
_atom_site_fract_z
Si Si1 0.745370 0.483531 0.745056
Si Si2 0.357757 0.224036 0.236810
Si Si3 0.274342 0.546011 0.665215
Si Si4 0.021538 0.026901 0.623734
Si Si5 0.373714 0.259799 0.752232
Si Si6 0.854654 0.829590 0.191833
Si Si7 0.792244 0.075162 0.051617
Si Si8 0.753195 0.402910 0.905973
O O1 0.866694 0.231000 0.551100
O O2 0.774673 0.649975 0.675044
O O3 0.500000 0.500000 0.000000
O O4 0.791638 0.533865 0.808313
O O5 0.211838 0.161570 0.449667
O O6 0.514880 0.377930 0.142498
O O7 0.121598 0.849146 0.275315
O O8 0.500000 0.000000 0.000000
O O9 0.431652 0.632785 0.456610
O O10 0.260377 0.291275 0.642658
O O11 0.961248 0.348806 0.084533
O O12 0.296946 0.674038 0.763414
O O13 0.870799 0.064932 0.871024
O O14 0.297123 0.127150 0.720194
O O15 0.218227 0.464445 0.005842
O O16 0.372250 0.081671 0.790204
O O17 0.994054 0.989995 0.129363
#
# Coordination Sequence:
#
# PCOD9045163 Si02
#       8
#     2   2   2   2   2   2   2   2
#     4  10  23  50  70 108 142 189 240 300 374 444
#     4  11  25  49  78 102 149 193 243 303 379 443
#     4   9  21  42  67  91 143 187 241 299 364 422
#     4  12  25  48  74 106 151 188 247 313 360 439
#     4  12  23  42  67 104 143 192 246 303 358 444
#     4   9  21  42  66  95 137 189 246 291 371 424
#     4  10  24  43  64 107 141 191 249 294 374 435
#     4  11  27  42  72 113 141 191 254 297 370 444
#
# _framework density 26.290039
#
# number of rings (size 3 to 8) (size 9 to 14) (size 15 to 20)
#    0.750    0.750    2.500    2.250    3.500    1.500 
#    2.250    0.000    0.000    0.000    0.000    0.000 
#    0.000    0.000    0.000    0.000    0.000    0.000 
#
# Total GULP energy -89335.350519 kJ/mol
# GULP energy per Si atom -5583.459407 kJ/mol
# Density = 2.623020 g / cm^3
# Si number density = 26.290039 Si / 1000 Ang^3
#
#
#
# Elastic Constant Matrix: (Units=GPa)
#
#
# Indices 1 2 3 4 5 6 
#
# 1 124.1024 38.2474 51.8303 0.8275 6.3692 -25.6486
# 2 38.2474 107.6089 55.8251 -17.9154 17.5029 -30.4992
# 3 51.8303 55.8251 120.1849 -15.9489 13.9448 -22.3919
# 4 0.8275 -17.9154 -15.9489 60.5617 -5.0822 2.3012
# 5 6.3692 17.5029 13.9448 -5.0822 55.3353 -2.7056
# 6 -25.6486 -30.4992 -22.3919 2.3012 -2.7056 38.9644
#
#
#
# Elastic Compliance Matrix: (Units=1/GPa)
#
#
# Indices 1 2 3 4 5 6 
#
# 1 0.010767 -0.001007 -0.003579 -0.001548 0.000051 0.004338
# 2 -0.001007 0.015238 -0.004369 0.002806 -0.002935 0.008385
# 3 -0.003579 -0.004369 0.012504 0.001909 -0.001122 0.001220
# 4 -0.001548 0.002806 0.001909 0.017861 0.000511 0.001255
# 5 0.000051 -0.002935 -0.001122 0.000511 0.019246 -0.001603
# 6 0.004338 0.008385 0.001220 0.001255 -0.001603 0.035598
#
#
# Mechanical properties :
#
#
# Convention : Reuss Voigt Hill
#
# Bulk Modulus (GPa) = 48.54286 71.52241 60.03264
# Shear Modulus (GPa) = 36.76735 44.70515 40.73625
#
# Velocity S-wave (km/s) = 3.74375 4.12814 3.94063
# Velocity P-wave (km/s) = 6.09852 7.07009 6.60220
#
# Compressibility (1/GPa) = 0.02060035
#
# Stress axis : x y z
#
# Youngs Moduli (GPa) = 92.87616 65.62418 79.97503
#
# Poissons Ratio (x) = 0.06608 0.28622
# Poissons Ratio (y) = 0.09352 0.34939
# Poissons Ratio (z) = 0.33239 0.28669
#
# Static dielectric constant tensor:
#      x y z
#    x 2.118880 -0.005700 -0.034720 
#    y -0.005700 2.090890 0.029490 
#    z -0.034720 0.029490 2.102060 
# 
# From -- ./inp_files/577600.got.cif
#   From: 2010.05.17/outbox.cif.g08.bks.cpg/sg2_289_cif.got.tgz:577600.got - 2010.06.03 11:33:40.
