data_PCOD9045599
_publ_section_title
;
Structure prediction by ZEFSAII (Michael W. Deem and Ramdas Pophale) SiO2 
 PCOD9045599
Probable space group: P -1
;
_chemical_formula_sum "Si O2"
_cell_formula_units_Z 12
_cell_length_a 11.277163
_cell_length_b 13.146820
_cell_length_c 17.061180
_cell_angle_alpha 37.176378
_cell_angle_beta 143.545543
_cell_angle_gamma 158.090703
_cell_volume 546.049624
_symmetry_space_group_name_H-M "P -1"
_symmetry_group_IT_number 2
_symmetry_cell_setting 'triclinic'
loop_
_space_group_symop_operation_xyz
x,y,z
-x,-y,-z
loop_
_atom_site_type_symbol
_atom_site_label
_atom_site_fract_x
_atom_site_fract_y
_atom_site_fract_z
Si Si1 0.201034 0.168316 0.907987
Si Si2 0.237906 0.687550 0.084811
Si Si3 0.296709 0.280026 0.711586
Si Si4 0.146441 0.406768 0.916815
Si Si5 0.542760 0.791137 0.579497
Si Si6 0.488395 0.843924 0.697730
O O1 0.332591 0.245228 0.842163
O O2 0.507195 0.431695 0.962224
O O3 0.866355 0.049402 0.793827
O O4 0.085073 0.906351 0.035298
O O5 0.432143 0.646422 0.234420
O O6 0.035340 0.618722 0.093650
O O7 0.000000 0.500000 0.000000
O O8 0.500000 0.000000 0.000000
O O9 0.345072 0.513618 0.599121
O O10 0.925087 0.990266 0.665077
O O11 0.241137 0.591986 0.782417
O O12 0.424540 0.735199 0.641440
O O13 0.531421 0.968102 0.428256
#
# Coordination Sequence:
#
# PCOD9045599 Si02
#       6
#     2   2   2   2   2   2
#     4  11  22  37  62  93 126 152 198 252 310 357
#     4  12  22  40  64  90 123 156 200 250 308 361
#     4  11  21  40  63  89 120 160 208 241 301 356
#     4  12  23  39  61  96 121 159 197 257 303 361
#     4  10  24  41  62  87 122 168 200 249 287 367
#     4  10  24  41  62  89 128 162 205 240 308 357
#
# _framework density 21.976023999999999
#
# number of rings (size 3 to 8) (size 9 to 14) (size 15 to 20)
#    0.000    1.000    3.333    4.000    0.000   11.333 
#    0.000    1.667    0.000    0.000    0.000    0.000 
#    0.000    0.000    0.000    0.000    0.000    0.000 
#
# Total GULP energy -67228.744251 kJ/mol
# GULP energy per Si atom -5602.395354 kJ/mol
# Density = 2.192601 g / cm^3
# Si number density = 21.976024 Si / 1000 Ang^3
#
#
#
# Elastic Constant Matrix: (Units=GPa)
#
#
# Indices 1 2 3 4 5 6 
#
# 1 85.1256 31.1876 35.6951 -2.3711 11.5083 19.0309
# 2 31.1876 94.5795 10.0233 -18.4878 -1.2103 -2.6928
# 3 35.6951 10.0233 95.5523 -27.3584 3.7644 17.0657
# 4 -2.3711 -18.4878 -27.3584 30.3189 -1.2311 0.9117
# 5 11.5083 -1.2103 3.7644 -1.2311 27.5823 1.7118
# 6 19.0309 -2.6928 17.0657 0.9117 1.7118 35.0944
#
#
#
# Elastic Compliance Matrix: (Units=1/GPa)
#
#
# Indices 1 2 3 4 5 6 
#
# 1 0.020773 -0.008468 -0.008549 -0.011363 -0.007940 -0.007075
# 2 -0.008468 0.015563 0.004556 0.013009 0.003986 0.003038
# 3 -0.008549 0.004556 0.019839 0.020264 0.002293 -0.005300
# 4 -0.011363 0.013009 0.020264 0.058668 0.005443 -0.004484
# 5 -0.007940 0.003986 0.002293 0.005443 0.039585 0.001425
# 6 -0.007075 0.003038 -0.005300 -0.004484 0.001425 0.035189
#
#
# Mechanical properties :
#
#
# Convention : Reuss Voigt Hill
#
# Bulk Modulus (GPa) = 31.99600 47.67437 39.83518
# Shear Modulus (GPa) = 22.22639 31.82255 27.02447
#
# Velocity S-wave (km/s) = 3.18369 3.80946 3.51055
# Velocity P-wave (km/s) = 5.30147 6.41017 5.88200
#
# Compressibility (1/GPa) = 0.03125391
#
# Stress axis : x y z
#
# Youngs Moduli (GPa) = 48.13881 64.25409 50.40453
#
# Poissons Ratio (x) = 0.54412 0.43090
# Poissons Ratio (y) = 0.40765 -0.22964
# Poissons Ratio (z) = 0.41153 -0.29274
#
# Static dielectric constant tensor:
#      x y z
#    x 1.808920 0.002080 0.020380 
#    y 0.002080 1.783210 -0.016620 
#    z 0.020380 -0.016620 1.812750 
# 
# From -- ./inp_files/63808.got.cif
#   From: 2010.05.17/outbox.cif.g08.bks.cpg/sg2_32_cif.got.tgz:63808.got - 2010.06.03 11:33:40.
