data_PCOD9045608
_publ_section_title
;
Structure prediction by ZEFSAII (Michael W. Deem and Ramdas Pophale) SiO2 
 PCOD9045608
Probable space group: P -1
;
_chemical_formula_sum "Si O2"
_cell_formula_units_Z 12
_cell_length_a 5.153650
_cell_length_b 8.788715
_cell_length_c 16.774785
_cell_angle_alpha 56.745789
_cell_angle_beta 49.454623
_cell_angle_gamma 78.396925
_cell_volume 468.171333
_symmetry_space_group_name_H-M "P -1"
_symmetry_group_IT_number 2
_symmetry_cell_setting 'triclinic'
loop_
_space_group_symop_operation_xyz
x,y,z
-x,-y,-z
loop_
_atom_site_type_symbol
_atom_site_label
_atom_site_fract_x
_atom_site_fract_y
_atom_site_fract_z
Si Si1 0.493438 0.681526 0.999540
Si Si2 0.247329 0.870729 0.850843
Si Si3 0.603408 0.870510 0.616620
Si Si4 0.012111 0.560029 0.387476
Si Si5 0.187652 0.832364 0.146075
Si Si6 0.468163 0.745014 0.514091
O O1 0.455640 0.838691 0.896993
O O2 0.860673 0.730836 0.960226
O O3 0.500000 0.500000 0.000000
O O4 0.171069 0.675451 0.125851
O O5 0.470645 0.822672 0.745657
O O6 0.142780 0.071735 0.810459
O O7 0.518328 0.720488 0.605419
O O8 0.404324 0.032357 0.586109
O O9 0.000000 0.000000 0.500000
O O10 0.701021 0.666951 0.427447
O O11 0.911698 0.376092 0.404061
O O12 0.000000 0.500000 0.500000
O O13 0.276195 0.724996 0.238199
O O14 0.500000 0.000000 0.000000
#
# Coordination Sequence:
#
# PCOD9045608 Si02
#       6
#     2   2   2   2   2   2
#     4  11  26  46  73 111 144 198 257 319 375 457
#     4  11  25  47  74 104 152 199 253 310 392 459
#     4  11  24  41  71  99 146 196 254 309 383 452
#     4  11  23  45  71 106 148 192 249 315 379 450
#     4  10  24  48  74 107 150 202 251 306 387 466
#     4  10  24  41  63 106 140 190 247 305 379 449
#
# _framework density 25.631640999999998
#
# number of rings (size 3 to 8) (size 9 to 14) (size 15 to 20)
#    0.000    1.333    1.667    2.000    7.000    4.000 
#   12.000    0.000    0.000    0.000    0.000    0.000 
#    0.000    0.000    0.000    0.000    0.000    0.000 
#
# Total GULP energy -66828.414784 kJ/mol
# GULP energy per Si atom -5569.034565 kJ/mol
# Density = 2.557330 g / cm^3
# Si number density = 25.631641 Si / 1000 Ang^3
#
#
#
# Elastic Constant Matrix: (Units=GPa)
#
#
# Indices 1 2 3 4 5 6 
#
# 1 77.6333 3.5047 28.3360 -3.2278 16.5379 20.8417
# 2 3.5047 118.4805 15.7892 16.8970 0.5166 26.2673
# 3 28.3360 15.7892 130.9504 -1.7371 35.6161 12.6520
# 4 -3.2278 16.8970 -1.7371 47.3943 -3.4208 9.3060
# 5 16.5379 0.5166 35.6161 -3.4208 36.6094 6.8199
# 6 20.8417 26.2673 12.6520 9.3060 6.8199 35.5511
#
#
#
# Elastic Compliance Matrix: (Units=1/GPa)
#
#
# Indices 1 2 3 4 5 6 
#
# 1 0.017238 0.001785 -0.001849 0.002282 -0.003820 -0.010631
# 2 0.001785 0.010677 -0.001373 -0.001989 0.001731 -0.008258
# 3 -0.001849 -0.001373 0.010831 0.000043 -0.009696 0.000093
# 4 0.002282 -0.001989 0.000043 0.023403 0.002346 -0.006459
# 5 -0.003820 0.001731 -0.009696 0.002346 0.039368 -0.003756
# 6 -0.010631 -0.008258 0.000093 -0.006459 -0.003756 0.042841
#
#
# Mechanical properties :
#
#
# Convention : Reuss Voigt Hill
#
# Bulk Modulus (GPa) = 27.87740 46.92491 37.40115
# Shear Modulus (GPa) = 31.40903 42.53991 36.97447
#
# Velocity S-wave (km/s) = 3.50437 4.07832 3.80219
# Velocity P-wave (km/s) = 5.22244 6.36585 5.82228
#
# Compressibility (1/GPa) = 0.03587135
#
# Stress axis : x y z
#
# Youngs Moduli (GPa) = 58.01156 93.65622 92.32979
#
# Poissons Ratio (x) = -0.16714 0.17071
# Poissons Ratio (y) = -0.10353 0.12677
# Poissons Ratio (z) = 0.10726 0.12859
#
# Static dielectric constant tensor:
#      x y z
#    x 2.209520 -0.046260 -0.042430 
#    y -0.046260 2.266770 -0.054420 
#    z -0.042430 -0.054420 2.141730 
# 
# From -- ./inp_files/26547.got.cif
#   From: 2010.05.17/outbox.cif.g08.bks.cpg/sg2_14_cif.got.tgz:26547.got - 2010.06.03 11:33:40.
