data_PCOD9045929
_publ_section_title
;
Structure prediction by ZEFSAII (Michael W. Deem and Ramdas Pophale) SiO2 
 PCOD9045929
Probable space group: P -1
;
_chemical_formula_sum "Si O2"
_cell_formula_units_Z 15
_cell_length_a 31.816549
_cell_length_b 31.833238
_cell_length_c 5.090834
_cell_angle_alpha 61.199001
_cell_angle_beta 61.242007
_cell_angle_gamma 9.319851
_cell_volume 731.128082
_symmetry_space_group_name_H-M "P -1"
_symmetry_group_IT_number 2
_symmetry_cell_setting 'triclinic'
loop_
_space_group_symop_operation_xyz
x,y,z
-x,-y,-z
loop_
_atom_site_type_symbol
_atom_site_label
_atom_site_fract_x
_atom_site_fract_y
_atom_site_fract_z
Si Si1 0.030592 0.042953 0.276040
Si Si2 0.740270 0.657482 0.313946
Si Si3 0.732702 0.733422 0.608099
Si Si4 0.209568 0.123969 0.547243
Si Si5 0.564780 0.575456 0.126076
Si Si6 0.000000 0.000000 0.000000
Si Si7 0.901798 0.828880 0.760161
Si Si8 0.432712 0.361622 0.570877
O O1 0.786983 0.317925 0.189572
O O2 0.021780 0.018160 0.636555
O O3 0.023080 0.019845 0.098794
O O4 0.291714 0.817350 0.180762
O O5 0.718506 0.711740 0.471346
O O6 0.502598 0.853673 0.437809
O O7 0.720503 0.712249 0.963504
O O8 0.011073 0.362913 0.385241
O O9 0.000000 0.500000 0.500000
O O10 0.500000 0.000000 0.500000
O O11 0.138490 0.153397 0.460109
O O12 0.169019 0.141994 0.902869
O O13 0.584391 0.579570 0.341012
O O14 0.588739 0.594000 0.785005
O O15 0.194510 0.559261 0.730772
O O16 0.703316 0.067868 0.672835
#
# Coordination Sequence:
#
# PCOD9045929 Si02
#       8
#     2   2   2   2   2   1   2   2
#     4  11  24  41  64  91 124 161 204 251 304 361
#     4  12  24  42  64  92 124 162 204 251 304 361
#     4  12  24  42  64  92 124 161 204 251 304 361
#     4  12  24  42  64  91 124 161 204 251 304 361
#     4  12  24  42  64  92 124 162 204 252 304 362
#     4  10  24  42  64  92 124 162 204 252 304 362
#     4  12  24  42  64  92 124 162 204 252 304 361
#     4  12  24  41  64  91 124 161 204 251 304 361
#
# _framework density 20.516241000000001
#
# number of rings (size 3 to 8) (size 9 to 14) (size 15 to 20)
#    0.000    0.267    0.000   10.400    0.000    3.200 
#    0.000    0.000    0.000    0.000    0.000    0.000 
#    0.000    0.000    0.000    0.000    0.000    0.000 
#
# Total GULP energy -83761.377718 kJ/mol
# GULP energy per Si atom -5584.091848 kJ/mol
# Density = 2.046954 g / cm^3
# Si number density = 20.516241 Si / 1000 Ang^3
#
#
#
# Elastic Constant Matrix: (Units=GPa)
#
#
# Indices 1 2 3 4 5 6 
#
# 1 104.6299 6.8834 -23.0087 -23.3233 24.2526 32.2649
# 2 6.8834 71.8841 -4.6935 24.5967 -2.5020 -28.4009
# 3 -23.0087 -4.6935 108.3258 17.1144 7.5801 -12.4026
# 4 -23.3233 24.5967 17.1144 -85.2739 6.7627 107.8055
# 5 24.2526 -2.5020 7.5801 6.7627 40.4562 -3.0096
# 6 32.2649 -28.4009 -12.4026 107.8055 -3.0096 -94.9138
#
#
#
# Elastic Compliance Matrix: (Units=1/GPa)
#
#
# Indices 1 2 3 4 5 6 
#
# 1 0.011238 -0.000060 0.003377 -0.003704 -0.006798 -0.000594
# 2 -0.000060 0.012694 0.000004 0.002609 0.000320 -0.000866
# 3 0.003377 0.000004 0.010255 -0.001702 -0.003810 -0.002005
# 4 -0.003704 0.002609 -0.001702 0.028888 0.000177 0.030989
# 5 -0.006798 0.000320 -0.003810 0.000177 0.029301 -0.002637
# 6 -0.000594 -0.000866 -0.002005 0.030989 -0.002637 0.025065
#
#
# Mechanical properties :
#
#
# Convention : Reuss Voigt Hill
#
# Bulk Modulus (GPa) = 24.49315 27.02245 25.75780
# Shear Modulus (GPa) = 40.19042 -7.56905 16.31069
#
# Velocity S-wave (km/s) = 4.43081 -1.92284 2.82266
# Velocity P-wave (km/s) = 6.17580 2.87578 4.81719
#
# Compressibility (1/GPa) = 0.04082774
#
# Stress axis : x y z
#
# Youngs Moduli (GPa) = 88.98718 78.78034 97.51538
#
# Poissons Ratio (x) = 0.00471 -0.32932
# Poissons Ratio (y) = 0.00532 -0.00035
# Poissons Ratio (z) = -0.30052 -0.00028
#
# Static dielectric constant tensor:
#      x y z
#    x 1.691240 -0.006290 -0.006670 
#    y -0.006290 1.703360 0.004480 
#    z -0.006670 0.004480 1.687860 
# 
# From -- ./inp_files/128913.got.cif
#   From: 2010.05.17/outbox.cif.g08.bks.cpg/sg2_65_cif.got.tgz:128913.got - 2010.06.03 11:33:40.
