data_PCOD9045619
_publ_section_title
;
Structure prediction by ZEFSAII (Michael W. Deem and Ramdas Pophale) SiO2 
 PCOD9045619
Probable space group: P -1
;
_chemical_formula_sum "Si O2"
_cell_formula_units_Z 11
_cell_length_a 9.990584
_cell_length_b 5.022113
_cell_length_c 10.648707
_cell_angle_alpha 69.696277
_cell_angle_beta 116.490340
_cell_angle_gamma 104.028131
_cell_volume 446.029696
_symmetry_space_group_name_H-M "P -1"
_symmetry_group_IT_number 2
_symmetry_cell_setting 'triclinic'
loop_
_space_group_symop_operation_xyz
x,y,z
-x,-y,-z
loop_
_atom_site_type_symbol
_atom_site_label
_atom_site_fract_x
_atom_site_fract_y
_atom_site_fract_z
Si Si1 0.736812 0.677677 0.769299
Si Si2 0.995174 0.807348 0.209101
Si Si3 0.000000 0.500000 0.000000
Si Si4 0.727627 0.979044 0.227934
Si Si5 0.219941 0.435845 0.475907
Si Si6 0.576013 0.398159 0.245820
O O1 0.819865 0.419787 0.900824
O O2 0.706606 0.612205 0.620628
O O3 0.591311 0.734672 0.775309
O O4 0.876703 0.925102 0.792940
O O5 0.856249 0.947274 0.187038
O O6 0.066853 0.576015 0.363788
O O7 0.954778 0.648584 0.089536
O O8 0.798420 0.856996 0.406017
O O9 0.589558 0.738913 0.180387
O O10 0.662900 0.267475 0.190371
O O11 0.329339 0.634977 0.580340
#
# Coordination Sequence:
#
# PCOD9045619 Si02
#       6
#     2   2   1   2   2   2
#     4  11  23  42  68  91 129 173 221 263 314 387
#     4  11  23  42  68  91 129 173 221 263 314 387
#     4  10  26  44  64  92 124 170 232 262 324 364
#     4  10  24  41  64 101 136 165 206 265 333 380
#     4   9  22  37  68  97 134 165 212 258 326 381
#     4  10  24  41  64 101 136 165 206 265 333 380
#
# _framework density 24.662037000000002
#
# number of rings (size 3 to 8) (size 9 to 14) (size 15 to 20)
#    1.091    0.727    0.000    2.727   10.182    2.909 
#    0.000    1.818    0.000    0.000    0.000    0.000 
#    0.000    0.000    0.000    0.000    0.000    0.000 
#
# Total GULP energy -61239.201125 kJ/mol
# GULP energy per Si atom -5567.200102 kJ/mol
# Density = 2.460590 g / cm^3
# Si number density = 24.662037 Si / 1000 Ang^3
#
#
#
# Elastic Constant Matrix: (Units=GPa)
#
#
# Indices 1 2 3 4 5 6 
#
# 1 201.3467 -4.7165 30.7559 36.1637 -36.7828 -11.3264
# 2 -4.7165 100.8336 14.7401 25.6672 -7.6574 -15.1447
# 3 30.7559 14.7401 60.7139 9.3257 6.3062 -4.2063
# 4 36.1637 25.6672 9.3257 31.2433 4.0426 -2.2343
# 5 -36.7828 -7.6574 6.3062 4.0426 -15.6506 1.6505
# 6 -11.3264 -15.1447 -4.2063 -2.2343 1.6505 39.7636
#
#
#
# Elastic Compliance Matrix: (Units=1/GPa)
#
#
# Indices 1 2 3 4 5 6 
#
# 1 0.003863 0.000547 -0.000406 -0.003370 -0.010224 0.001501
# 2 0.000547 0.012314 -0.000582 -0.009028 -0.009385 0.004667
# 3 -0.000406 -0.000582 0.016922 -0.004929 0.006879 0.000890
# 4 -0.003370 -0.009028 -0.004929 0.041858 0.020801 -0.003431
# 5 -0.010224 -0.009385 0.006879 0.020801 -0.027495 -0.003449
# 6 0.001501 0.004667 0.000890 -0.003431 -0.003449 0.027398
#
#
# Mechanical properties :
#
#
# Convention : Reuss Voigt Hill
#
# Bulk Modulus (GPa) = 31.03969 49.38369 40.21169
# Shear Modulus (GPa) = 57.81487 32.54560 45.18023
#
# Velocity S-wave (km/s) = 4.84704 3.63666 4.28480
# Velocity P-wave (km/s) = 6.62860 6.14014 6.38904
#
# Compressibility (1/GPa) = 0.03221681
#
# Stress axis : x y z
#
# Youngs Moduli (GPa) = 258.83735 81.20689 59.09431
#
# Poissons Ratio (x) = -0.04441 0.02402
# Poissons Ratio (y) = -0.14156 0.03439
# Poissons Ratio (z) = 0.10520 0.04726
#
# Static dielectric constant tensor:
#      x y z
#    x 1.903890 0.000760 0.012290 
#    y 0.000760 1.797150 0.067450 
#    z 0.012290 0.067450 1.891550 
# 
# From -- ./inp_files/136467.got.cif
#   From: 2010.05.17/outbox.cif.g08.bks.cpg/sg2_69_cif.got.tgz:136467.got - 2010.06.03 11:33:40.
