data_PCOD9045101
_publ_section_title
;
Structure prediction by ZEFSAII (Michael W. Deem and Ramdas Pophale) SiO2 
 PCOD9045101
Probable space group: P -1
;
_chemical_formula_sum "Si O2"
_cell_formula_units_Z 15
_cell_length_a 5.415771
_cell_length_b 17.473442
_cell_length_c 6.547605
_cell_angle_alpha 90.938044
_cell_angle_beta 73.115898
_cell_angle_gamma 74.870304
_cell_volume 569.496707
_symmetry_space_group_name_H-M "P -1"
_symmetry_group_IT_number 2
_symmetry_cell_setting 'triclinic'
loop_
_space_group_symop_operation_xyz
x,y,z
-x,-y,-z
loop_
_atom_site_type_symbol
_atom_site_label
_atom_site_fract_x
_atom_site_fract_y
_atom_site_fract_z
Si Si1 0.826497 0.582035 0.137983
Si Si2 0.585625 0.626266 0.776419
Si Si3 0.914976 0.695556 0.408137
Si Si4 0.401455 0.198615 0.847872
Si Si5 0.500000 0.500000 0.500000
Si Si6 0.104615 0.769488 0.728992
Si Si7 0.777720 0.107975 0.029483
Si Si8 0.358618 0.025898 0.747108
O O1 0.016624 0.629943 0.203292
O O2 0.633946 0.562276 0.353875
O O3 0.645600 0.629220 0.001169
O O4 0.000000 0.500000 0.000000
O O5 0.847998 0.642185 0.605454
O O6 0.542488 0.542988 0.711231
O O7 0.341154 0.695789 0.750072
O O8 0.666781 0.752317 0.342161
O O9 0.053985 0.751635 0.503896
O O10 0.432728 0.106349 0.785557
O O11 0.662784 0.186778 0.923314
O O12 0.155710 0.225994 0.067631
O O13 0.156942 0.854319 0.771244
O O14 0.582805 0.053722 0.131829
O O15 0.034166 0.055135 0.844303
O O16 0.500000 0.000000 0.500000
#
# Coordination Sequence:
#
# PCOD9045101 Si02
#       8
#     2   2   2   2   1   2   2   2
#     4  11  26  48  77 106 149 189 240 309 367 439
#     4  11  26  46  71 108 145 190 244 306 365 441
#     4  11  26  45  70 108 143 197 243 297 375 432
#     4  11  25  46  73 107 147 194 246 303 365 434
#     4  10  26  44  74 106 138 188 242 290 374 434
#     4  11  25  44  73 100 151 193 245 307 359 439
#     4  10  23  49  71 107 150 191 245 309 358 430
#     4  10  24  44  75 111 146 194 242 301 369 434
#
# _framework density 26.339047000000001
#
# number of rings (size 3 to 8) (size 9 to 14) (size 15 to 20)
#    0.000    1.333    0.000    3.200    9.333    5.867 
#    0.000    0.000    0.000    0.000    0.000    0.000 
#    0.000    0.000    0.000    0.000    0.000    0.000 
#
# Total GULP energy -83631.684050 kJ/mol
# GULP energy per Si atom -5575.445603 kJ/mol
# Density = 2.627910 g / cm^3
# Si number density = 26.339047 Si / 1000 Ang^3
#
#
#
# Elastic Constant Matrix: (Units=GPa)
#
#
# Indices 1 2 3 4 5 6 
#
# 1 41.1548 17.0022 42.5419 12.0977 21.5908 -0.8555
# 2 17.0022 114.1021 55.6430 17.8501 17.6656 12.5684
# 3 42.5419 55.6430 169.2671 15.4791 28.9255 3.4754
# 4 12.0977 17.8501 15.4791 63.3524 8.7284 9.7092
# 5 21.5908 17.6656 28.9255 8.7284 33.2212 5.2703
# 6 -0.8555 12.5684 3.4754 9.7092 5.2703 50.8503
#
#
#
# Elastic Compliance Matrix: (Units=1/GPa)
#
#
# Indices 1 2 3 4 5 6 
#
# 1 0.044868 0.000600 -0.007282 -0.004499 -0.022641 0.004310
# 2 0.000600 0.011124 -0.003123 -0.001809 -0.002811 -0.001889
# 3 -0.007282 -0.003123 0.009000 0.000261 -0.001534 0.000143
# 4 -0.004499 -0.001809 0.000261 0.017612 -0.000499 -0.002957
# 5 -0.022641 -0.002811 -0.001534 -0.000499 0.048493 -0.004512
# 6 0.004310 -0.001889 0.000143 -0.002957 -0.004512 0.021228
#
#
# Mechanical properties :
#
#
# Convention : Reuss Voigt Hill
#
# Bulk Modulus (GPa) = 22.03534 61.65535 41.84534
# Shear Modulus (GPa) = 26.72913 43.44057 35.08485
#
# Velocity S-wave (km/s) = 3.18906 4.06554 3.65368
# Velocity P-wave (km/s) = 4.68448 6.74517 5.80697
#
# Compressibility (1/GPa) = 0.04538165
#
# Stress axis : x y z
#
# Youngs Moduli (GPa) = 22.28763 89.89629 111.11153
#
# Poissons Ratio (x) = -0.05392 0.80911
# Poissons Ratio (y) = -0.01337 0.34699
# Poissons Ratio (z) = 0.16230 0.28074
#
# Static dielectric constant tensor:
#      x y z
#    x 2.220250 -0.000680 0.041820 
#    y -0.000680 2.119240 0.003510 
#    z 0.041820 0.003510 2.051850 
# 
# From -- ./inp_files/8059.got.cif
#   From: 2010.05.17/outbox.cif.g08.bks.cpg/sg2_5_cif.got.tgz:8059.got - 2010.06.03 11:33:40.
