data_PCOD9045317
_publ_section_title
;
Structure prediction by ZEFSAII (Michael W. Deem and Ramdas Pophale) SiO2 
 PCOD9045317
Probable space group: P -1
;
_chemical_formula_sum "Si O2"
_cell_formula_units_Z 16
_cell_length_a 11.046418
_cell_length_b 9.240866
_cell_length_c 9.645690
_cell_angle_alpha 103.934826
_cell_angle_beta 122.583365
_cell_angle_gamma 86.145037
_cell_volume 802.879273
_symmetry_space_group_name_H-M "P -1"
_symmetry_group_IT_number 2
_symmetry_cell_setting 'triclinic'
loop_
_space_group_symop_operation_xyz
x,y,z
-x,-y,-z
loop_
_atom_site_type_symbol
_atom_site_label
_atom_site_fract_x
_atom_site_fract_y
_atom_site_fract_z
Si Si1 0.929116 0.113323 0.383895
Si Si2 0.942874 0.034916 0.820324
Si Si3 0.989035 0.426181 0.627088
Si Si4 0.496908 0.740538 0.477067
Si Si5 0.658315 0.970865 0.047816
Si Si6 0.734761 0.532638 0.674324
Si Si7 0.171502 0.308061 0.943638
Si Si8 0.629511 0.046697 0.739012
O O1 0.932892 0.261934 0.507379
O O2 0.767438 0.057127 0.238444
O O3 0.000000 0.000000 0.500000
O O4 0.016151 0.096656 0.289299
O O5 0.771546 0.047284 0.729124
O O6 0.033414 0.188914 0.864371
O O7 0.000000 0.000000 0.000000
O O8 0.875449 0.505713 0.667830
O O9 0.000000 0.500000 0.500000
O O10 0.126966 0.405142 0.806656
O O11 0.638324 0.650429 0.564917
O O12 0.365283 0.622614 0.410718
O O13 0.457277 0.810973 0.320784
O O14 0.528691 0.893405 0.619500
O O15 0.700838 0.799911 0.032685
O O16 0.500000 0.000000 0.000000
O O17 0.683762 0.039764 0.926910
O O18 0.782989 0.595558 0.870210
#
# Coordination Sequence:
#
# PCOD9045317 Si02
#       8
#     2   2   2   2   2   2   2   2
#     4  11  24  44  67 100 135 174 226 283 341 387
#     4  11  20  39  74  97 128 167 230 278 325 396
#     4  12  28  41  66 101 134 178 223 278 342 398
#     4  10  24  39  68  96 128 172 224 276 324 401
#     4  11  24  39  69  97 136 173 218 282 342 394
#     4  11  24  46  67  92 140 178 219 273 341 409
#     4  11  23  47  65  99 133 183 220 279 341 404
#     4  11  22  41  66 103 124 172 235 270 328 401
#
# _framework density 19.928277000000001
#
# number of rings (size 3 to 8) (size 9 to 14) (size 15 to 20)
#    0.000    1.000    6.250    1.125    5.250    3.000 
#    0.000    0.000    0.000    3.750    0.000    0.000 
#    0.000    0.000    0.000    0.000    0.000    0.000 
#
# Total GULP energy -89289.822879 kJ/mol
# GULP energy per Si atom -5580.613930 kJ/mol
# Density = 1.988292 g / cm^3
# Si number density = 19.928277 Si / 1000 Ang^3
#
#
#
# Elastic Constant Matrix: (Units=GPa)
#
#
# Indices 1 2 3 4 5 6 
#
# 1 116.4079 36.7417 54.3487 -5.3695 5.3333 -22.8131
# 2 36.7417 112.0075 46.8531 -23.6787 9.5742 -14.2541
# 3 54.3487 46.8531 132.5712 -18.7972 13.1639 -22.5169
# 4 -5.3695 -23.6787 -18.7972 47.1121 -2.1812 7.4110
# 5 5.3333 9.5742 13.1639 -2.1812 27.1692 3.6587
# 6 -22.8131 -14.2541 -22.5169 7.4110 3.6587 22.8943
#
#
#
# Elastic Compliance Matrix: (Units=1/GPa)
#
#
# Indices 1 2 3 4 5 6 
#
# 1 0.012377 -0.001989 -0.002965 -0.002298 -0.001716 0.009198
# 2 -0.001989 0.011934 -0.002092 0.004431 -0.002769 0.002400
# 3 -0.002965 -0.002092 0.011496 0.001818 -0.005084 0.007274
# 4 -0.002298 0.004431 0.001818 0.024886 0.000805 -0.005927
# 5 -0.001716 -0.002769 -0.005084 0.000805 0.042738 -0.015524
# 6 0.009198 0.002400 0.007274 -0.005927 -0.015524 0.065892
#
#
# Mechanical properties :
#
#
# Convention : Reuss Voigt Hill
#
# Bulk Modulus (GPa) = 46.04616 70.76374 58.40495
# Shear Modulus (GPa) = 26.22578 34.30464 30.26521
#
# Velocity S-wave (km/s) = 3.63162 4.15348 3.90129
# Velocity P-wave (km/s) = 6.38287 7.65429 7.04731
#
# Compressibility (1/GPa) = 0.02171734
#
# Stress axis : x y z
#
# Youngs Moduli (GPa) = 80.79223 83.79344 86.98802
#
# Poissons Ratio (x) = 0.16664 0.25789
# Poissons Ratio (y) = 0.16067 0.18195
# Poissons Ratio (z) = 0.23952 0.17527
#
# Static dielectric constant tensor:
#      x y z
#    x 1.669920 0.036090 0.006510 
#    y 0.036090 1.670770 -0.029280 
#    z 0.006510 -0.029280 1.696450 
# 
# From -- ./inp_files/239973.got.cif
#   From: 2010.05.17/outbox.cif.g08.bks.cpg/sg2_120_cif.got.tgz:239973.got - 2010.06.03 11:33:40.
