data_PCOD9045251
_publ_section_title
;
Structure prediction by ZEFSAII (Michael W. Deem and Ramdas Pophale) SiO2 
 PCOD9045251
Probable space group: P -1
;
_chemical_formula_sum "Si O2"
_cell_formula_units_Z 15
_cell_length_a 12.281795
_cell_length_b 7.221563
_cell_length_c 17.829312
_cell_angle_alpha 101.105407
_cell_angle_beta 152.893483
_cell_angle_gamma 65.647092
_cell_volume 595.644166
_symmetry_space_group_name_H-M "P -1"
_symmetry_group_IT_number 2
_symmetry_cell_setting 'triclinic'
loop_
_space_group_symop_operation_xyz
x,y,z
-x,-y,-z
loop_
_atom_site_type_symbol
_atom_site_label
_atom_site_fract_x
_atom_site_fract_y
_atom_site_fract_z
Si Si1 0.580116 0.879592 0.213925
Si Si2 0.449250 0.559522 0.685072
Si Si3 0.191363 0.025353 0.494063
Si Si4 0.447578 0.208000 0.567839
Si Si5 0.959440 0.247722 0.886611
Si Si6 0.045328 0.455453 0.810846
Si Si7 0.609379 0.425131 0.178580
Si Si8 0.500000 0.000000 0.000000
O O1 0.645151 0.634108 0.216998
O O2 0.784299 0.882328 0.401806
O O3 0.545760 0.990129 0.120404
O O4 0.270397 0.036223 0.074841
O O5 0.291258 0.773252 0.552128
O O6 0.349931 0.392847 0.589340
O O7 0.784707 0.408424 0.861197
O O8 0.402803 0.629947 0.746870
O O9 0.404738 0.025221 0.564569
O O10 0.870962 0.203902 0.283863
O O11 0.756477 0.156733 0.732399
O O12 0.231418 0.337180 0.378823
O O13 0.972997 0.401153 0.843321
O O14 0.305317 0.493323 0.966158
O O15 0.180068 0.222204 0.831024
#
# Coordination Sequence:
#
# PCOD9045251 Si02
#       8
#     2   2   2   2   2   2   2   1
#     4  11  23  44  69  98 142 174 226 282 337 402
#     4  10  24  43  72  99 134 177 232 274 344 397
#     4  12  25  44  72 102 136 179 230 284 332 408
#     4  10  24  45  68 100 134 182 221 282 336 402
#     4   9  23  45  69  98 135 180 225 279 339 402
#     4  11  24  43  67  97 144 173 229 280 339 401
#     4  12  26  43  67 107 134 181 227 281 339 405
#     4  10  24  38  66  94 132 184 212 274 340 392
#
# _framework density 25.182822000000002
#
# number of rings (size 3 to 8) (size 9 to 14) (size 15 to 20)
#    0.800    0.533    1.333    3.600    3.733    7.467 
#    2.400    1.333    0.000    0.000    0.000    0.000 
#    0.000    0.000    0.000    0.000    0.000    0.000 
#
# Total GULP energy -83710.474948 kJ/mol
# GULP energy per Si atom -5580.698330 kJ/mol
# Density = 2.512550 g / cm^3
# Si number density = 25.182822 Si / 1000 Ang^3
#
#
#
# Elastic Constant Matrix: (Units=GPa)
#
#
# Indices 1 2 3 4 5 6 
#
# 1 76.7694 11.8766 34.8810 1.5461 9.5933 0.8915
# 2 11.8766 55.0125 2.7734 -13.5302 1.2161 -0.0175
# 3 34.8810 2.7734 98.4965 1.3631 16.2516 1.5699
# 4 1.5461 -13.5302 1.3631 31.9927 7.7999 4.5896
# 5 9.5933 1.2161 16.2516 7.7999 39.5911 -12.9723
# 6 0.8915 -0.0175 1.5699 4.5896 -12.9723 21.9306
#
#
#
# Elastic Compliance Matrix: (Units=1/GPa)
#
#
# Indices 1 2 3 4 5 6 
#
# 1 0.016257 -0.003584 -0.005351 -0.001543 -0.001631 -0.000922
# 2 -0.003584 0.021652 0.001229 0.010885 -0.003929 -0.004527
# 3 -0.005351 0.001229 0.013079 0.002432 -0.006191 -0.004889
# 4 -0.001543 0.010885 0.002432 0.042069 -0.015090 -0.017832
# 5 -0.001631 -0.003929 -0.006191 -0.015090 0.040299 0.027502
# 6 -0.000922 -0.004527 -0.004889 -0.017832 0.027502 0.065982
#
#
# Mechanical properties :
#
#
# Convention : Reuss Voigt Hill
#
# Bulk Modulus (GPa) = 28.10833 36.59337 32.35085
# Shear Modulus (GPa) = 22.06445 30.75270 26.40857
#
# Velocity S-wave (km/s) = 2.96323 3.49833 3.24184
# Velocity P-wave (km/s) = 4.78472 5.55701 5.18526
#
# Compressibility (1/GPa) = 0.03557665
#
# Stress axis : x y z
#
# Youngs Moduli (GPa) = 61.51022 46.18497 76.45961
#
# Poissons Ratio (x) = 0.16552 0.40916
# Poissons Ratio (y) = 0.22045 -0.09400
# Poissons Ratio (z) = 0.32916 -0.05678
#
# Static dielectric constant tensor:
#      x y z
#    x 1.972960 0.019260 0.019840 
#    y 0.019260 2.067780 0.059820 
#    z 0.019840 0.059820 1.939240 
# 
# From -- ./inp_files/565324.got.cif
#   From: 2010.05.17/outbox.cif.g08.bks.cpg/sg2_283_cif.got.tgz:565324.got - 2010.06.03 11:33:40.
