data_PCOD9045976
_publ_section_title
;
Structure prediction by ZEFSAII (Michael W. Deem and Ramdas Pophale) SiO2 
 PCOD9045976
Probable space group: P -1
;
_chemical_formula_sum "Si O2"
_cell_formula_units_Z 16
_cell_length_a 10.695058
_cell_length_b 11.807738
_cell_length_c 14.658110
_cell_angle_alpha 63.430505
_cell_angle_beta 113.020745
_cell_angle_gamma 58.262426
_cell_volume 798.927973
_symmetry_space_group_name_H-M "P -1"
_symmetry_group_IT_number 2
_symmetry_cell_setting 'triclinic'
loop_
_space_group_symop_operation_xyz
x,y,z
-x,-y,-z
loop_
_atom_site_type_symbol
_atom_site_label
_atom_site_fract_x
_atom_site_fract_y
_atom_site_fract_z
Si Si1 0.649557 0.519866 0.859663
Si Si2 0.039865 0.368091 0.909261
Si Si3 0.244195 0.176447 0.420866
Si Si4 0.857469 0.996099 0.352221
Si Si5 0.115430 0.744814 0.788718
Si Si6 0.390678 0.481608 0.782422
Si Si7 0.596155 0.960748 0.274732
Si Si8 0.469146 0.909957 0.095349
O O1 0.366943 0.791327 0.714676
O O2 0.598029 0.423693 0.834657
O O3 0.801259 0.498249 0.848487
O O4 0.817461 0.361684 0.055194
O O5 0.955832 0.554348 0.759108
O O6 0.282324 0.220125 0.094676
O O7 0.175717 0.154982 0.961001
O O8 0.124456 0.140736 0.363310
O O9 0.118754 0.738160 0.566422
O O10 0.500000 0.000000 0.500000
O O11 0.701108 0.862175 0.441995
O O12 0.918643 0.077117 0.287959
O O13 0.726989 0.984294 0.264787
O O14 0.348277 0.529666 0.861907
O O15 0.460189 0.283500 0.850176
O O16 0.637671 0.814870 0.267281
O O17 0.500000 0.000000 0.000000
#
# Coordination Sequence:
#
# PCOD9045976 Si02
#       8
#     2   2   2   2   2   2   2   2
#     4  11  23  40  68  94 137 167 216 278 338 392
#     4  10  25  45  63  98 131 175 220 269 331 389
#     4  12  23  39  68  97 137 167 213 277 336 390
#     4  11  22  38  64 100 129 165 215 278 336 386
#     4  11  23  38  63 103 127 169 219 269 342 392
#     4  11  23  41  64  96 131 175 219 272 325 391
#     4  10  24  42  65  96 131 170 221 265 332 381
#     4  10  25  46  67  92 132 177 233 264 316 401
#
# _framework density 20.026838000000001
#
# number of rings (size 3 to 8) (size 9 to 14) (size 15 to 20)
#    0.750    0.500    1.250    6.000    5.250    2.500 
#    0.000    0.000    0.000    1.500    0.000    0.000 
#    0.000    0.000    0.000    0.000    0.000    0.000 
#
# Total GULP energy -89353.832376 kJ/mol
# GULP energy per Si atom -5584.614523 kJ/mol
# Density = 1.998126 g / cm^3
# Si number density = 20.026838 Si / 1000 Ang^3
#
#
#
# Elastic Constant Matrix: (Units=GPa)
#
#
# Indices 1 2 3 4 5 6 
#
# 1 91.9654 4.4354 32.6159 8.5730 3.1224 16.9372
# 2 4.4354 62.8995 20.5797 -5.1988 -4.3644 22.6529
# 3 32.6159 20.5797 116.5637 -3.3417 -0.9776 9.3385
# 4 8.5730 -5.1988 -3.3417 25.1202 4.6822 -1.2350
# 5 3.1224 -4.3644 -0.9776 4.6822 27.9933 -0.1583
# 6 16.9372 22.6529 9.3385 -1.2350 -0.1583 34.8477
#
#
#
# Elastic Compliance Matrix: (Units=1/GPa)
#
#
# Indices 1 2 3 4 5 6 
#
# 1 0.014034 0.002591 -0.003922 -0.005058 -0.000496 -0.007636
# 2 0.002591 0.022574 -0.003432 0.002098 0.002675 -0.014927
# 3 -0.003922 -0.003432 0.010223 0.002075 -0.000079 0.001471
# 4 -0.005058 0.002098 0.002075 0.043521 -0.006304 0.002052
# 5 -0.000496 0.002675 -0.000079 -0.006304 0.037238 -0.001531
# 6 -0.007636 -0.014927 0.001471 0.002052 -0.001531 0.041783
#
#
# Mechanical properties :
#
#
# Convention : Reuss Voigt Hill
#
# Bulk Modulus (GPa) = 26.80551 42.96563 34.88557
# Shear Modulus (GPa) = 26.13238 31.84542 28.98890
#
# Velocity S-wave (km/s) = 3.61621 3.99198 3.80873
# Velocity P-wave (km/s) = 5.55426 6.53823 6.06623
#
# Compressibility (1/GPa) = 0.03730577
#
# Stress axis : x y z
#
# Youngs Moduli (GPa) = 71.25435 44.29970 97.81565
#
# Poissons Ratio (x) = -0.11479 0.38362
# Poissons Ratio (y) = -0.18463 0.33570
# Poissons Ratio (z) = 0.27945 0.15204
#
# Static dielectric constant tensor:
#      x y z
#    x 1.737200 0.016510 0.004190 
#    y 0.016510 1.720850 -0.005540 
#    z 0.004190 -0.005540 1.735710 
# 
# From -- ./inp_files/496336.got.cif
#   From: 2010.05.17/outbox.cif.g08.bks.cpg/sg2_249_cif.got.tgz:496336.got - 2010.06.03 11:33:40.
