data_PCOD9045530
_publ_section_title
;
Structure prediction by ZEFSAII (Michael W. Deem and Ramdas Pophale) SiO2 
 PCOD9045530
Probable space group: P -1
;
_chemical_formula_sum "Si O2"
_cell_formula_units_Z 15
_cell_length_a 8.893461
_cell_length_b 9.634495
_cell_length_c 17.190126
_cell_angle_alpha 125.335906
_cell_angle_beta 123.608606
_cell_angle_gamma 29.975304
_cell_volume 595.333867
_symmetry_space_group_name_H-M "P -1"
_symmetry_group_IT_number 2
_symmetry_cell_setting 'triclinic'
loop_
_space_group_symop_operation_xyz
x,y,z
-x,-y,-z
loop_
_atom_site_type_symbol
_atom_site_label
_atom_site_fract_x
_atom_site_fract_y
_atom_site_fract_z
Si Si1 0.118339 0.053145 0.989964
Si Si2 0.040041 0.727922 0.261545
Si Si3 0.495342 0.414547 0.558512
Si Si4 0.380761 0.527646 0.131982
Si Si5 0.075248 0.581167 0.611555
Si Si6 0.474554 0.848234 0.280321
Si Si7 0.000000 0.000000 0.500000
Si Si8 0.622668 0.854015 0.800685
O O1 0.312986 0.809354 0.900987
O O2 0.319135 0.044161 0.086217
O O3 0.840666 0.353024 0.963723
O O4 0.000000 0.000000 0.000000
O O5 0.174913 0.738757 0.375896
O O6 0.221271 0.621238 0.199249
O O7 0.686785 0.019949 0.238697
O O8 0.104624 0.485430 0.225282
O O9 0.345522 0.485467 0.620085
O O10 0.237162 0.703309 0.529444
O O11 0.677288 0.129605 0.473972
O O12 0.446392 0.676564 0.187200
O O13 0.205766 0.389574 0.662181
O O14 0.000000 0.500000 0.500000
O O15 0.792547 0.912338 0.657325
O O16 0.414085 0.021443 0.249857
#
# Coordination Sequence:
#
# PCOD9045530 Si02
#       8
#     2   2   2   2   2   2   1   2
#     4  12  26  45  76 107 146 183 247 297 353 414
#     4  12  27  45  71 103 147 189 234 292 354 430
#     4  11  24  45  69  98 142 185 237 282 366 418
#     4  12  26  46  78 102 142 201 232 289 363 434
#     4  12  27  45  74 106 138 183 246 299 344 427
#     4  12  26  47  75 103 144 189 242 281 367 427
#     4  10  24  40  70  98 132 180 230 294 352 422
#     4  12  28  45  72 110 143 187 240 297 349 422
#
# _framework density 25.195944999999998
#
# number of rings (size 3 to 8) (size 9 to 14) (size 15 to 20)
#    0.000    0.267    2.667    5.600    3.733    9.600 
#    0.000    0.000    0.000    0.000    0.000    0.000 
#    0.000    0.000    0.000    0.000    0.000    0.000 
#
# Total GULP energy -83880.960260 kJ/mol
# GULP energy per Si atom -5592.064017 kJ/mol
# Density = 2.513860 g / cm^3
# Si number density = 25.195945 Si / 1000 Ang^3
#
#
#
# Elastic Constant Matrix: (Units=GPa)
#
#
# Indices 1 2 3 4 5 6 
#
# 1 60.8548 2.3576 15.8269 -5.5695 -14.9004 -0.3271
# 2 2.3576 140.1378 15.9683 1.9718 -4.2777 -1.6891
# 3 15.8269 15.9683 115.8854 -18.1816 16.1486 -0.0074
# 4 -5.5695 1.9718 -18.1816 46.9950 1.1588 -12.3435
# 5 -14.9004 -4.2777 16.1486 1.1588 37.3457 -3.0632
# 6 -0.3271 -1.6891 -0.0074 -12.3435 -3.0632 42.2189
#
#
#
# Elastic Compliance Matrix: (Units=1/GPa)
#
#
# Indices 1 2 3 4 5 6 
#
# 1 0.019946 0.000423 -0.004016 0.000847 0.009810 0.001130
# 2 0.000423 0.007356 -0.001430 -0.000805 0.001670 0.000183
# 3 -0.004016 -0.001430 0.010942 0.004150 -0.006573 0.000650
# 4 0.000847 -0.000805 0.004150 0.024937 -0.001737 0.007140
# 5 0.009810 0.001670 -0.006573 -0.001737 0.033950 0.002097
# 6 0.001130 0.000183 0.000650 0.007140 0.002097 0.025942
#
#
# Mechanical properties :
#
#
# Convention : Reuss Voigt Hill
#
# Bulk Modulus (GPa) = 35.46450 42.79817 39.13133
# Shear Modulus (GPa) = 35.08279 44.16027 39.62153
#
# Velocity S-wave (km/s) = 3.73553 4.19104 3.96982
# Velocity P-wave (km/s) = 5.71941 6.35946 6.04791
#
# Compressibility (1/GPa) = 0.02819721
#
# Stress axis : x y z
#
# Youngs Moduli (GPa) = 50.13450 135.93938 91.39091
#
# Poissons Ratio (x) = -0.05754 0.36707
# Poissons Ratio (y) = -0.02122 0.13073
# Poissons Ratio (z) = 0.20136 0.19445
#
# Static dielectric constant tensor:
#      x y z
#    x 1.846050 0.126580 0.106230 
#    y 0.126580 1.840480 0.010350 
#    z 0.106230 0.010350 2.148050 
# 
# From -- ./inp_files/359119.got.cif
#   From: 2010.05.17/outbox.cif.g08.bks.cpg/sg2_180_cif.got.tgz:359119.got - 2010.06.03 11:33:40.
