data_PCOD9045388
_publ_section_title
;
Structure prediction by ZEFSAII (Michael W. Deem and Ramdas Pophale) SiO2 
 PCOD9045388
Probable space group: P -1
;
_chemical_formula_sum "Si O2"
_cell_formula_units_Z 15
_cell_length_a 18.302959
_cell_length_b 9.817626
_cell_length_c 21.852454
_cell_angle_alpha 142.449406
_cell_angle_beta 160.339132
_cell_angle_gamma 48.574074
_cell_volume 732.853937
_symmetry_space_group_name_H-M "P -1"
_symmetry_group_IT_number 2
_symmetry_cell_setting 'triclinic'
loop_
_space_group_symop_operation_xyz
x,y,z
-x,-y,-z
loop_
_atom_site_type_symbol
_atom_site_label
_atom_site_fract_x
_atom_site_fract_y
_atom_site_fract_z
Si Si1 0.000000 0.500000 0.000000
Si Si2 0.640146 0.488883 0.236431
Si Si3 0.829759 0.184521 0.188479
Si Si4 0.821186 0.283320 0.647779
Si Si5 0.069949 0.254068 0.180697
Si Si6 0.642574 0.195510 0.908926
Si Si7 0.706764 0.711651 0.001823
Si Si8 0.519539 0.276068 0.610860
O O1 0.084480 0.655937 0.187217
O O2 0.279154 0.586882 0.231351
O O3 0.726583 0.344350 0.204203
O O4 0.488241 0.621635 0.132809
O O5 0.464148 0.305121 0.082553
O O6 0.882571 0.689964 0.530403
O O7 0.756515 0.189860 0.062562
O O8 0.715397 0.909765 0.028304
O O9 0.829643 0.529867 0.712129
O O10 0.561776 0.070075 0.362277
O O11 0.014743 0.216267 0.739304
O O12 0.269487 0.272654 0.393455
O O13 0.846817 0.263098 0.043239
O O14 0.000000 0.000000 0.000000
O O15 0.604494 0.434468 0.795798
O O16 0.500000 0.000000 0.500000
#
# Coordination Sequence:
#
# PCOD9045388 Si02
#       8
#     1   2   2   2   2   2   2   2
#     4  10  24  40  64  92 132 176 220 276 326 394
#     4  11  24  46  72  99 140 179 228 290 348 407
#     4  11  25  44  72 106 130 183 235 281 350 409
#     4  11  24  41  66  96 135 181 223 279 340 400
#     4  12  25  42  63  99 134 179 230 274 338 408
#     4  12  25  45  71  98 143 177 226 289 340 408
#     4  11  22  43  68  96 139 177 224 282 344 405
#     4  11  25  40  66  96 131 180 229 274 339 406
#
# _framework density 20.467925999999999
#
# number of rings (size 3 to 8) (size 9 to 14) (size 15 to 20)
#    0.000    0.800    2.667    4.800    1.867    7.467 
#    0.000    0.667    0.000    0.000    0.000    0.000 
#    0.000    0.000    0.000    0.000    0.000    0.000 
#
# Total GULP energy -83616.438542 kJ/mol
# GULP energy per Si atom -5574.429236 kJ/mol
# Density = 2.042134 g / cm^3
# Si number density = 20.467926 Si / 1000 Ang^3
#
#
#
# Elastic Constant Matrix: (Units=GPa)
#
#
# Indices 1 2 3 4 5 6 
#
# 1 71.4637 3.0262 19.9341 2.3915 6.1949 -0.7332
# 2 3.0262 100.3030 20.7666 1.8896 -0.2053 2.3535
# 3 19.9341 20.7666 104.9827 -6.8390 2.7200 3.3382
# 4 2.3915 1.8896 -6.8390 28.7997 -4.1588 2.7498
# 5 6.1949 -0.2053 2.7200 -4.1588 34.4435 -6.1233
# 6 -0.7332 2.3535 3.3382 2.7498 -6.1233 26.9931
#
#
#
# Elastic Compliance Matrix: (Units=1/GPa)
#
#
# Indices 1 2 3 4 5 6 
#
# 1 0.015145 0.000198 -0.003015 -0.002415 -0.002705 0.000399
# 2 0.000198 0.010446 -0.002162 -0.001170 -0.000038 -0.000527
# 3 -0.003015 -0.002162 0.010782 0.003071 -0.000234 -0.001593
# 4 -0.002415 -0.001170 0.003071 0.036615 0.004045 -0.003156
# 5 -0.002705 -0.000038 -0.000234 0.004045 0.031204 0.006625
# 6 0.000399 -0.000527 -0.001593 -0.003156 0.006625 0.039125
#
#
# Mechanical properties :
#
#
# Convention : Reuss Voigt Hill
#
# Bulk Modulus (GPa) = 37.85781 40.46703 39.16242
# Shear Modulus (GPa) = 30.84889 33.58209 32.21549
#
# Velocity S-wave (km/s) = 3.88646 4.05497 3.97161
# Velocity P-wave (km/s) = 6.21898 6.46046 6.34087
#
# Compressibility (1/GPa) = 0.02641463
#
# Stress axis : x y z
#
# Youngs Moduli (GPa) = 66.02772 95.73173 92.74413
#
# Poissons Ratio (x) = -0.01894 0.27961
# Poissons Ratio (y) = -0.01306 0.20055
# Poissons Ratio (z) = 0.19906 0.20701
#
# Static dielectric constant tensor:
#      x y z
#    x 1.722260 -0.000980 0.006230 
#    y -0.000980 1.733840 0.010940 
#    z 0.006230 0.010940 1.721320 
# 
# From -- ./inp_files/562510.got.cif
#   From: 2010.05.17/outbox.cif.g08.bks.cpg/sg2_282_cif.got.tgz:562510.got - 2010.06.03 11:33:40.
