data_PCOD9045199
_publ_section_title
;
Structure prediction by ZEFSAII (Michael W. Deem and Ramdas Pophale) SiO2 
 PCOD9045199
Probable space group: P -1
;
_chemical_formula_sum "Si O2"
_cell_formula_units_Z 14
_cell_length_a 12.661422
_cell_length_b 13.928622
_cell_length_c 14.491506
_cell_angle_alpha 29.011927
_cell_angle_beta 41.063069
_cell_angle_gamma 59.613457
_cell_volume 713.397361
_symmetry_space_group_name_H-M "P -1"
_symmetry_group_IT_number 2
_symmetry_cell_setting 'triclinic'
loop_
_space_group_symop_operation_xyz
x,y,z
-x,-y,-z
loop_
_atom_site_type_symbol
_atom_site_label
_atom_site_fract_x
_atom_site_fract_y
_atom_site_fract_z
Si Si1 0.513070 0.373480 0.471780
Si Si2 0.427331 0.736053 0.271520
Si Si3 0.093403 0.982619 0.051087
Si Si4 0.134140 0.559399 0.457549
Si Si5 0.269039 0.332554 0.400997
Si Si6 0.441410 0.800016 0.597054
Si Si7 0.266853 0.698063 0.981057
O O1 0.543932 0.627685 0.238611
O O2 0.583573 0.334733 0.555445
O O3 0.603001 0.310995 0.380327
O O4 0.289934 0.203345 0.752362
O O5 0.247893 0.635906 0.411545
O O6 0.500000 0.000000 0.000000
O O7 0.134864 0.775823 0.225659
O O8 0.913498 0.906108 0.297564
O O9 0.000000 0.000000 0.000000
O O10 0.219716 0.454639 0.416129
O O11 0.931411 0.381893 0.776481
O O12 0.429137 0.287710 0.366522
O O13 0.307398 0.496713 0.152376
O O14 0.281101 0.739254 0.827427
O O15 0.574436 0.069103 0.276613
#
# Coordination Sequence:
#
# PCOD9045199 Si02
#       7
#     2   2   2   2   2   2   2
#     4  11  22  36  59  87 115 155 196 245 293 339
#     4  11  23  38  57  87 114 151 206 251 282 330
#     4  11  19  32  57  92 116 142 187 243 305 345
#     4  11  21  38  59  88 121 154 195 251 284 344
#     4  11  21  33  61  87 118 152 191 241 294 354
#     4  11  21  39  58  85 125 159 184 236 298 363
#     4  10  24  36  56  91 124 152 191 230 305 362
#
# _framework density 19.624407000000001
#
# number of rings (size 3 to 8) (size 9 to 14) (size 15 to 20)
#    0.000    1.143    4.286    3.857    2.000    0.000 
#    0.000    0.714    0.000    0.857    0.000    0.000 
#    0.000    0.000    0.000    0.000    0.000    0.000 
#
# Total GULP energy -77999.449618 kJ/mol
# GULP energy per Si atom -5571.389258 kJ/mol
# Density = 1.957974 g / cm^3
# Si number density = 19.624407 Si / 1000 Ang^3
#
#
#
# Elastic Constant Matrix: (Units=GPa)
#
#
# Indices 1 2 3 4 5 6 
#
# 1 112.0011 6.9913 16.5588 2.2025 10.7225 11.9149
# 2 6.9913 74.4973 32.3521 -0.5865 7.3123 11.1956
# 3 16.5588 32.3521 99.4614 -8.5713 16.3361 0.5641
# 4 2.2025 -0.5865 -8.5713 31.5049 -7.2309 10.2068
# 5 10.7225 7.3123 16.3361 -7.2309 23.0965 -3.4350
# 6 11.9149 11.1956 0.5641 10.2068 -3.4350 36.1599
#
#
#
# Elastic Compliance Matrix: (Units=1/GPa)
#
#
# Indices 1 2 3 4 5 6 
#
# 1 0.009922 0.000558 -0.001098 -0.000917 -0.004832 -0.003625
# 2 0.000558 0.016657 -0.005016 0.000063 -0.002790 -0.005545
# 3 -0.001098 -0.005016 0.013093 0.001872 -0.006493 0.000565
# 4 -0.000917 0.000063 0.001872 0.037541 0.009429 -0.009447
# 5 -0.004832 -0.002790 -0.006493 0.009429 0.054725 0.005094
# 6 -0.003625 -0.005545 0.000565 -0.009447 0.005094 0.033708
#
#
# Mechanical properties :
#
#
# Convention : Reuss Voigt Hill
#
# Bulk Modulus (GPa) = 35.01422 44.19601 39.60511
# Shear Modulus (GPa) = 26.84146 33.48943 30.16545
#
# Velocity S-wave (km/s) = 3.70233 4.13549 3.92489
# Velocity P-wave (km/s) = 6.01309 6.73593 6.38475
#
# Compressibility (1/GPa) = 0.02855983
#
# Stress axis : x y z
#
# Youngs Moduli (GPa) = 100.78264 60.03522 76.37671
#
# Poissons Ratio (x) = -0.03347 0.08386
# Poissons Ratio (y) = -0.05620 0.38309
# Poissons Ratio (z) = 0.11066 0.30112
#
# Static dielectric constant tensor:
#      x y z
#    x 1.724270 0.007400 -0.003880 
#    y 0.007400 1.789850 -0.043980 
#    z -0.003880 -0.043980 1.753580 
# 
# From -- ./inp_files/521005.got.cif
#   From: 2010.05.17/outbox.cif.g08.bks.cpg/sg2_261_cif.got.tgz:521005.got - 2010.06.03 11:33:40.
