data_PCOD9045109
_publ_section_title
;
Structure prediction by ZEFSAII (Michael W. Deem and Ramdas Pophale) SiO2 
 PCOD9045109
Probable space group: P -1
;
_chemical_formula_sum "Si O2"
_cell_formula_units_Z 16
_cell_length_a 18.134376
_cell_length_b 9.010929
_cell_length_c 17.983045
_cell_angle_alpha 150.976350
_cell_angle_beta 151.525402
_cell_angle_gamma 37.673937
_cell_volume 676.404351
_symmetry_space_group_name_H-M "P -1"
_symmetry_group_IT_number 2
_symmetry_cell_setting 'triclinic'
loop_
_space_group_symop_operation_xyz
x,y,z
-x,-y,-z
loop_
_atom_site_type_symbol
_atom_site_label
_atom_site_fract_x
_atom_site_fract_y
_atom_site_fract_z
Si Si1 0.717958 0.242311 0.795305
Si Si2 0.174903 0.364426 0.073492
Si Si3 0.177507 0.940856 0.604524
Si Si4 0.271091 0.778896 0.452904
Si Si5 0.182895 0.651838 0.915723
Si Si6 0.008589 0.811279 0.688456
Si Si7 0.498699 0.245942 0.824195
Si Si8 0.374361 0.405995 0.626361
O O1 0.769039 0.456146 0.868693
O O2 0.547368 0.381879 0.733643
O O3 0.699103 0.896997 0.601131
O O4 0.834518 0.252019 0.972291
O O5 0.276251 0.456299 0.273885
O O6 0.000000 0.500000 0.000000
O O7 0.149827 0.012162 0.879160
O O8 0.202334 0.781920 0.476088
O O9 0.276343 0.717449 0.650776
O O10 0.227555 0.284378 0.791697
O O11 0.000000 0.000000 0.500000
O O12 0.426380 0.949072 0.662525
O O13 0.148985 0.992479 0.388216
O O14 0.040516 0.739282 0.772048
O O15 0.330249 0.804738 0.081275
O O16 0.000000 0.500000 0.500000
O O17 0.394467 0.376314 0.719366
O O18 0.500000 0.500000 0.000000
#
# Coordination Sequence:
#
# PCOD9045109 Si02
#       8
#     2   2   2   2   2   2   2   2
#     4  10  23  49  72 105 144 190 247 299 367 441
#     4  10  24  43  72 104 140 188 242 302 364 434
#     4  12  28  44  68 107 148 192 244 298 367 440
#     4  11  24  47  69 102 144 193 244 299 368 436
#     4  11  26  42  68 108 140 191 244 299 366 433
#     4  11  23  45  68 102 144 189 238 298 367 428
#     4  11  21  44  71 102 140 182 246 298 355 436
#     4  10  25  47  75 100 149 197 235 304 370 429
#
# _framework density 23.654489999999999
#
# number of rings (size 3 to 8) (size 9 to 14) (size 15 to 20)
#    0.000    1.250    3.750    0.000    7.000    4.000 
#    2.250    4.375    0.000    0.000    0.000    0.000 
#    0.000    0.000    0.000    0.000    0.000    0.000 
#
# Total GULP energy -89559.203738 kJ/mol
# GULP energy per Si atom -5597.450234 kJ/mol
# Density = 2.360065 g / cm^3
# Si number density = 23.654490 Si / 1000 Ang^3
#
#
#
# Elastic Constant Matrix: (Units=GPa)
#
#
# Indices 1 2 3 4 5 6 
#
# 1 152.0533 20.8784 56.0727 -1.7722 -3.7070 17.7838
# 2 20.8784 117.5459 16.7557 -3.1119 -3.8197 7.2937
# 3 56.0727 16.7557 148.6459 22.5177 -10.4396 6.9853
# 4 -1.7722 -3.1119 22.5177 37.7588 13.9821 0.2016
# 5 -3.7070 -3.8197 -10.4396 13.9821 55.7910 -9.3235
# 6 17.7838 7.2937 6.9853 0.2016 -9.3235 27.1177
#
#
#
# Elastic Compliance Matrix: (Units=1/GPa)
#
#
# Indices 1 2 3 4 5 6 
#
# 1 0.008560 -0.000675 -0.003509 0.003125 -0.001780 -0.005164
# 2 -0.000675 0.008892 -0.000879 0.001322 -0.000235 -0.001813
# 3 -0.003509 -0.000879 0.009414 -0.007150 0.003488 0.001365
# 4 0.003125 0.001322 -0.007150 0.034929 -0.010536 -0.004446
# 5 -0.001780 -0.000235 0.003488 -0.010536 0.022441 0.008126
# 6 -0.005164 -0.001813 0.001365 -0.004446 0.008126 0.043226
#
#
# Mechanical properties :
#
#
# Convention : Reuss Voigt Hill
#
# Bulk Modulus (GPa) = 59.73568 67.29542 63.51555
# Shear Modulus (GPa) = 34.92376 45.76939 40.34658
#
# Velocity S-wave (km/s) = 3.84658 4.40354 4.13445
# Velocity P-wave (km/s) = 6.71092 7.37333 7.04991
#
# Compressibility (1/GPa) = 0.01674041
#
# Stress axis : x y z
#
# Youngs Moduli (GPa) = 116.81907 112.45524 106.22296
#
# Poissons Ratio (x) = 0.07591 0.37272
# Poissons Ratio (y) = 0.07885 0.09341
# Poissons Ratio (z) = 0.40990 0.09889
#
# Static dielectric constant tensor:
#      x y z
#    x 1.912340 -0.039030 -0.012730 
#    y -0.039030 1.978660 0.040000 
#    z -0.012730 0.040000 1.975740 
# 
# From -- ./inp_files/575624.got.cif
#   From: 2010.05.17/outbox.cif.g08.bks.cpg/sg2_288_cif.got.tgz:575624.got - 2010.06.03 11:33:40.
