data_PCOD9045813
_publ_section_title
;
Structure prediction by ZEFSAII (Michael W. Deem and Ramdas Pophale) SiO2 
 PCOD9045813
Probable space group: P -1
;
_chemical_formula_sum "Si O2"
_cell_formula_units_Z 14
_cell_length_a 9.624866
_cell_length_b 13.145274
_cell_length_c 4.875180
_cell_angle_alpha 102.834480
_cell_angle_beta 113.742602
_cell_angle_gamma 70.520521
_cell_volume 529.525649
_symmetry_space_group_name_H-M "P -1"
_symmetry_group_IT_number 2
_symmetry_cell_setting 'triclinic'
loop_
_space_group_symop_operation_xyz
x,y,z
-x,-y,-z
loop_
_atom_site_type_symbol
_atom_site_label
_atom_site_fract_x
_atom_site_fract_y
_atom_site_fract_z
Si Si1 0.777221 0.279262 0.950803
Si Si2 0.078175 0.045721 0.336825
Si Si3 0.051699 0.247832 0.768335
Si Si4 0.608232 0.112372 0.668900
Si Si5 0.452738 0.400186 0.764497
Si Si6 0.415267 0.207301 0.030529
Si Si7 0.870315 0.455198 0.518852
O O1 0.922313 0.221606 0.844212
O O2 0.711547 0.182654 0.953306
O O3 0.617624 0.347179 0.704632
O O4 0.817999 0.364743 0.240064
O O5 0.263306 0.990931 0.402480
O O6 0.000000 0.000000 0.500000
O O7 0.053790 0.173230 0.456805
O O8 0.000000 0.000000 0.000000
O O9 0.974402 0.377964 0.782950
O O10 0.233541 0.221690 0.974556
O O11 0.484742 0.110769 0.808852
O O12 0.513441 0.175458 0.369420
O O13 0.421049 0.315933 0.921034
O O14 0.289825 0.449810 0.500699
O O15 0.500000 0.500000 0.000000
O O16 0.000000 0.500000 0.500000
#
# Coordination Sequence:
#
# PCOD9045813 Si02
#       7
#     2   2   2   2   2   2   2
#     4  10  24  41  71 102 138 192 244 302 358 441
#     4  12  26  47  79 113 145 193 245 305 370 440
#     4  12  27  43  74 107 148 189 249 310 366 438
#     4  11  25  48  73 105 149 189 245 297 367 440
#     4   9  21  44  66 100 143 194 242 294 361 433
#     4  11  26  46  71 108 146 191 241 305 364 435
#     4  11  23  45  68 105 150 190 247 304 375 428
#
# _framework density 26.438756999999999
#
# number of rings (size 3 to 8) (size 9 to 14) (size 15 to 20)
#    0.000    1.143    2.857    1.714    8.000    2.286 
#    7.714    0.000    0.000    0.000    0.000    0.000 
#    0.000    0.000    0.000    0.000    0.000    0.000 
#
# Total GULP energy -78156.477729 kJ/mol
# GULP energy per Si atom -5582.605552 kJ/mol
# Density = 2.637858 g / cm^3
# Si number density = 26.438757 Si / 1000 Ang^3
#
#
#
# Elastic Constant Matrix: (Units=GPa)
#
#
# Indices 1 2 3 4 5 6 
#
# 1 159.7772 36.7010 48.1939 -0.5929 24.9089 -48.3904
# 2 36.7010 91.5094 25.0740 -5.2306 12.9559 -30.4895
# 3 48.1939 25.0740 116.0568 -1.5018 1.9336 -13.5142
# 4 -0.5929 -5.2306 -1.5018 37.7458 -0.8870 12.1746
# 5 24.9089 12.9559 1.9336 -0.8870 45.1107 2.4912
# 6 -48.3904 -30.4895 -13.5142 12.1746 2.4912 57.6364
#
#
#
# Elastic Compliance Matrix: (Units=1/GPa)
#
#
# Indices 1 2 3 4 5 6 
#
# 1 0.011254 0.000535 -0.003567 -0.003236 -0.006824 0.009874
# 2 0.000535 0.014690 -0.002389 -0.000755 -0.004870 0.008030
# 3 -0.003567 -0.002389 0.010341 0.000755 0.002343 -0.002095
# 4 -0.003236 -0.000755 0.000755 0.029436 0.003063 -0.009290
# 5 -0.006824 -0.004870 0.002343 0.003063 0.027825 -0.009606
# 6 0.009874 0.008030 -0.002095 -0.009290 -0.009606 0.031774
#
#
# Mechanical properties :
#
#
# Convention : Reuss Voigt Hill
#
# Bulk Modulus (GPa) = 39.30718 65.25344 52.28031
# Shear Modulus (GPa) = 34.56788 45.25687 39.91237
#
# Velocity S-wave (km/s) = 3.61982 4.14183 3.88959
# Velocity P-wave (km/s) = 5.68949 6.89983 6.32368
#
# Compressibility (1/GPa) = 0.02544064
#
# Stress axis : x y z
#
# Youngs Moduli (GPa) = 88.85687 68.07474 96.70401
#
# Poissons Ratio (x) = -0.03640 0.34498
# Poissons Ratio (y) = -0.04752 0.23106
# Poissons Ratio (z) = 0.31698 0.16266
#
# Static dielectric constant tensor:
#      x y z
#    x 1.899710 -0.407140 0.226150 
#    y -0.407140 0.731490 0.578350 
#    z 0.226150 0.578350 1.836350 
# 
# From -- ./inp_files/40080.got.cif
#   From: 2010.05.17/outbox.cif.g08.bks.cpg/sg2_21_cif.got.tgz:40080.got - 2010.06.03 11:33:40.
