data_PCOD9045956
_publ_section_title
;
Structure prediction by ZEFSAII (Michael W. Deem and Ramdas Pophale) SiO2 
 PCOD9045956
Probable space group: P -1
;
_chemical_formula_sum "Si O2"
_cell_formula_units_Z 12
_cell_length_a 9.755226
_cell_length_b 10.156006
_cell_length_c 11.314238
_cell_angle_alpha 80.215512
_cell_angle_beta 109.699723
_cell_angle_gamma 150.443500
_cell_volume 501.903226
_symmetry_space_group_name_H-M "P -1"
_symmetry_group_IT_number 2
_symmetry_cell_setting 'triclinic'
loop_
_space_group_symop_operation_xyz
x,y,z
-x,-y,-z
loop_
_atom_site_type_symbol
_atom_site_label
_atom_site_fract_x
_atom_site_fract_y
_atom_site_fract_z
Si Si1 0.602411 0.418701 0.430799
Si Si2 0.921853 0.786908 0.048614
Si Si3 0.835811 0.232934 0.029299
Si Si4 0.362313 0.348408 0.791046
Si Si5 0.933239 0.159314 0.305077
Si Si6 0.256929 0.899057 0.506573
O O1 0.508303 0.450838 0.302030
O O2 0.766270 0.613086 0.563541
O O3 0.899561 0.581080 0.436300
O O4 0.341998 0.112569 0.445947
O O5 0.854641 0.739470 0.173949
O O6 0.159378 0.871173 0.059042
O O7 0.977921 0.277440 0.180273
O O8 0.000000 0.000000 0.000000
O O9 0.000000 0.500000 0.000000
O O10 0.500000 0.000000 0.000000
O O11 0.618714 0.505042 0.932145
O O12 0.202910 0.092933 0.727849
O O13 0.714735 0.062510 0.348637
O O14 0.500000 0.000000 0.500000
#
# Coordination Sequence:
#
# PCOD9045956 Si02
#       6
#     2   2   2   2   2   2
#     4  10  25  42  73 104 137 188 233 298 364 427
#     4  11  26  46  75 103 149 192 247 305 351 435
#     4  12  28  47  73 105 142 194 244 294 364 430
#     4  11  24  46  73 108 145 186 248 297 373 425
#     4  10  25  44  73 101 147 182 238 306 355 433
#     4  10  24  42  65 100 147 188 231 289 363 433
#
# _framework density 23.908992999999999
#
# number of rings (size 3 to 8) (size 9 to 14) (size 15 to 20)
#    1.000    0.333    1.667    2.000    9.333    3.333 
#    0.000    0.000    0.000    0.000    0.000    0.000 
#    0.000    0.000    0.000    0.000    0.000    0.000 
#
# Total GULP energy -67156.405911 kJ/mol
# GULP energy per Si atom -5596.367159 kJ/mol
# Density = 2.385458 g / cm^3
# Si number density = 23.908993 Si / 1000 Ang^3
#
#
#
# Elastic Constant Matrix: (Units=GPa)
#
#
# Indices 1 2 3 4 5 6 
#
# 1 125.7845 12.0623 22.9062 -3.8496 -45.7481 -2.0326
# 2 12.0623 80.6464 13.6023 -12.9057 -1.7959 -2.4679
# 3 22.9062 13.6023 121.0423 -17.7045 -15.7278 -13.9342
# 4 -3.8496 -12.9057 -17.7045 52.6824 2.1241 6.9992
# 5 -45.7481 -1.7959 -15.7278 2.1241 49.2796 -10.3354
# 6 -2.0326 -2.4679 -13.9342 6.9992 -10.3354 39.2265
#
#
#
# Elastic Compliance Matrix: (Units=1/GPa)
#
#
# Indices 1 2 3 4 5 6 
#
# 1 0.012750 -0.001556 -0.000243 -0.000552 0.012539 0.003879
# 2 -0.001556 0.013221 -0.001025 0.002913 -0.001528 -0.000536
# 3 -0.000243 -0.001025 0.009668 0.002323 0.003535 0.003874
# 4 -0.000552 0.002913 0.002323 0.020892 -0.001209 -0.003066
# 5 0.012539 -0.001528 0.003535 -0.001209 0.035441 0.011363
# 6 0.003879 -0.000536 0.003874 -0.003066 0.011363 0.030578
#
#
# Mechanical properties :
#
#
# Convention : Reuss Voigt Hill
#
# Bulk Modulus (GPa) = 33.34456 47.17942 40.26199
# Shear Modulus (GPa) = 36.18069 46.83120 41.50594
#
# Velocity S-wave (km/s) = 3.89429 4.43055 4.17105
# Velocity P-wave (km/s) = 5.84786 6.77856 6.33033
#
# Compressibility (1/GPa) = 0.02998990
#
# Stress axis : x y z
#
# Youngs Moduli (GPa) = 78.43154 75.63525 103.43587
#
# Poissons Ratio (x) = 0.11772 0.02512
# Poissons Ratio (y) = 0.12208 0.10606
# Poissons Ratio (z) = 0.01904 0.07755
#
# Static dielectric constant tensor:
#      x y z
#    x 1.990270 0.077780 -0.021040 
#    y 0.077780 1.887600 0.010230 
#    z -0.021040 0.010230 1.883200 
# 
# From -- ./inp_files/555269.got.cif
#   From: 2010.05.17/outbox.cif.g08.bks.cpg/sg2_278_cif.got.tgz:555269.got - 2010.06.03 11:33:40.
