data_PCOD9045075
_publ_section_title
;
Structure prediction by ZEFSAII (Michael W. Deem and Ramdas Pophale) SiO2 
 PCOD9045075
Probable space group: P -1
;
_chemical_formula_sum "Si O2"
_cell_formula_units_Z 12
_cell_length_a 10.133756
_cell_length_b 12.754973
_cell_length_c 9.128946
_cell_angle_alpha 47.581101
_cell_angle_beta 38.698677
_cell_angle_gamma 37.297343
_cell_volume 442.524506
_symmetry_space_group_name_H-M "P -1"
_symmetry_group_IT_number 2
_symmetry_cell_setting 'triclinic'
loop_
_space_group_symop_operation_xyz
x,y,z
-x,-y,-z
loop_
_atom_site_type_symbol
_atom_site_label
_atom_site_fract_x
_atom_site_fract_y
_atom_site_fract_z
Si Si1 0.064079 0.720607 0.756442
Si Si2 0.957171 0.500336 0.254263
Si Si3 0.295958 0.101594 0.712410
Si Si4 0.253672 0.592914 0.235085
Si Si5 0.352742 0.886762 0.362964
Si Si6 0.549005 0.220309 0.954354
O O1 0.154957 0.564036 0.710917
O O2 0.254088 0.768723 0.604150
O O3 0.859309 0.905500 0.677364
O O4 0.975294 0.651788 0.029412
O O5 0.814175 0.523117 0.508067
O O6 0.986239 0.741897 0.247315
O O7 0.259229 0.335749 0.161703
O O8 0.500000 0.000000 0.500000
O O9 0.461229 0.127689 0.661292
O O10 0.269060 0.961944 0.949513
O O11 0.326480 0.677587 0.217724
O O12 0.500000 0.500000 0.000000
O O13 0.463621 0.817421 0.168859
#
# Coordination Sequence:
#
# PCOD9045075 Si02
#       6
#     2   2   2   2   2   2
#     4  10  23  48  89 130 174 217 297 363 435 514
#     4  11  24  53  84 130 170 226 287 370 431 515
#     4  12  26  54  88 129 176 229 293 364 432 522
#     4  12  29  58  85 123 180 236 287 360 452 524
#     4  11  24  50  90 134 164 236 293 358 433 525
#     4  12  26  52  86 128 168 231 303 354 436 528
#
# _framework density 27.117139999999999
#
# number of rings (size 3 to 8) (size 9 to 14) (size 15 to 20)
#    0.000    0.667    5.000    1.000    2.333    2.667 
#    9.000    0.833    0.000    1.000    0.000    0.000 
#    0.000    0.000    0.000    0.000    0.000    0.000 
#
# Total GULP energy -67289.320236 kJ/mol
# GULP energy per Si atom -5607.443353 kJ/mol
# Density = 2.705542 g / cm^3
# Si number density = 27.117140 Si / 1000 Ang^3
#
#
#
# Elastic Constant Matrix: (Units=GPa)
#
#
# Indices 1 2 3 4 5 6 
#
# 1 97.6225 24.4552 30.9986 27.6965 5.3244 1.0637
# 2 24.4552 127.1473 73.1595 -8.9057 1.6913 -30.0358
# 3 30.9986 73.1595 223.2904 -3.7661 10.7223 4.2386
# 4 27.6965 -8.9057 -3.7661 62.6767 7.9957 -6.1246
# 5 5.3244 1.6913 10.7223 7.9957 40.5378 -9.9047
# 6 1.0637 -30.0358 4.2386 -6.1246 -9.9047 60.6630
#
#
#
# Elastic Compliance Matrix: (Units=1/GPa)
#
#
# Indices 1 2 3 4 5 6 
#
# 1 0.013182 -0.003068 -0.000853 -0.006463 -0.000704 -0.002458
# 2 -0.003068 0.012606 -0.003881 0.003365 0.002008 0.007234
# 3 -0.000853 -0.003881 0.006018 0.000185 -0.001998 -0.002635
# 4 -0.006463 0.003365 0.000185 0.019942 -0.002448 0.003380
# 5 -0.000704 0.002008 -0.001998 -0.002448 0.026984 0.005305
# 6 -0.002458 0.007234 -0.002635 0.003380 0.005305 0.021501
#
#
# Mechanical properties :
#
#
# Convention : Reuss Voigt Hill
#
# Bulk Modulus (GPa) = 61.72910 78.36518 70.04714
# Shear Modulus (GPa) = 41.24080 54.07197 47.65639
#
# Velocity S-wave (km/s) = 3.90402 4.47028 4.19672
# Velocity P-wave (km/s) = 6.56774 7.45695 7.02642
#
# Compressibility (1/GPa) = 0.01619982
#
# Stress axis : x y z
#
# Youngs Moduli (GPa) = 75.86221 79.32587 166.17715
#
# Poissons Ratio (x) = 0.24340 0.14178
# Poissons Ratio (y) = 0.23278 0.64499
# Poissons Ratio (z) = 0.06472 0.30789
#
# Static dielectric constant tensor:
#      x y z
#    x 2.117760 -0.037490 -0.017120 
#    y -0.037490 2.219480 0.083030 
#    z -0.017120 0.083030 2.122990 
# 
# From -- ./inp_files/251566.got.cif
#   From: 2010.05.17/outbox.cif.g08.bks.cpg/sg2_126_cif.got.tgz:251566.got - 2010.06.03 11:33:40.
