data_PCOD9045423
_publ_section_title
;
Structure prediction by ZEFSAII (Michael W. Deem and Ramdas Pophale) SiO2 
 PCOD9045423
Probable space group: P -1
;
_chemical_formula_sum "Si O2"
_cell_formula_units_Z 16
_cell_length_a 15.614734
_cell_length_b 9.002091
_cell_length_c 12.575999
_cell_angle_alpha 69.412912
_cell_angle_beta 60.344170
_cell_angle_gamma 123.533389
_cell_volume 647.451042
_symmetry_space_group_name_H-M "P -1"
_symmetry_group_IT_number 2
_symmetry_cell_setting 'triclinic'
loop_
_space_group_symop_operation_xyz
x,y,z
-x,-y,-z
loop_
_atom_site_type_symbol
_atom_site_label
_atom_site_fract_x
_atom_site_fract_y
_atom_site_fract_z
Si Si1 0.536350 0.685709 0.793667
Si Si2 0.050850 0.391155 0.009868
Si Si3 0.319482 0.506609 0.414312
Si Si4 0.258560 0.996099 0.197581
Si Si5 0.231186 0.416982 0.730431
Si Si6 0.417823 0.325702 0.460357
Si Si7 0.186660 0.539394 0.322853
Si Si8 0.879222 0.694594 0.811024
O O1 0.699701 0.976165 0.710425
O O2 0.635811 0.832805 0.579509
O O3 0.459620 0.394376 0.937904
O O4 0.318177 0.474603 0.991933
O O5 0.136787 0.473531 0.054002
O O6 0.803116 0.965524 0.264482
O O7 0.000000 0.500000 0.000000
O O8 0.210414 0.541429 0.787692
O O9 0.259268 0.493961 0.569129
O O10 0.490115 0.609780 0.313538
O O11 0.359318 0.700354 0.253800
O O12 0.110777 0.112259 0.589939
O O13 0.232185 0.789796 0.211526
O O14 0.035044 0.772787 0.391315
O O15 0.417938 0.561611 0.615853
O O16 0.000000 0.000000 0.000000
O O17 0.145097 0.388495 0.276042
#
# Coordination Sequence:
#
# PCOD9045423 Si02
#       8
#     2   2   2   2   2   2   2   2
#     4  11  22  43  69  99 141 185 231 283 353 426
#     4  11  26  47  73 105 138 186 231 300 360 410
#     4  11  23  40  72 102 135 191 233 290 348 417
#     4  10  24  40  66 101 140 186 228 292 347 421
#     4  12  23  46  70 103 141 177 245 286 342 429
#     4  11  24  44  73 101 137 189 236 286 357 422
#     4  11  24  44  66 104 140 182 237 288 356 412
#     4  11  22  44  68  96 144 184 230 289 347 422
#
# _framework density 24.712292999999999
#
# number of rings (size 3 to 8) (size 9 to 14) (size 15 to 20)
#    0.000    1.000    5.000    2.250    3.500    4.000 
#    2.250    0.000    0.000    0.000    0.000    0.000 
#    0.000    0.000    0.000    0.000    0.000    0.000 
#
# Total GULP energy -89491.645779 kJ/mol
# GULP energy per Si atom -5593.227861 kJ/mol
# Density = 2.465605 g / cm^3
# Si number density = 24.712293 Si / 1000 Ang^3
#
#
#
# Elastic Constant Matrix: (Units=GPa)
#
#
# Indices 1 2 3 4 5 6 
#
# 1 175.5255 49.2074 29.1473 26.7289 -4.9165 -4.5837
# 2 49.2074 94.3280 40.0604 41.8409 7.9118 5.8172
# 3 29.1473 40.0604 75.2580 36.4856 -22.4438 4.4872
# 4 26.7289 41.8409 36.4856 46.5583 3.3757 5.6214
# 5 -4.9165 7.9118 -22.4438 3.3757 41.4369 3.8093
# 6 -4.5837 5.8172 4.4872 5.6214 3.8093 39.7897
#
#
#
# Elastic Compliance Matrix: (Units=1/GPa)
#
#
# Indices 1 2 3 4 5 6 
#
# 1 0.006869 -0.003202 0.000074 -0.001387 0.001460 0.001307
# 2 -0.003202 0.020431 -0.006227 -0.011103 -0.006709 -0.000443
# 3 0.000074 -0.006227 0.034010 -0.022447 0.021614 -0.001814
# 4 -0.001387 -0.011103 -0.022447 0.051098 -0.014194 -0.001865
# 5 0.001460 -0.006709 0.021614 -0.014194 0.038725 -0.002991
# 6 0.001307 -0.000443 -0.001814 -0.001865 -0.002991 0.026102
#
#
# Mechanical properties :
#
#
# Convention : Reuss Voigt Hill
#
# Bulk Modulus (GPa) = 23.47413 64.66020 44.06717
# Shear Modulus (GPa) = 23.79302 40.67007 32.23155
#
# Velocity S-wave (km/s) = 3.10627 4.06118 3.61539
# Velocity P-wave (km/s) = 4.73126 6.94355 5.94128
#
# Compressibility (1/GPa) = 0.04260008
#
# Stress axis : x y z
#
# Youngs Moduli (GPa) = 145.58330 48.94429 29.40320
#
# Poissons Ratio (x) = 0.15674 -0.00218
# Poissons Ratio (y) = 0.46623 0.18309
# Poissons Ratio (z) = -0.01081 0.30477
#
# Static dielectric constant tensor:
#      x y z
#    x 2.019090 -0.028650 0.016950 
#    y -0.028650 1.993380 -0.056600 
#    z 0.016950 -0.056600 2.046360 
# 
# From -- ./inp_files/447132.got.cif
#   From: 2010.05.17/outbox.cif.g08.bks.cpg/sg2_224_cif.got.tgz:447132.got - 2010.06.03 11:33:40.
