data_PCOD9045535
_publ_section_title
;
Structure prediction by ZEFSAII (Michael W. Deem and Ramdas Pophale) SiO2 
 PCOD9045535
Probable space group: P -1
;
_chemical_formula_sum "Si O2"
_cell_formula_units_Z 16
_cell_length_a 22.972912
_cell_length_b 9.165951
_cell_length_c 8.666630
_cell_angle_alpha 101.400904
_cell_angle_beta 127.496732
_cell_angle_gamma 36.712901
_cell_volume 684.476953
_symmetry_space_group_name_H-M "P -1"
_symmetry_group_IT_number 2
_symmetry_cell_setting 'triclinic'
loop_
_space_group_symop_operation_xyz
x,y,z
-x,-y,-z
loop_
_atom_site_type_symbol
_atom_site_label
_atom_site_fract_x
_atom_site_fract_y
_atom_site_fract_z
Si Si1 0.439719 0.878544 0.211258
Si Si2 0.029099 0.947614 0.293696
Si Si3 0.497491 0.077675 0.180653
Si Si4 0.719034 0.170945 0.517273
Si Si5 0.180363 0.150844 0.707410
Si Si6 0.308562 0.051897 0.364445
Si Si7 0.794536 0.210591 0.189675
Si Si8 0.954026 0.291211 0.005179
O O1 0.580178 0.522464 0.318544
O O2 0.476855 0.980637 0.247364
O O3 0.412101 0.902716 0.352880
O O4 0.288232 0.092784 0.923248
O O5 0.929367 0.014728 0.250127
O O6 0.927022 0.260989 0.120215
O O7 0.155820 0.799954 0.571482
O O8 0.090474 0.746978 0.206050
O O9 0.644440 0.914394 0.421010
O O10 0.358676 0.440485 0.040352
O O11 0.500000 0.000000 0.000000
O O12 0.774234 0.977120 0.419034
O O13 0.674799 0.139642 0.577802
O O14 0.866148 0.001393 0.772778
O O15 0.000000 0.500000 0.500000
O O16 0.217872 0.942165 0.832874
O O17 0.138652 0.394075 0.105823
#
# Coordination Sequence:
#
# PCOD9045535 Si02
#       8
#     2   2   2   2   2   2   2   2
#     4  12  28  46  71 104 143 184 235 288 350 415
#     4  10  24  40  71 100 139 173 233 286 346 404
#     4  12  26  45  74 101 142 184 235 287 349 414
#     4  12  26  47  70 101 146 187 231 285 354 416
#     4  12  27  46  72 102 142 185 235 288 350 417
#     4  12  27  45  71 104 142 184 237 284 351 414
#     4  11  24  44  70 100 138 183 234 280 349 411
#     4  11  24  43  71 103 139 178 233 288 349 403
#
# _framework density 23.375513000000002
#
# number of rings (size 3 to 8) (size 9 to 14) (size 15 to 20)
#    0.000    0.500    1.250    6.000   12.250    0.000 
#    0.000    0.000    0.000    0.000    0.000    0.000 
#    0.000    0.000    0.000    0.000    0.000    0.000 
#
# Total GULP energy -89671.922892 kJ/mol
# GULP energy per Si atom -5604.495181 kJ/mol
# Density = 2.332231 g / cm^3
# Si number density = 23.375513 Si / 1000 Ang^3
#
#
#
# Elastic Constant Matrix: (Units=GPa)
#
#
# Indices 1 2 3 4 5 6 
#
# 1 119.7423 9.6381 1.9618 -6.8189 -15.3737 18.1210
# 2 9.6381 71.2131 20.6171 -24.3963 -7.5450 3.4523
# 3 1.9618 20.6171 82.9207 -9.6367 0.8124 -0.9694
# 4 -6.8189 -24.3963 -9.6367 48.3707 3.4221 -5.9593
# 5 -15.3737 -7.5450 0.8124 3.4221 39.2808 1.0226
# 6 18.1210 3.4523 -0.9694 -5.9593 1.0226 37.4425
#
#
#
# Elastic Compliance Matrix: (Units=1/GPa)
#
#
# Indices 1 2 3 4 5 6 
#
# 1 0.009599 -0.000562 -0.000156 0.000198 0.003757 -0.004669
# 2 -0.000562 0.018263 -0.003605 0.008192 0.002656 -0.000274
# 3 -0.000156 -0.003605 0.013094 0.000963 -0.001132 0.000931
# 4 0.000198 0.008192 0.000963 0.025473 -0.000673 0.003247
# 5 0.003757 0.002656 -0.001132 -0.000673 0.027597 -0.002953
# 6 -0.004669 -0.000274 0.000931 0.003247 -0.002953 0.029614
#
#
# Mechanical properties :
#
#
# Convention : Reuss Voigt Hill
#
# Bulk Modulus (GPa) = 30.94923 37.59001 34.26962
# Shear Modulus (GPa) = 34.95152 41.12942 38.04047
#
# Velocity S-wave (km/s) = 3.87100 4.19920 4.03844
# Velocity P-wave (km/s) = 5.76613 6.29499 6.03636
#
# Compressibility (1/GPa) = 0.03231098
#
# Stress axis : x y z
#
# Youngs Moduli (GPa) = 104.17536 54.75483 76.37319
#
# Poissons Ratio (x) = 0.03077 0.01190
# Poissons Ratio (y) = 0.05854 0.27531
# Poissons Ratio (z) = 0.01623 0.19738
#
# Static dielectric constant tensor:
#      x y z
#    x 1.842630 -0.007090 -0.030440 
#    y -0.007090 1.906230 -0.005850 
#    z -0.030440 -0.005850 1.872930 
# 
# From -- ./inp_files/352262.got.cif
#   From: 2010.05.17/outbox.cif.g08.bks.cpg/sg2_177_cif.got.tgz:352262.got - 2010.06.03 11:33:40.
