data_PCOD9045167
_publ_section_title
;
Structure prediction by ZEFSAII (Michael W. Deem and Ramdas Pophale) SiO2 
 PCOD9045167
Probable space group: P -1
;
_chemical_formula_sum "Si O2"
_cell_formula_units_Z 14
_cell_length_a 11.215982
_cell_length_b 10.176402
_cell_length_c 7.756589
_cell_angle_alpha 90.008434
_cell_angle_beta 38.676222
_cell_angle_gamma 74.659439
_cell_volume 501.184841
_symmetry_space_group_name_H-M "P -1"
_symmetry_group_IT_number 2
_symmetry_cell_setting 'triclinic'
loop_
_space_group_symop_operation_xyz
x,y,z
-x,-y,-z
loop_
_atom_site_type_symbol
_atom_site_label
_atom_site_fract_x
_atom_site_fract_y
_atom_site_fract_z
Si Si1 0.681823 0.066407 0.572232
Si Si2 0.674650 0.111049 0.952065
Si Si3 0.944566 0.725396 0.235625
Si Si4 0.407218 0.242919 0.593475
Si Si5 0.612612 0.492891 0.161326
Si Si6 0.775895 0.517378 0.603459
Si Si7 0.960829 0.191985 0.393760
O O1 0.570383 0.111299 0.884402
O O2 0.518472 0.114748 0.603838
O O3 0.830272 0.152799 0.393271
O O4 0.836492 0.896621 0.397202
O O5 0.821449 0.946010 0.834609
O O6 0.826977 0.184811 0.715022
O O7 0.530016 0.185589 0.275039
O O8 0.865477 0.631232 0.449786
O O9 0.194923 0.643627 0.968956
O O10 0.408592 0.474594 0.320439
O O11 0.429427 0.378255 0.656522
O O12 0.164412 0.282789 0.822774
O O13 0.688259 0.538399 0.896188
O O14 0.945633 0.350795 0.401986
#
# Coordination Sequence:
#
# PCOD9045167 Si02
#       7
#     2   2   2   2   2   2   2
#     4  10  23  50  74 106 159 199 259 324 366 469
#     4   9  22  44  81 111 150 207 261 309 398 442
#     4  12  28  48  78 118 156 208 255 322 393 451
#     4  12  26  48  76 117 151 211 255 321 387 464
#     4  11  26  51  77 111 168 194 262 321 381 471
#     4  11  25  50  84 110 153 216 254 316 400 452
#     4   9  20  49  76 111 156 199 262 321 370 475
#
# _framework density 27.933803000000001
#
# number of rings (size 3 to 8) (size 9 to 14) (size 15 to 20)
#    0.857    0.571    1.429    2.143    6.000    1.714 
#   10.286    0.000    0.000    0.857    0.000    0.000 
#    0.000    0.000    0.000    0.000    0.000    0.000 
#
# Total GULP energy -78546.210359 kJ/mol
# GULP energy per Si atom -5610.443597 kJ/mol
# Density = 2.787022 g / cm^3
# Si number density = 27.933803 Si / 1000 Ang^3
#
#
#
# Elastic Constant Matrix: (Units=GPa)
#
#
# Indices 1 2 3 4 5 6 
#
# 1 196.7765 48.3878 57.5736 19.0307 13.9065 -41.1716
# 2 48.3878 172.0944 48.3026 42.9085 11.6125 -17.1276
# 3 57.5736 48.3026 143.1914 14.3164 44.7312 -4.0548
# 4 19.0307 42.9085 14.3164 42.2112 -4.4627 -3.0337
# 5 13.9065 11.6125 44.7312 -4.4627 44.4749 -5.4773
# 6 -41.1716 -17.1276 -4.0548 -3.0337 -5.4773 55.5282
#
#
#
# Elastic Compliance Matrix: (Units=1/GPa)
#
#
# Indices 1 2 3 4 5 6 
#
# 1 0.007094 -0.000478 -0.002799 -0.001280 0.001204 0.004957
# 2 -0.000478 0.008612 -0.001483 -0.008047 -0.001214 0.001634
# 3 -0.002799 -0.001483 0.012595 -0.002992 -0.012071 -0.002967
# 4 -0.001280 -0.008047 -0.002992 0.034332 0.008844 -0.000901
# 5 0.001204 -0.001214 -0.012071 0.008844 0.035904 0.003661
# 6 0.004957 0.001634 -0.002967 -0.000901 0.003661 0.022284
#
#
# Mechanical properties :
#
#
# Convention : Reuss Voigt Hill
#
# Bulk Modulus (GPa) = 53.24163 91.17670 72.20917
# Shear Modulus (GPa) = 36.60260 52.29604 44.44932
#
# Velocity S-wave (km/s) = 3.62378 4.33152 3.99336
# Velocity P-wave (km/s) = 6.05065 7.59784 6.86795
#
# Compressibility (1/GPa) = 0.01878229
#
# Stress axis : x y z
#
# Youngs Moduli (GPa) = 140.96026 116.11241 79.39518
#
# Poissons Ratio (x) = 0.05549 0.22222
# Poissons Ratio (y) = 0.06736 0.11774
# Poissons Ratio (z) = 0.39453 0.17220
#
# Static dielectric constant tensor:
#      x y z
#    x 2.205100 0.041000 -0.023210 
#    y 0.041000 2.214550 -0.058280 
#    z -0.023210 -0.058280 2.174540 
# 
# From -- ./inp_files/309666.got.cif
#   From: 2010.05.17/outbox.cif.g08.bks.cpg/sg2_155_cif.got.tgz:309666.got - 2010.06.03 11:33:40.
