data_PCOD9045166
_publ_section_title
;
Structure prediction by ZEFSAII (Michael W. Deem and Ramdas Pophale) SiO2 
 PCOD9045166
Probable space group: P -1
;
_chemical_formula_sum "Si O2"
_cell_formula_units_Z 16
_cell_length_a 12.073736
_cell_length_b 17.298949
_cell_length_c 9.570643
_cell_angle_alpha 127.365521
_cell_angle_beta 155.838935
_cell_angle_gamma 49.161596
_cell_volume 618.658360
_symmetry_space_group_name_H-M "P -1"
_symmetry_group_IT_number 2
_symmetry_cell_setting 'triclinic'
loop_
_space_group_symop_operation_xyz
x,y,z
-x,-y,-z
loop_
_atom_site_type_symbol
_atom_site_label
_atom_site_fract_x
_atom_site_fract_y
_atom_site_fract_z
Si Si1 0.582040 0.831872 0.193092
Si Si2 0.293567 0.507728 0.901202
Si Si3 0.759965 0.769674 0.613942
Si Si4 0.020201 0.789430 0.403957
Si Si5 0.587203 0.644176 0.505652
Si Si6 0.321798 0.556271 0.488565
Si Si7 0.812191 0.158739 0.636665
Si Si8 0.717645 0.033583 0.618329
O O1 0.767815 0.756765 0.443160
O O2 0.749790 0.816010 0.222350
O O3 0.567355 0.945687 0.349620
O O4 0.278958 0.814151 0.809987
O O5 0.276821 0.320785 0.432657
O O6 0.000000 0.500000 0.500000
O O7 0.500000 0.500000 0.000000
O O8 0.456061 0.429143 0.121906
O O9 0.471513 0.741533 0.580899
O O10 0.472665 0.860959 0.419103
O O11 0.997450 0.814588 0.994490
O O12 0.111370 0.667795 0.340766
O O13 0.017708 0.847100 0.317264
O O14 0.786801 0.534704 0.671677
O O15 0.309412 0.612583 0.105462
O O16 0.500000 0.500000 0.500000
O O17 0.756971 0.059291 0.528175
O O18 0.000000 0.000000 0.000000
#
# Coordination Sequence:
#
# PCOD9045166 Si02
#       8
#     2   2   2   2   2   2   2   2
#     4  12  29  48  76 109 157 186 249 320 375 432
#     4  10  24  43  68 102 140 186 240 300 361 416
#     4  11  25  46  80 105 144 201 257 299 367 456
#     4  12  29  49  71 119 151 197 242 314 384 435
#     4   9  24  43  73 105 143 196 253 297 361 435
#     4  10  23  50  74 102 153 204 248 295 370 454
#     4  11  25  45  79 104 148 192 256 297 370 461
#     4  11  24  50  77 110 142 198 257 302 375 451
#
# _framework density 25.862414999999999
#
# number of rings (size 3 to 8) (size 9 to 14) (size 15 to 20)
#    0.750    0.500    2.500    1.125   10.500    2.000 
#    2.250    2.500    0.000    0.000    0.000    0.000 
#    0.000    0.000    0.000    0.000    0.000    0.000 
#
# Total GULP energy -89576.584094 kJ/mol
# GULP energy per Si atom -5598.536506 kJ/mol
# Density = 2.580355 g / cm^3
# Si number density = 25.862415 Si / 1000 Ang^3
#
#
#
# Elastic Constant Matrix: (Units=GPa)
#
#
# Indices 1 2 3 4 5 6 
#
# 1 131.3133 31.1909 9.4292 -7.9080 -15.2365 16.3359
# 2 31.1909 104.3026 10.1394 8.7790 5.5756 27.6459
# 3 9.4292 10.1394 103.3729 13.3629 2.9092 0.7951
# 4 -7.9080 8.7790 13.3629 36.2925 1.9703 1.8412
# 5 -15.2365 5.5756 2.9092 1.9703 46.1977 -1.4807
# 6 16.3359 27.6459 0.7951 1.8412 -1.4807 49.3899
#
#
#
# Elastic Compliance Matrix: (Units=1/GPa)
#
#
# Indices 1 2 3 4 5 6 
#
# 1 0.009043 -0.002615 -0.001019 0.002882 0.003190 -0.001523
# 2 -0.002615 0.012390 -0.000481 -0.002954 -0.002394 -0.006024
# 3 -0.001019 -0.000481 0.010334 -0.003899 -0.000744 0.000563
# 4 0.002882 -0.002954 -0.003899 0.030337 0.000247 -0.000361
# 5 0.003190 -0.002394 -0.000744 0.000247 0.023055 0.000979
# 6 -0.001523 -0.006024 0.000563 -0.000361 0.000979 0.024156
#
#
# Mechanical properties :
#
#
# Convention : Reuss Voigt Hill
#
# Bulk Modulus (GPa) = 42.48603 48.94531 45.71567
# Shear Modulus (GPa) = 39.87540 45.59130 42.73335
#
# Velocity S-wave (km/s) = 3.93087 4.20317 4.06930
# Velocity P-wave (km/s) = 6.08816 6.52088 6.30823
#
# Compressibility (1/GPa) = 0.02353715
#
# Stress axis : x y z
#
# Youngs Moduli (GPa) = 110.58520 80.71350 96.76328
#
# Poissons Ratio (x) = 0.21104 0.09860
# Poissons Ratio (y) = 0.28914 0.04656
# Poissons Ratio (z) = 0.11269 0.03884
#
# Static dielectric constant tensor:
#      x y z
#    x 2.051410 0.007480 -0.042480 
#    y 0.007480 2.183290 -0.066840 
#    z -0.042480 -0.066840 2.063780 
# 
# From -- ./inp_files/279743.got.cif
#   From: 2010.05.17/outbox.cif.g08.bks.cpg/sg2_140_cif.got.tgz:279743.got - 2010.06.03 11:33:40.
