data_PCOD9045361
_publ_section_title
;
Structure prediction by ZEFSAII (Michael W. Deem and Ramdas Pophale) SiO2 
 PCOD9045361
Probable space group: P -1
;
_chemical_formula_sum "Si O2"
_cell_formula_units_Z 12
_cell_length_a 15.977816
_cell_length_b 10.828883
_cell_length_c 15.833700
_cell_angle_alpha 35.636883
_cell_angle_beta 35.761984
_cell_angle_gamma 22.304862
_cell_volume 583.445653
_symmetry_space_group_name_H-M "P -1"
_symmetry_group_IT_number 2
_symmetry_cell_setting 'triclinic'
loop_
_space_group_symop_operation_xyz
x,y,z
-x,-y,-z
loop_
_atom_site_type_symbol
_atom_site_label
_atom_site_fract_x
_atom_site_fract_y
_atom_site_fract_z
Si Si1 0.126117 0.770715 0.938947
Si Si2 0.766245 0.684543 0.134105
Si Si3 0.415486 0.553095 0.291274
Si Si4 0.680762 0.926536 0.805660
Si Si5 0.114833 0.638747 0.599582
Si Si6 0.690209 0.232094 0.924888
O O1 0.315454 0.724075 0.785326
O O2 0.251776 0.393955 0.049072
O O3 0.934656 0.970719 0.913286
O O4 0.000000 0.000000 0.000000
O O5 0.823673 0.521078 0.269388
O O6 0.572867 0.770827 0.196059
O O7 0.000000 0.500000 0.000000
O O8 0.635294 0.053635 0.048922
O O9 0.336398 0.443667 0.471861
O O10 0.317486 0.641592 0.228083
O O11 0.330343 0.878350 0.220637
O O12 0.911613 0.730766 0.675264
O O13 0.000000 0.000000 0.500000
O O14 0.500000 0.500000 0.000000
#
# Coordination Sequence:
#
# PCOD9045361 Si02
#       6
#     2   2   2   2   2   2
#     4  12  23  41  68  95 128 172 221 272 319 386
#     4  12  23  40  71  97 129 174 217 266 321 389
#     4  11  24  41  65  99 134 167 217 274 324 377
#     4  11  23  41  67  98 129 170 222 260 324 391
#     4  10  24  40  62 100 138 167 210 274 329 374
#     4  12  24  41  65  95 129 171 222 266 321 388
#
# _framework density 20.567468999999999
#
# number of rings (size 3 to 8) (size 9 to 14) (size 15 to 20)
#    0.000    0.667    5.000    3.500    0.000    4.000 
#    0.000    3.333    0.000    4.000    0.000    0.000 
#    0.000    0.000    0.000    0.000    0.000    0.000 
#
# Total GULP energy -66859.529803 kJ/mol
# GULP energy per Si atom -5571.627484 kJ/mol
# Density = 2.052066 g / cm^3
# Si number density = 20.567469 Si / 1000 Ang^3
#
#
#
# Elastic Constant Matrix: (Units=GPa)
#
#
# Indices 1 2 3 4 5 6 
#
# 1 119.1619 33.4504 42.9731 25.2248 11.1110 -30.0322
# 2 33.4504 83.2221 39.6986 35.1920 4.8637 -14.7074
# 3 42.9731 39.6986 158.8104 42.7083 14.8899 -18.9929
# 4 25.2248 35.1920 42.7083 35.6371 -8.6717 -6.8985
# 5 11.1110 4.8637 14.8899 -8.6717 33.8430 4.5887
# 6 -30.0322 -14.7074 -18.9929 -6.8985 4.5887 53.0789
#
#
#
# Elastic Compliance Matrix: (Units=1/GPa)
#
#
# Indices 1 2 3 4 5 6 
#
# 1 0.013038 0.001676 0.001512 -0.013611 -0.009685 0.007451
# 2 0.001676 0.026311 0.004995 -0.035890 -0.016648 0.006801
# 3 0.001512 0.004995 0.012938 -0.023884 -0.013698 0.004949
# 4 -0.013611 -0.035890 -0.023884 0.110984 0.050763 -0.016156
# 5 -0.009685 -0.016648 -0.013698 0.050763 0.055948 -0.013233
# 6 0.007451 0.006801 0.004949 -0.016156 -0.013233 0.025755
#
#
# Mechanical properties :
#
#
# Convention : Reuss Voigt Hill
#
# Bulk Modulus (GPa) = 14.56563 65.93763 40.25163
# Shear Modulus (GPa) = 19.88142 40.84995 30.36569
#
# Velocity S-wave (km/s) = 3.11246 4.46145 3.84656
# Velocity P-wave (km/s) = 4.47368 7.65952 6.27224
#
# Compressibility (1/GPa) = 0.06865478
#
# Stress axis : x y z
#
# Youngs Moduli (GPa) = 76.69884 38.00715 77.29159
#
# Poissons Ratio (x) = -0.06371 -0.11689
# Poissons Ratio (y) = -0.12858 -0.38609
# Poissons Ratio (z) = -0.11599 -0.18985
#
# Static dielectric constant tensor:
#      x y z
#    x -6.683790 -2.527250 -2.068260 
#    y -2.527250 1.055040 -0.553470 
#    z -2.068260 -0.553470 1.280790 
# 
# From -- ./inp_files/575639.got.cif
#   From: 2010.05.17/outbox.cif.g08.bks.cpg/sg2_288_cif.got.tgz:575639.got - 2010.06.03 11:33:40.
