data_PCOD9045886
_publ_section_title
;
Structure prediction by ZEFSAII (Michael W. Deem and Ramdas Pophale) SiO2 
 PCOD9045886
Probable space group: P -1
;
_chemical_formula_sum "Si O2"
_cell_formula_units_Z 14
_cell_length_a 12.472365
_cell_length_b 13.173811
_cell_length_c 7.142045
_cell_angle_alpha 103.342271
_cell_angle_beta 87.102080
_cell_angle_gamma 148.827441
_cell_volume 565.332661
_symmetry_space_group_name_H-M "P -1"
_symmetry_group_IT_number 2
_symmetry_cell_setting 'triclinic'
loop_
_space_group_symop_operation_xyz
x,y,z
-x,-y,-z
loop_
_atom_site_type_symbol
_atom_site_label
_atom_site_fract_x
_atom_site_fract_y
_atom_site_fract_z
Si Si1 0.362263 0.295273 0.660479
Si Si2 0.924154 0.054354 0.189634
Si Si3 0.063255 0.669970 0.133019
Si Si4 0.693544 0.399707 0.804352
Si Si5 0.021150 0.662842 0.577144
Si Si6 0.340069 0.275916 0.213588
Si Si7 0.514984 0.992308 0.274065
O O1 0.147370 0.085845 0.700924
O O2 0.534760 0.359329 0.756439
O O3 0.353074 0.265728 0.427874
O O4 0.439547 0.479596 0.758907
O O5 0.943201 0.184352 0.327225
O O6 0.745951 0.891486 0.973147
O O7 0.155830 0.208498 0.168798
O O8 0.020025 0.643553 0.347165
O O9 0.320973 0.898794 0.168582
O O10 0.000000 0.500000 0.000000
O O11 0.897917 0.601657 0.002643
O O12 0.561925 0.192758 0.818285
O O13 0.806128 0.455675 0.624591
O O14 0.232367 0.784719 0.699735
O O15 0.500000 0.000000 0.500000
#
# Coordination Sequence:
#
# PCOD9045886 Si02
#       7
#     2   2   2   2   2   2   2
#     4  11  22  42  63  90 126 166 201 257 305 360
#     4  11  22  42  63  92 123 165 205 255 304 363
#     4   9  22  41  62  89 122 159 204 254 305 365
#     4  11  22  40  63  92 123 163 204 251 307 368
#     4  11  22  40  65  91 124 161 207 255 302 369
#     4  10  24  42  62  94 125 160 214 246 308 367
#     4   9  20  41  60  87 121 154 204 253 299 363
#
# _framework density 24.764181000000001
#
# number of rings (size 3 to 8) (size 9 to 14) (size 15 to 20)
#    0.000    1.714    2.857    0.857    0.000    8.000 
#    2.571    0.000    0.000    0.000    0.000    0.000 
#    0.000    0.000    0.000    0.000    0.000    0.000 
#
# Total GULP energy -78334.014208 kJ/mol
# GULP energy per Si atom -5595.286729 kJ/mol
# Density = 2.470782 g / cm^3
# Si number density = 24.764181 Si / 1000 Ang^3
#
#
#
# Elastic Constant Matrix: (Units=GPa)
#
#
# Indices 1 2 3 4 5 6 
#
# 1 62.3678 2.7788 35.1107 13.9207 -0.4064 10.8525
# 2 2.7788 67.5405 -5.6542 -6.4448 -16.4482 -10.9667
# 3 35.1107 -5.6542 146.1155 12.2615 -3.7844 -14.4827
# 4 13.9207 -6.4448 12.2615 29.8236 1.4014 -6.3730
# 5 -0.4064 -16.4482 -3.7844 1.4014 44.0756 5.2432
# 6 10.8525 -10.9667 -14.4827 -6.3730 5.2432 34.2861
#
#
#
# Elastic Compliance Matrix: (Units=1/GPa)
#
#
# Indices 1 2 3 4 5 6 
#
# 1 0.025821 -0.005455 -0.006786 -0.013708 -0.000123 -0.015314
# 2 -0.005455 0.018873 0.002500 0.007304 0.005871 0.009279
# 3 -0.006786 0.002500 0.009165 0.001390 0.000785 0.006957
# 4 -0.013708 0.007304 0.001390 0.044290 -0.000543 0.015578
# 5 -0.000123 0.005871 0.000785 -0.000543 0.025165 -0.001701
# 6 -0.015314 0.009279 0.006957 0.015578 -0.001701 0.043076
#
#
# Mechanical properties :
#
#
# Convention : Reuss Voigt Hill
#
# Bulk Modulus (GPa) = 29.09001 37.83272 33.46137
# Shear Modulus (GPa) = 25.33812 37.88962 31.61387
#
# Velocity S-wave (km/s) = 3.20218 3.91579 3.57683
# Velocity P-wave (km/s) = 5.04423 5.97954 5.53169
#
# Compressibility (1/GPa) = 0.03437606
#
# Stress axis : x y z
#
# Youngs Moduli (GPa) = 38.72825 52.98551 109.11443
#
# Poissons Ratio (x) = 0.28903 0.74050
# Poissons Ratio (y) = 0.21126 -0.27278
# Poissons Ratio (z) = 0.26283 -0.13246
#
# Static dielectric constant tensor:
#      x y z
#    x 1.972410 0.011080 0.007510 
#    y 0.011080 1.990410 0.013360 
#    z 0.007510 0.013360 1.967030 
# 
# From -- ./inp_files/98232.got.cif
#   From: 2010.05.17/outbox.cif.g08.bks.cpg/sg2_50_cif.got.tgz:98232.got - 2010.06.03 11:33:40.
