data_PCOD9045243
_publ_section_title
;
Structure prediction by ZEFSAII (Michael W. Deem and Ramdas Pophale) SiO2 
 PCOD9045243
Probable space group: P -1
;
_chemical_formula_sum "Si O2"
_cell_formula_units_Z 14
_cell_length_a 21.898835
_cell_length_b 13.071323
_cell_length_c 21.292822
_cell_angle_alpha 151.166098
_cell_angle_beta 167.040327
_cell_angle_gamma 29.326984
_cell_volume 649.887377
_symmetry_space_group_name_H-M "P -1"
_symmetry_group_IT_number 2
_symmetry_cell_setting 'triclinic'
loop_
_space_group_symop_operation_xyz
x,y,z
-x,-y,-z
loop_
_atom_site_type_symbol
_atom_site_label
_atom_site_fract_x
_atom_site_fract_y
_atom_site_fract_z
Si Si1 0.244392 0.914835 0.508191
Si Si2 0.574167 0.310892 0.554529
Si Si3 0.383828 0.272117 0.923653
Si Si4 0.980567 0.432291 0.822464
Si Si5 0.969121 0.888200 0.724375
Si Si6 0.105661 0.757486 0.497674
Si Si7 0.475922 0.381005 0.846102
O O1 0.412915 0.748639 0.538284
O O2 0.075269 0.777848 0.308810
O O3 0.417025 0.055624 0.798702
O O4 0.058788 0.076604 0.360315
O O5 0.258802 0.372778 0.291385
O O6 0.775663 0.101660 0.671873
O O7 0.727180 0.506428 0.833369
O O8 0.074337 0.298906 0.654287
O O9 0.583079 0.253243 0.173163
O O10 0.456774 0.463859 0.057700
O O11 0.938761 0.390998 0.685304
O O12 0.820696 0.691290 0.490615
O O13 0.287516 0.831620 0.030623
O O14 0.000000 0.000000 0.500000
O O15 0.500000 0.500000 0.000000
#
# Coordination Sequence:
#
# PCOD9045243 Si02
#       7
#     2   2   2   2   2   2   2
#     4  10  24  38  68 101 135 162 210 271 331 383
#     4  10  24  40  65  98 131 168 214 264 328 374
#     4  12  26  42  67  97 135 164 220 262 324 391
#     4  12  23  42  66  90 138 171 217 255 315 397
#     4  10  24  38  63  99 130 162 209 261 336 376
#     4  12  27  44  65  93 133 182 209 260 315 382
#     4  12  22  40  66  95 131 169 206 272 331 375
#
# _framework density 21.542193000000001
#
# number of rings (size 3 to 8) (size 9 to 14) (size 15 to 20)
#    0.857    0.000    2.857    4.286    4.000    2.286 
#    0.000    0.000    0.000   17.143    0.000    0.000 
#    0.000    0.000    0.000    0.000    0.000    0.000 
#
# Total GULP energy -78284.579182 kJ/mol
# GULP energy per Si atom -5591.755656 kJ/mol
# Density = 2.149316 g / cm^3
# Si number density = 21.542193 Si / 1000 Ang^3
#
#
#
# Elastic Constant Matrix: (Units=GPa)
#
#
# Indices 1 2 3 4 5 6 
#
# 1 77.2019 16.3079 -2.7591 15.3605 -1.3911 -4.9634
# 2 16.3079 54.5715 -0.8050 12.8427 1.5408 13.6067
# 3 -2.7591 -0.8050 72.4801 3.7351 -1.4340 -4.5962
# 4 15.3605 12.8427 3.7351 34.0463 -2.5920 -1.2898
# 5 -1.3911 1.5408 -1.4340 -2.5920 32.5816 9.0048
# 6 -4.9634 13.6067 -4.5962 -1.2898 9.0048 31.3672
#
#
#
# Elastic Compliance Matrix: (Units=1/GPa)
#
#
# Indices 1 2 3 4 5 6 
#
# 1 0.015234 -0.004404 0.001069 -0.005216 -0.000747 0.004478
# 2 -0.004404 0.024363 -0.000243 -0.007527 0.001368 -0.012003
# 3 0.001069 -0.000243 0.014074 -0.001856 -0.000104 0.002290
# 4 -0.005216 -0.007527 -0.001856 0.035035 0.002000 0.003034
# 5 -0.000747 0.001368 -0.000104 0.002000 0.033594 -0.010288
# 6 0.004478 -0.012003 0.002290 0.003034 -0.010288 0.041210
#
#
# Mechanical properties :
#
#
# Convention : Reuss Voigt Hill
#
# Bulk Modulus (GPa) = 21.49954 25.52677 23.51316
# Shear Modulus (GPa) = 26.85711 32.36633 29.61172
#
# Velocity S-wave (km/s) = 3.53472 3.88037 3.71157
# Velocity P-wave (km/s) = 5.16342 5.65258 5.41353
#
# Compressibility (1/GPa) = 0.04651263
#
# Stress axis : x y z
#
# Youngs Moduli (GPa) = 65.64311 41.04636 71.05459
#
# Poissons Ratio (x) = 0.18079 -0.07595
# Poissons Ratio (y) = 0.28912 0.01729
# Poissons Ratio (z) = -0.07017 0.00999
#
# Static dielectric constant tensor:
#      x y z
#    x 1.758470 -0.000230 0.005410 
#    y -0.000230 1.834630 -0.008670 
#    z 0.005410 -0.008670 1.725890 
# 
# From -- ./inp_files/583368.got.cif
#   From: 2010.05.17/outbox.cif.g08.bks.cpg/sg2_292_cif.got.tgz:583368.got - 2010.06.03 11:33:40.
