data_PCOD9045586
_publ_section_title
;
Structure prediction by ZEFSAII (Michael W. Deem and Ramdas Pophale) SiO2 
 PCOD9045586
Probable space group: P -1
;
_chemical_formula_sum "Si O2"
_cell_formula_units_Z 13
_cell_length_a 8.652563
_cell_length_b 8.196839
_cell_length_c 12.400813
_cell_angle_alpha 127.054957
_cell_angle_beta 65.919712
_cell_angle_gamma 127.755900
_cell_volume 553.877194
_symmetry_space_group_name_H-M "P -1"
_symmetry_group_IT_number 2
_symmetry_cell_setting 'triclinic'
loop_
_space_group_symop_operation_xyz
x,y,z
-x,-y,-z
loop_
_atom_site_type_symbol
_atom_site_label
_atom_site_fract_x
_atom_site_fract_y
_atom_site_fract_z
Si Si1 0.456710 0.943918 0.614921
Si Si2 0.923755 0.143389 0.898077
Si Si3 0.636546 0.269349 0.104117
Si Si4 0.625704 0.650251 0.122980
Si Si5 0.132456 0.636119 0.720145
Si Si6 0.122102 0.905121 0.362975
Si Si7 0.000000 0.000000 0.000000
O O1 0.429363 0.153750 0.755860
O O2 0.648576 0.955934 0.617372
O O3 0.500000 0.000000 0.500000
O O4 0.244688 0.711193 0.604059
O O5 0.140006 0.225680 0.922966
O O6 0.911673 0.088242 0.753870
O O7 0.837587 0.314410 0.009224
O O8 0.821044 0.934938 0.931544
O O9 0.598905 0.473785 0.156400
O O10 0.683265 0.299745 0.228028
O O11 0.500000 0.000000 0.000000
O O12 0.500000 0.500000 0.000000
O O13 0.970752 0.366634 0.680676
O O14 0.050016 0.801946 0.848795
O O15 0.000000 0.000000 0.500000
#
# Coordination Sequence:
#
# PCOD9045586 Si02
#       7
#     2   2   2   2   2   2   1
#     4  12  29  51  73 108 155 198 258 317 381 460
#     4  11  23  45  69 104 150 187 246 311 377 440
#     4  11  24  41  71 109 144 192 243 310 382 449
#     4  12  24  42  72 105 146 189 245 314 375 437
#     4  11  25  47  76 110 146 194 254 303 389 444
#     4  12  28  50  76 104 152 211 252 309 381 461
#     4  10  24  40  78 108 146 186 242 320 370 446
#
# _framework density 23.470905999999999
#
# number of rings (size 3 to 8) (size 9 to 14) (size 15 to 20)
#    0.000    0.615    3.077    4.154    8.615    1.231 
#    2.769    0.000    0.000    0.000    0.000    0.000 
#    0.000    0.000    0.000    0.000    0.000    0.000 
#
# Total GULP energy -72469.807695 kJ/mol
# GULP energy per Si atom -5574.600592 kJ/mol
# Density = 2.341748 g / cm^3
# Si number density = 23.470906 Si / 1000 Ang^3
#
#
#
# Elastic Constant Matrix: (Units=GPa)
#
#
# Indices 1 2 3 4 5 6 
#
# 1 121.5201 11.4258 21.8040 -8.3024 -17.9848 2.7019
# 2 11.4258 91.8128 5.0305 -6.5313 -11.3933 4.4452
# 3 21.8040 5.0305 101.4611 -32.2577 -12.5195 3.1118
# 4 -8.3024 -6.5313 -32.2577 37.4982 -8.0687 -0.9482
# 5 -17.9848 -11.3933 -12.5195 -8.0687 43.1321 -0.9774
# 6 2.7019 4.4452 3.1118 -0.9482 -0.9774 42.2223
#
#
#
# Elastic Compliance Matrix: (Units=1/GPa)
#
#
# Indices 1 2 3 4 5 6 
#
# 1 0.009132 -0.000452 -0.000796 0.002075 0.003838 -0.000343
# 2 -0.000452 0.011699 0.001265 0.003850 0.003963 -0.001118
# 3 -0.000796 0.001265 0.015704 0.015121 0.007372 -0.000729
# 4 0.002075 0.003850 0.015121 0.043913 0.014479 -0.000331
# 5 0.003838 0.003963 0.007372 0.014479 0.030676 -0.000171
# 6 -0.000343 -0.001118 -0.000729 -0.000331 -0.000171 0.023866
#
#
# Mechanical properties :
#
#
# Convention : Reuss Voigt Hill
#
# Bulk Modulus (GPa) = 27.34757 43.47937 35.41347
# Shear Modulus (GPa) = 33.97970 43.00610 38.49290
#
# Velocity S-wave (km/s) = 3.80904 4.28520 4.05412
# Velocity P-wave (km/s) = 5.56974 6.56117 6.08568
#
# Compressibility (1/GPa) = 0.03656631
#
# Stress axis : x y z
#
# Youngs Moduli (GPa) = 109.50693 85.48070 63.67808
#
# Poissons Ratio (x) = 0.03867 0.05070
# Poissons Ratio (y) = 0.04954 -0.08052
# Poissons Ratio (z) = 0.08719 -0.10809
#
# Static dielectric constant tensor:
#      x y z
#    x 1.789830 0.899960 -0.268070 
#    y 0.899960 -4.406590 1.935130 
#    z -0.268070 1.935130 1.164390 
# 
# From -- ./inp_files/380527.got.cif
#   From: 2010.05.17/outbox.cif.g08.bks.cpg/sg2_191_cif.got.tgz:380527.got - 2010.06.03 11:33:40.
