data_PCOD9045873
_publ_section_title
;
Structure prediction by ZEFSAII (Michael W. Deem and Ramdas Pophale) SiO2 
 PCOD9045873
Probable space group: P -1
;
_chemical_formula_sum "Si O2"
_cell_formula_units_Z 14
_cell_length_a 17.052286
_cell_length_b 16.291579
_cell_length_c 16.123631
_cell_angle_alpha 26.191560
_cell_angle_beta 24.280083
_cell_angle_gamma 23.153656
_cell_volume 673.929526
_symmetry_space_group_name_H-M "P -1"
_symmetry_group_IT_number 2
_symmetry_cell_setting 'triclinic'
loop_
_space_group_symop_operation_xyz
x,y,z
-x,-y,-z
loop_
_atom_site_type_symbol
_atom_site_label
_atom_site_fract_x
_atom_site_fract_y
_atom_site_fract_z
Si Si1 0.753821 0.906499 0.813520
Si Si2 0.849832 0.876480 0.039884
Si Si3 0.869459 0.305763 0.895235
Si Si4 0.026655 0.579727 0.719406
Si Si5 0.708194 0.990298 0.354432
Si Si6 0.659645 0.777146 0.745319
Si Si7 0.999612 0.994875 0.372778
O O1 0.772200 0.044149 0.594305
O O2 0.893704 0.657276 0.865276
O O3 0.881105 0.930519 0.746139
O O4 0.500000 0.000000 0.000000
O O5 0.963995 0.806808 0.083124
O O6 0.825372 0.682032 0.202769
O O7 0.599411 0.102032 0.083185
O O8 0.010689 0.902579 0.798310
O O9 0.728145 0.569491 0.807480
O O10 0.043030 0.214348 0.733295
O O11 0.712160 0.207775 0.134611
O O12 0.834541 0.682890 0.738625
O O13 0.139871 0.722792 0.476629
O O14 0.681949 0.950705 0.511545
O O15 0.500000 0.000000 0.500000
#
# Coordination Sequence:
#
# PCOD9045873 Si02
#       7
#     2   2   2   2   2   2   2
#     4   9  18  39  62  87 120 156 201 246 298 353
#     4  11  21  39  62  90 122 161 201 240 304 358
#     4  10  24  42  61  91 124 152 207 249 289 364
#     4   9  21  38  59  89 123 154 202 249 287 364
#     4  11  22  43  64  90 119 159 204 245 302 355
#     4  11  22  39  64  88 122 165 194 249 303 346
#     4   9  20  37  61  86 123 157 193 255 294 342
#
# _framework density 20.773686000000001
#
# number of rings (size 3 to 8) (size 9 to 14) (size 15 to 20)
#    0.857    1.143    1.429    2.143    0.000    2.286 
#    2.571    2.143    0.000    0.000    0.000    0.000 
#    0.000    0.000    0.000    0.000    0.000    0.000 
#
# Total GULP energy -78077.525761 kJ/mol
# GULP energy per Si atom -5576.966126 kJ/mol
# Density = 2.072640 g / cm^3
# Si number density = 20.773686 Si / 1000 Ang^3
#
#
#
# Elastic Constant Matrix: (Units=GPa)
#
#
# Indices 1 2 3 4 5 6 
#
# 1 37.2578 12.0224 16.4305 5.5655 -6.3450 12.7121
# 2 12.0224 48.5833 14.6060 -0.0331 -11.5181 7.5090
# 3 16.4305 14.6060 83.8880 13.4537 -6.5071 3.2666
# 4 5.5655 -0.0331 13.4537 25.7815 6.8694 -4.9670
# 5 -6.3450 -11.5181 -6.5071 6.8694 35.0816 -7.9771
# 6 12.7121 7.5090 3.2666 -4.9670 -7.9771 22.2453
#
#
#
# Elastic Compliance Matrix: (Units=1/GPa)
#
#
# Indices 1 2 3 4 5 6 
#
# 1 0.039847 -0.004683 -0.004150 -0.011292 0.002023 -0.022377
# 2 -0.004683 0.024451 -0.002826 0.000372 0.005911 -0.002960
# 3 -0.004150 -0.002826 0.014578 -0.007307 0.002564 0.000473
# 4 -0.011292 0.000372 -0.007307 0.050557 -0.009718 0.015204
# 5 0.002023 0.005911 0.002564 -0.009718 0.034726 0.006755
# 6 -0.022377 -0.002960 0.000473 0.015204 0.006755 0.064488
#
#
# Mechanical properties :
#
#
# Convention : Reuss Voigt Hill
#
# Bulk Modulus (GPa) = 17.99894 28.42743 23.21319
# Shear Modulus (GPa) = 18.48544 25.06635 21.77589
#
# Velocity S-wave (km/s) = 2.98627 3.47744 3.24117
# Velocity P-wave (km/s) = 4.53580 5.46237 5.02051
#
# Compressibility (1/GPa) = 0.05555883
#
# Stress axis : x y z
#
# Youngs Moduli (GPa) = 25.09586 40.89879 68.59708
#
# Poissons Ratio (x) = 0.19151 0.28468
# Poissons Ratio (y) = 0.11751 0.19385
# Poissons Ratio (z) = 0.10415 0.11558
#
# Static dielectric constant tensor:
#      x y z
#    x 1.742490 0.020740 -0.000090 
#    y 0.020740 1.755740 -0.032560 
#    z -0.000090 -0.032560 1.742100 
# 
# From -- ./inp_files/578390.got.cif
#   From: 2010.05.17/outbox.cif.g08.bks.cpg/sg2_290_cif.got.tgz:578390.got - 2010.06.03 11:33:40.
