data_PCOD9045670
_publ_section_title
;
Structure prediction by ZEFSAII (Michael W. Deem and Ramdas Pophale) SiO2 
 PCOD9045670
Probable space group: P -1
;
_chemical_formula_sum "Si O2"
_cell_formula_units_Z 14
_cell_length_a 12.100720
_cell_length_b 5.273255
_cell_length_c 9.590910
_cell_angle_alpha 80.406078
_cell_angle_beta 83.790175
_cell_angle_gamma 107.202006
_cell_volume 568.333398
_symmetry_space_group_name_H-M "P -1"
_symmetry_group_IT_number 2
_symmetry_cell_setting 'triclinic'
loop_
_space_group_symop_operation_xyz
x,y,z
-x,-y,-z
loop_
_atom_site_type_symbol
_atom_site_label
_atom_site_fract_x
_atom_site_fract_y
_atom_site_fract_z
Si Si1 0.847027 0.448123 0.413148
Si Si2 0.162507 0.020632 0.691106
Si Si3 0.448354 0.188135 0.889752
Si Si4 0.076890 0.801579 0.004237
Si Si5 0.660580 0.709635 0.838588
Si Si6 0.788734 0.308975 0.744512
Si Si7 0.614871 0.042485 0.386193
O O1 0.897120 0.751687 0.329023
O O2 0.842727 0.421165 0.579994
O O3 0.713715 0.333143 0.376259
O O4 0.908354 0.245773 0.359033
O O5 0.168854 0.919087 0.855509
O O6 0.290993 0.123800 0.588906
O O7 0.539482 0.489363 0.824045
O O8 0.420659 0.032156 0.761926
O O9 0.352416 0.253175 0.996796
O O10 0.500000 0.000000 0.000000
O O11 0.135382 0.783285 0.144075
O O12 0.000000 0.500000 0.000000
O O13 0.000000 0.000000 0.000000
O O14 0.748336 0.545094 0.800671
O O15 0.690965 0.015190 0.748263
O O16 0.500000 0.000000 0.500000
#
# Coordination Sequence:
#
# PCOD9045670 Si02
#       7
#     2   2   2   2   2   2   2
#     4  10  24  44  70 102 146 194 229 283 357 423
#     4  10  24  46  69 102 146 182 239 289 360 415
#     4  11  23  39  62 102 143 194 249 293 332 412
#     4  12  27  49  78 109 134 179 240 307 372 432
#     4  11  24  39  66  98 144 189 243 286 351 399
#     4  12  24  46  73 101 140 187 234 296 363 436
#     4  10  24  41  66 100 148 194 237 279 339 416
#
# _framework density 24.633427999999999
#
# number of rings (size 3 to 8) (size 9 to 14) (size 15 to 20)
#    0.857    0.286    1.429    4.286    0.000    5.143 
#    0.000    4.286    0.000    0.000    0.000    0.000 
#    0.000    0.000    0.000    0.000    0.000    0.000 
#
# Total GULP energy -78175.810791 kJ/mol
# GULP energy per Si atom -5583.986485 kJ/mol
# Density = 2.457736 g / cm^3
# Si number density = 24.633428 Si / 1000 Ang^3
#
#
#
# Elastic Constant Matrix: (Units=GPa)
#
#
# Indices 1 2 3 4 5 6 
#
# 1 47.2526 37.4950 37.4826 20.3821 -6.2051 0.7782
# 2 37.4950 179.4645 53.5895 11.1204 6.7134 -23.2621
# 3 37.4826 53.5895 165.0898 31.7339 8.2700 5.4950
# 4 20.3821 11.1204 31.7339 45.0152 0.4854 -7.1341
# 5 -6.2051 6.7134 8.2700 0.4854 33.1972 2.4612
# 6 0.7782 -23.2621 5.4950 -7.1341 2.4612 30.9011
#
#
#
# Elastic Compliance Matrix: (Units=1/GPa)
#
#
# Indices 1 2 3 4 5 6 
#
# 1 0.037843 -0.007695 -0.003483 -0.014525 0.010474 -0.010314
# 2 -0.007695 0.008722 -0.001975 0.004077 -0.003387 0.008322
# 3 -0.003483 -0.001975 0.008600 -0.004581 -0.002043 -0.003823
# 4 -0.014525 0.004077 -0.004581 0.032983 -0.003783 0.012166
# 5 0.010474 -0.003387 -0.002043 -0.003783 0.033776 -0.006013
# 6 -0.010314 0.008322 -0.003823 0.012166 -0.006013 0.042854
#
#
# Mechanical properties :
#
#
# Convention : Reuss Voigt Hill
#
# Bulk Modulus (GPa) = 34.65314 72.10457 53.37885
# Shear Modulus (GPa) = 24.91236 39.37200 32.14218
#
# Velocity S-wave (km/s) = 3.18358 4.00223 3.61615
# Velocity P-wave (km/s) = 5.25468 7.11981 6.25713
#
# Compressibility (1/GPa) = 0.02885742
#
# Stress axis : x y z
#
# Youngs Moduli (GPa) = 26.42521 114.64678 116.28368
#
# Poissons Ratio (x) = 0.88219 0.40506
# Poissons Ratio (y) = 0.20334 0.22971
# Poissons Ratio (z) = 0.09205 0.22648
#
# Static dielectric constant tensor:
#      x y z
#    x 2.054180 0.028120 -0.017800 
#    y 0.028120 1.979410 0.007300 
#    z -0.017800 0.007300 1.939920 
# 
# From -- ./inp_files/288629.got.cif
#   From: 2010.05.17/outbox.cif.g08.bks.cpg/sg2_145_cif.got.tgz:288629.got - 2010.06.03 11:33:40.
