data_PCOD9045127
_publ_section_title
;
Structure prediction by ZEFSAII (Michael W. Deem and Ramdas Pophale) SiO2 
 PCOD9045127
Probable space group: P -1
;
_chemical_formula_sum "Si O2"
_cell_formula_units_Z 13
_cell_length_a 15.687339
_cell_length_b 15.612463
_cell_length_c 9.222307
_cell_angle_alpha 47.391047
_cell_angle_beta 44.692799
_cell_angle_gamma 17.779510
_cell_volume 485.075038
_symmetry_space_group_name_H-M "P -1"
_symmetry_group_IT_number 2
_symmetry_cell_setting 'triclinic'
loop_
_space_group_symop_operation_xyz
x,y,z
-x,-y,-z
loop_
_atom_site_type_symbol
_atom_site_label
_atom_site_fract_x
_atom_site_fract_y
_atom_site_fract_z
Si Si1 0.360485 0.716092 0.746388
Si Si2 0.376911 0.865592 0.153391
Si Si3 0.982754 0.396155 0.552163
Si Si4 0.477399 0.864321 0.410095
Si Si5 0.835719 0.002640 0.050740
Si Si6 0.747640 0.362540 0.430759
Si Si7 0.500000 0.000000 0.000000
O O1 0.312283 0.889634 0.545341
O O2 0.665481 0.425320 0.629272
O O3 0.329786 0.768111 0.895930
O O4 0.123570 0.826490 0.865873
O O5 0.661648 0.558067 0.230817
O O6 0.084876 0.052941 0.344811
O O7 0.360251 0.861400 0.004924
O O8 0.362896 0.009853 0.058308
O O9 0.674163 0.665947 0.537241
O O10 0.000000 0.500000 0.500000
O O11 0.053569 0.215529 0.760366
O O12 0.231385 0.176385 0.378725
O O13 0.662941 0.760837 0.180967
O O14 0.500000 0.500000 0.500000
#
# Coordination Sequence:
#
# PCOD9045127 Si02
#       7
#     2   2   2   2   2   2   1
#     4  10  23  49  74 115 153 202 250 324 385 459
#     4  12  28  48  78 115 153 204 262 318 382 464
#     4  11  25  48  72 105 149 196 250 311 373 451
#     4  11  26  45  73 104 147 196 251 309 377 449
#     4  10  24  48  81 115 153 203 258 317 389 462
#     4  12  26  49  78 111 160 201 256 326 388 453
#     4  12  28  50  78 110 154 208 256 310 382 462
#
# _framework density 26.799979
#
# number of rings (size 3 to 8) (size 9 to 14) (size 15 to 20)
#    0.000    0.923    3.077    1.846    2.154    8.000 
#    2.769    0.000    0.000    0.000    0.000    0.000 
#    0.000    0.000    0.000    0.000    0.000    0.000 
#
# Total GULP energy -72508.299250 kJ/mol
# GULP energy per Si atom -5577.561481 kJ/mol
# Density = 2.673898 g / cm^3
# Si number density = 26.799979 Si / 1000 Ang^3
#
#
#
# Elastic Constant Matrix: (Units=GPa)
#
#
# Indices 1 2 3 4 5 6 
#
# 1 174.5615 30.5125 36.2514 -18.8962 -10.5556 -1.3657
# 2 30.5125 115.4527 15.1667 -9.4520 3.8838 -11.7442
# 3 36.2514 15.1667 114.9640 -21.4706 -6.7631 -12.0440
# 4 -18.8962 -9.4520 -21.4706 40.9010 5.7127 0.0129
# 5 -10.5556 3.8838 -6.7631 5.7127 60.5700 -3.0259
# 6 -1.3657 -11.7442 -12.0440 0.0129 -3.0259 36.4890
#
#
#
# Elastic Compliance Matrix: (Units=1/GPa)
#
#
# Indices 1 2 3 4 5 6 
#
# 1 0.006548 -0.001480 -0.001564 0.001741 0.000863 -0.000677
# 2 -0.001480 0.009531 -0.000264 0.001505 -0.000898 0.002850
# 3 -0.001564 -0.000264 0.010481 0.004627 0.000647 0.003368
# 4 0.001741 0.001505 0.004627 0.028288 -0.001849 0.001913
# 5 0.000863 -0.000898 0.000647 -0.001849 0.017033 0.001370
# 6 -0.000677 0.002850 0.003368 0.001913 0.001370 0.029522
#
#
# Mechanical properties :
#
#
# Convention : Reuss Voigt Hill
#
# Bulk Modulus (GPa) = 50.14249 63.20439 56.67344
# Shear Modulus (GPa) = 43.60438 49.12850 46.36644
#
# Velocity S-wave (km/s) = 4.03802 4.28618 4.16395
# Velocity P-wave (km/s) = 6.36328 6.93758 6.65663
#
# Compressibility (1/GPa) = 0.01994317
#
# Stress axis : x y z
#
# Youngs Moduli (GPa) = 152.72659 104.92372 95.40638
#
# Poissons Ratio (x) = 0.15531 0.14924
# Poissons Ratio (y) = 0.22608 0.02517
# Poissons Ratio (z) = 0.23890 0.02768
#
# Static dielectric constant tensor:
#      x y z
#    x 2.102520 0.060020 0.080280 
#    y 0.060020 2.012920 0.095370 
#    z 0.080280 0.095370 2.323540 
# 
# From -- ./inp_files/314568.got.cif
#   From: 2010.05.17/outbox.cif.g08.bks.cpg/sg2_158_cif.got.tgz:314568.got - 2010.06.03 11:33:40.
