data_PCOD9045515
_publ_section_title
;
Structure prediction by ZEFSAII (Michael W. Deem and Ramdas Pophale) SiO2 
 PCOD9045515
Probable space group: P -1
;
_chemical_formula_sum "Si O2"
_cell_formula_units_Z 12
_cell_length_a 12.023421
_cell_length_b 9.327923
_cell_length_c 7.623680
_cell_angle_alpha 30.481388
_cell_angle_beta 96.076761
_cell_angle_gamma 101.955697
_cell_volume 419.735999
_symmetry_space_group_name_H-M "P -1"
_symmetry_group_IT_number 2
_symmetry_cell_setting 'triclinic'
loop_
_space_group_symop_operation_xyz
x,y,z
-x,-y,-z
loop_
_atom_site_type_symbol
_atom_site_label
_atom_site_fract_x
_atom_site_fract_y
_atom_site_fract_z
Si Si1 0.500000 0.000000 0.000000
Si Si2 0.873924 0.303883 0.721382
Si Si3 0.169520 0.268278 0.468963
Si Si4 0.404437 0.376786 0.449346
Si Si5 0.397505 0.592746 0.774935
Si Si6 0.234044 0.988239 0.345790
Si Si7 0.000000 0.000000 0.500000
O O1 0.442915 0.702826 0.170293
O O2 0.624539 0.883155 0.143155
O O3 0.809982 0.513934 0.593674
O O4 0.821163 0.170867 0.671765
O O5 0.000000 0.500000 0.500000
O O6 0.883902 0.052086 0.126088
O O7 0.297963 0.315270 0.366141
O O8 0.068742 0.303346 0.290385
O O9 0.522174 0.265641 0.529040
O O10 0.332952 0.824669 0.596395
O O11 0.500000 0.500000 0.000000
O O12 0.302326 0.319979 0.982947
O O13 0.126620 0.977423 0.466473
#
# Coordination Sequence:
#
# PCOD9045515 Si02
#       7
#     1   2   2   2   2   2   1
#     4  10  24  40  70 104 148 190 242 298 370 440
#     4  12  27  51  74 120 148 205 258 328 383 457
#     4  12  28  47  82 109 162 194 262 319 396 457
#     4  11  25  45  71 113 148 195 245 311 374 469
#     4  12  28  50  78 114 158 205 253 316 389 472
#     4  12  29  49  84 111 158 206 264 321 392 461
#     4  12  30  54  76 118 150 214 262 326 394 468
#
# _framework density 28.589397999999999
#
# number of rings (size 3 to 8) (size 9 to 14) (size 15 to 20)
#    0.000    0.333    1.667    5.000   16.333    5.333 
#    0.000    0.000    0.000    0.000    0.000    0.000 
#    0.000    0.000    0.000    0.000    0.000    0.000 
#
# Total GULP energy -66879.060452 kJ/mol
# GULP energy per Si atom -5573.255038 kJ/mol
# Density = 2.852433 g / cm^3
# Si number density = 28.589398 Si / 1000 Ang^3
#
#
#
# Elastic Constant Matrix: (Units=GPa)
#
#
# Indices 1 2 3 4 5 6 
#
# 1 240.2678 61.9817 67.5233 -14.7083 -26.8831 -10.9602
# 2 61.9817 125.9826 51.1619 -18.8515 -12.4683 5.0861
# 3 67.5233 51.1619 198.0648 -36.8342 5.7974 -6.3449
# 4 -14.7083 -18.8515 -36.8342 49.5542 6.9446 -9.2691
# 5 -26.8831 -12.4683 5.7974 6.9446 44.6331 -8.2683
# 6 -10.9602 5.0861 -6.3449 -9.2691 -8.2683 57.9604
#
#
#
# Elastic Compliance Matrix: (Units=1/GPa)
#
#
# Indices 1 2 3 4 5 6 
#
# 1 0.005481 -0.001875 -0.001509 -0.000401 0.003303 0.001443
# 2 -0.001875 0.009977 -0.001718 0.001579 0.001458 -0.000958
# 3 -0.001509 -0.001718 0.006991 0.004676 -0.002844 0.000973
# 4 -0.000401 0.001579 0.004676 0.025365 -0.003644 0.003834
# 5 0.003303 0.001458 -0.002844 -0.003644 0.026361 0.003363
# 6 0.001443 -0.000958 0.000973 0.003834 0.003363 0.018809
#
#
# Mechanical properties :
#
#
# Convention : Reuss Voigt Hill
#
# Bulk Modulus (GPa) = 81.66745 102.84990 92.25867
# Shear Modulus (GPa) = 46.61192 56.00609 51.30900
#
# Velocity S-wave (km/s) = 4.04219 4.43084 4.24097
# Velocity P-wave (km/s) = 7.10024 7.88856 7.50476
#
# Compressibility (1/GPa) = 0.01224478
#
# Stress axis : x y z
#
# Youngs Moduli (GPa) = 182.46011 100.23314 143.04098
#
# Poissons Ratio (x) = 0.18793 0.21588
# Poissons Ratio (y) = 0.34209 0.24569
# Poissons Ratio (z) = 0.27538 0.17217
#
# Static dielectric constant tensor:
#      x y z
#    x 2.326970 0.108740 -0.035250 
#    y 0.108740 2.575840 0.435830 
#    z -0.035250 0.435830 2.373840 
# 
# From -- ./inp_files/236401.got.cif
#   From: 2010.05.17/outbox.cif.g08.bks.cpg/sg2_119_cif.got.tgz:236401.got - 2010.06.03 11:33:40.
