data_PCOD9045450
_publ_section_title
;
Structure prediction by ZEFSAII (Michael W. Deem and Ramdas Pophale) SiO2 
 PCOD9045450
Probable space group: P -1
;
_chemical_formula_sum "Si O2"
_cell_formula_units_Z 14
_cell_length_a 5.182567
_cell_length_b 9.042712
_cell_length_c 15.001041
_cell_angle_alpha 79.550476
_cell_angle_beta 87.394436
_cell_angle_gamma 61.314163
_cell_volume 605.797054
_symmetry_space_group_name_H-M "P -1"
_symmetry_group_IT_number 2
_symmetry_cell_setting 'triclinic'
loop_
_space_group_symop_operation_xyz
x,y,z
-x,-y,-z
loop_
_atom_site_type_symbol
_atom_site_label
_atom_site_fract_x
_atom_site_fract_y
_atom_site_fract_z
Si Si1 0.665221 0.927552 0.600697
Si Si2 0.409185 0.653041 0.051995
Si Si3 0.527953 0.989294 0.794306
Si Si4 0.863666 0.215861 0.783983
Si Si5 0.872363 0.431849 0.431968
Si Si6 0.769476 0.823942 0.980440
Si Si7 0.702250 0.257380 0.600990
O O1 0.880219 0.724803 0.609708
O O2 0.500000 0.000000 0.500000
O O3 0.503923 0.947133 0.695889
O O4 0.789604 0.061093 0.602615
O O5 0.320786 0.640440 0.156305
O O6 0.500000 0.500000 0.000000
O O7 0.683320 0.690214 0.040826
O O8 0.091804 0.795933 0.001658
O O9 0.692898 0.104309 0.788179
O O10 0.195494 0.095925 0.822551
O O11 0.715981 0.830102 0.873943
O O12 0.890307 0.271793 0.677324
O O13 0.727288 0.332624 0.498344
O O14 0.624670 0.606933 0.374145
O O15 0.000000 0.500000 0.500000
O O16 0.500000 0.000000 0.000000
#
# Coordination Sequence:
#
# PCOD9045450 Si02
#       7
#     2   2   2   2   2   2   2
#     4  11  22  42  67  95 130 174 225 271 331 403
#     4  12  25  42  67 101 139 175 216 279 346 396
#     4  11  24  40  70  99 123 177 229 270 326 397
#     4  11  22  43  65  97 132 173 219 270 337 398
#     4  11  22  42  62  94 130 171 219 274 336 388
#     4  12  22  44  70  94 133 176 225 275 325 406
#     4  10  24  40  67  91 131 179 217 276 336 397
#
# _framework density 23.110050000000001
#
# number of rings (size 3 to 8) (size 9 to 14) (size 15 to 20)
#    0.000    0.857    4.286    3.000    2.000    2.286 
#    2.571    0.000    0.000    0.000    0.000    0.000 
#    0.000    0.000    0.000    0.000    0.000    0.000 
#
# Total GULP energy -78036.947445 kJ/mol
# GULP energy per Si atom -5574.067675 kJ/mol
# Density = 2.305745 g / cm^3
# Si number density = 23.110050 Si / 1000 Ang^3
#
#
#
# Elastic Constant Matrix: (Units=GPa)
#
#
# Indices 1 2 3 4 5 6 
#
# 1 80.0731 18.8249 4.7125 4.4939 4.2810 -8.8567
# 2 18.8249 93.6363 -8.1716 38.3633 -6.1391 -8.4942
# 3 4.7125 -8.1716 105.6219 23.8507 2.7207 -11.5198
# 4 4.4939 38.3633 23.8507 42.2205 -8.4079 2.0290
# 5 4.2810 -6.1391 2.7207 -8.4079 36.2789 -3.4991
# 6 -8.8567 -8.4942 -11.5198 2.0290 -3.4991 31.5024
#
#
#
# Elastic Compliance Matrix: (Units=1/GPa)
#
#
# Indices 1 2 3 4 5 6 
#
# 1 0.013588 -0.003507 -0.001034 0.001928 -0.001459 0.002210
# 2 -0.003507 0.024810 0.009755 -0.028540 -0.001680 0.010923
# 3 -0.001034 0.009755 0.015485 -0.018489 -0.002817 0.008880
# 4 0.001928 -0.028540 -0.018489 0.062500 0.009182 -0.016920
# 5 -0.001459 -0.001680 -0.002817 0.009182 0.029872 0.000833
# 6 0.002210 0.010923 0.008880 -0.016920 0.000833 0.039740
#
#
# Mechanical properties :
#
#
# Convention : Reuss Voigt Hill
#
# Bulk Modulus (GPa) = 15.54953 34.45145 25.00049
# Shear Modulus (GPa) = 25.38031 39.59804 32.48917
#
# Velocity S-wave (km/s) = 3.31756 4.14388 3.75353
# Velocity P-wave (km/s) = 4.62796 6.15106 5.44305
#
# Compressibility (1/GPa) = 0.06431061
#
# Stress axis : x y z
#
# Youngs Moduli (GPa) = 73.59301 40.30652 64.57955
#
# Poissons Ratio (x) = 0.14136 0.06679
# Poissons Ratio (y) = 0.25810 -0.62999
# Poissons Ratio (z) = 0.07612 -0.39320
#
# Static dielectric constant tensor:
#      x y z
#    x 1.981790 -0.002040 -0.034420 
#    y -0.002040 1.939850 -0.099480 
#    z -0.034420 -0.099480 2.015010 
# 
# From -- ./inp_files/105813.got.cif
#   From: 2010.05.17/outbox.cif.g08.bks.cpg/sg2_53_cif.got.tgz:105813.got - 2010.06.03 11:33:40.
