data_PCOD9045360
_publ_section_title
;
Structure prediction by ZEFSAII (Michael W. Deem and Ramdas Pophale) SiO2 
 PCOD9045360
Probable space group: P -1
;
_chemical_formula_sum "Si O2"
_cell_formula_units_Z 16
_cell_length_a 20.424865
_cell_length_b 13.303617
_cell_length_c 8.661010
_cell_angle_alpha 59.247303
_cell_angle_beta 145.976675
_cell_angle_gamma 144.194365
_cell_volume 670.978297
_symmetry_space_group_name_H-M "P -1"
_symmetry_group_IT_number 2
_symmetry_cell_setting 'triclinic'
loop_
_space_group_symop_operation_xyz
x,y,z
-x,-y,-z
loop_
_atom_site_type_symbol
_atom_site_label
_atom_site_fract_x
_atom_site_fract_y
_atom_site_fract_z
Si Si1 0.394188 0.446801 0.174410
Si Si2 0.385072 0.902325 0.602831
Si Si3 0.051459 0.018840 0.762753
Si Si4 0.274342 0.996561 0.068742
Si Si5 0.154306 0.738902 0.779422
Si Si6 0.610916 0.361505 0.223192
Si Si7 0.733696 0.607046 0.548069
Si Si8 0.993444 0.638479 0.218630
O O1 0.500000 0.500000 0.500000
O O2 0.511824 0.459955 0.272265
O O3 0.173046 0.219828 0.919296
O O4 0.409356 0.588602 0.019430
O O5 0.390345 0.990618 0.394721
O O6 0.315346 0.712232 0.589018
O O7 0.215669 0.821007 0.442643
O O8 0.613823 0.075502 0.964096
O O9 0.000000 0.000000 0.500000
O O10 0.852696 0.823704 0.612445
O O11 0.178138 0.002120 0.004058
O O12 0.410233 0.179379 0.073030
O O13 0.133444 0.809009 0.827594
O O14 0.017997 0.666522 0.427848
O O15 0.096801 0.560137 0.844883
O O16 0.737344 0.547236 0.436266
O O17 0.843548 0.611798 0.878655
#
# Coordination Sequence:
#
# PCOD9045360 Si02
#       8
#     2   2   2   2   2   2   2   2
#     4  12  29  49  71 103 140 184 231 292 353 407
#     4  11  23  42  69 101 135 181 230 283 346 410
#     4  12  25  43  74 101 135 183 234 285 341 411
#     4  11  22  43  70 101 135 179 234 280 343 412
#     4  10  24  40  61  99 144 177 225 282 342 413
#     4  11  23  45  72  99 137 184 227 287 341 415
#     4  12  24  44  72  98 138 178 237 279 344 416
#     4  11  24  40  65 102 140 184 219 282 352 407
#
# _framework density 23.845777999999999
#
# number of rings (size 3 to 8) (size 9 to 14) (size 15 to 20)
#    0.000    0.750    3.750    4.500    1.750    6.500 
#    0.000    0.000    0.000    0.000    0.000    0.000 
#    0.000    0.000    0.000    0.000    0.000    0.000 
#
# Total GULP energy -89491.765128 kJ/mol
# GULP energy per Si atom -5593.235320 kJ/mol
# Density = 2.379150 g / cm^3
# Si number density = 23.845778 Si / 1000 Ang^3
#
#
#
# Elastic Constant Matrix: (Units=GPa)
#
#
# Indices 1 2 3 4 5 6 
#
# 1 25.4116 8.9381 -4.4054 -3.4061 12.3209 -5.9438
# 2 8.9381 137.0767 49.4235 -3.6368 -19.7320 0.3042
# 3 -4.4054 49.4235 75.4976 -22.9557 -6.8253 -11.7011
# 4 -3.4061 -3.6368 -22.9557 50.6041 1.7094 1.4496
# 5 12.3209 -19.7320 -6.8253 1.7094 37.7906 1.6022
# 6 -5.9438 0.3042 -11.7011 1.4496 1.6022 19.7566
#
#
#
# Elastic Compliance Matrix: (Units=1/GPa)
#
#
# Indices 1 2 3 4 5 6 
#
# 1 0.076452 -0.017880 0.023707 0.014593 -0.032288 0.038865
# 2 -0.017880 0.015136 -0.014073 -0.006494 0.012097 -0.014452
# 3 0.023707 -0.014073 0.031178 0.014370 -0.011185 0.025667
# 4 0.014593 -0.006494 0.014370 0.026707 -0.007254 0.011630
# 5 -0.032288 0.012097 -0.011185 -0.007254 0.042437 -0.019434
# 6 0.038865 -0.014452 0.025667 0.011630 -0.019434 0.078455
#
#
# Mechanical properties :
#
#
# Convention : Reuss Voigt Hill
#
# Bulk Modulus (GPa) = 9.40948 38.43316 23.92132
# Shear Modulus (GPa) = 15.51440 33.89891 24.70665
#
# Velocity S-wave (km/s) = 2.55348 3.77449 3.22235
# Velocity P-wave (km/s) = 3.55644 5.92858 4.88857
#
# Compressibility (1/GPa) = 0.10627576
#
# Stress axis : x y z
#
# Youngs Moduli (GPa) = 13.08009 66.06672 32.07427
#
# Poissons Ratio (x) = 1.18126 -0.76040
# Poissons Ratio (y) = 0.23387 0.45137
# Poissons Ratio (z) = -0.31010 0.92974
#
# Static dielectric constant tensor:
#      x y z
#    x 1.943350 0.023050 0.041630 
#    y 0.023050 1.907500 0.008340 
#    z 0.041630 0.008340 1.921690 
# 
# From -- ./inp_files/354530.got.cif
#   From: 2010.05.17/outbox.cif.g08.bks.cpg/sg2_178_cif.got.tgz:354530.got - 2010.06.03 11:33:40.
