data_PCOD9045182
_publ_section_title
;
Structure prediction by ZEFSAII (Michael W. Deem and Ramdas Pophale) SiO2 
 PCOD9045182
Probable space group: P -1
;
_chemical_formula_sum "Si O2"
_cell_formula_units_Z 12
_cell_length_a 12.391334
_cell_length_b 8.353276
_cell_length_c 4.839139
_cell_angle_alpha 101.725826
_cell_angle_beta 68.285597
_cell_angle_gamma 83.303261
_cell_volume 445.392198
_symmetry_space_group_name_H-M "P -1"
_symmetry_group_IT_number 2
_symmetry_cell_setting 'triclinic'
loop_
_space_group_symop_operation_xyz
x,y,z
-x,-y,-z
loop_
_atom_site_type_symbol
_atom_site_label
_atom_site_fract_x
_atom_site_fract_y
_atom_site_fract_z
Si Si1 0.408086 0.933514 0.858185
Si Si2 0.393068 0.266163 0.799507
Si Si3 0.992519 0.681785 0.433043
Si Si4 0.236262 0.796457 0.364893
Si Si5 0.899485 0.888801 0.087470
Si Si6 0.617277 0.516428 0.569274
O O1 0.326630 0.828067 0.053111
O O2 0.337049 0.111481 0.879383
O O3 0.500000 0.000000 0.000000
O O4 0.487503 0.827939 0.507033
O O5 0.414149 0.368378 0.087463
O O6 0.319521 0.387610 0.683934
O O7 0.120919 0.734090 0.343999
O O8 0.000000 0.500000 0.500000
O O9 0.944205 0.728614 0.188467
O O10 0.902597 0.811329 0.754599
O O11 0.302565 0.651869 0.454852
O O12 0.199565 0.971961 0.619501
O O13 0.000000 0.000000 0.000000
O O14 0.500000 0.500000 0.500000
#
# Coordination Sequence:
#
# PCOD9045182 Si02
#       6
#     2   2   2   2   2   2
#     4  11  24  51  73 108 158 211 270 323 382 469
#     4  11  26  48  71 103 159 213 261 338 367 445
#     4  11  25  53  83 118 156 188 259 343 394 471
#     4  11  27  49  83 115 154 217 257 312 414 465
#     4  10  23  51  80 115 152 196 257 331 393 473
#     4  12  27  48  73 112 161 213 272 323 380 468
#
# _framework density 26.942543000000001
#
# number of rings (size 3 to 8) (size 9 to 14) (size 15 to 20)
#    0.000    1.000    1.667    4.000    2.333    5.333 
#   21.000    0.000    0.000    0.000    0.000    0.000 
#    0.000    0.000    0.000    0.000    0.000    0.000 
#
# Total GULP energy -67268.896144 kJ/mol
# GULP energy per Si atom -5605.741345 kJ/mol
# Density = 2.688122 g / cm^3
# Si number density = 26.942543 Si / 1000 Ang^3
#
#
#
# Elastic Constant Matrix: (Units=GPa)
#
#
# Indices 1 2 3 4 5 6 
#
# 1 118.0871 37.8462 68.3730 -5.9398 -5.1710 11.5954
# 2 37.8462 212.6207 41.5311 -32.8057 -2.9203 -12.1560
# 3 68.3730 41.5311 166.3269 -4.2269 19.6358 -5.8768
# 4 -5.9398 -32.8057 -4.2269 64.6368 2.1908 5.4154
# 5 -5.1710 -2.9203 19.6358 2.1908 52.3364 0.3922
# 6 11.5954 -12.1560 -5.8768 5.4154 0.3922 38.2714
#
#
#
# Elastic Compliance Matrix: (Units=1/GPa)
#
#
# Indices 1 2 3 4 5 6 
#
# 1 0.012749 -0.001392 -0.005450 0.000437 0.003248 -0.005237
# 2 -0.001392 0.005584 -0.000737 0.002502 0.000333 0.001725
# 3 -0.005450 -0.000737 0.008997 -0.000395 -0.003960 0.002895
# 4 0.000437 0.002502 -0.000395 0.016918 -0.000364 -0.001788
# 5 0.003248 0.000333 -0.003960 -0.000364 0.020960 -0.001650
# 6 -0.005237 0.001725 0.002895 -0.001788 -0.001650 0.028978
#
#
# Mechanical properties :
#
#
# Convention : Reuss Voigt Hill
#
# Bulk Modulus (GPa) = 82.16349 88.05947 85.11148
# Shear Modulus (GPa) = 44.09135 54.33455 49.21295
#
# Velocity S-wave (km/s) = 4.04975 4.49562 4.27850
# Velocity P-wave (km/s) = 7.24081 7.72675 7.48772
#
# Compressibility (1/GPa) = 0.01217086
#
# Stress axis : x y z
#
# Youngs Moduli (GPa) = 78.43924 179.07720 111.15306
#
# Poissons Ratio (x) = 0.24926 0.60584
# Poissons Ratio (y) = 0.10918 0.08191
# Poissons Ratio (z) = 0.42753 0.13197
#
# Static dielectric constant tensor:
#      x y z
#    x 2.517870 -0.168790 -0.097070 
#    y -0.168790 2.314770 -0.008240 
#    z -0.097070 -0.008240 2.112330 
# 
# From -- ./inp_files/86428.got.cif
#   From: 2010.05.17/outbox.cif.g08.bks.cpg/sg2_44_cif.got.tgz:86428.got - 2010.06.03 11:33:40.
