data_PCOD9045688
_publ_section_title
;
Structure prediction by ZEFSAII (Michael W. Deem and Ramdas Pophale) SiO2 
 PCOD9045688
Probable space group: P -1
;
_chemical_formula_sum "Si O2"
_cell_formula_units_Z 15
_cell_length_a 19.086166
_cell_length_b 15.970824
_cell_length_c 11.645846
_cell_angle_alpha 48.043059
_cell_angle_beta 149.974594
_cell_angle_gamma 152.839211
_cell_volume 725.960941
_symmetry_space_group_name_H-M "P -1"
_symmetry_group_IT_number 2
_symmetry_cell_setting 'triclinic'
loop_
_space_group_symop_operation_xyz
x,y,z
-x,-y,-z
loop_
_atom_site_type_symbol
_atom_site_label
_atom_site_fract_x
_atom_site_fract_y
_atom_site_fract_z
Si Si1 0.040938 0.739892 0.204507
Si Si2 0.958868 0.873333 0.149517
Si Si3 0.500000 0.500000 0.000000
Si Si4 0.260969 0.246384 0.652455
Si Si5 0.881618 0.648763 0.814611
Si Si6 0.506523 0.816168 0.280403
Si Si7 0.632399 0.296847 0.064001
Si Si8 0.550833 0.031205 0.750654
O O1 0.968196 0.764785 0.188294
O O2 0.347044 0.939546 0.452810
O O3 0.922738 0.712707 0.946564
O O4 0.918931 0.534148 0.236440
O O5 0.701110 0.700088 0.014803
O O6 0.205385 0.032870 0.434425
O O7 0.000000 0.000000 0.000000
O O8 0.340699 0.343147 0.803121
O O9 0.221654 0.324586 0.439393
O O10 0.474831 0.304465 0.857008
O O11 0.000000 0.000000 0.500000
O O12 0.685468 0.413909 0.751935
O O13 0.161570 0.795465 0.038777
O O14 0.455994 0.815373 0.078610
O O15 0.456084 0.883483 0.234386
O O16 0.566868 0.164286 0.190281
#
# Coordination Sequence:
#
# PCOD9045688 Si02
#       8
#     2   2   1   2   2   2   2   2
#     4  10  24  42  66  98 138 183 232 292 359 426
#     4  11  24  42  67  99 141 183 234 294 361 423
#     4  12  26  46  70 106 148 186 244 290 360 444
#     4  12  25  44  71 109 139 186 238 298 369 422
#     4  11  24  43  70 100 141 182 238 296 358 437
#     4  10  24  41  66  97 138 184 233 295 356 425
#     4  11  22  42  66  96 138 181 232 290 359 433
#     4  11  22  43  67 100 135 188 242 285 357 431
#
# _framework density 20.662268999999998
#
# number of rings (size 3 to 8) (size 9 to 14) (size 15 to 20)
#    0.000    1.067    2.667    3.200    3.733    1.067 
#    0.000    1.333    0.000    0.000    0.000    0.000 
#    0.000    0.000    0.000    0.000    0.000    0.000 
#
# Total GULP energy -83555.258494 kJ/mol
# GULP energy per Si atom -5570.350566 kJ/mol
# Density = 2.061524 g / cm^3
# Si number density = 20.662269 Si / 1000 Ang^3
#
#
#
# Elastic Constant Matrix: (Units=GPa)
#
#
# Indices 1 2 3 4 5 6 
#
# 1 75.2953 27.6470 35.4193 11.9902 -23.2199 5.0402
# 2 27.6470 88.2879 38.0607 17.0469 -11.7794 11.9528
# 3 35.4193 38.0607 71.6023 16.3957 -13.4053 -8.8672
# 4 11.9902 17.0469 16.3957 35.9039 -4.8187 -4.1972
# 5 -23.2199 -11.7794 -13.4053 -4.8187 23.0999 6.6856
# 6 5.0402 11.9528 -8.8672 -4.1972 6.6856 33.9135
#
#
#
# Elastic Compliance Matrix: (Units=1/GPa)
#
#
# Indices 1 2 3 4 5 6 
#
# 1 0.026231 0.001647 -0.010124 -0.003102 0.024242 -0.012289
# 2 0.001647 0.018459 -0.009353 -0.005325 0.007829 -0.011399
# 3 -0.010124 -0.009353 0.025276 -0.002910 -0.004331 0.011904
# 4 -0.003102 -0.005325 -0.002910 0.033143 -0.002388 0.006150
# 5 0.024242 0.007829 -0.004331 -0.002388 0.075183 -0.022611
# 6 -0.012289 -0.011399 0.011904 0.006150 -0.022611 0.043662
#
#
# Mechanical properties :
#
#
# Convention : Reuss Voigt Hill
#
# Bulk Modulus (GPa) = 29.15039 48.60440 38.87740
# Shear Modulus (GPa) = 18.58397 27.52070 23.05233
#
# Velocity S-wave (km/s) = 3.00228 3.65352 3.34379
# Velocity P-wave (km/s) = 5.11438 6.43210 5.81072
#
# Compressibility (1/GPa) = 0.03430486
#
# Stress axis : x y z
#
# Youngs Moduli (GPa) = 38.12280 54.17474 39.56357
#
# Poissons Ratio (x) = -0.08925 0.40056
# Poissons Ratio (y) = -0.06281 0.37005
# Poissons Ratio (z) = 0.38597 0.50672
#
# Static dielectric constant tensor:
#      x y z
#    x 1.731590 0.007650 0.005940 
#    y 0.007650 1.740760 0.019720 
#    z 0.005940 0.019720 1.757090 
# 
# From -- ./inp_files/174142.got.cif
#   From: 2010.05.17/outbox.cif.g08.bks.cpg/sg2_88_cif.got.tgz:174142.got - 2010.06.03 11:33:40.
