data_PCOD9045751
_publ_section_title
;
Structure prediction by ZEFSAII (Michael W. Deem and Ramdas Pophale) SiO2 
 PCOD9045751
Probable space group: P -1
;
_chemical_formula_sum "Si O2"
_cell_formula_units_Z 16
_cell_length_a 22.187185
_cell_length_b 12.918746
_cell_length_c 15.756798
_cell_angle_alpha 155.662638
_cell_angle_beta 157.191152
_cell_angle_gamma 25.387925
_cell_volume 662.003275
_symmetry_space_group_name_H-M "P -1"
_symmetry_group_IT_number 2
_symmetry_cell_setting 'triclinic'
loop_
_space_group_symop_operation_xyz
x,y,z
-x,-y,-z
loop_
_atom_site_type_symbol
_atom_site_label
_atom_site_fract_x
_atom_site_fract_y
_atom_site_fract_z
Si Si1 0.762736 0.202930 0.068759
Si Si2 0.505865 0.806877 0.151838
Si Si3 0.037181 0.401241 0.571755
Si Si4 0.137297 0.322399 0.279652
Si Si5 0.656662 0.727534 0.021201
Si Si6 0.572261 0.596444 0.521316
Si Si7 0.153689 0.345552 0.955840
Si Si8 0.257560 0.748790 0.674597
O O1 0.660631 0.527215 0.162917
O O2 0.954199 0.179128 0.310601
O O3 0.655883 0.147364 0.963793
O O4 0.755218 0.999695 0.832827
O O5 0.525935 0.087753 0.396524
O O6 0.435914 0.768080 0.941252
O O7 0.000000 0.500000 0.500000
O O8 0.949388 0.621691 0.698321
O O9 0.236746 0.294075 0.771255
O O10 0.224328 0.538515 0.538729
O O11 0.019555 0.397267 0.096443
O O12 0.578098 0.504752 0.736773
O O13 0.787786 0.725223 0.117360
O O14 0.500000 0.000000 0.000000
O O15 0.704067 0.402511 0.478508
O O16 0.699371 0.599453 0.763883
O O17 0.134474 0.072409 0.761631
#
# Coordination Sequence:
#
# PCOD9045751 Si02
#       8
#     2   2   2   2   2   2   2   2
#     4  11  24  46  71  98 144 187 248 293 365 426
#     4  10  24  44  70 105 139 191 238 305 354 437
#     4  11  28  50  70 105 148 194 243 307 361 439
#     4  11  24  44  71 106 145 191 237 302 372 431
#     4  11  24  47  74 103 145 195 245 300 360 443
#     4  11  23  42  71 105 141 190 242 296 371 423
#     4  10  24  41  68 105 146 185 238 302 363 438
#     4  11  21  41  68 107 145 181 239 298 373 430
#
# _framework density 24.169065
#
# number of rings (size 3 to 8) (size 9 to 14) (size 15 to 20)
#    0.000    1.250    3.750    0.750    3.500    2.500 
#    4.500    0.000    0.000    0.000    0.000    0.000 
#    0.000    0.000    0.000    0.000    0.000    0.000 
#
# Total GULP energy -89251.118064 kJ/mol
# GULP energy per Si atom -5578.194879 kJ/mol
# Density = 2.411406 g / cm^3
# Si number density = 24.169065 Si / 1000 Ang^3
#
#
#
# Elastic Constant Matrix: (Units=GPa)
#
#
# Indices 1 2 3 4 5 6 
#
# 1 83.1022 35.2210 32.9976 2.4183 -5.6698 1.9562
# 2 35.2210 94.7755 70.5151 16.0501 -2.4675 14.4523
# 3 32.9976 70.5151 152.5539 7.0152 14.7764 16.9490
# 4 2.4183 16.0501 7.0152 50.1042 8.8593 -0.0395
# 5 -5.6698 -2.4675 14.7764 8.8593 47.4161 -4.7640
# 6 1.9562 14.4523 16.9490 -0.0395 -4.7640 22.7889
#
#
#
# Elastic Compliance Matrix: (Units=1/GPa)
#
#
# Indices 1 2 3 4 5 6 
#
# 1 0.014789 -0.004931 -0.001552 0.000694 0.002215 0.003476
# 2 -0.004931 0.019956 -0.007553 -0.005679 0.003267 -0.005942
# 3 -0.001552 -0.007553 0.011269 0.001774 -0.004872 -0.004474
# 4 0.000694 -0.005679 0.001774 0.022348 -0.004815 0.001255
# 5 0.002215 0.003267 -0.004872 -0.004815 0.024595 0.006495
# 6 0.003476 -0.005942 -0.004474 0.001255 0.006495 0.052038
#
#
# Mechanical properties :
#
#
# Convention : Reuss Voigt Hill
#
# Bulk Modulus (GPa) = 55.73517 67.54434 61.63976
# Shear Modulus (GPa) = 27.92546 36.84170 32.38358
#
# Velocity S-wave (km/s) = 3.40284 3.90851 3.66440
# Velocity P-wave (km/s) = 6.20884 6.95527 6.59263
#
# Compressibility (1/GPa) = 0.01794199
#
# Stress axis : x y z
#
# Youngs Moduli (GPa) = 67.61921 50.10986 88.73691
#
# Poissons Ratio (x) = 0.24709 0.13775
# Poissons Ratio (y) = 0.33342 0.67022
# Poissons Ratio (z) = 0.10497 0.37847
#
# Static dielectric constant tensor:
#      x y z
#    x 1.965690 0.038380 -0.024910 
#    y 0.038380 2.289800 -0.193030 
#    z -0.024910 -0.193030 2.038450 
# 
# From -- ./inp_files/579913.got.cif
#   From: 2010.05.17/outbox.cif.g08.bks.cpg/sg2_290_cif.got.tgz:579913.got - 2010.06.03 11:33:40.
