data_PCOD9045935
_publ_section_title
;
Structure prediction by ZEFSAII (Michael W. Deem and Ramdas Pophale) SiO2 
 PCOD9045935
Probable space group: P -1
;
_chemical_formula_sum "Si O2"
_cell_formula_units_Z 16
_cell_length_a 13.590762
_cell_length_b 13.653567
_cell_length_c 11.706285
_cell_angle_alpha 88.304997
_cell_angle_beta 114.274900
_cell_angle_gamma 147.485854
_cell_volume 811.422974
_symmetry_space_group_name_H-M "P -1"
_symmetry_group_IT_number 2
_symmetry_cell_setting 'triclinic'
loop_
_space_group_symop_operation_xyz
x,y,z
-x,-y,-z
loop_
_atom_site_type_symbol
_atom_site_label
_atom_site_fract_x
_atom_site_fract_y
_atom_site_fract_z
Si Si1 0.028009 0.754563 0.078550
Si Si2 0.537909 0.417114 0.996425
Si Si3 0.505795 0.246076 0.197797
Si Si4 0.328333 0.600800 0.293337
Si Si5 0.714923 0.225616 0.180524
Si Si6 0.189940 0.070361 0.624842
Si Si7 0.261824 0.763410 0.314409
Si Si8 0.933365 0.651769 0.576497
O O1 0.181838 0.786278 0.194332
O O2 0.825730 0.624344 0.081765
O O3 0.231974 0.008665 0.140109
O O4 0.874041 0.598236 0.895338
O O5 0.487015 0.310699 0.087866
O O6 0.500000 0.500000 0.000000
O O7 0.348119 0.231089 0.808225
O O8 0.569173 0.192582 0.175944
O O9 0.732492 0.456411 0.388663
O O10 0.603692 0.780824 0.383322
O O11 0.357745 0.742865 0.301795
O O12 0.212638 0.474845 0.365689
O O13 0.982617 0.497293 0.247385
O O14 0.830322 0.231684 0.309446
O O15 0.500000 0.000000 0.000000
O O16 0.000000 0.000000 0.500000
O O17 0.038872 0.846169 0.592193
O O18 0.500000 0.000000 0.500000
#
# Coordination Sequence:
#
# PCOD9045935 Si02
#       8
#     2   2   2   2   2   2   2   2
#     4  11  23  42  68  95 132 175 221 273 337 401
#     4  11  25  46  69  96 132 175 228 276 334 400
#     4  12  24  41  68  98 134 173 220 280 334 398
#     4  10  24  42  64  95 132 174 218 270 332 400
#     4  11  23  41  66  97 139 179 222 276 340 408
#     4  11  25  44  70  95 127 178 223 274 331 394
#     4  11  23  39  65 100 137 175 221 280 339 400
#     4  11  25  41  64  98 133 171 219 273 333 394
#
# _framework density 19.718446
#
# number of rings (size 3 to 8) (size 9 to 14) (size 15 to 20)
#    0.000    1.000    1.250    6.000    5.250    4.000 
#    0.000    0.000    0.000    0.000    0.000    0.000 
#    0.000    0.000    0.000    0.000    0.000    0.000 
#
# Total GULP energy -89462.620422 kJ/mol
# GULP energy per Si atom -5591.413776 kJ/mol
# Density = 1.967357 g / cm^3
# Si number density = 19.718446 Si / 1000 Ang^3
#
#
#
# Elastic Constant Matrix: (Units=GPa)
#
#
# Indices 1 2 3 4 5 6 
#
# 1 18.5903 -17.6307 -7.9093 13.2520 28.0270 -49.0082
# 2 -17.6307 85.7654 10.9030 10.2714 27.1680 -38.3478
# 3 -7.9093 10.9030 62.9203 21.1677 19.5190 -21.2494
# 4 13.2520 10.2714 21.1677 35.0682 -14.0516 6.2791
# 5 28.0270 27.1680 19.5190 -14.0516 35.7884 4.0835
# 6 -49.0082 -38.3478 -21.2494 6.2791 4.0835 22.3398
#
#
#
# Elastic Compliance Matrix: (Units=1/GPa)
#
#
# Indices 1 2 3 4 5 6 
#
# 1 0.005076 -0.005496 -0.006649 0.008480 0.008122 -0.008491
# 2 -0.005496 0.009012 -0.004869 0.003556 0.001805 -0.002548
# 3 -0.006649 -0.004869 0.016256 -0.005434 -0.001447 -0.005691
# 4 0.008480 0.003556 -0.005434 0.026576 0.002739 0.011567
# 5 0.008122 0.001805 -0.001447 0.002739 0.020359 0.015048
# 6 -0.008491 -0.002548 -0.005691 0.011567 0.015048 0.010348
#
#
# Mechanical properties :
#
#
# Convention : Reuss Voigt Hill
#
# Bulk Modulus (GPa) = -271.40659 15.33357 -128.03651
# Shear Modulus (GPa) = 41.51865 30.76683 36.14274
#
# Velocity S-wave (km/s) = 4.59363 3.95436 4.28593
# Velocity P-wave (km/s) = 10.47876 5.35186 6.37033
#
# Compressibility (1/GPa) = -0.00368451
#
# Stress axis : x y z
#
# Youngs Moduli (GPa) = 196.99410 110.96027 61.51590
#
# Poissons Ratio (x) = 0.60984 0.40905
# Poissons Ratio (y) = 1.08269 0.29952
# Poissons Ratio (z) = 1.30991 0.54026
#
# Static dielectric constant tensor:
#      x y z
#    x 1.667340 0.036500 0.008910 
#    y 0.036500 1.690820 0.013950 
#    z 0.008910 0.013950 1.665630 
# 
# From -- ./inp_files/428411.got.cif
#   From: 2010.05.17/outbox.cif.g08.bks.cpg/sg2_215_cif.got.tgz:428411.got - 2010.06.03 11:33:40.
