data_PCOD9045138
_publ_section_title
;
Structure prediction by ZEFSAII (Michael W. Deem and Ramdas Pophale) SiO2 
 PCOD9045138
Probable space group: P -1
;
_chemical_formula_sum "Si O2"
_cell_formula_units_Z 12
_cell_length_a 5.197976
_cell_length_b 7.753219
_cell_length_c 13.153587
_cell_angle_alpha 64.980112
_cell_angle_beta 94.352982
_cell_angle_gamma 119.174348
_cell_volume 413.697155
_symmetry_space_group_name_H-M "P -1"
_symmetry_group_IT_number 2
_symmetry_cell_setting 'triclinic'
loop_
_space_group_symop_operation_xyz
x,y,z
-x,-y,-z
loop_
_atom_site_type_symbol
_atom_site_label
_atom_site_fract_x
_atom_site_fract_y
_atom_site_fract_z
Si Si1 0.317501 0.920710 0.833264
Si Si2 0.307987 0.124635 0.460962
Si Si3 0.192347 0.643423 0.066549
Si Si4 0.885246 0.366188 0.705151
Si Si5 0.358114 0.314765 0.199461
Si Si6 0.790396 0.643536 0.467086
O O1 0.492450 0.795442 0.833696
O O2 0.999462 0.820788 0.796085
O O3 0.542742 0.171443 0.750074
O O4 0.270599 0.876798 0.963208
O O5 0.407808 0.281617 0.325895
O O6 0.514595 0.359632 0.496119
O O7 0.500000 0.000000 0.500000
O O8 0.962436 0.910497 0.452926
O O9 0.031755 0.594745 0.183547
O O10 0.431694 0.561550 0.111063
O O11 0.000000 0.500000 0.000000
O O12 0.906262 0.562571 0.588778
O O13 0.062982 0.292854 0.655164
#
# Coordination Sequence:
#
# PCOD9045138 Si02
#       6
#     2   2   2   2   2   2
#     4  11  25  45  77 110 149 201 253 310 378 450
#     4  12  27  45  75 108 149 200 254 308 373 453
#     4  10  23  49  77 109 150 203 257 313 376 446
#     4  11  25  49  72 110 158 197 251 316 382 461
#     4  11  24  46  71 110 153 194 254 314 373 447
#     4  11  28  46  72 110 154 202 247 312 395 449
#
# _framework density 29.006730000000001
#
# number of rings (size 3 to 8) (size 9 to 14) (size 15 to 20)
#    0.000    1.000    1.667    3.000   11.667    2.667 
#    6.000    4.167    0.000    0.000    0.000    0.000 
#    0.000    0.000    0.000    0.000    0.000    0.000 
#
# Total GULP energy -67085.753133 kJ/mol
# GULP energy per Si atom -5590.479428 kJ/mol
# Density = 2.894071 g / cm^3
# Si number density = 29.006730 Si / 1000 Ang^3
#
#
#
# Elastic Constant Matrix: (Units=GPa)
#
#
# Indices 1 2 3 4 5 6 
#
# 1 169.9894 36.8131 59.2413 16.3426 -3.9974 -14.7995
# 2 36.8131 113.1375 46.0103 37.2874 -17.3712 -7.9007
# 3 59.2413 46.0103 283.4966 28.8575 -0.8345 -20.2250
# 4 16.3426 37.2874 28.8575 68.1320 -2.9159 -4.3848
# 5 -3.9974 -17.3712 -0.8345 -2.9159 54.4297 -11.1202
# 6 -14.7995 -7.9007 -20.2250 -4.3848 -11.1202 62.5749
#
#
#
# Elastic Compliance Matrix: (Units=1/GPa)
#
#
# Indices 1 2 3 4 5 6 
#
# 1 0.006708 -0.001582 -0.001046 -0.000224 0.000177 0.001065
# 2 -0.001582 0.012280 -0.000993 -0.005690 0.003711 0.001116
# 3 -0.001046 -0.000993 0.004056 -0.000879 -0.000207 0.000840
# 4 -0.000224 -0.005690 -0.000879 0.018185 -0.000858 0.000066
# 5 0.000177 0.003711 -0.000207 -0.000858 0.020337 0.003998
# 6 0.001065 0.001116 0.000840 0.000066 0.003998 0.017360
#
#
# Mechanical properties :
#
#
# Convention : Reuss Voigt Hill
#
# Bulk Modulus (GPa) = 63.27731 94.52810 78.90270
# Shear Modulus (GPa) = 54.68347 65.33126 60.00736
#
# Velocity S-wave (km/s) = 4.34660 4.75097 4.55327
# Velocity P-wave (km/s) = 6.85949 7.92178 7.40970
#
# Compressibility (1/GPa) = 0.01580345
#
# Stress axis : x y z
#
# Youngs Moduli (GPa) = 149.07200 81.43068 246.56381
#
# Poissons Ratio (x) = 0.12882 0.25784
# Poissons Ratio (y) = 0.23583 0.24476
# Poissons Ratio (z) = 0.15589 0.08084
#
# Static dielectric constant tensor:
#      x y z
#    x 2.305390 0.159470 0.023410 
#    y 0.159470 3.045470 -0.013220 
#    z 0.023410 -0.013220 2.124600 
# 
# From -- ./inp_files/360551.got.cif
#   From: 2010.05.17/outbox.cif.g08.bks.cpg/sg2_181_cif.got.tgz:360551.got - 2010.06.03 11:33:40.
