data_PCOD9045926
_publ_section_title
;
Structure prediction by ZEFSAII (Michael W. Deem and Ramdas Pophale) SiO2 
 PCOD9045926
Probable space group: P -1
;
_chemical_formula_sum "Si O2"
_cell_formula_units_Z 12
_cell_length_a 22.482125
_cell_length_b 22.254554
_cell_length_c 5.131662
_cell_angle_alpha 67.452795
_cell_angle_beta 66.704932
_cell_angle_gamma 12.398138
_cell_volume 506.267140
_symmetry_space_group_name_H-M "P -1"
_symmetry_group_IT_number 2
_symmetry_cell_setting 'triclinic'
loop_
_space_group_symop_operation_xyz
x,y,z
-x,-y,-z
loop_
_atom_site_type_symbol
_atom_site_label
_atom_site_fract_x
_atom_site_fract_y
_atom_site_fract_z
Si Si1 0.767693 0.781367 0.456884
Si Si2 0.745044 0.891696 0.811423
Si Si3 0.873730 0.994304 0.471582
Si Si4 0.133479 0.084734 0.870018
Si Si5 0.273815 0.436740 0.469453
Si Si6 0.408831 0.548436 0.327492
O O1 0.807166 0.776414 0.676774
O O2 0.000000 0.500000 0.500000
O O3 0.500000 0.000000 0.500000
O O4 0.749521 0.855044 0.146831
O O5 0.987424 0.709213 0.684096
O O6 0.449357 0.208277 0.694457
O O7 0.084902 0.847357 0.396893
O O8 0.973213 0.859480 0.265667
O O9 0.571175 0.321291 0.416838
O O10 0.865671 0.954728 0.797282
O O11 0.916065 0.357379 0.796649
O O12 0.446318 0.796865 0.712468
O O13 0.500000 0.500000 0.500000
O O14 0.500000 0.500000 0.000000
#
# Coordination Sequence:
#
# PCOD9045926 Si02
#       6
#     2   2   2   2   2   2
#     4  12  24  41  64  91 124 161 204 250 302 360
#     4  11  24  41  64  91 124 161 202 251 302 360
#     4  12  24  42  64  91 124 160 204 250 302 360
#     4  11  24  41  64  91 122 161 202 251 302 360
#     4  10  24  42  64  91 124 160 204 250 304 360
#     4  12  24  41  64  91 124 161 202 250 302 360
#
# _framework density 23.702901000000001
#
# number of rings (size 3 to 8) (size 9 to 14) (size 15 to 20)
#    0.000    0.667    0.000    8.000    0.000    8.000 
#    0.000    0.000    0.000    0.000    0.000    0.000 
#    0.000    0.000    0.000    0.000    0.000    0.000 
#
# Total GULP energy -66848.966308 kJ/mol
# GULP energy per Si atom -5570.747192 kJ/mol
# Density = 2.364895 g / cm^3
# Si number density = 23.702901 Si / 1000 Ang^3
#
#
#
# Elastic Constant Matrix: (Units=GPa)
#
#
# Indices 1 2 3 4 5 6 
#
# 1 87.5519 15.4336 17.0600 2.2276 25.9063 -13.5687
# 2 15.4336 143.2250 27.0630 -18.0573 -8.3362 -9.5455
# 3 17.0600 27.0630 123.2641 -19.5479 -7.7299 -11.8726
# 4 2.2276 -18.0573 -19.5479 38.3856 -0.5236 -22.5341
# 5 25.9063 -8.3362 -7.7299 -0.5236 44.8436 1.4868
# 6 -13.5687 -9.5455 -11.8726 -22.5341 1.4868 37.1583
#
#
#
# Elastic Compliance Matrix: (Units=1/GPa)
#
#
# Indices 1 2 3 4 5 6 
#
# 1 0.015826 -0.001495 -0.001869 0.000529 -0.009920 0.005515
# 2 -0.001495 0.008733 0.000460 0.008522 0.002437 0.006915
# 3 -0.001869 0.000460 0.011405 0.012286 0.002929 0.010413
# 4 0.000529 0.008522 0.012286 0.062054 0.002668 0.043833
# 5 -0.009920 0.002437 0.002929 0.002668 0.029073 -0.001606
# 6 0.005515 0.006915 0.010413 0.043833 -0.001606 0.060675
#
#
# Mechanical properties :
#
#
# Convention : Reuss Voigt Hill
#
# Bulk Modulus (GPa) = 33.16134 52.57269 42.86701
# Shear Modulus (GPa) = 24.55459 43.70981 34.13220
#
# Velocity S-wave (km/s) = 3.22208 4.29892 3.79885
# Velocity P-wave (km/s) = 5.27856 6.84609 6.11278
#
# Compressibility (1/GPa) = 0.03015560
#
# Stress axis : x y z
#
# Youngs Moduli (GPa) = 63.18693 114.50368 87.67741
#
# Poissons Ratio (x) = 0.17122 0.16387
# Poissons Ratio (y) = 0.09449 -0.04031
# Poissons Ratio (z) = 0.11810 -0.05265
#
# Static dielectric constant tensor:
#      x y z
#    x 2.006550 0.053810 -0.056600 
#    y 0.053810 1.846930 -0.008870 
#    z -0.056600 -0.008870 1.977310 
# 
# From -- ./inp_files/125089.got.cif
#   From: 2010.05.17/outbox.cif.g08.bks.cpg/sg2_63_cif.got.tgz:125089.got - 2010.06.03 11:33:40.
