data_PCOD9045675
_publ_section_title
;
Structure prediction by ZEFSAII (Michael W. Deem and Ramdas Pophale) SiO2 
 PCOD9045675
Probable space group: P -1
;
_chemical_formula_sum "Si O2"
_cell_formula_units_Z 16
_cell_length_a 12.051327
_cell_length_b 23.494131
_cell_length_c 5.390152
_cell_angle_alpha 124.349287
_cell_angle_beta 109.544692
_cell_angle_gamma 32.077682
_cell_volume 632.268466
_symmetry_space_group_name_H-M "P -1"
_symmetry_group_IT_number 2
_symmetry_cell_setting 'triclinic'
loop_
_space_group_symop_operation_xyz
x,y,z
-x,-y,-z
loop_
_atom_site_type_symbol
_atom_site_label
_atom_site_fract_x
_atom_site_fract_y
_atom_site_fract_z
Si Si1 0.247655 0.372558 0.764304
Si Si2 0.006347 0.128155 0.693937
Si Si3 0.597176 0.272383 0.481865
Si Si4 0.610722 0.150565 0.836926
Si Si5 0.547069 0.520719 0.340777
Si Si6 0.011928 0.269864 0.244394
Si Si7 0.731754 0.906568 0.580000
Si Si8 0.389976 0.163571 0.078320
O O1 0.350177 0.376455 0.654551
O O2 0.429074 0.286966 0.904216
O O3 0.294749 0.273838 0.438921
O O4 0.000000 0.500000 0.000000
O O5 0.107128 0.121915 0.519379
O O6 0.773569 0.208254 0.660764
O O7 0.193530 0.977077 0.496270
O O8 0.965349 0.211398 0.053252
O O9 0.580473 0.345418 0.466621
O O10 0.694213 0.156263 0.138245
O O11 0.469204 0.158800 0.871123
O O12 0.500000 0.500000 0.500000
O O13 0.800082 0.413109 0.331564
O O14 0.500000 0.500000 0.000000
O O15 0.123546 0.221911 0.480478
O O16 0.197007 0.203613 0.030075
O O17 0.500000 0.000000 0.500000
O O18 0.609323 0.015284 0.970307
#
# Coordination Sequence:
#
# PCOD9045675 Si02
#       8
#     2   2   2   2   2   2   2   2
#     4  11  27  45  70 100 146 202 256 313 379 457
#     4  11  23  45  71 106 147 188 250 313 396 459
#     4  11  26  48  72 107 148 197 260 316 380 466
#     4  10  25  44  72 100 143 193 249 314 382 458
#     4  12  29  50  76 113 157 204 263 318 398 472
#     4  12  25  40  75 104 152 195 248 323 386 460
#     4  11  23  41  70 107 148 186 244 315 396 461
#     4  10  24  41  66 106 137 186 249 310 381 461
#
# _framework density 25.305705
#
# number of rings (size 3 to 8) (size 9 to 14) (size 15 to 20)
#    0.000    1.000    2.500    2.250    8.750    2.500 
#    0.000    0.000    0.000    0.000    0.000    0.000 
#    0.000    0.000    0.000    0.000    0.000    0.000 
#
# Total GULP energy -89296.434969 kJ/mol
# GULP energy per Si atom -5581.027186 kJ/mol
# Density = 2.524811 g / cm^3
# Si number density = 25.305705 Si / 1000 Ang^3
#
#
#
# Elastic Constant Matrix: (Units=GPa)
#
#
# Indices 1 2 3 4 5 6 
#
# 1 117.6497 20.2868 19.7870 -0.9784 1.6255 -6.3873
# 2 20.2868 113.3344 18.4298 -5.5216 -6.0820 -9.0785
# 3 19.7870 18.4298 55.6838 -1.2719 7.5860 -8.0694
# 4 -0.9784 -5.5216 -1.2719 38.8324 -7.6022 -7.4634
# 5 1.6255 -6.0820 7.5860 -7.6022 44.6075 -2.2847
# 6 -6.3873 -9.0785 -8.0694 -7.4634 -2.2847 42.6803
#
#
#
# Elastic Compliance Matrix: (Units=1/GPa)
#
#
# Indices 1 2 3 4 5 6 
#
# 1 0.009202 -0.001133 -0.002807 0.000106 0.000038 0.000626
# 2 -0.001133 0.009869 -0.002860 0.002098 0.002327 0.001880
# 3 -0.002807 -0.002860 0.020797 0.000002 -0.003685 0.002707
# 4 0.000106 0.002098 0.000002 0.028198 0.005378 0.005681
# 5 0.000038 0.002327 -0.003685 0.005378 0.024382 0.002050
# 6 0.000626 0.001880 0.002707 0.005681 0.002050 0.025539
#
#
# Mechanical properties :
#
#
# Convention : Reuss Voigt Hill
#
# Bulk Modulus (GPa) = 38.07044 44.85281 41.46162
# Shear Modulus (GPa) = 35.62718 40.43500 38.03109
#
# Velocity S-wave (km/s) = 3.75623 4.00166 3.88089
# Velocity P-wave (km/s) = 5.82145 6.25411 6.04165
#
# Compressibility (1/GPa) = 0.02626710
#
# Stress axis : x y z
#
# Youngs Moduli (GPa) = 108.67655 101.32566 48.08401
#
# Poissons Ratio (x) = 0.11484 0.13495
# Poissons Ratio (y) = 0.12317 0.13754
# Poissons Ratio (z) = 0.30502 0.28983
#
# Static dielectric constant tensor:
#      x y z
#    x 1.803380 0.136490 0.192560 
#    y 0.136490 1.981340 -0.238110 
#    z 0.192560 -0.238110 2.284790 
# 
# From -- ./inp_files/84524.got.cif
#   From: 2010.05.17/outbox.cif.g08.bks.cpg/sg2_43_cif.got.tgz:84524.got - 2010.06.03 11:33:40.
