data_PCOD9045196
_publ_section_title
;
Structure prediction by ZEFSAII (Michael W. Deem and Ramdas Pophale) SiO2 
 PCOD9045196
Probable space group: P -1
;
_chemical_formula_sum "Si O2"
_cell_formula_units_Z 16
_cell_length_a 13.957636
_cell_length_b 9.278405
_cell_length_c 8.529816
_cell_angle_alpha 116.762291
_cell_angle_beta 99.551750
_cell_angle_gamma 120.169261
_cell_volume 734.437417
_symmetry_space_group_name_H-M "P -1"
_symmetry_group_IT_number 2
_symmetry_cell_setting 'triclinic'
loop_
_space_group_symop_operation_xyz
x,y,z
-x,-y,-z
loop_
_atom_site_type_symbol
_atom_site_label
_atom_site_fract_x
_atom_site_fract_y
_atom_site_fract_z
Si Si1 0.607562 0.488568 0.580949
Si Si2 0.356153 0.287444 0.009166
Si Si3 0.068022 0.322752 0.947668
Si Si4 0.114010 0.155754 0.320485
Si Si5 0.246452 0.353841 0.759508
Si Si6 0.100912 0.809446 0.728168
Si Si7 0.551509 0.232028 0.160156
Si Si8 0.948671 0.428444 0.712049
O O1 0.500000 0.500000 0.500000
O O2 0.612297 0.521091 0.783046
O O3 0.751213 0.686036 0.655531
O O4 0.568360 0.285828 0.376469
O O5 0.454246 0.255053 0.068509
O O6 0.344478 0.330512 0.847601
O O7 0.218700 0.058174 0.903695
O O8 0.170518 0.340979 0.879917
O O9 0.988068 0.343343 0.812438
O O10 0.121851 0.502440 0.182055
O O11 0.973751 0.086829 0.880452
O O12 0.151936 0.167784 0.518657
O O13 0.029094 0.225370 0.332800
O O14 0.315390 0.573390 0.792506
O O15 0.117970 0.730852 0.530871
O O16 0.075367 0.651431 0.779994
O O17 0.500000 0.000000 0.000000
#
# Coordination Sequence:
#
# PCOD9045196 Si02
#       8
#     2   2   2   2   2   2   2   2
#     4   9  22  42  63  90 120 161 207 254 295 367
#     4  11  22  40  66  90 121 157 215 250 304 363
#     4  11  21  39  58  91 127 162 202 254 307 357
#     4  11  21  39  65  89 123 169 206 244 305 366
#     4  11  22  39  65  89 124 162 210 251 301 370
#     4  11  22  38  61  93 125 166 203 249 306 373
#     4  10  24  44  66  87 121 165 204 255 315 363
#     4  10  24  36  54  91 133 161 195 250 316 357
#
# _framework density 21.785385000000002
#
# number of rings (size 3 to 8) (size 9 to 14) (size 15 to 20)
#    0.000    1.500    2.500    2.250    3.500    2.000 
#    2.250    0.625    0.000    0.000    0.000    0.000 
#    0.000    0.000    0.000    0.000    0.000    0.000 
#
# Total GULP energy -89374.021446 kJ/mol
# GULP energy per Si atom -5585.876340 kJ/mol
# Density = 2.173580 g / cm^3
# Si number density = 21.785385 Si / 1000 Ang^3
#
#
#
# Elastic Constant Matrix: (Units=GPa)
#
#
# Indices 1 2 3 4 5 6 
#
# 1 79.7181 3.0100 27.3361 5.3589 -7.2985 5.2297
# 2 3.0100 63.0172 16.6782 10.4314 -6.9145 -10.7767
# 3 27.3361 16.6782 107.9212 9.8222 -25.9382 -8.1121
# 4 5.3589 10.4314 9.8222 36.2940 -1.9867 -0.8361
# 5 -7.2985 -6.9145 -25.9382 -1.9867 35.3712 4.3635
# 6 5.2297 -10.7767 -8.1121 -0.8361 4.3635 25.1850
#
#
#
# Elastic Compliance Matrix: (Units=1/GPa)
#
#
# Indices 1 2 3 4 5 6 
#
# 1 0.014223 -0.000203 -0.003626 -0.001122 0.000712 -0.004369
# 2 -0.000203 0.018393 -0.001529 -0.004609 0.001305 0.007041
# 3 -0.003626 -0.001529 0.012683 -0.001967 0.007802 0.002767
# 4 -0.001122 -0.004609 -0.001967 0.029505 -0.000762 -0.001261
# 5 0.000712 0.001305 0.007802 -0.000762 0.034737 -0.003120
# 6 -0.004369 0.007041 0.002767 -0.001261 -0.003120 0.045016
#
#
# Mechanical properties :
#
#
# Convention : Reuss Voigt Hill
#
# Bulk Modulus (GPa) = 28.91612 38.30057 33.60834
# Shear Modulus (GPa) = 28.28058 32.94552 30.61305
#
# Velocity S-wave (km/s) = 3.60689 3.89302 3.75268
# Velocity P-wave (km/s) = 5.53608 6.15032 5.85127
#
# Compressibility (1/GPa) = 0.03458279
#
# Stress axis : x y z
#
# Youngs Moduli (GPa) = 70.31079 54.36780 78.84638
#
# Poissons Ratio (x) = 0.01103 0.28593
# Poissons Ratio (y) = 0.01426 0.12053
# Poissons Ratio (z) = 0.25498 0.08311
#
# Static dielectric constant tensor:
#      x y z
#    x 1.835600 0.009650 0.001540 
#    y 0.009650 1.791780 -0.027630 
#    z 0.001540 -0.027630 1.808210 
# 
# From -- ./inp_files/178688.got.cif
#   From: 2010.05.17/outbox.cif.g08.bks.cpg/sg2_90_cif.got.tgz:178688.got - 2010.06.03 11:33:40.
