data_PCOD9045946
_publ_section_title
;
Structure prediction by ZEFSAII (Michael W. Deem and Ramdas Pophale) SiO2 
 PCOD9045946
Probable space group: P -1
;
_chemical_formula_sum "Si O2"
_cell_formula_units_Z 15
_cell_length_a 5.090339
_cell_length_b 20.345486
_cell_length_c 6.294437
_cell_angle_alpha 72.762745
_cell_angle_beta 91.573393
_cell_angle_gamma 80.785796
_cell_volume 612.630368
_symmetry_space_group_name_H-M "P -1"
_symmetry_group_IT_number 2
_symmetry_cell_setting 'triclinic'
loop_
_space_group_symop_operation_xyz
x,y,z
-x,-y,-z
loop_
_atom_site_type_symbol
_atom_site_label
_atom_site_fract_x
_atom_site_fract_y
_atom_site_fract_z
Si Si1 0.924496 0.309430 0.286391
Si Si2 0.000000 0.500000 0.500000
Si Si3 0.888705 0.081841 0.412075
Si Si4 0.600124 0.265522 0.941784
Si Si5 0.744672 0.623649 0.473403
Si Si6 0.959834 0.172327 0.710327
Si Si7 0.343075 0.146095 0.119945
Si Si8 0.406020 0.543413 0.753003
O O1 0.961661 0.239502 0.496193
O O2 0.694243 0.374392 0.289804
O O3 0.178751 0.342283 0.339182
O O4 0.815195 0.290308 0.075621
O O5 0.004775 0.588938 0.380297
O O6 0.826544 0.494860 0.288894
O O7 0.863906 0.113832 0.618682
O O8 0.615947 0.098205 0.254582
O O9 0.109124 0.120881 0.271844
O O10 0.000000 0.000000 0.500000
O O11 0.445980 0.325250 0.730536
O O12 0.749988 0.204231 0.853616
O O13 0.392398 0.224900 0.097701
O O14 0.655256 0.547321 0.592875
O O15 0.233991 0.146898 0.872787
O O16 0.500000 0.500000 0.000000
#
# Coordination Sequence:
#
# PCOD9045946 Si02
#       8
#     2   1   2   2   2   2   2   2
#     4  11  24  42  69 106 140 187 249 312 381 439
#     4  10  24  42  64  98 134 192 242 304 368 452
#     4  12  30  52  78 116 162 204 250 308 381 462
#     4  12  25  45  76 111 145 197 256 318 379 450
#     4  11  24  44  70 100 146 189 249 312 383 446
#     4  12  25  47  78 109 154 194 261 314 382 452
#     4  12  26  49  78 116 150 203 252 312 378 452
#     4  11  24  42  63  97 139 192 239 306 377 454
#
# _framework density 24.484587000000001
#
# number of rings (size 3 to 8) (size 9 to 14) (size 15 to 20)
#    0.000    0.533    5.333    1.600    1.867    7.467 
#    0.000    0.000    0.000    0.000    0.000    0.000 
#    0.000    0.000    0.000    0.000    0.000    0.000 
#
# Total GULP energy -83643.510792 kJ/mol
# GULP energy per Si atom -5576.234053 kJ/mol
# Density = 2.442886 g / cm^3
# Si number density = 24.484587 Si / 1000 Ang^3
#
#
#
# Elastic Constant Matrix: (Units=GPa)
#
#
# Indices 1 2 3 4 5 6 
#
# 1 119.7315 34.7837 65.9406 -4.4486 39.0111 3.4228
# 2 34.7837 152.4028 83.7862 15.7377 21.0618 -11.0471
# 3 65.9406 83.7862 174.4587 -1.7682 63.6981 -9.7168
# 4 -4.4486 15.7377 -1.7682 39.6111 2.6344 4.8393
# 5 39.0111 21.0618 63.6981 2.6344 57.7409 -8.8498
# 6 3.4228 -11.0471 -9.7168 4.8393 -8.8498 34.4727
#
#
#
# Elastic Compliance Matrix: (Units=1/GPa)
#
#
# Indices 1 2 3 4 5 6 
#
# 1 0.012067 -0.001558 -0.001617 0.002858 -0.006582 -0.004244
# 2 -0.001558 0.010349 -0.005912 -0.005314 0.004615 0.003736
# 3 -0.001617 -0.005912 0.013559 0.003768 -0.012119 -0.001552
# 4 0.002858 -0.005314 0.003768 0.029094 -0.006501 -0.006678
# 5 -0.006582 0.004615 -0.012119 -0.006501 0.035071 0.008632
# 6 -0.004244 0.003736 -0.001552 -0.006678 0.008632 0.033343
#
#
# Mechanical properties :
#
#
# Convention : Reuss Voigt Hill
#
# Bulk Modulus (GPa) = 56.17823 90.62378 73.40101
# Shear Modulus (GPa) = 31.72739 43.83712 37.78226
#
# Velocity S-wave (km/s) = 3.60364 4.23590 3.93250
# Velocity P-wave (km/s) = 6.34895 7.81132 7.11779
#
# Compressibility (1/GPa) = 0.01780049
#
# Stress axis : x y z
#
# Youngs Moduli (GPa) = 82.86883 96.62472 73.75090
#
# Poissons Ratio (x) = 0.15059 0.11925
# Poissons Ratio (y) = 0.12915 0.43603
# Poissons Ratio (z) = 0.13400 0.57126
#
# Static dielectric constant tensor:
#      x y z
#    x 2.121670 -0.048550 0.560690 
#    y -0.048550 1.955710 -0.220010 
#    z 0.560690 -0.220010 2.102820 
# 
# From -- ./inp_files/9541.got.cif
#   From: 2010.05.17/outbox.cif.g08.bks.cpg/sg2_5_cif.got.tgz:9541.got - 2010.06.03 11:33:40.
