data_PCOD9045808
_publ_section_title
;
Structure prediction by ZEFSAII (Michael W. Deem and Ramdas Pophale) SiO2 
 PCOD9045808
Probable space group: P -1
;
_chemical_formula_sum "Si O2"
_cell_formula_units_Z 14
_cell_length_a 23.784703
_cell_length_b 8.434056
_cell_length_c 5.165016
_cell_angle_alpha 68.398149
_cell_angle_beta 62.385750
_cell_angle_gamma 42.060180
_cell_volume 614.531290
_symmetry_space_group_name_H-M "P -1"
_symmetry_group_IT_number 2
_symmetry_cell_setting 'triclinic'
loop_
_space_group_symop_operation_xyz
x,y,z
-x,-y,-z
loop_
_atom_site_type_symbol
_atom_site_label
_atom_site_fract_x
_atom_site_fract_y
_atom_site_fract_z
Si Si1 0.292688 0.638799 0.773375
Si Si2 0.561901 0.217271 0.019054
Si Si3 0.263455 0.913516 0.169580
Si Si4 0.032985 0.810045 0.823653
Si Si5 0.915999 0.551734 0.730755
Si Si6 0.496577 0.164518 0.702480
Si Si7 0.136505 0.713025 0.263594
O O1 0.278728 0.736828 0.456399
O O2 0.393407 0.396841 0.747057
O O3 0.272618 0.821967 0.917753
O O4 0.224121 0.617837 0.007502
O O5 0.534544 0.125104 0.351191
O O6 0.500000 0.500000 0.000000
O O7 0.660780 0.089086 0.943156
O O8 0.549686 0.194356 0.757147
O O9 0.169093 0.173568 0.252935
O O10 0.129599 0.692674 0.595865
O O11 0.052524 0.580953 0.982966
O O12 0.942653 0.997102 0.741794
O O13 0.000000 0.000000 0.000000
O O14 0.893941 0.414480 0.708540
O O15 0.000000 0.500000 0.500000
O O16 0.500000 0.000000 0.000000
#
# Coordination Sequence:
#
# PCOD9045808 Si02
#       7
#     2   2   2   2   2   2   2
#     4  12  26  46  68 106 139 184 234 283 361 421
#     4  12  23  49  72 103 146 188 233 290 363 416
#     4  12  28  44  74 103 140 186 235 293 348 424
#     4   9  21  43  65  94 130 183 225 287 349 408
#     4  11  26  43  67  99 137 181 236 289 345 414
#     4  12  26  45  75 105 145 187 237 294 350 433
#     4  10  24  41  70  93 138 184 227 291 349 419
#
# _framework density 22.781590000000001
#
# number of rings (size 3 to 8) (size 9 to 14) (size 15 to 20)
#    0.000    0.857    2.857    2.571   14.000    1.714 
#    0.000    0.000    0.000    0.000    0.000    0.000 
#    0.000    0.000    0.000    0.000    0.000    0.000 
#
# Total GULP energy -77986.776537 kJ/mol
# GULP energy per Si atom -5570.484038 kJ/mol
# Density = 2.272974 g / cm^3
# Si number density = 22.781590 Si / 1000 Ang^3
#
#
#
# Elastic Constant Matrix: (Units=GPa)
#
#
# Indices 1 2 3 4 5 6 
#
# 1 70.9054 6.4260 13.0213 15.5886 -21.3229 -12.3161
# 2 6.4260 101.6622 11.3739 -1.4262 -19.3571 -24.7503
# 3 13.0213 11.3739 129.5156 2.2696 -27.4815 -15.8870
# 4 15.5886 -1.4262 2.2696 39.4345 -7.7310 -7.7861
# 5 -21.3229 -19.3571 -27.4815 -7.7310 50.5516 14.7537
# 6 -12.3161 -24.7503 -15.8870 -7.7861 14.7537 16.6649
#
#
#
# Elastic Compliance Matrix: (Units=1/GPa)
#
#
# Indices 1 2 3 4 5 6 
#
# 1 0.018090 0.002416 0.000459 -0.003911 0.004940 0.011195
# 2 0.002416 0.017436 0.002151 0.005982 0.000387 0.032185
# 3 0.000459 0.002151 0.009463 0.002097 0.003414 0.010512
# 4 -0.003911 0.005982 0.002097 0.031482 -0.000041 0.022737
# 5 0.004940 0.000387 0.003414 -0.000041 0.029241 -0.018426
# 6 0.011195 0.032185 0.010512 0.022737 -0.018426 0.153038
#
#
# Mechanical properties :
#
#
# Convention : Reuss Voigt Hill
#
# Bulk Modulus (GPa) = 18.16784 40.41396 29.29090
# Shear Modulus (GPa) = 18.72344 39.41434 29.06889
#
# Velocity S-wave (km/s) = 2.86993 4.16395 3.57596
# Velocity P-wave (km/s) = 4.35593 6.39502 5.47131
#
# Compressibility (1/GPa) = 0.05504233
#
# Stress axis : x y z
#
# Youngs Moduli (GPa) = 55.27925 57.35162 105.67184
#
# Poissons Ratio (x) = -0.13858 -0.04850
# Poissons Ratio (y) = -0.13358 -0.22730
# Poissons Ratio (z) = -0.02537 -0.12337
#
# Static dielectric constant tensor:
#      x y z
#    x 1.893880 0.108070 -0.121350 
#    y 0.108070 1.713790 0.181920 
#    z -0.121350 0.181920 1.567890 
# 
# From -- ./inp_files/122804.got.cif
#   From: 2010.05.17/outbox.cif.g08.bks.cpg/sg2_62_cif.got.tgz:122804.got - 2010.06.03 11:33:40.
