data_PCOD9045610
_publ_section_title
;
Structure prediction by ZEFSAII (Michael W. Deem and Ramdas Pophale) SiO2 
 PCOD9045610
Probable space group: P -1
;
_chemical_formula_sum "Si O2"
_cell_formula_units_Z 15
_cell_length_a 8.024989
_cell_length_b 15.804861
_cell_length_c 11.843696
_cell_angle_alpha 141.855620
_cell_angle_beta 78.100877
_cell_angle_gamma 74.645451
_cell_volume 642.576799
_symmetry_space_group_name_H-M "P -1"
_symmetry_group_IT_number 2
_symmetry_cell_setting 'triclinic'
loop_
_space_group_symop_operation_xyz
x,y,z
-x,-y,-z
loop_
_atom_site_type_symbol
_atom_site_label
_atom_site_fract_x
_atom_site_fract_y
_atom_site_fract_z
Si Si1 0.196709 0.738635 0.376229
Si Si2 0.279994 0.817863 0.766443
Si Si3 0.942559 0.349987 0.125476
Si Si4 0.693915 0.118498 0.926066
Si Si5 0.922346 0.613315 0.244730
Si Si6 0.500000 0.500000 0.500000
Si Si7 0.553101 0.018797 0.225103
Si Si8 0.334449 0.664492 0.031311
O O1 0.239347 0.769503 0.276293
O O2 0.086336 0.650928 0.283168
O O3 0.457177 0.565171 0.212064
O O4 0.984779 0.938176 0.682560
O O5 0.351890 0.623584 0.527087
O O6 0.396450 0.880067 0.756066
O O7 0.364369 0.754885 0.822775
O O8 0.000000 0.000000 0.000000
O O9 0.940661 0.501436 0.230766
O O10 0.747063 0.438206 0.342730
O O11 0.867623 0.295059 0.973370
O O12 0.200895 0.164222 0.943369
O O13 0.571319 0.041360 0.880640
O O14 0.596384 0.244313 0.959096
O O15 0.647492 0.818408 0.488025
O O16 0.000000 0.500000 0.000000
#
# Coordination Sequence:
#
# PCOD9045610 Si02
#       8
#     2   2   2   2   2   1   2   2
#     4  10  24  41  63  92 128 171 214 267 320 380
#     4  12  24  43  67  96 125 168 218 266 324 385
#     4  12  24  42  69  97 130 173 217 268 322 384
#     4  11  24  42  64  93 130 166 214 267 324 382
#     4  11  23  44  65  95 131 172 216 265 321 380
#     4  12  24  42  68  96 128 164 226 262 320 390
#     4  11  25  43  65  97 133 169 214 266 324 387
#     4  11  22  42  63  92 128 170 217 262 320 382
#
# _framework density 23.343512
#
# number of rings (size 3 to 8) (size 9 to 14) (size 15 to 20)
#    0.000    0.800    5.333    1.600    1.867    1.600 
#    2.400    0.667    0.000    0.000    0.000    0.000 
#    0.000    0.000    0.000    0.000    0.000    0.000 
#
# Total GULP energy -83746.549370 kJ/mol
# GULP energy per Si atom -5583.103291 kJ/mol
# Density = 2.329038 g / cm^3
# Si number density = 23.343512 Si / 1000 Ang^3
#
#
#
# Elastic Constant Matrix: (Units=GPa)
#
#
# Indices 1 2 3 4 5 6 
#
# 1 49.7121 25.9506 27.9146 -11.0594 -8.2836 21.9411
# 2 25.9506 117.4968 45.9184 -1.0145 -11.6860 15.8256
# 3 27.9146 45.9184 146.2287 4.1550 -14.6921 -16.2210
# 4 -11.0594 -1.0145 4.1550 54.1986 -9.6207 0.6687
# 5 -8.2836 -11.6860 -14.6921 -9.6207 36.3161 3.5316
# 6 21.9411 15.8256 -16.2210 0.6687 3.5316 40.1690
#
#
#
# Elastic Compliance Matrix: (Units=1/GPa)
#
#
# Indices 1 2 3 4 5 6 
#
# 1 0.043989 -0.000269 -0.010757 0.012238 0.011706 -0.029498
# 2 -0.000269 0.011203 -0.003888 0.001032 0.002838 -0.006104
# 3 -0.010757 -0.003888 0.011446 -0.003507 -0.001189 0.012192
# 4 0.012238 0.001032 -0.003507 0.022901 0.008710 -0.009654
# 5 0.011706 0.002838 -0.001189 0.008710 0.034028 -0.011129
# 6 -0.029498 -0.006104 0.012192 -0.009654 -0.011129 0.049475
#
#
# Mechanical properties :
#
#
# Convention : Reuss Voigt Hill
#
# Bulk Modulus (GPa) = 27.16602 57.00053 42.08328
# Shear Modulus (GPa) = 23.24090 40.38034 31.81062
#
# Velocity S-wave (km/s) = 3.15874 4.16364 3.69551
# Velocity P-wave (km/s) = 4.99663 6.89824 6.02295
#
# Compressibility (1/GPa) = 0.03681069
#
# Stress axis : x y z
#
# Youngs Moduli (GPa) = 22.73302 89.26321 87.37027
#
# Poissons Ratio (x) = 0.02398 0.93982
# Poissons Ratio (y) = 0.00611 0.33968
# Poissons Ratio (z) = 0.24453 0.34704
#
# Static dielectric constant tensor:
#      x y z
#    x 1.923200 0.010920 0.046640 
#    y 0.010920 1.936810 0.066190 
#    z 0.046640 0.066190 2.043520 
# 
# From -- ./inp_files/272614.got.cif
#   From: 2010.05.17/outbox.cif.g08.bks.cpg/sg2_137_cif.got.tgz:272614.got - 2010.06.03 11:33:40.
