data_PCOD9045837
_publ_section_title
;
Structure prediction by ZEFSAII (Michael W. Deem and Ramdas Pophale) SiO2 
 PCOD9045837
Probable space group: P -1
;
_chemical_formula_sum "Si O2"
_cell_formula_units_Z 14
_cell_length_a 11.803257
_cell_length_b 11.653550
_cell_length_c 17.749501
_cell_angle_alpha 30.075698
_cell_angle_beta 31.345510
_cell_angle_gamma 40.312194
_cell_volume 633.883931
_symmetry_space_group_name_H-M "P -1"
_symmetry_group_IT_number 2
_symmetry_cell_setting 'triclinic'
loop_
_space_group_symop_operation_xyz
x,y,z
-x,-y,-z
loop_
_atom_site_type_symbol
_atom_site_label
_atom_site_fract_x
_atom_site_fract_y
_atom_site_fract_z
Si Si1 0.550075 0.223729 0.299507
Si Si2 0.800978 0.412079 0.738112
Si Si3 0.730662 0.209575 0.049596
Si Si4 0.494477 0.412098 0.669699
Si Si5 0.879471 0.195936 0.667471
Si Si6 0.860102 0.287047 0.206941
Si Si7 0.798784 0.703273 0.231863
O O1 0.373428 0.431046 0.300782
O O2 0.553251 0.211840 0.214787
O O3 0.780329 0.261855 0.181502
O O4 0.500000 0.000000 0.500000
O O5 0.879051 0.208292 0.752343
O O6 0.986755 0.582677 0.554070
O O7 0.693030 0.327035 0.923223
O O8 0.769899 0.942015 0.158270
O O9 0.938035 0.330041 0.897278
O O10 0.639571 0.242107 0.740213
O O11 0.349439 0.621632 0.674826
O O12 0.674388 0.516706 0.454639
O O13 0.323770 0.290287 0.782778
O O14 0.009305 0.954505 0.706263
O O15 0.000000 0.500000 0.000000
#
# Coordination Sequence:
#
# PCOD9045837 Si02
#       7
#     2   2   2   2   2   2   2
#     4  12  24  44  72 104 144 187 238 294 358 425
#     4  11  24  43  71 107 142 184 245 300 345 423
#     4  11  24  41  71 106 139 183 244 300 342 426
#     4  11  23  49  68 102 143 194 231 290 364 425
#     4  11  25  44  73 104 142 188 244 292 358 419
#     4  12  27  43  71 105 143 186 238 295 352 433
#     4  10  24  41  72  99 143 187 237 290 358 421
#
# _framework density 22.086061999999998
#
# number of rings (size 3 to 8) (size 9 to 14) (size 15 to 20)
#    0.000    0.857    4.286    2.143    6.000    1.714 
#    0.000    4.286    0.000    0.000    0.000    0.000 
#    0.000    0.000    0.000    0.000    0.000    0.000 
#
# Total GULP energy -78096.723473 kJ/mol
# GULP energy per Si atom -5578.337391 kJ/mol
# Density = 2.203579 g / cm^3
# Si number density = 22.086062 Si / 1000 Ang^3
#
#
#
# Elastic Constant Matrix: (Units=GPa)
#
#
# Indices 1 2 3 4 5 6 
#
# 1 83.4551 0.1368 12.1155 14.5922 -31.4378 -0.7488
# 2 0.1368 72.2203 -6.7708 27.2274 -29.4659 -0.8676
# 3 12.1155 -6.7708 76.4263 4.5537 -7.5427 10.3853
# 4 14.5922 27.2274 4.5537 5.2695 31.9917 -1.8834
# 5 -31.4378 -29.4659 -7.5427 31.9917 4.7941 12.3980
# 6 -0.7488 -0.8676 10.3853 -1.8834 12.3980 31.6579
#
#
#
# Elastic Compliance Matrix: (Units=1/GPa)
#
#
# Indices 1 2 3 4 5 6 
#
# 1 0.010522 -0.003437 -0.002873 0.005930 -0.002304 0.002352
# 2 -0.003437 0.009223 -0.000043 0.004909 -0.006897 0.003179
# 3 -0.002873 -0.000043 0.013834 0.002133 -0.001209 -0.004007
# 4 0.005930 0.004909 0.002133 0.010809 0.021802 -0.008320
# 5 -0.002304 -0.006897 -0.001209 0.021802 0.003506 0.000077
# 6 0.002352 0.003179 -0.004007 -0.008320 0.000077 0.032520
#
#
# Mechanical properties :
#
#
# Convention : Reuss Voigt Hill
#
# Bulk Modulus (GPa) = 47.90877 27.00718 37.45798
# Shear Modulus (GPa) = 49.96198 23.45232 36.70715
#
# Velocity S-wave (km/s) = 4.76137 3.26216 4.08119
# Velocity P-wave (km/s) = 7.20877 5.14233 6.26139
#
# Compressibility (1/GPa) = 0.02087301
#
# Stress axis : x y z
#
# Youngs Moduli (GPa) = 95.04332 108.42908 72.28498
#
# Poissons Ratio (x) = 0.37264 0.20765
# Poissons Ratio (y) = 0.32664 0.00312
# Poissons Ratio (z) = 0.27303 0.00469
#
# Static dielectric constant tensor:
#      x y z
#    x 1.898220 0.005670 -0.012750 
#    y 0.005670 1.855960 0.067680 
#    z -0.012750 0.067680 1.830620 
# 
# From -- ./inp_files/569084.got.cif
#   From: 2010.05.17/outbox.cif.g08.bks.cpg/sg2_285_cif.got.tgz:569084.got - 2010.06.03 11:33:40.
