data_PCOD9045171
_publ_section_title
;
Structure prediction by ZEFSAII (Michael W. Deem and Ramdas Pophale) SiO2 
 PCOD9045171
Probable space group: P -1
;
_chemical_formula_sum "Si O2"
_cell_formula_units_Z 12
_cell_length_a 7.623089
_cell_length_b 14.768151
_cell_length_c 23.505822
_cell_angle_alpha 18.093737
_cell_angle_beta 145.086614
_cell_angle_gamma 140.551405
_cell_volume 469.984918
_symmetry_space_group_name_H-M "P -1"
_symmetry_group_IT_number 2
_symmetry_cell_setting 'triclinic'
loop_
_space_group_symop_operation_xyz
x,y,z
-x,-y,-z
loop_
_atom_site_type_symbol
_atom_site_label
_atom_site_fract_x
_atom_site_fract_y
_atom_site_fract_z
Si Si1 0.902755 0.904438 0.889024
Si Si2 0.602208 0.587267 0.537900
Si Si3 0.150593 0.760503 0.917887
Si Si4 0.396465 0.929714 0.450635
Si Si5 0.308083 0.381167 0.686323
Si Si6 0.746791 0.476072 0.203112
O O1 0.021849 0.773511 0.939290
O O2 0.594407 0.113928 0.678148
O O3 0.845190 0.657189 0.066598
O O4 0.179230 0.122629 0.844189
O O5 0.500000 0.500000 0.500000
O O6 0.518241 0.344323 0.708283
O O7 0.027969 0.968500 0.321823
O O8 0.506884 0.688624 0.046890
O O9 0.000000 0.500000 0.000000
O O10 0.461733 0.617108 0.626530
O O11 0.962359 0.612811 0.627868
O O12 0.500000 0.000000 0.500000
O O13 0.575548 0.183584 0.314350
O O14 0.000000 0.500000 0.500000
#
# Coordination Sequence:
#
# PCOD9045171 Si02
#       6
#     2   2   2   2   2   2
#     4  11  26  52  84 110 167 206 276 326 402 482
#     4  11  27  50  79 118 164 211 269 333 403 481
#     4  10  24  52  75 118 164 206 263 336 405 473
#     4  11  25  48  83 115 160 214 264 330 408 478
#     4  10  23  50  78 112 159 215 261 326 403 472
#     4  11  29  48  83 120 156 210 275 327 406 470
#
# _framework density 25.532734999999999
#
# number of rings (size 3 to 8) (size 9 to 14) (size 15 to 20)
#    0.000    1.333    3.333    0.000    9.333    7.333 
#    3.000    0.000    0.000    0.000    0.000    0.000 
#    0.000    0.000    0.000    0.000    0.000    0.000 
#
# Total GULP energy -67112.702104 kJ/mol
# GULP energy per Si atom -5592.725175 kJ/mol
# Density = 2.547462 g / cm^3
# Si number density = 25.532735 Si / 1000 Ang^3
#
#
#
# Elastic Constant Matrix: (Units=GPa)
#
#
# Indices 1 2 3 4 5 6 
#
# 1 183.1658 96.8202 75.3499 3.8571 0.5683 -12.8547
# 2 96.8202 171.1756 71.5193 -9.4286 7.8205 -8.0931
# 3 75.3499 71.5193 114.5586 -7.9790 -32.0381 -7.2307
# 4 3.8571 -9.4286 -7.9790 54.5580 9.5423 13.5504
# 5 0.5683 7.8205 -32.0381 9.5423 63.9914 7.7001
# 6 -12.8547 -8.0931 -7.2307 13.5504 7.7001 60.8898
#
#
#
# Elastic Compliance Matrix: (Units=1/GPa)
#
#
# Indices 1 2 3 4 5 6 
#
# 1 0.009233 -0.003236 -0.004617 -0.001964 -0.001904 0.001648
# 2 -0.003236 0.010156 -0.005225 0.001906 -0.004130 0.000144
# 3 -0.004617 -0.005225 0.017683 0.000562 0.009558 -0.000903
# 4 -0.001964 0.001906 0.000562 0.020382 -0.002453 -0.004320
# 5 -0.001904 -0.004130 0.009558 -0.002453 0.021540 -0.001994
# 6 0.001648 0.000144 -0.000903 -0.004320 -0.001994 0.017897
#
#
# Mechanical properties :
#
#
# Convention : Reuss Voigt Hill
#
# Bulk Modulus (GPa) = 91.61961 106.25320 98.93640
# Shear Modulus (GPa) = 39.46786 50.90189 45.18487
#
# Velocity S-wave (km/s) = 3.93590 4.46981 4.21132
# Velocity P-wave (km/s) = 7.52437 8.26703 7.90443
#
# Compressibility (1/GPa) = 0.01091469
#
# Stress axis : x y z
#
# Youngs Moduli (GPa) = 108.31182 98.46439 56.55020
#
# Poissons Ratio (x) = 0.31864 0.26112
# Poissons Ratio (y) = 0.35051 0.29548
# Poissons Ratio (z) = 0.50013 0.51448
#
# Static dielectric constant tensor:
#      x y z
#    x 2.853840 0.184820 0.732680 
#    y 0.184820 2.028170 0.158010 
#    z 0.732680 0.158010 2.847180 
# 
# From -- ./inp_files/476936.got.cif
#   From: 2010.05.17/outbox.cif.g08.bks.cpg/sg2_239_cif.got.tgz:476936.got - 2010.06.03 11:33:40.
