data_PCOD9045011
_publ_section_title
;
Structure prediction by ZEFSAII (Michael W. Deem and Ramdas Pophale) SiO2 
 PCOD9045011
Probable space group: P -1
;
_chemical_formula_sum "Si O2"
_cell_formula_units_Z 16
_cell_length_a 9.163053
_cell_length_b 4.988179
_cell_length_c 20.061222
_cell_angle_alpha 123.282357
_cell_angle_beta 121.462511
_cell_angle_gamma 57.867495
_cell_volume 613.885158
_symmetry_space_group_name_H-M "P -1"
_symmetry_group_IT_number 2
_symmetry_cell_setting 'triclinic'
loop_
_space_group_symop_operation_xyz
x,y,z
-x,-y,-z
loop_
_atom_site_type_symbol
_atom_site_label
_atom_site_fract_x
_atom_site_fract_y
_atom_site_fract_z
Si Si1 0.313956 0.203228 0.134396
Si Si2 0.791172 0.409844 0.466766
Si Si3 0.160612 0.629185 0.031248
Si Si4 0.630743 0.926633 0.085572
Si Si5 0.146193 0.652683 0.750563
Si Si6 0.609339 0.853683 0.368172
Si Si7 0.921248 0.216172 0.614451
Si Si8 0.242985 0.783452 0.296171
O O1 0.288494 0.478921 0.106238
O O2 0.293823 0.410819 0.225107
O O3 0.169681 0.004567 0.074691
O O4 0.511881 0.937166 0.124820
O O5 0.683835 0.738650 0.444252
O O6 0.854785 0.430686 0.560238
O O7 0.665187 0.173906 0.406268
O O8 0.968704 0.166309 0.435982
O O9 0.228667 0.439892 0.951576
O O10 0.000000 0.500000 0.000000
O O11 0.735331 0.195360 0.153466
O O12 0.500000 0.000000 0.000000
O O13 0.279498 0.470579 0.696110
O O14 0.061269 0.359384 0.706974
O O15 0.960534 0.972498 0.737543
O O16 0.396924 0.921060 0.324949
O O17 0.760046 0.241112 0.628712
#
# Coordination Sequence:
#
# PCOD9045011 Si02
#       8
#     2   2   2   2   2   2   2   2
#     4  11  25  44  66 101 138 180 234 286 351 429
#     4  10  24  48  72 107 147 195 240 302 360 431
#     4  11  24  44  69 100 134 182 229 294 353 418
#     4  10  23  48  73 101 142 193 239 300 363 431
#     4  11  24  48  69 108 143 194 238 307 363 432
#     4  11  25  46  74 104 149 190 242 298 367 426
#     4  10  25  43  76 103 149 191 246 297 366 430
#     4  12  26  43  72 109 141 196 240 301 360 436
#
# _framework density 26.063506
#
# number of rings (size 3 to 8) (size 9 to 14) (size 15 to 20)
#    0.000    1.250    2.500    1.500    7.000    2.500 
#    9.000    0.000    0.000    0.000    0.000    0.000 
#    0.000    0.000    0.000    0.000    0.000    0.000 
#
# Total GULP energy -89576.980100 kJ/mol
# GULP energy per Si atom -5598.561256 kJ/mol
# Density = 2.600418 g / cm^3
# Si number density = 26.063506 Si / 1000 Ang^3
#
#
#
# Elastic Constant Matrix: (Units=GPa)
#
#
# Indices 1 2 3 4 5 6 
#
# 1 176.4996 41.8542 63.3285 18.5327 -5.5989 -19.0285
# 2 41.8542 72.8986 23.4347 6.8578 -6.6550 3.2890
# 3 63.3285 23.4347 152.9857 30.4954 12.5929 -7.1706
# 4 18.5327 6.8578 30.4954 31.9850 -1.6280 4.6731
# 5 -5.5989 -6.6550 12.5929 -1.6280 53.1277 3.7930
# 6 -19.0285 3.2890 -7.1706 4.6731 3.7930 37.3734
#
#
#
# Elastic Compliance Matrix: (Units=1/GPa)
#
#
# Indices 1 2 3 4 5 6 
#
# 1 0.008076 -0.003883 -0.002097 -0.002453 0.000479 0.004309
# 2 -0.003883 0.016755 -0.001507 0.000810 0.002363 -0.004082
# 3 -0.002097 -0.001507 0.009612 -0.008111 -0.003096 0.002238
# 4 -0.002453 0.000810 -0.008111 0.041666 0.003646 -0.008456
# 5 0.000479 0.002363 -0.003096 0.003646 0.020234 -0.003068
# 6 0.004309 -0.004082 0.002238 -0.008456 -0.003068 0.031108
#
#
# Mechanical properties :
#
#
# Convention : Reuss Voigt Hill
#
# Bulk Modulus (GPa) = 51.35984 73.29098 62.32541
# Shear Modulus (GPa) = 33.57642 42.74830 38.16236
#
# Velocity S-wave (km/s) = 3.59312 4.05428 3.83065
# Velocity P-wave (km/s) = 6.07967 7.07796 6.59772
#
# Compressibility (1/GPa) = 0.01947046
#
# Stress axis : x y z
#
# Youngs Moduli (GPa) = 123.82057 59.68401 104.03847
#
# Poissons Ratio (x) = 0.23174 0.21815
# Poissons Ratio (y) = 0.48077 0.15675
# Poissons Ratio (z) = 0.25963 0.08992
#
# Static dielectric constant tensor:
#      x y z
#    x 2.047840 -0.066930 0.027160 
#    y -0.066930 2.155600 -0.048800 
#    z 0.027160 -0.048800 2.060740 
# 
# From -- ./inp_files/585948.got.cif
#   From: 2010.05.17/outbox.cif.g08.bks.cpg/sg2_293_cif.got.tgz:585948.got - 2010.06.03 11:33:40.
