data_PCOD9045683
_publ_section_title
;
Structure prediction by ZEFSAII (Michael W. Deem and Ramdas Pophale) SiO2 
 PCOD9045683
Probable space group: P -1
;
_chemical_formula_sum "Si O2"
_cell_formula_units_Z 16
_cell_length_a 18.483311
_cell_length_b 20.676540
_cell_length_c 6.658688
_cell_angle_alpha 55.780632
_cell_angle_beta 123.822240
_cell_angle_gamma 160.246374
_cell_volume 707.768413
_symmetry_space_group_name_H-M "P -1"
_symmetry_group_IT_number 2
_symmetry_cell_setting 'triclinic'
loop_
_space_group_symop_operation_xyz
x,y,z
-x,-y,-z
loop_
_atom_site_type_symbol
_atom_site_label
_atom_site_fract_x
_atom_site_fract_y
_atom_site_fract_z
Si Si1 0.654483 0.964554 0.442032
Si Si2 0.109619 0.368536 0.621679
Si Si3 0.657793 0.174535 0.590350
Si Si4 0.448555 0.697704 0.256808
Si Si5 0.337922 0.184189 0.007666
Si Si6 0.137240 0.217748 0.964317
Si Si7 0.534618 0.542438 0.249003
Si Si8 0.901194 0.524309 0.203958
O O1 0.488002 0.895941 0.359951
O O2 0.591412 0.879921 0.274263
O O3 0.626584 0.866969 0.723546
O O4 0.894652 0.192791 0.458259
O O5 0.321137 0.548613 0.496516
O O6 0.097388 0.274030 0.872209
O O7 0.109200 0.435207 0.674242
O O8 0.794376 0.351641 0.371353
O O9 0.845137 0.275647 0.801579
O O10 0.500000 0.000000 0.500000
O O11 0.604126 0.781918 0.194453
O O12 0.251632 0.564243 0.045073
O O13 0.469777 0.368265 0.955298
O O14 0.092578 0.008657 0.971470
O O15 0.238597 0.303573 0.749032
O O16 0.331032 0.338939 0.175330
O O17 0.500000 0.500000 0.500000
#
# Coordination Sequence:
#
# PCOD9045683 Si02
#       8
#     2   2   2   2   2   2   2   2
#     4  11  24  43  66  96 130 178 222 270 332 394
#     4  11  23  43  67  95 130 174 219 270 329 397
#     4  11  22  44  68  91 132 177 219 272 333 387
#     4  12  23  40  65  99 128 171 224 270 326 387
#     4  11  24  43  67  91 137 174 216 265 329 391
#     4  10  24  41  66  96 130 171 217 261 327 389
#     4  11  23  42  66 100 130 167 215 272 322 382
#     4  11  24  41  67  93 131 176 218 273 334 383
#
# _framework density 22.606265
#
# number of rings (size 3 to 8) (size 9 to 14) (size 15 to 20)
#    0.000    1.000    3.750    2.625    0.000    8.000 
#    0.000    1.250    0.000    0.000    0.000    0.000 
#    0.000    0.000    0.000    0.000    0.000    0.000 
#
# Total GULP energy -89371.912824 kJ/mol
# GULP energy per Si atom -5585.744552 kJ/mol
# Density = 2.255481 g / cm^3
# Si number density = 22.606265 Si / 1000 Ang^3
#
#
#
# Elastic Constant Matrix: (Units=GPa)
#
#
# Indices 1 2 3 4 5 6 
#
# 1 110.7833 38.2421 25.4092 11.3396 -21.8500 1.7082
# 2 38.2421 152.2514 38.7904 25.7715 -18.8273 8.3403
# 3 25.4092 38.7904 68.8519 8.3149 -14.6972 -2.7810
# 4 11.3396 25.7715 8.3149 27.9198 -7.3966 -7.6832
# 5 -21.8500 -18.8273 -14.6972 -7.3966 26.0397 -0.9826
# 6 1.7082 8.3403 -2.7810 -7.6832 -0.9826 46.5005
#
#
#
# Elastic Compliance Matrix: (Units=1/GPa)
#
#
# Indices 1 2 3 4 5 6 
#
# 1 0.011453 -0.001317 -0.001807 -0.001041 0.007331 -0.000310
# 2 -0.001317 0.009483 -0.003778 -0.007591 0.001346 -0.003104
# 3 -0.001807 -0.003778 0.018711 0.001017 0.006684 0.002172
# 4 -0.001041 -0.007591 0.001017 0.047715 0.008125 0.009516
# 5 0.007331 0.001346 0.006684 0.008125 0.051695 0.002324
# 6 -0.000310 -0.003104 0.002172 0.009516 0.002324 0.023825
#
#
# Mechanical properties :
#
#
# Convention : Reuss Voigt Hill
#
# Bulk Modulus (GPa) = 38.69407 59.64113 49.16760
# Shear Modulus (GPa) = 26.98354 35.38833 31.18594
#
# Velocity S-wave (km/s) = 3.45864 3.96083 3.71823
# Velocity P-wave (km/s) = 5.75355 6.88167 6.34274
#
# Compressibility (1/GPa) = 0.02584376
#
# Stress axis : x y z
#
# Youngs Moduli (GPa) = 87.31533 105.45526 53.44501
#
# Poissons Ratio (x) = 0.13884 0.09656
# Poissons Ratio (y) = 0.11496 0.20191
# Poissons Ratio (z) = 0.15775 0.39841
#
# Static dielectric constant tensor:
#      x y z
#    x 1.858210 0.015560 0.030660 
#    y 0.015560 1.843180 0.014810 
#    z 0.030660 0.014810 1.848490 
# 
# From -- ./inp_files/107832.got.cif
#   From: 2010.05.17/outbox.cif.g08.bks.cpg/sg2_54_cif.got.tgz:107832.got - 2010.06.03 11:33:40.
