data_PCOD9045204
_publ_section_title
;
Structure prediction by ZEFSAII (Michael W. Deem and Ramdas Pophale) SiO2 
 PCOD9045204
Probable space group: P -1
;
_chemical_formula_sum "Si O2"
_cell_formula_units_Z 16
_cell_length_a 12.780881
_cell_length_b 11.829184
_cell_length_c 19.071153
_cell_angle_alpha 135.004184
_cell_angle_beta 155.003584
_cell_angle_gamma 36.355384
_cell_volume 719.257128
_symmetry_space_group_name_H-M "P -1"
_symmetry_group_IT_number 2
_symmetry_cell_setting 'triclinic'
loop_
_space_group_symop_operation_xyz
x,y,z
-x,-y,-z
loop_
_atom_site_type_symbol
_atom_site_label
_atom_site_fract_x
_atom_site_fract_y
_atom_site_fract_z
Si Si1 0.850915 0.864768 0.646269
Si Si2 0.615020 0.128200 0.868870
Si Si3 0.312460 0.961519 0.978702
Si Si4 0.917257 0.671090 0.468726
Si Si5 0.171388 0.636907 0.194105
Si Si6 0.754470 0.599799 0.563742
Si Si7 0.933916 0.307892 0.096322
Si Si8 0.729136 0.602891 0.983946
O O1 0.940644 0.812053 0.596736
O O2 0.897879 0.689412 0.642783
O O3 0.032459 0.947565 0.821234
O O4 0.500000 0.000000 0.500000
O O5 0.409779 0.209855 0.710843
O O6 0.494314 0.116415 0.866712
O O7 0.729270 0.270486 0.005054
O O8 0.854522 0.904241 0.900631
O O9 0.499644 0.816465 0.966125
O O10 0.136043 0.182363 0.945700
O O11 0.000000 0.500000 0.500000
O O12 0.107513 0.598704 0.481383
O O13 0.403910 0.690328 0.383117
O O14 0.315842 0.474892 0.150573
O O15 0.050282 0.572316 0.155596
O O16 0.872379 0.620490 0.718455
O O17 0.738615 0.462541 0.986853
#
# Coordination Sequence:
#
# PCOD9045204 Si02
#       8
#     2   2   2   2   2   2   2   2
#     4  11  21  36  60  97 130 167 202 267 335 384
#     4  11  24  39  64  98 137 167 211 271 332 395
#     4  12  23  42  70  99 131 170 220 270 328 390
#     4  10  24  36  59  95 133 166 209 258 328 401
#     4  11  25  46  66  96 129 178 225 271 315 385
#     4  11  22  39  62  92 131 166 215 266 327 387
#     4  11  24  41  64  96 132 176 213 266 333 390
#     4  11  26  44  69  92 132 177 227 267 320 382
#
# _framework density 22.245173000000001
#
# number of rings (size 3 to 8) (size 9 to 14) (size 15 to 20)
#    0.000    1.000    3.750    2.625    8.750    1.500 
#    0.000    0.000    0.000    1.500    0.000    0.000 
#    0.000    0.000    0.000    0.000    0.000    0.000 
#
# Total GULP energy -89103.387755 kJ/mol
# GULP energy per Si atom -5568.961735 kJ/mol
# Density = 2.219454 g / cm^3
# Si number density = 22.245173 Si / 1000 Ang^3
#
#
#
# Elastic Constant Matrix: (Units=GPa)
#
#
# Indices 1 2 3 4 5 6 
#
# 1 39.2448 -0.7896 -23.7671 9.3365 -6.7872 1.1045
# 2 -0.7896 63.4934 -20.6698 1.1468 -5.1102 -6.8278
# 3 -23.7671 -20.6698 39.1437 14.1665 -7.8138 11.4683
# 4 9.3365 1.1468 14.1665 19.5691 2.6736 0.4250
# 5 -6.7872 -5.1102 -7.8138 2.6736 21.7554 1.4110
# 6 1.1045 -6.8278 11.4683 0.4250 1.4110 29.1106
#
#
#
# Elastic Compliance Matrix: (Units=1/GPa)
#
#
# Indices 1 2 3 4 5 6 
#
# 1 -0.013601 -0.014647 -0.039884 0.039720 -0.027770 0.013559
# 2 -0.014647 0.010757 -0.014275 0.017856 -0.009943 0.008924
# 3 -0.039884 -0.014275 -0.035105 0.049829 -0.035370 0.012982
# 4 0.039720 0.017856 0.049829 -0.009601 0.036869 -0.018596
# 5 -0.027770 -0.009943 -0.035370 0.036869 0.016999 0.011293
# 6 0.013559 0.008924 0.012982 -0.018596 0.011293 0.030540
#
#
# Mechanical properties :
#
#
# Convention : Reuss Voigt Hill
#
# Bulk Modulus (GPa) = -5.69606 5.71433 0.00913
# Shear Modulus (GPa) = 63.22605 26.56092 44.89349
#
# Velocity S-wave (km/s) = 5.33705 3.45919 4.49723
# Velocity P-wave (km/s) = 5.95085 4.30454 5.19335
#
# Compressibility (1/GPa) = -0.17555992
#
# Stress axis : x y z
#
# Youngs Moduli (GPa) = -73.52195 92.95960 -28.48635
#
# Poissons Ratio (x) = 1.36160 -1.13614
# Poissons Ratio (y) = -1.07690 -0.40663
# Poissons Ratio (z) = -2.93233 1.32697
#
# Static dielectric constant tensor:
#      x y z
#    x 1.837210 -0.040290 0.000350 
#    y -0.040290 1.902380 0.038800 
#    z 0.000350 0.038800 1.917380 
# 
# From -- ./inp_files/568830.got.cif
#   From: 2010.05.17/outbox.cif.g08.bks.cpg/sg2_285_cif.got.tgz:568830.got - 2010.06.03 11:33:40.
