data_PCOD9045968
_publ_section_title
;
Structure prediction by ZEFSAII (Michael W. Deem and Ramdas Pophale) SiO2 
 PCOD9045968
Probable space group: P -1
;
_chemical_formula_sum "Si O2"
_cell_formula_units_Z 14
_cell_length_a 8.562186
_cell_length_b 6.059736
_cell_length_c 16.723823
_cell_angle_alpha 90.978104
_cell_angle_beta 93.343213
_cell_angle_gamma 46.682145
_cell_volume 629.920462
_symmetry_space_group_name_H-M "P -1"
_symmetry_group_IT_number 2
_symmetry_cell_setting 'triclinic'
loop_
_space_group_symop_operation_xyz
x,y,z
-x,-y,-z
loop_
_atom_site_type_symbol
_atom_site_label
_atom_site_fract_x
_atom_site_fract_y
_atom_site_fract_z
Si Si1 0.259783 0.271143 0.398343
Si Si2 0.619826 0.570478 0.453703
Si Si3 0.497052 0.320833 0.115070
Si Si4 0.819366 0.333202 0.033179
Si Si5 0.798470 0.379014 0.748348
Si Si6 0.910151 0.287622 0.319120
Si Si7 0.845077 0.636030 0.170218
O O1 0.232671 0.445202 0.477493
O O2 0.309719 0.380366 0.325374
O O3 0.049915 0.337593 0.368832
O O4 0.450022 0.913936 0.418120
O O5 0.500000 0.500000 0.500000
O O6 0.747521 0.352921 0.380560
O O7 0.660624 0.339946 0.083205
O O8 0.370998 0.531464 0.189824
O O9 0.634344 0.977024 0.143195
O O10 0.324536 0.434054 0.041739
O O11 0.914170 0.428605 0.093804
O O12 0.000000 0.000000 0.000000
O O13 0.968677 0.376760 0.796799
O O14 0.931287 0.050378 0.712513
O O15 0.802672 0.513005 0.242111
#
# Coordination Sequence:
#
# PCOD9045968 Si02
#       7
#     2   2   2   2   2   2   2
#     4  10  24  42  65  94 128 170 213 261 321 378
#     4  11  24  42  66  95 129 168 215 264 316 378
#     4  11  24  42  66  94 128 168 211 259 316 377
#     4  11  25  44  66  96 130 166 211 261 316 377
#     4  11  25  43  66  95 128 168 214 263 316 376
#     4  11  24  43  65  93 130 168 212 264 318 377
#     4  11  24  42  66  93 128 168 211 260 318 378
#
# _framework density 22.225026
#
# number of rings (size 3 to 8) (size 9 to 14) (size 15 to 20)
#    0.000    1.143    0.000    5.143    0.000   18.286 
#    0.000    0.000    0.000    0.000    0.000    0.000 
#    0.000    0.000    0.000    0.000    0.000    0.000 
#
# Total GULP energy -78423.722856 kJ/mol
# GULP energy per Si atom -5601.694490 kJ/mol
# Density = 2.217444 g / cm^3
# Si number density = 22.225026 Si / 1000 Ang^3
#
#
#
# Elastic Constant Matrix: (Units=GPa)
#
#
# Indices 1 2 3 4 5 6 
#
# 1 66.0243 33.5102 54.2200 -0.4289 -13.0112 1.8821
# 2 33.5102 135.6254 93.8357 -1.9487 -11.0341 2.5835
# 3 54.2200 93.8357 167.2461 -8.3876 -20.2559 -6.1622
# 4 -0.4289 -1.9487 -8.3876 51.8031 -9.0069 -2.1957
# 5 -13.0112 -11.0341 -20.2559 -9.0069 56.7055 5.2687
# 6 1.8821 2.5835 -6.1622 -2.1957 5.2687 23.6581
#
#
#
# Elastic Compliance Matrix: (Units=1/GPa)
#
#
# Indices 1 2 3 4 5 6 
#
# 1 0.021390 -0.000496 -0.006498 -0.000582 0.002771 -0.004011
# 2 -0.000496 0.012328 -0.006915 -0.000798 -0.000016 -0.003178
# 3 -0.006498 -0.006915 0.012420 0.002149 0.001536 0.004364
# 4 -0.000582 -0.000798 0.002149 0.020308 0.003538 0.001790
# 5 0.002771 -0.000016 0.001536 0.003538 0.019739 -0.003886
# 6 -0.004011 -0.003178 0.004364 0.001790 -0.003886 0.045103
#
#
# Mechanical properties :
#
#
# Convention : Reuss Voigt Hill
#
# Bulk Modulus (GPa) = 54.58282 81.33641 67.95961
# Shear Modulus (GPa) = 30.26392 38.92200 34.59296
#
# Velocity S-wave (km/s) = 3.69413 4.18936 3.94951
# Velocity P-wave (km/s) = 6.54278 7.75095 7.17235
#
# Compressibility (1/GPa) = 0.01832078
#
# Stress axis : x y z
#
# Youngs Moduli (GPa) = 46.75026 81.11705 80.51482
#
# Poissons Ratio (x) = 0.04024 0.52316
# Poissons Ratio (y) = 0.02319 0.55676
# Poissons Ratio (z) = 0.30377 0.56092
#
# Static dielectric constant tensor:
#      x y z
#    x 1.827270 0.002890 0.005810 
#    y 0.002890 1.767830 -0.007830 
#    z 0.005810 -0.007830 1.806190 
# 
# From -- ./inp_files/8179.got.cif
#   From: 2010.05.17/outbox.cif.g08.bks.cpg/sg2_5_cif.got.tgz:8179.got - 2010.06.03 11:33:40.
