data_PCOD9045909
_publ_section_title
;
Structure prediction by ZEFSAII (Michael W. Deem and Ramdas Pophale) SiO2 
 PCOD9045909
Probable space group: P -1
;
_chemical_formula_sum "Si O2"
_cell_formula_units_Z 14
_cell_length_a 6.281403
_cell_length_b 16.844027
_cell_length_c 9.243405
_cell_angle_alpha 122.179469
_cell_angle_beta 79.824332
_cell_angle_gamma 132.282968
_cell_volume 586.067016
_symmetry_space_group_name_H-M "P -1"
_symmetry_group_IT_number 2
_symmetry_cell_setting 'triclinic'
loop_
_space_group_symop_operation_xyz
x,y,z
-x,-y,-z
loop_
_atom_site_type_symbol
_atom_site_label
_atom_site_fract_x
_atom_site_fract_y
_atom_site_fract_z
Si Si1 0.804430 0.203236 0.749229
Si Si2 0.842288 0.598662 0.607565
Si Si3 0.099368 0.962602 0.580793
Si Si4 0.979315 0.483429 0.726451
Si Si5 0.829047 0.175540 0.040336
Si Si6 0.269583 0.500908 0.956215
Si Si7 0.260484 0.067900 0.149243
O O1 0.441623 0.097065 0.710269
O O2 0.982983 0.346361 0.810870
O O3 0.874721 0.135630 0.574146
O O4 0.933751 0.230162 0.921017
O O5 0.500000 0.500000 0.500000
O O6 0.909377 0.548482 0.686813
O O7 0.034391 0.611807 0.466159
O O8 0.929348 0.729327 0.773612
O O9 0.000000 0.000000 0.500000
O O10 0.848460 0.901073 0.675168
O O11 0.291441 0.564062 0.862672
O O12 0.769865 0.441557 0.847773
O O13 0.567593 0.167273 0.119472
O O14 0.729144 0.037970 0.906041
O O15 0.500000 0.500000 0.000000
O O16 0.000000 0.000000 0.000000
#
# Coordination Sequence:
#
# PCOD9045909 Si02
#       7
#     2   2   2   2   2   2   2
#     4  11  24  43  70  99 135 175 224 276 333 411
#     4  11  24  44  70  98 138 176 224 279 336 396
#     4  11  24  43  69 100 131 172 223 276 338 396
#     4  10  24  42  64 100 133 174 229 271 326 408
#     4  11  24  43  70  98 135 175 225 276 333 412
#     4  11  24  44  69  99 139 176 223 280 337 397
#     4  11  24  43  68 100 132 173 222 277 339 396
#
# _framework density 23.888052999999999
#
# number of rings (size 3 to 8) (size 9 to 14) (size 15 to 20)
#    0.000    1.143    4.286    0.857    0.000    9.143 
#    0.000    0.000    0.000    0.000    0.000    0.000 
#    0.000    0.000    0.000    0.000    0.000    0.000 
#
# Total GULP energy -78037.646343 kJ/mol
# GULP energy per Si atom -5574.117596 kJ/mol
# Density = 2.383368 g / cm^3
# Si number density = 23.888053 Si / 1000 Ang^3
#
#
#
# Elastic Constant Matrix: (Units=GPa)
#
#
# Indices 1 2 3 4 5 6 
#
# 1 121.5522 22.8172 28.8965 -7.8448 -3.0724 0.6495
# 2 22.8172 46.9503 20.0273 -6.8594 -7.8848 2.5673
# 3 28.8965 20.0273 135.4867 -26.2576 -13.9896 6.9111
# 4 -7.8448 -6.8594 -26.2576 43.2534 -1.2628 6.8558
# 5 -3.0724 -7.8848 -13.9896 -1.2628 49.4840 -12.7758
# 6 0.6495 2.5673 6.9111 6.8558 -12.7758 34.9037
#
#
#
# Elastic Compliance Matrix: (Units=1/GPa)
#
#
# Indices 1 2 3 4 5 6 
#
# 1 0.009309 -0.003975 -0.001422 0.000147 -0.000395 0.000227
# 2 -0.003975 0.024980 -0.002076 0.002175 0.003029 -0.000671
# 3 -0.001422 -0.002076 0.009345 0.005469 0.001826 -0.002077
# 4 0.000147 0.002175 0.005469 0.027847 0.000970 -0.006360
# 5 -0.000395 0.003029 0.001826 0.000970 0.023202 0.007725
# 6 0.000227 -0.000671 -0.002077 -0.006360 0.007725 0.033184
#
#
# Mechanical properties :
#
#
# Convention : Reuss Voigt Hill
#
# Bulk Modulus (GPa) = 34.85717 49.71902 42.28810
# Shear Modulus (GPa) = 32.81359 41.01145 36.91252
#
# Velocity S-wave (km/s) = 3.71029 4.14795 3.93521
# Velocity P-wave (km/s) = 5.74269 6.61809 6.19587
#
# Compressibility (1/GPa) = 0.02868850
#
# Stress axis : x y z
#
# Youngs Moduli (GPa) = 107.41856 40.03267 107.00636
#
# Poissons Ratio (x) = 0.15913 0.15213
# Poissons Ratio (y) = 0.42699 0.22216
# Poissons Ratio (z) = 0.15272 0.08312
#
# Static dielectric constant tensor:
#      x y z
#    x 2.095010 0.078030 0.039330 
#    y 0.078030 2.003630 -0.036920 
#    z 0.039330 -0.036920 1.899990 
# 
# From -- ./inp_files/27260.got.cif
#   From: 2010.05.17/outbox.cif.g08.bks.cpg/sg2_14_cif.got.tgz:27260.got - 2010.06.03 11:33:40.
