data_PCOD9045629
_publ_section_title
;
Structure prediction by ZEFSAII (Michael W. Deem and Ramdas Pophale) SiO2 
 PCOD9045629
Probable space group: P -1
;
_chemical_formula_sum "Si O2"
_cell_formula_units_Z 14
_cell_length_a 10.858541
_cell_length_b 9.875467
_cell_length_c 8.339152
_cell_angle_alpha 96.524979
_cell_angle_beta 97.231823
_cell_angle_gamma 140.163591
_cell_volume 536.269209
_symmetry_space_group_name_H-M "P -1"
_symmetry_group_IT_number 2
_symmetry_cell_setting 'triclinic'
loop_
_space_group_symop_operation_xyz
x,y,z
-x,-y,-z
loop_
_atom_site_type_symbol
_atom_site_label
_atom_site_fract_x
_atom_site_fract_y
_atom_site_fract_z
Si Si1 0.949543 0.218705 0.292712
Si Si2 0.564257 0.263813 0.279963
Si Si3 0.442504 0.206360 0.614819
Si Si4 0.181508 0.174014 0.430984
Si Si5 0.051128 0.482085 0.755782
Si Si6 0.681661 0.210019 0.851770
Si Si7 0.833486 0.969770 0.919561
O O1 0.142622 0.287431 0.362669
O O2 0.983519 0.408144 0.329631
O O3 0.768025 0.027728 0.364227
O O4 0.881656 0.124161 0.084699
O O5 0.513987 0.217316 0.453787
O O6 0.802541 0.492168 0.312448
O O7 0.416164 0.238094 0.154522
O O8 0.500449 0.054909 0.185668
O O9 0.606541 0.286035 0.772692
O O10 0.386768 0.315409 0.580441
O O11 0.142926 0.025814 0.268235
O O12 0.000000 0.000000 0.500000
O O13 0.831165 0.258242 0.761531
O O14 0.187326 0.634579 0.954183
O O15 0.000000 0.000000 0.000000
#
# Coordination Sequence:
#
# PCOD9045629 Si02
#       7
#     2   2   2   2   2   2   2
#     4  10  17  34  54  81 111 142 186 223 270 324
#     4  11  20  37  56  82 113 144 181 227 279 322
#     4  10  20  34  56  82 111 145 183 225 276 327
#     4   8  17  31  53  84 107 140 187 223 269 328
#     4  11  23  35  56  83 109 149 184 227 270 323
#     4  11  22  36  53  83 111 145 187 225 271 328
#     4   9  17  30  57  82 102 145 185 220 267 325
#
# _framework density 26.106290000000001
#
# number of rings (size 3 to 8) (size 9 to 14) (size 15 to 20)
#    0.000    2.000    2.857    1.714    0.000    0.571 
#    0.000    0.714    0.000    0.857   18.571    0.000 
#    0.000    0.000    0.000    0.000    0.000    0.000 
#
# Total GULP energy -78072.508607 kJ/mol
# GULP energy per Si atom -5576.607758 kJ/mol
# Density = 2.604687 g / cm^3
# Si number density = 26.106290 Si / 1000 Ang^3
#
#
#
# Elastic Constant Matrix: (Units=GPa)
#
#
# Indices 1 2 3 4 5 6 
#
# 1 134.9303 36.5832 62.0165 11.8955 31.2410 42.0192
# 2 36.5832 105.7458 34.2249 -14.4543 2.4525 30.4056
# 3 62.0165 34.2249 111.6406 4.7119 -3.2914 11.8627
# 4 11.8955 -14.4543 4.7119 33.0096 17.0680 -5.6148
# 5 31.2410 2.4525 -3.2914 17.0680 68.8846 7.6906
# 6 42.0192 30.4056 11.8627 -5.6148 7.6906 51.5419
#
#
#
# Elastic Compliance Matrix: (Units=1/GPa)
#
#
# Indices 1 2 3 4 5 6 
#
# 1 0.015892 -0.000396 -0.007581 -0.003811 -0.005430 -0.010582
# 2 -0.000396 0.013288 -0.003534 0.006166 -0.001339 -0.005831
# 3 -0.007581 -0.003534 0.014043 -0.002374 0.004363 0.004123
# 4 -0.003811 0.006166 -0.002374 0.040498 -0.009288 0.005813
# 5 -0.005430 -0.001339 0.004363 -0.009288 0.019505 0.000290
# 6 -0.010582 -0.005831 0.004123 0.005813 0.000290 0.031109
#
#
# Mechanical properties :
#
#
# Convention : Reuss Voigt Hill
#
# Bulk Modulus (GPa) = 49.50513 68.66287 59.08400
# Shear Modulus (GPa) = 30.47129 45.32003 37.89566
#
# Velocity S-wave (km/s) = 3.42014 4.17103 3.81411
# Velocity P-wave (km/s) = 5.88222 7.03953 6.48674
#
# Compressibility (1/GPa) = 0.02019993
#
# Stress axis : x y z
#
# Youngs Moduli (GPa) = 62.92654 75.25637 71.21202
#
# Poissons Ratio (x) = 0.02983 0.53987
# Poissons Ratio (y) = 0.02495 0.25163
# Poissons Ratio (z) = 0.47705 0.26592
#
# Static dielectric constant tensor:
#      x y z
#    x 2.092500 0.011940 0.007260 
#    y 0.011940 2.094540 -0.044260 
#    z 0.007260 -0.044260 2.078610 
# 
# From -- ./inp_files/267869.got.cif
#   From: 2010.05.17/outbox.cif.g08.bks.cpg/sg2_134_cif.got.tgz:267869.got - 2010.06.03 11:33:40.
