data_PCOD9045474
_publ_section_title
;
Structure prediction by ZEFSAII (Michael W. Deem and Ramdas Pophale) SiO2 
 PCOD9045474
Probable space group: P -1
;
_chemical_formula_sum "Si O2"
_cell_formula_units_Z 11
_cell_length_a 5.121144
_cell_length_b 12.436248
_cell_length_c 15.313045
_cell_angle_alpha 152.259292
_cell_angle_beta 87.130803
_cell_angle_gamma 102.957541
_cell_volume 418.049748
_symmetry_space_group_name_H-M "P -1"
_symmetry_group_IT_number 2
_symmetry_cell_setting 'triclinic'
loop_
_space_group_symop_operation_xyz
x,y,z
-x,-y,-z
loop_
_atom_site_type_symbol
_atom_site_label
_atom_site_fract_x
_atom_site_fract_y
_atom_site_fract_z
Si Si1 0.972314 0.922253 0.577378
Si Si2 0.883276 0.274822 0.408181
Si Si3 0.500000 0.000000 0.500000
Si Si4 0.478644 0.555803 0.211382
Si Si5 0.033732 0.140311 0.009924
Si Si6 0.314332 0.852083 0.130296
O O1 0.718553 0.817245 0.434242
O O2 0.953036 0.699509 0.485186
O O3 0.915545 0.133243 0.786542
O O4 0.279597 0.007921 0.591588
O O5 0.000000 0.500000 0.500000
O O6 0.550356 0.138359 0.335929
O O7 0.922699 0.050196 0.195446
O O8 0.700682 0.306295 0.732378
O O9 0.303735 0.396265 0.181062
O O10 0.579149 0.373672 0.022865
O O11 0.780486 0.184299 0.996816
O O12 0.000000 0.000000 0.000000
#
# Coordination Sequence:
#
# PCOD9045474 Si02
#       6
#     2   2   1   2   2   2
#     4  11  25  45  71 102 142 184 238 287 352 409
#     4  10  24  40  68 104 143 182 230 283 348 419
#     4  12  26  46  74 104 134 190 240 296 342 416
#     4  11  25  45  71 102 142 184 238 287 352 409
#     4  10  24  40  68 104 143 182 230 283 348 419
#     4  10  24  45  66 104 144 185 228 288 352 418
#
# _framework density 26.312659
#
# number of rings (size 3 to 8) (size 9 to 14) (size 15 to 20)
#    0.000    1.455    0.000    2.727   10.182    3.636 
#    0.000   17.273    0.000    0.000    0.000    0.000 
#    0.000    0.000    0.000    0.000    0.000    0.000 
#
# Total GULP energy -61235.504577 kJ/mol
# GULP energy per Si atom -5566.864052 kJ/mol
# Density = 2.625277 g / cm^3
# Si number density = 26.312659 Si / 1000 Ang^3
#
#
#
# Elastic Constant Matrix: (Units=GPa)
#
#
# Indices 1 2 3 4 5 6 
#
# 1 80.2575 31.9277 38.5149 -9.2540 -14.0549 13.2775
# 2 31.9277 182.3006 54.4903 16.4891 -11.1442 -6.2634
# 3 38.5149 54.4903 147.1400 12.0064 -31.7099 11.5625
# 4 -9.2540 16.4891 12.0064 44.9218 -5.0152 0.6094
# 5 -14.0549 -11.1442 -31.7099 -5.0152 53.9436 -13.5707
# 6 13.2775 -6.2634 11.5625 0.6094 -13.5707 40.2389
#
#
#
# Elastic Compliance Matrix: (Units=1/GPa)
#
#
# Indices 1 2 3 4 5 6 
#
# 1 0.016615 -0.002517 -0.003226 0.005412 0.001257 -0.004605
# 2 -0.002517 0.006792 -0.001831 -0.002550 0.000056 0.002471
# 3 -0.003226 -0.001831 0.009384 -0.002050 0.003969 -0.000547
# 4 0.005412 -0.002550 -0.002050 0.025063 0.001652 -0.001416
# 5 0.001257 0.000056 0.003969 0.001652 0.022913 0.006156
# 6 -0.004605 0.002471 -0.000547 -0.001416 0.006156 0.029010
#
#
# Mechanical properties :
#
#
# Convention : Reuss Voigt Hill
#
# Bulk Modulus (GPa) = 56.67169 73.28486 64.97828
# Shear Modulus (GPa) = 38.22448 46.80520 42.51484
#
# Velocity S-wave (km/s) = 3.81557 4.22217 4.02401
# Velocity P-wave (km/s) = 6.40281 7.18895 6.80724
#
# Compressibility (1/GPa) = 0.01764549
#
# Stress axis : x y z
#
# Youngs Moduli (GPa) = 60.18620 147.22453 106.56012
#
# Poissons Ratio (x) = 0.37049 0.34375
# Poissons Ratio (y) = 0.15146 0.19509
# Poissons Ratio (z) = 0.19415 0.26953
#
# Static dielectric constant tensor:
#      x y z
#    x 1.102860 0.996110 0.500220 
#    y 0.996110 1.440130 -0.337020 
#    z 0.500220 -0.337020 1.885020 
# 
# From -- ./inp_files/74481.got.cif
#   From: 2010.05.17/outbox.cif.g08.bks.cpg/sg2_38_cif.got.tgz:74481.got - 2010.06.03 11:33:40.
