data_PCOD9045896
_publ_section_title
;
Structure prediction by ZEFSAII (Michael W. Deem and Ramdas Pophale) SiO2 
 PCOD9045896
Probable space group: P -1
;
_chemical_formula_sum "Si O2"
_cell_formula_units_Z 12
_cell_length_a 7.575070
_cell_length_b 13.504237
_cell_length_c 5.529273
_cell_angle_alpha 89.999900
_cell_angle_beta 68.594505
_cell_angle_gamma 88.439758
_cell_volume 526.378731
_symmetry_space_group_name_H-M "P -1"
_symmetry_group_IT_number 2
_symmetry_cell_setting 'triclinic'
loop_
_space_group_symop_operation_xyz
x,y,z
-x,-y,-z
loop_
_atom_site_type_symbol
_atom_site_label
_atom_site_fract_x
_atom_site_fract_y
_atom_site_fract_z
Si Si1 0.614708 0.689988 0.442645
Si Si2 0.572003 0.109950 0.463999
Si Si3 0.948078 0.117570 0.027495
Si Si4 0.995816 0.436010 0.752093
Si Si5 0.051922 0.882430 0.475575
Si Si6 0.431222 0.614743 0.034389
O O1 0.592832 0.808750 0.453583
O O2 0.818540 0.635283 0.340729
O O3 0.509602 0.658446 0.246558
O O4 0.490397 0.341554 0.256162
O O5 0.720914 0.124165 0.171410
O O6 0.720914 0.124165 0.607676
O O7 0.500000 0.000000 0.500000
O O8 0.028583 0.160858 0.235708
O O9 0.005187 0.161078 0.747406
O O10 0.000000 0.000000 0.000000
O O11 0.000000 0.500000 0.500000
O O12 0.796809 0.380928 0.851596
O O13 0.000000 0.500000 0.000000
O O14 0.000000 0.000000 0.500000
O O15 0.500000 0.500000 0.000000
#
# Coordination Sequence:
#
# PCOD9045896 Si02
#       6
#     2   2   2   2   2   2
#     4  12  26  45  68 111 141 184 242 279 355 437
#     4  10  24  42  63  93 139 180 224 287 329 389
#     4   8  16  34  58  78 110 163 217 262 316 372
#     4  12  23  44  76 104 140 178 229 294 358 427
#     4   8  16  34  58  78 110 163 217 262 316 372
#     4  12  24  46  77  99 146 184 218 303 369 409
#
# _framework density 22.797273000000001
#
# number of rings (size 3 to 8) (size 9 to 14) (size 15 to 20)
#    1.000    0.667    3.333    1.500    2.333    0.667 
#    6.000    0.000    0.000    0.000    0.000    0.000 
#    0.000    0.000    0.000    0.000    0.000    0.000 
#
# Total GULP energy -66945.288766 kJ/mol
# GULP energy per Si atom -5578.774064 kJ/mol
# Density = 2.274539 g / cm^3
# Si number density = 22.797273 Si / 1000 Ang^3
#
#
#
# Elastic Constant Matrix: (Units=GPa)
#
#
# Indices 1 2 3 4 5 6 
#
# 1 197.7874 71.5614 81.7015 5.4187 -21.2359 -31.5359
# 2 71.5614 140.3417 53.8541 7.6588 -5.1124 -28.4624
# 3 81.7015 53.8541 240.9098 2.9269 33.6297 -0.0880
# 4 5.4187 7.6588 2.9269 7.7620 -7.2196 -8.5097
# 5 -21.2359 -5.1124 33.6297 -7.2196 37.0286 7.3328
# 6 -31.5359 -28.4624 -0.0880 -8.5097 7.3328 37.2446
#
#
#
# Elastic Compliance Matrix: (Units=1/GPa)
#
#
# Indices 1 2 3 4 5 6 
#
# 1 0.009714 -0.002019 -0.004565 0.016105 0.010955 0.008193
# 2 -0.002019 0.009959 -0.001551 -0.001608 0.000226 0.005485
# 3 -0.004565 -0.001551 0.007911 -0.016431 -0.011946 -0.006434
# 4 0.016105 -0.001608 -0.016431 0.242708 0.060174 0.055976
# 5 0.010955 0.000226 -0.011946 0.060174 0.053396 0.012656
# 6 0.008193 0.005485 -0.006434 0.055976 0.012656 0.048261
#
#
# Mechanical properties :
#
#
# Convention : Reuss Voigt Hill
#
# Bulk Modulus (GPa) = 88.40225 110.36364 99.38294
# Shear Modulus (GPa) = 12.75542 41.20184 26.97863
#
# Velocity S-wave (km/s) = 2.36797 4.25586 3.44381
# Velocity P-wave (km/s) = 6.80721 8.52443 7.71375
#
# Compressibility (1/GPa) = 0.01131193
#
# Stress axis : x y z
#
# Youngs Moduli (GPa) = 102.94851 100.41195 126.41111
#
# Poissons Ratio (x) = 0.20278 0.57704
# Poissons Ratio (y) = 0.20790 0.19612
# Poissons Ratio (z) = 0.46993 0.15578
#
# Static dielectric constant tensor:
#      x y z
#    x 1.841040 -0.026090 0.026490 
#    y -0.026090 1.830190 0.006910 
#    z 0.026490 0.006910 1.933060 
# 
# From -- ./inp_files/27527.got.cif
#   From: 2010.05.17/outbox.cif.g08.bks.cpg/sg2_14_cif.got.tgz:27527.got - 2010.06.03 11:33:40.
