data_PCOD9045461
_publ_section_title
;
Structure prediction by ZEFSAII (Michael W. Deem and Ramdas Pophale) SiO2 
 PCOD9045461
Probable space group: P -1
;
_chemical_formula_sum "Si O2"
_cell_formula_units_Z 14
_cell_length_a 13.721425
_cell_length_b 9.921728
_cell_length_c 5.045431
_cell_angle_alpha 83.768050
_cell_angle_beta 100.708834
_cell_angle_gamma 125.715812
_cell_volume 547.985558
_symmetry_space_group_name_H-M "P -1"
_symmetry_group_IT_number 2
_symmetry_cell_setting 'triclinic'
loop_
_space_group_symop_operation_xyz
x,y,z
-x,-y,-z
loop_
_atom_site_type_symbol
_atom_site_label
_atom_site_fract_x
_atom_site_fract_y
_atom_site_fract_z
Si Si1 0.389922 0.330442 0.199348
Si Si2 0.552386 0.327148 0.639962
Si Si3 0.082693 0.786130 0.896720
Si Si4 0.229856 0.154382 0.660398
Si Si5 0.765560 0.351905 0.051404
Si Si6 0.926959 0.705909 0.337530
Si Si7 0.421572 0.976596 0.717311
O O1 0.508947 0.330323 0.317489
O O2 0.427028 0.511773 0.252886
O O3 0.282593 0.206250 0.378842
O O4 0.331980 0.277993 0.896464
O O5 0.433123 0.146797 0.700282
O O6 0.670199 0.335231 0.789902
O O7 0.144532 0.690521 0.012413
O O8 0.981366 0.686219 0.638966
O O9 0.172768 0.967391 0.770164
O O10 0.027720 0.800577 0.137939
O O11 0.129466 0.194254 0.634579
O O12 0.830670 0.527442 0.192901
O O13 0.697269 0.205250 0.269462
O O14 0.500000 0.000000 0.500000
O O15 0.500000 0.000000 0.000000
#
# Coordination Sequence:
#
# PCOD9045461 Si02
#       7
#     2   2   2   2   2   2   2
#     4  11  25  43  73 105 139 186 234 284 349 435
#     4  10  24  45  69 105 144 182 233 283 352 424
#     4  12  27  47  73 107 140 185 243 296 348 417
#     4  12  25  48  74 102 142 184 236 293 357 405
#     4  11  25  47  73 105 147 187 230 293 358 413
#     4  12  26  47  73 104 141 187 242 291 352 413
#     4  10  24  40  67  98 137 178 225 275 346 418
#
# _framework density 25.548119
#
# number of rings (size 3 to 8) (size 9 to 14) (size 15 to 20)
#    0.000    0.857    1.429    4.286    2.000   10.286 
#    0.000    0.000    0.000    0.000    0.000    0.000 
#    0.000    0.000    0.000    0.000    0.000    0.000 
#
# Total GULP energy -78362.900692 kJ/mol
# GULP energy per Si atom -5597.350049 kJ/mol
# Density = 2.548997 g / cm^3
# Si number density = 25.548119 Si / 1000 Ang^3
#
#
#
# Elastic Constant Matrix: (Units=GPa)
#
#
# Indices 1 2 3 4 5 6 
#
# 1 129.1896 14.1927 48.7182 -16.1748 11.0284 -21.5477
# 2 14.1927 124.3298 -24.3523 -10.8441 14.7399 1.7229
# 3 48.7182 -24.3523 96.9949 -9.8341 8.2343 -5.0370
# 4 -16.1748 -10.8441 -9.8341 40.2062 0.8006 6.4095
# 5 11.0284 14.7399 8.2343 0.8006 53.0378 -11.1763
# 6 -21.5477 1.7229 -5.0370 6.4095 -11.1763 44.3332
#
#
#
# Elastic Compliance Matrix: (Units=1/GPa)
#
#
# Indices 1 2 3 4 5 6 
#
# 1 0.011157 -0.002348 -0.005796 0.001691 0.000189 0.004659
# 2 -0.002348 0.009839 0.004139 0.003169 -0.003438 -0.002378
# 3 -0.005796 0.004139 0.014655 0.002810 -0.002772 -0.002418
# 4 0.001691 0.003169 0.002810 0.027744 -0.002871 -0.003717
# 5 0.000189 -0.003438 -0.002772 -0.002871 0.021453 0.005733
# 6 0.004659 -0.002378 -0.002418 -0.003717 0.005733 0.026621
#
#
# Mechanical properties :
#
#
# Convention : Reuss Voigt Hill
#
# Bulk Modulus (GPa) = 36.17856 47.51461 41.84658
# Shear Modulus (GPa) = 38.85253 48.31248 43.58250
#
# Velocity S-wave (km/s) = 3.90392 4.35332 4.13473
# Velocity P-wave (km/s) = 5.87473 6.62624 6.26177
#
# Compressibility (1/GPa) = 0.02764068
#
# Stress axis : x y z
#
# Youngs Moduli (GPa) = 89.63084 101.63760 68.23618
#
# Poissons Ratio (x) = 0.23868 0.39550
# Poissons Ratio (y) = 0.21048 -0.28245
# Poissons Ratio (z) = 0.51951 -0.42071
#
# Static dielectric constant tensor:
#      x y z
#    x 2.120850 0.012790 -0.021180 
#    y 0.012790 2.052260 -0.035360 
#    z -0.021180 -0.035360 1.952010 
# 
# From -- ./inp_files/88983.got.cif
#   From: 2010.05.17/outbox.cif.g08.bks.cpg/sg2_45_cif.got.tgz:88983.got - 2010.06.03 11:33:40.
