data_PCOD9045597
_publ_section_title
;
Structure prediction by ZEFSAII (Michael W. Deem and Ramdas Pophale) SiO2 
 PCOD9045597
Probable space group: P -1
;
_chemical_formula_sum "Si O2"
_cell_formula_units_Z 16
_cell_length_a 11.043974
_cell_length_b 6.867809
_cell_length_c 10.527231
_cell_angle_alpha 93.952606
_cell_angle_beta 57.218208
_cell_angle_gamma 99.036299
_cell_volume 662.847013
_symmetry_space_group_name_H-M "P -1"
_symmetry_group_IT_number 2
_symmetry_cell_setting 'triclinic'
loop_
_space_group_symop_operation_xyz
x,y,z
-x,-y,-z
loop_
_atom_site_type_symbol
_atom_site_label
_atom_site_fract_x
_atom_site_fract_y
_atom_site_fract_z
Si Si1 0.545287 0.522357 0.675634
Si Si2 0.833343 0.382742 0.400484
Si Si3 0.576285 0.806411 0.446979
Si Si4 0.850499 0.385430 0.806683
Si Si5 0.329819 0.274386 0.161528
Si Si6 0.143239 0.962901 0.766029
Si Si7 0.159955 0.944707 0.408347
Si Si8 0.815238 0.021021 0.963021
O O1 0.707485 0.483932 0.539483
O O2 0.511658 0.680591 0.598160
O O3 0.453461 0.318372 0.671159
O O4 0.539309 0.592935 0.828250
O O5 0.836753 0.187901 0.475388
O O6 0.981450 0.529336 0.310322
O O7 0.816269 0.259776 0.274418
O O8 0.747822 0.874613 0.364714
O O9 0.500000 0.000000 0.500000
O O10 0.763698 0.564764 0.833865
O O11 0.809903 0.214287 0.720206
O O12 0.820071 0.255603 0.945305
O O13 0.262393 0.140982 0.313910
O O14 0.314108 0.112688 0.048329
O O15 0.974891 0.970154 0.825737
O O16 0.177723 0.022904 0.894924
O O17 0.000000 0.000000 0.500000
#
# Coordination Sequence:
#
# PCOD9045597 Si02
#       8
#     2   2   2   2   2   2   2   2
#     4  11  24  38  65  95 120 160 205 253 318 367
#     4  12  19  34  60  94 124 162 197 254 315 366
#     4  11  24  45  64  93 125 159 205 257 314 365
#     4  11  20  34  55  90 127 158 202 248 308 370
#     4  11  21  38  58  90 127 157 204 253 305 369
#     4  11  22  43  62  86 129 169 205 254 302 365
#     4  11  19  30  52  88 131 159 188 250 319 373
#     4  10  24  41  61  90 126 169 207 247 305 365
#
# _framework density 24.138299
#
# number of rings (size 3 to 8) (size 9 to 14) (size 15 to 20)
#    0.000    1.000    5.000    3.375    0.000    0.500 
#    2.250    0.625    0.000    1.500    0.000    0.000 
#    0.000    0.000    0.000    0.000    0.000    0.000 
#
# Total GULP energy -89231.078214 kJ/mol
# GULP energy per Si atom -5576.942388 kJ/mol
# Density = 2.408336 g / cm^3
# Si number density = 24.138299 Si / 1000 Ang^3
#
#
#
# Elastic Constant Matrix: (Units=GPa)
#
#
# Indices 1 2 3 4 5 6 
#
# 1 63.0737 31.5829 -1.1585 0.8244 13.7845 5.9052
# 2 31.5829 145.2415 10.5142 0.8704 3.0489 -5.8867
# 3 -1.1585 10.5142 26.5273 -0.3513 12.3883 -3.0472
# 4 0.8244 0.8704 -0.3513 20.4851 7.3730 10.7605
# 5 13.7845 3.0489 12.3883 7.3730 28.5465 4.9338
# 6 5.9052 -5.8867 -3.0472 10.7605 4.9338 45.6194
#
#
#
# Elastic Compliance Matrix: (Units=1/GPa)
#
#
# Indices 1 2 3 4 5 6 
#
# 1 0.022449 -0.005450 0.010398 0.006730 -0.016030 -0.002768
# 2 -0.005450 0.008458 -0.005586 -0.002708 0.004581 0.001567
# 3 0.010398 -0.005586 0.055666 0.010907 -0.031835 0.002522
# 4 0.006730 -0.002708 0.010907 0.063611 -0.021854 -0.013133
# 5 -0.016030 0.004581 -0.031835 -0.021854 0.061915 -0.001002
# 6 -0.002768 0.001567 0.002522 -0.013133 -0.001002 0.025856
#
#
# Mechanical properties :
#
#
# Convention : Reuss Voigt Hill
#
# Bulk Modulus (GPa) = 11.72367 35.19109 23.45738
# Shear Modulus (GPa) = 18.68015 31.85711 25.26863
#
# Velocity S-wave (km/s) = 2.78489 3.63681 3.23898
# Velocity P-wave (km/s) = 3.89977 5.67854 4.87104
#
# Compressibility (1/GPa) = 0.08529749
#
# Stress axis : x y z
#
# Youngs Moduli (GPa) = 44.54491 118.22826 17.96426
#
# Poissons Ratio (x) = 0.64439 -0.18679
# Poissons Ratio (y) = 0.24279 0.10034
# Poissons Ratio (z) = -0.46318 0.66039
#
# Static dielectric constant tensor:
#      x y z
#    x 2.017810 -0.005520 0.121060 
#    y -0.005520 1.983810 -0.057890 
#    z 0.121060 -0.057890 2.240650 
# 
# From -- ./inp_files/70544.got.cif
#   From: 2010.05.17/outbox.cif.g08.bks.cpg/sg2_36_cif.got.tgz:70544.got - 2010.06.03 11:33:40.
