data_PCOD9045520
_publ_section_title
;
Structure prediction by ZEFSAII (Michael W. Deem and Ramdas Pophale) SiO2 
 PCOD9045520
Probable space group: P -1
;
_chemical_formula_sum "Si O2"
_cell_formula_units_Z 13
_cell_length_a 9.171873
_cell_length_b 15.153804
_cell_length_c 9.307993
_cell_angle_alpha 123.039288
_cell_angle_beta 30.881617
_cell_angle_gamma 123.353589
_cell_volume 546.468679
_symmetry_space_group_name_H-M "P -1"
_symmetry_group_IT_number 2
_symmetry_cell_setting 'triclinic'
loop_
_space_group_symop_operation_xyz
x,y,z
-x,-y,-z
loop_
_atom_site_type_symbol
_atom_site_label
_atom_site_fract_x
_atom_site_fract_y
_atom_site_fract_z
Si Si1 0.797921 0.384959 0.581444
Si Si2 0.674449 0.720684 0.927180
Si Si3 0.365733 0.566556 0.539326
Si Si4 0.919574 0.888761 0.382701
Si Si5 0.000000 0.500000 0.000000
Si Si6 0.254548 0.069751 0.757912
Si Si7 0.412721 0.751738 0.867850
O O1 0.676213 0.367010 0.506172
O O2 0.000000 0.500000 0.500000
O O3 0.002844 0.301373 0.372537
O O4 0.538253 0.377903 0.906350
O O5 0.552566 0.743804 0.896476
O O6 0.661660 0.817828 0.132216
O O7 0.103106 0.469372 0.713946
O O8 0.278469 0.631981 0.815787
O O9 0.686516 0.542775 0.246966
O O10 0.844796 0.913065 0.304548
O O11 0.654548 0.806905 0.602506
O O12 0.180732 0.826558 0.124903
O O13 0.000000 0.000000 0.500000
O O14 0.500000 0.000000 0.500000
O O15 0.000000 0.000000 0.000000
#
# Coordination Sequence:
#
# PCOD9045520 Si02
#       7
#     2   2   2   2   1   2   2
#     4  12  27  45  68  98 139 186 231 287 350 404
#     4  12  26  45  67 102 140 178 235 286 343 415
#     4  11  24  43  68  93 131 171 231 268 349 392
#     4  12  24  43  68 100 138 176 224 274 336 409
#     4  10  24  40  70  92 126 166 226 280 330 402
#     4  12  24  44  73 103 138 179 223 282 352 411
#     4  12  25  43  69  98 134 180 225 280 338 400
#
# _framework density 23.789103000000001
#
# number of rings (size 3 to 8) (size 9 to 14) (size 15 to 20)
#    0.000    0.308    0.000    9.231    6.462    0.000 
#    0.000    0.000    0.000    0.000    0.000    0.000 
#    0.000    0.000    0.000    0.000    0.000    0.000 
#
# Total GULP energy -72653.257525 kJ/mol
# GULP energy per Si atom -5588.712117 kJ/mol
# Density = 2.373496 g / cm^3
# Si number density = 23.789103 Si / 1000 Ang^3
#
#
#
# Elastic Constant Matrix: (Units=GPa)
#
#
# Indices 1 2 3 4 5 6 
#
# 1 241.0842 46.9137 73.6486 13.5156 9.2847 -43.8071
# 2 46.9137 99.8450 27.3039 13.0646 -2.5322 -0.3866
# 3 73.6486 27.3039 176.7624 -13.2904 -37.9098 -24.8772
# 4 13.5156 13.0646 -13.2904 66.9376 -14.1430 8.2874
# 5 9.2847 -2.5322 -37.9098 -14.1430 52.4105 2.0891
# 6 -43.8071 -0.3866 -24.8772 8.2874 2.0891 53.5483
#
#
#
# Elastic Compliance Matrix: (Units=1/GPa)
#
#
# Indices 1 2 3 4 5 6 
#
# 1 0.006641 -0.001999 -0.002983 -0.003061 -0.004443 0.004680
# 2 -0.001999 0.011621 -0.001533 -0.002075 -0.000677 -0.001916
# 3 -0.002983 -0.001533 0.009402 0.004435 0.008416 0.000902
# 4 -0.003061 -0.002075 0.004435 0.019209 0.008984 -0.003783
# 5 -0.004443 -0.000677 0.008416 0.008984 0.028435 -0.002230
# 6 0.004680 -0.001916 0.000902 -0.003783 -0.002230 0.023581
#
#
# Mechanical properties :
#
#
# Convention : Reuss Voigt Hill
#
# Bulk Modulus (GPa) = 68.32890 90.38044 79.35467
# Shear Modulus (GPa) = 42.80899 59.23428 51.02163
#
# Velocity S-wave (km/s) = 4.24668 4.99538 4.63617
# Velocity P-wave (km/s) = 7.26848 8.44669 7.87964
#
# Compressibility (1/GPa) = 0.01463510
#
# Stress axis : x y z
#
# Youngs Moduli (GPa) = 150.57393 86.05253 106.35730
#
# Poissons Ratio (x) = 0.17200 0.31724
# Poissons Ratio (y) = 0.30097 0.16305
# Poissons Ratio (z) = 0.44913 0.13192
#
# Static dielectric constant tensor:
#      x y z
#    x 1.974990 0.261960 -0.052300 
#    y 0.261960 3.507430 -0.902790 
#    z -0.052300 -0.902790 2.354030 
# 
# From -- ./inp_files/202367.got.cif
#   From: 2010.05.17/outbox.cif.g08.bks.cpg/sg2_102_cif.got.tgz:202367.got - 2010.06.03 11:33:40.
