data_PCOD9045466
_publ_section_title
;
Structure prediction by ZEFSAII (Michael W. Deem and Ramdas Pophale) SiO2 
 PCOD9045466
Probable space group: P -1
;
_chemical_formula_sum "Si O2"
_cell_formula_units_Z 13
_cell_length_a 21.848731
_cell_length_b 21.528586
_cell_length_c 9.711667
_cell_angle_alpha 143.874175
_cell_angle_beta 155.070718
_cell_angle_gamma 18.758168
_cell_volume 573.789854
_symmetry_space_group_name_H-M "P -1"
_symmetry_group_IT_number 2
_symmetry_cell_setting 'triclinic'
loop_
_space_group_symop_operation_xyz
x,y,z
-x,-y,-z
loop_
_atom_site_type_symbol
_atom_site_label
_atom_site_fract_x
_atom_site_fract_y
_atom_site_fract_z
Si Si1 0.500000 0.500000 0.500000
Si Si2 0.437589 0.429154 0.672242
Si Si3 0.110488 0.777042 0.450099
Si Si4 0.777094 0.602903 0.615590
Si Si5 0.340670 0.023359 0.323283
Si Si6 0.157595 0.339023 0.654371
Si Si7 0.676491 0.177637 0.447410
O O1 0.563894 0.343073 0.417471
O O2 0.603906 0.389698 0.358005
O O3 0.384532 0.386848 0.615478
O O4 0.657899 0.237771 0.671290
O O5 0.160200 0.635638 0.381394
O O6 0.500000 0.500000 0.000000
O O7 0.978502 0.945454 0.587165
O O8 0.871398 0.913913 0.087727
O O9 0.972432 0.454388 0.619051
O O10 0.552278 0.826707 0.498368
O O11 0.000000 0.500000 0.000000
O O12 0.168971 0.211032 0.403431
O O13 0.500000 0.000000 0.500000
O O14 0.000000 0.500000 0.500000
O O15 0.458517 0.213162 0.063078
#
# Coordination Sequence:
#
# PCOD9045466 Si02
#       7
#     1   2   2   2   2   2   2
#     4  10  24  40  68 102 136 190 236 308 358 426
#     4  11  27  47  69 102 151 197 245 310 369 430
#     4  11  24  47  73 100 147 189 251 299 368 446
#     4  12  26  46  74 109 151 194 243 307 376 435
#     4  12  24  42  75 109 140 187 243 302 369 439
#     4  12  23  41  73 107 145 187 243 303 363 439
#     4  11  23  42  69  98 143 192 244 300 364 434
#
# _framework density 22.656381
#
# number of rings (size 3 to 8) (size 9 to 14) (size 15 to 20)
#    0.000    0.615    4.615    3.231    0.000   11.077 
#    0.000    0.000    0.000    0.000    0.000    0.000 
#    0.000    0.000    0.000    0.000    0.000    0.000 
#
# Total GULP energy -72404.025126 kJ/mol
# GULP energy per Si atom -5569.540394 kJ/mol
# Density = 2.260481 g / cm^3
# Si number density = 22.656381 Si / 1000 Ang^3
#
#
#
# Elastic Constant Matrix: (Units=GPa)
#
#
# Indices 1 2 3 4 5 6 
#
# 1 207.9157 87.7025 25.1364 9.0742 -20.3150 -7.5842
# 2 87.7025 161.0569 31.2572 9.3612 -21.2916 -23.3629
# 3 25.1364 31.2572 74.5279 2.9568 -21.3326 -6.5432
# 4 9.0742 9.3612 2.9568 31.8765 0.3092 -19.9095
# 5 -20.3150 -21.2916 -21.3326 0.3092 34.1332 9.3416
# 6 -7.5842 -23.3629 -6.5432 -19.9095 9.3416 60.3663
#
#
#
# Elastic Compliance Matrix: (Units=1/GPa)
#
#
# Indices 1 2 3 4 5 6 
#
# 1 0.006454 -0.003295 -0.000273 -0.001720 0.002006 -0.001372
# 2 -0.003295 0.008980 -0.001939 0.000100 0.001711 0.002620
# 3 -0.000273 -0.001939 0.017038 -0.001619 0.009551 -0.000950
# 4 -0.001720 0.000100 -0.001619 0.040831 -0.006195 0.014072
# 5 0.002006 0.001711 0.009551 -0.006195 0.039272 -0.006171
# 6 -0.001372 0.002620 -0.000950 0.014072 -0.006171 0.022900
#
#
# Mechanical properties :
#
#
# Convention : Reuss Voigt Hill
#
# Bulk Modulus (GPa) = 46.60388 81.29917 63.95152
# Shear Modulus (GPa) = 32.54335 45.23550 38.88942
#
# Velocity S-wave (km/s) = 3.79408 4.47317 4.14755
# Velocity P-wave (km/s) = 6.30935 7.91457 7.15711
#
# Compressibility (1/GPa) = 0.02145744
#
# Stress axis : x y z
#
# Youngs Moduli (GPa) = 154.95174 111.35848 58.69317
#
# Poissons Ratio (x) = 0.36694 0.01600
# Poissons Ratio (y) = 0.51059 0.11382
# Poissons Ratio (z) = 0.04224 0.21595
#
# Static dielectric constant tensor:
#      x y z
#    x 1.781590 -0.015590 0.022050 
#    y -0.015590 1.770600 -0.063010 
#    z 0.022050 -0.063010 1.916570 
# 
# From -- ./inp_files/349342.got.cif
#   From: 2010.05.17/outbox.cif.g08.bks.cpg/sg2_175_cif.got.tgz:349342.got - 2010.06.03 11:33:40.
