data_PCOD9045382
_publ_section_title
;
Structure prediction by ZEFSAII (Michael W. Deem and Ramdas Pophale) SiO2 
 PCOD9045382
Probable space group: P -1
;
_chemical_formula_sum "Si O2"
_cell_formula_units_Z 16
_cell_length_a 16.873984
_cell_length_b 17.106009
_cell_length_c 7.861387
_cell_angle_alpha 73.903637
_cell_angle_beta 84.071445
_cell_angle_gamma 23.038027
_cell_volume 780.528094
_symmetry_space_group_name_H-M "P -1"
_symmetry_group_IT_number 2
_symmetry_cell_setting 'triclinic'
loop_
_space_group_symop_operation_xyz
x,y,z
-x,-y,-z
loop_
_atom_site_type_symbol
_atom_site_label
_atom_site_fract_x
_atom_site_fract_y
_atom_site_fract_z
Si Si1 0.543625 0.110957 0.286570
Si Si2 0.510721 0.667163 0.299633
Si Si3 0.303307 0.774733 0.570232
Si Si4 0.171547 0.721844 0.726704
Si Si5 0.467692 0.177604 0.672067
Si Si6 0.532945 0.306994 0.076245
Si Si7 0.754675 0.753905 0.837379
Si Si8 0.037322 0.380077 0.467675
O O1 0.485495 0.166693 0.468450
O O2 0.500510 0.242305 0.150035
O O3 0.390920 0.188122 0.186281
O O4 0.799257 0.842453 0.353229
O O5 0.489147 0.630709 0.490091
O O6 0.762135 0.416179 0.327552
O O7 0.449253 0.816824 0.272878
O O8 0.385085 0.759879 0.097281
O O9 0.284347 0.696552 0.644934
O O10 0.325666 0.791825 0.742232
O O11 0.084236 0.016602 0.379146
O O12 0.295971 0.579582 0.958427
O O13 0.209968 0.414635 0.636446
O O14 0.609743 0.963762 0.828825
O O15 0.812506 0.735830 0.652731
O O16 0.000000 0.500000 0.000000
O O17 0.000000 0.500000 0.500000
#
# Coordination Sequence:
#
# PCOD9045382 Si02
#       8
#     2   2   2   2   2   2   2   2
#     4  11  22  42  59  90 127 170 211 267 327 370
#     4  10  24  40  64 100 125 167 217 258 322 392
#     4  11  20  48  67  90 140 168 201 284 320 370
#     4   9  24  42  68  99 126 171 220 253 330 402
#     4  11  22  42  62  87 127 170 209 270 325 369
#     4  10  24  41  64  99 129 165 221 260 318 395
#     4  11  25  38  60  90 126 167 213 268 318 380
#     4  11  21  40  64  83 116 168 223 253 315 387
#
# _framework density 20.498944000000002
#
# number of rings (size 3 to 8) (size 9 to 14) (size 15 to 20)
#    0.750    0.750    3.750    1.500    3.500    2.500 
#    4.500    1.250    0.000    0.000    0.000    0.000 
#    0.000    0.000    0.000    0.000    0.000    0.000 
#
# Total GULP energy -89104.731873 kJ/mol
# GULP energy per Si atom -5569.045742 kJ/mol
# Density = 2.045229 g / cm^3
# Si number density = 20.498944 Si / 1000 Ang^3
#
#
#
# Elastic Constant Matrix: (Units=GPa)
#
#
# Indices 1 2 3 4 5 6 
#
# 1 325.2839 -175.8166 -158.1157 84.9868 -12.9282 41.1569
# 2 -175.8166 205.8037 140.9136 -86.4914 11.2390 -9.2999
# 3 -158.1157 140.9136 188.4812 -82.4645 6.2053 -6.1075
# 4 84.9868 -86.4914 -82.4645 73.5458 4.2919 8.8213
# 5 -12.9282 11.2390 6.2053 4.2919 29.0337 -5.3323
# 6 41.1569 -9.2999 -6.1075 8.8213 -5.3323 24.8934
#
#
#
# Elastic Compliance Matrix: (Units=1/GPa)
#
#
# Indices 1 2 3 4 5 6 
#
# 1 0.008881 0.005092 0.004165 0.002022 -0.001558 -0.012810
# 2 0.005092 0.015541 -0.002725 0.010716 -0.006298 -0.008427
# 3 0.004165 -0.002725 0.015110 0.010145 -0.003384 -0.008516
# 4 0.002022 0.010716 0.010145 0.037580 -0.013364 -0.013031
# 5 -0.001558 -0.006298 -0.003384 -0.013364 0.041268 0.012968
# 6 -0.012810 -0.008427 -0.008516 -0.013031 0.012968 0.063508
#
#
# Mechanical properties :
#
#
# Convention : Reuss Voigt Hill
#
# Bulk Modulus (GPa) = 19.01290 37.05905 28.03597
# Shear Modulus (GPa) = 26.83015 86.33376 56.58195
#
# Velocity S-wave (km/s) = 3.62174 6.49674 5.25950
# Velocity P-wave (km/s) = 5.17537 8.62523 7.11263
#
# Compressibility (1/GPa) = 0.05259588
#
# Stress axis : x y z
#
# Youngs Moduli (GPa) = 112.59731 64.34530 66.17934
#
# Poissons Ratio (x) = -0.32763 -0.27562
# Poissons Ratio (y) = -0.57331 0.18033
# Poissons Ratio (z) = -0.46893 0.17533
#
# Static dielectric constant tensor:
#      x y z
#    x 1.722450 0.004960 -0.010910 
#    y 0.004960 1.745570 -0.056250 
#    z -0.010910 -0.056250 1.766050 
# 
# From -- ./inp_files/336499.got.cif
#   From: 2010.05.17/outbox.cif.g08.bks.cpg/sg2_169_cif.got.tgz:336499.got - 2010.06.03 11:33:40.
