data_PCOD9045068
_publ_section_title
;
Structure prediction by ZEFSAII (Michael W. Deem and Ramdas Pophale) SiO2 
 PCOD9045068
Probable space group: P -1
;
_chemical_formula_sum "Si O2"
_cell_formula_units_Z 10
_cell_length_a 11.192759
_cell_length_b 11.461016
_cell_length_c 8.354513
_cell_angle_alpha 69.626996
_cell_angle_beta 41.649098
_cell_angle_gamma 39.113812
_cell_volume 374.510258
_symmetry_space_group_name_H-M "P -1"
_symmetry_group_IT_number 2
_symmetry_cell_setting 'triclinic'
loop_
_space_group_symop_operation_xyz
x,y,z
-x,-y,-z
loop_
_atom_site_type_symbol
_atom_site_label
_atom_site_fract_x
_atom_site_fract_y
_atom_site_fract_z
Si Si1 0.160292 0.866484 0.562644
Si Si2 0.631372 0.811505 0.076910
Si Si3 0.562765 0.452813 0.150875
Si Si4 0.682137 0.118653 0.187334
Si Si5 0.086084 0.325180 0.797802
O O1 0.355609 0.880922 0.406075
O O2 0.387304 0.627173 0.386668
O O3 0.000000 0.000000 0.500000
O O4 0.851441 0.000976 0.905306
O O5 0.850346 0.724964 0.051335
O O6 0.838809 0.582952 0.891302
O O7 0.500000 0.000000 0.000000
O O8 0.469267 0.364386 0.310322
O O9 0.500000 0.500000 0.000000
O O10 0.923154 0.296727 0.896933
O O11 0.423544 0.163018 0.457439
O O12 0.000000 0.000000 0.000000
#
# Coordination Sequence:
#
# PCOD9045068 Si02
#       5
#     2   2   2   2   2
#     4  11  24  48  73 115 153 202 266 316 392 472
#     4  10  23  48  80 113 155 210 263 321 398 472
#     4  11  26  50  76 110 161 209 263 323 392 469
#     4  12  26  49  78 116 159 200 265 326 396 468
#     4  10  25  50  75 116 160 205 264 326 393 471
#
# _framework density 26.701535
#
# number of rings (size 3 to 8) (size 9 to 14) (size 15 to 20)
#    0.000    1.200    4.000    0.000    2.800    4.000 
#    3.600    1.000    0.000    0.000    0.000    0.000 
#    0.000    0.000    0.000    0.000    0.000    0.000 
#
# Total GULP energy -55702.635503 kJ/mol
# GULP energy per Si atom -5570.263550 kJ/mol
# Density = 2.664076 g / cm^3
# Si number density = 26.701535 Si / 1000 Ang^3
#
#
#
# Elastic Constant Matrix: (Units=GPa)
#
#
# Indices 1 2 3 4 5 6 
#
# 1 145.3176 42.3004 43.9733 -13.5506 -28.0283 11.8446
# 2 42.3004 146.7516 52.8578 -21.1803 -17.0207 35.3458
# 3 43.9733 52.8578 203.2857 -7.8223 -19.6766 26.4775
# 4 -13.5506 -21.1803 -7.8223 32.5750 10.3361 -6.3703
# 5 -28.0283 -17.0207 -19.6766 10.3361 45.8172 -3.5644
# 6 11.8446 35.3458 26.4775 -6.3703 -3.5644 62.1365
#
#
#
# Elastic Compliance Matrix: (Units=1/GPa)
#
#
# Indices 1 2 3 4 5 6 
#
# 1 0.008483 -0.001457 -0.001030 0.001075 0.003962 -0.000012
# 2 -0.001457 0.009377 -0.001369 0.004138 0.000760 -0.004005
# 3 -0.001030 -0.001369 0.005800 -0.000655 0.001385 -0.001484
# 4 0.001075 0.004138 -0.000655 0.035813 -0.006085 0.001043
# 5 0.003962 0.000760 0.001385 -0.006085 0.026431 -0.000885
# 6 -0.000012 -0.004005 -0.001484 0.001043 -0.000885 0.019063
#
#
# Mechanical properties :
#
#
# Convention : Reuss Voigt Hill
#
# Bulk Modulus (GPa) = 62.69703 85.95754 74.32729
# Shear Modulus (GPa) = 42.37535 51.85395 47.11465
#
# Velocity S-wave (km/s) = 3.98804 4.41158 4.20514
# Velocity P-wave (km/s) = 6.68862 7.62963 7.17457
#
# Compressibility (1/GPa) = 0.01594972
#
# Stress axis : x y z
#
# Youngs Moduli (GPa) = 117.88972 106.64238 172.41489
#
# Poissons Ratio (x) = 0.15533 0.17753
# Poissons Ratio (y) = 0.17171 0.23598
# Poissons Ratio (z) = 0.12139 0.14596
#
# Static dielectric constant tensor:
#      x y z
#    x 2.231550 -0.042660 0.017610 
#    y -0.042660 2.350520 0.033320 
#    z 0.017610 0.033320 2.045980 
# 
# From -- ./inp_files/240786.got.cif
#   From: 2010.05.17/outbox.cif.g08.bks.cpg/sg2_121_cif.got.tgz:240786.got - 2010.06.03 11:33:40.
