data_PCOD9045701
_publ_section_title
;
Structure prediction by ZEFSAII (Michael W. Deem and Ramdas Pophale) SiO2 
 PCOD9045701
Probable space group: P -1
;
_chemical_formula_sum "Si O2"
_cell_formula_units_Z 16
_cell_length_a 8.865899
_cell_length_b 15.097782
_cell_length_c 12.469917
_cell_angle_alpha 68.370281
_cell_angle_beta 102.150310
_cell_angle_gamma 150.235976
_cell_volume 748.275629
_symmetry_space_group_name_H-M "P -1"
_symmetry_group_IT_number 2
_symmetry_cell_setting 'triclinic'
loop_
_space_group_symop_operation_xyz
x,y,z
-x,-y,-z
loop_
_atom_site_type_symbol
_atom_site_label
_atom_site_fract_x
_atom_site_fract_y
_atom_site_fract_z
Si Si1 0.637736 0.345915 0.761589
Si Si2 0.283403 0.293474 0.029878
Si Si3 0.627674 0.016666 0.728703
Si Si4 0.430604 0.120462 0.624574
Si Si5 0.633780 0.287417 0.019861
Si Si6 0.244107 0.231535 0.285412
Si Si7 0.720070 0.655122 0.224484
Si Si8 0.359341 0.745880 0.636511
O O1 0.533256 0.244200 0.680166
O O2 0.451095 0.343203 0.757091
O O3 0.010239 0.561585 0.713265
O O4 0.578009 0.248902 0.901175
O O5 0.469656 0.297038 0.028757
O O6 0.118461 0.182643 0.166883
O O7 0.500000 0.500000 0.000000
O O8 0.133195 0.241361 0.917336
O O9 0.464844 0.030547 0.708757
O O10 0.996414 0.224115 0.712324
O O11 0.490798 0.866714 0.859749
O O12 0.553576 0.933980 0.638074
O O13 0.641315 0.245533 0.495064
O O14 0.072099 0.947746 0.615143
O O15 0.000000 0.500000 0.000000
O O16 0.459791 0.434464 0.265757
O O17 0.463603 0.257117 0.306988
#
# Coordination Sequence:
#
# PCOD9045701 Si02
#       8
#     2   2   2   2   2   2   2   2
#     4  11  24  44  69  98 135 172 220 272 334 390
#     4   9  20  37  65  94 132 166 212 262 333 387
#     4  12  25  43  67  99 138 170 223 270 331 394
#     4  12  28  43  67  98 132 181 226 267 323 392
#     4  11  22  40  68  99 132 170 212 274 338 391
#     4  11  22  44  68  96 133 175 224 269 329 388
#     4  10  24  41  67 101 135 171 212 274 337 395
#     4  12  24  48  68  94 133 177 225 277 320 388
#
# _framework density 21.382494000000001
#
# number of rings (size 3 to 8) (size 9 to 14) (size 15 to 20)
#    0.000    1.000    2.500    3.375    5.250    2.500 
#    0.000    1.875    0.000    0.000    0.000    0.000 
#    0.000    0.000    0.000    0.000    0.000    0.000 
#
# Total GULP energy -89463.894495 kJ/mol
# GULP energy per Si atom -5591.493406 kJ/mol
# Density = 2.133383 g / cm^3
# Si number density = 21.382494 Si / 1000 Ang^3
#
#
#
# Elastic Constant Matrix: (Units=GPa)
#
#
# Indices 1 2 3 4 5 6 
#
# 1 94.7637 38.4621 20.7114 15.3417 -0.4000 -8.6046
# 2 38.4621 96.8288 23.9012 28.4467 -8.2078 -4.7153
# 3 20.7114 23.9012 77.8498 12.4990 -16.0025 -9.1442
# 4 15.3417 28.4467 12.4990 24.1049 -2.4251 -9.3362
# 5 -0.4000 -8.2078 -16.0025 -2.4251 29.0926 3.9411
# 6 -8.6046 -4.7153 -9.1442 -9.3362 3.9411 34.1233
#
#
#
# Elastic Compliance Matrix: (Units=1/GPa)
#
#
# Indices 1 2 3 4 5 6 
#
# 1 0.013246 -0.004365 -0.002242 -0.001610 -0.002689 0.002006
# 2 -0.004365 0.018125 -0.001111 -0.019479 0.003445 -0.004621
# 3 -0.002242 -0.001111 0.016313 -0.004313 0.008061 0.001542
# 4 -0.001610 -0.019479 -0.004313 0.073672 -0.003965 0.016361
# 5 -0.002689 0.003445 0.008061 -0.003965 0.039917 -0.003737
# 6 0.002006 -0.004621 0.001542 0.016361 -0.003737 0.034494
#
#
# Mechanical properties :
#
#
# Convention : Reuss Voigt Hill
#
# Bulk Modulus (GPa) = 31.01011 48.39908 39.70460
# Shear Modulus (GPa) = 22.52727 29.88867 26.20797
#
# Velocity S-wave (km/s) = 3.24935 3.74279 3.50476
# Velocity P-wave (km/s) = 5.34899 6.43133 5.91497
#
# Compressibility (1/GPa) = 0.03224755
#
# Stress axis : x y z
#
# Youngs Moduli (GPa) = 75.49552 55.17173 61.29995
#
# Poissons Ratio (x) = 0.24084 0.13746
# Poissons Ratio (y) = 0.32956 0.06808
# Poissons Ratio (z) = 0.16929 0.06128
#
# Static dielectric constant tensor:
#      x y z
#    x 1.734290 -0.006860 0.003810 
#    y -0.006860 1.748440 0.008540 
#    z 0.003810 0.008540 1.800340 
# 
# From -- ./inp_files/200387.got.cif
#   From: 2010.05.17/outbox.cif.g08.bks.cpg/sg2_101_cif.got.tgz:200387.got - 2010.06.03 11:33:40.
