data_PCOD9045027
_publ_section_title
;
Structure prediction by ZEFSAII (Michael W. Deem and Ramdas Pophale) SiO2 
 PCOD9045027
Probable space group: P -1
;
_chemical_formula_sum "Si O2"
_cell_formula_units_Z 14
_cell_length_a 15.495896
_cell_length_b 19.312522
_cell_length_c 6.782009
_cell_angle_alpha 39.450514
_cell_angle_beta 135.325281
_cell_angle_gamma 153.488424
_cell_volume 574.216258
_symmetry_space_group_name_H-M "P -1"
_symmetry_group_IT_number 2
_symmetry_cell_setting 'triclinic'
loop_
_space_group_symop_operation_xyz
x,y,z
-x,-y,-z
loop_
_atom_site_type_symbol
_atom_site_label
_atom_site_fract_x
_atom_site_fract_y
_atom_site_fract_z
Si Si1 0.944013 0.712229 0.885158
Si Si2 0.254428 0.243316 0.813640
Si Si3 0.999275 0.084727 0.130024
Si Si4 0.688988 0.357809 0.797864
Si Si5 0.111139 0.734050 0.765472
Si Si6 0.570425 0.933706 0.670399
Si Si7 0.603447 0.352985 0.250060
O O1 0.824854 0.713741 0.545924
O O2 0.994174 0.803811 0.969467
O O3 0.125163 0.798351 0.861327
O O4 0.819439 0.520971 0.157321
O O5 0.173271 0.201282 0.996727
O O6 0.477898 0.366480 0.928650
O O7 0.169186 0.077283 0.930873
O O8 0.000000 0.000000 0.500000
O O9 0.599263 0.356713 0.469016
O O10 0.881755 0.554153 0.752326
O O11 0.778703 0.304391 0.988633
O O12 0.516410 0.212247 0.990204
O O13 0.213566 0.886095 0.445590
O O14 0.472083 0.815490 0.575434
O O15 0.500000 0.000000 0.500000
#
# Coordination Sequence:
#
# PCOD9045027 Si02
#       7
#     2   2   2   2   2   2   2
#     4  11  24  44  70 104 137 182 234 286 357 406
#     4  10  24  45  66  99 143 179 235 283 344 425
#     4   9  22  43  67  97 133 183 237 280 343 416
#     4  10  24  49  69 102 142 182 240 284 349 413
#     4  10  23  48  73  98 143 186 228 297 343 417
#     4  10  24  47  70 101 139 185 234 288 347 411
#     4  12  26  43  70 105 139 183 232 293 347 416
#
# _framework density 24.381057999999999
#
# number of rings (size 3 to 8) (size 9 to 14) (size 15 to 20)
#    0.000    1.714    1.429    0.429    8.000    5.714 
#    5.143    0.000    0.000    0.000    0.000    0.000 
#    0.000    0.000    0.000    0.000    0.000    0.000 
#
# Total GULP energy -78132.591183 kJ/mol
# GULP energy per Si atom -5580.899370 kJ/mol
# Density = 2.432557 g / cm^3
# Si number density = 24.381058 Si / 1000 Ang^3
#
#
#
# Elastic Constant Matrix: (Units=GPa)
#
#
# Indices 1 2 3 4 5 6 
#
# 1 145.7093 61.5528 37.6257 -7.7428 -36.3808 -18.1797
# 2 61.5528 73.7796 49.4838 -22.0429 -16.6721 -17.8392
# 3 37.6257 49.4838 95.1168 -18.7111 -29.3280 -5.0368
# 4 -7.7428 -22.0429 -18.7111 40.5144 1.3244 -11.7069
# 5 -36.3808 -16.6721 -29.3280 1.3244 53.9345 -7.0994
# 6 -18.1797 -17.8392 -5.0368 -11.7069 -7.0994 28.2682
#
#
#
# Elastic Compliance Matrix: (Units=1/GPa)
#
#
# Indices 1 2 3 4 5 6 
#
# 1 0.012675 -0.009973 0.002404 -0.001070 0.007284 0.003672
# 2 -0.009973 0.048332 -0.011871 0.028949 0.005706 0.035394
# 3 0.002404 -0.011871 0.018790 0.002560 0.008175 0.000516
# 4 -0.001070 0.028949 0.002560 0.053597 0.014064 0.043765
# 5 0.007284 0.005706 0.008175 0.014064 0.032439 0.023713
# 6 0.003672 0.035394 0.000516 0.043765 0.023713 0.084245
#
#
# Mechanical properties :
#
#
# Convention : Reuss Voigt Hill
#
# Bulk Modulus (GPa) = 24.43938 67.99226 46.21582
# Shear Modulus (GPa) = 16.52360 35.60631 26.06496
#
# Velocity S-wave (km/s) = 2.60614 3.82568 3.27320
# Velocity P-wave (km/s) = 4.37054 6.88929 5.76905
#
# Compressibility (1/GPa) = 0.04091756
#
# Stress axis : x y z
#
# Youngs Moduli (GPa) = 78.89515 20.69011 53.22065
#
# Poissons Ratio (x) = 0.20634 -0.12796
# Poissons Ratio (y) = 0.78681 0.63179
# Poissons Ratio (z) = -0.18969 0.24562
#
# Static dielectric constant tensor:
#      x y z
#    x 1.952730 0.046010 0.042820 
#    y 0.046010 2.026840 0.021190 
#    z 0.042820 0.021190 1.957200 
# 
# From -- ./inp_files/99506.got.cif
#   From: 2010.05.17/outbox.cif.g08.bks.cpg/sg2_50_cif.got.tgz:99506.got - 2010.06.03 11:33:40.
