data_PCOD9045723
_publ_section_title
;
Structure prediction by ZEFSAII (Michael W. Deem and Ramdas Pophale) SiO2 
 PCOD9045723
Probable space group: P -1
;
_chemical_formula_sum "Si O2"
_cell_formula_units_Z 15
_cell_length_a 11.913459
_cell_length_b 8.483688
_cell_length_c 7.669903
_cell_angle_alpha 97.983661
_cell_angle_beta 68.769483
_cell_angle_gamma 119.479644
_cell_volume 628.294314
_symmetry_space_group_name_H-M "P -1"
_symmetry_group_IT_number 2
_symmetry_cell_setting 'triclinic'
loop_
_space_group_symop_operation_xyz
x,y,z
-x,-y,-z
loop_
_atom_site_type_symbol
_atom_site_label
_atom_site_fract_x
_atom_site_fract_y
_atom_site_fract_z
Si Si1 0.762023 0.228976 0.196249
Si Si2 0.705655 0.304456 0.844827
Si Si3 0.460271 0.164186 0.752299
Si Si4 0.331236 0.404807 0.923517
Si Si5 0.980729 0.804827 0.023754
Si Si6 0.000000 0.500000 0.500000
Si Si7 0.931630 0.791712 0.450190
Si Si8 0.334312 0.520176 0.561965
O O1 0.766843 0.394450 0.326494
O O2 0.645884 0.032234 0.291468
O O3 0.730268 0.252368 0.016455
O O4 0.907503 0.237420 0.128787
O O5 0.575116 0.144628 0.797463
O O6 0.845582 0.385410 0.670676
O O7 0.643472 0.446254 0.922788
O O8 0.368886 0.245197 0.909406
O O9 0.547673 0.318294 0.586283
O O10 0.169911 0.326235 0.975909
O O11 0.388091 0.494773 0.715458
O O12 0.986132 0.790446 0.225504
O O13 0.000000 0.000000 0.000000
O O14 0.977513 0.678144 0.529293
O O15 0.764453 0.673164 0.502935
O O16 0.000000 0.000000 0.500000
#
# Coordination Sequence:
#
# PCOD9045723 Si02
#       8
#     2   2   2   2   2   1   2   2
#     4  11  24  43  70 101 142 181 234 287 356 426
#     4  11  25  43  67  98 141 185 232 291 354 419
#     4  12  22  44  68 100 139 186 235 281 349 429
#     4  10  24  41  67  96 137 184 227 286 353 415
#     4  11  23  42  69 103 136 180 238 291 354 417
#     4  12  24  46  72 104 144 180 240 300 356 414
#     4  11  26  45  70 105 141 183 236 297 360 418
#     4  10  24  44  66 102 135 182 230 289 352 417
#
# _framework density 23.874162999999999
#
# number of rings (size 3 to 8) (size 9 to 14) (size 15 to 20)
#    0.000    1.067    4.000    1.600    3.733    1.600 
#    2.400    1.333    0.000    0.000    0.000    0.000 
#    0.000    0.000    0.000    0.000    0.000    0.000 
#
# Total GULP energy -83628.726858 kJ/mol
# GULP energy per Si atom -5575.248457 kJ/mol
# Density = 2.381982 g / cm^3
# Si number density = 23.874163 Si / 1000 Ang^3
#
#
#
# Elastic Constant Matrix: (Units=GPa)
#
#
# Indices 1 2 3 4 5 6 
#
# 1 80.7843 36.4026 33.8438 2.0771 -12.3077 -2.6244
# 2 36.4026 113.7377 22.5745 -17.5809 -9.1319 10.5642
# 3 33.8438 22.5745 61.7322 -17.7167 -8.0324 14.6845
# 4 2.0771 -17.5809 -17.7167 34.3059 -6.2267 -1.0491
# 5 -12.3077 -9.1319 -8.0324 -6.2267 32.5507 3.0091
# 6 -2.6244 10.5642 14.6845 -1.0491 3.0091 43.1553
#
#
#
# Elastic Compliance Matrix: (Units=1/GPa)
#
#
# Indices 1 2 3 4 5 6 
#
# 1 0.022432 -0.006856 -0.015369 -0.012635 -0.000390 0.007992
# 2 -0.006856 0.012470 0.003460 0.009165 0.003948 -0.004699
# 3 -0.015369 0.003460 0.033825 0.021366 0.008831 -0.013388
# 4 -0.012635 0.009165 0.021366 0.047720 0.013123 -0.010037
# 5 -0.000390 0.003948 0.008831 0.013123 0.036949 -0.006253
# 6 0.007992 -0.004699 -0.013388 -0.010037 -0.006253 0.029556
#
#
# Mechanical properties :
#
#
# Convention : Reuss Voigt Hill
#
# Bulk Modulus (GPa) = 32.05308 49.09957 40.57632
# Shear Modulus (GPa) = 21.65642 32.89793 27.27718
#
# Velocity S-wave (km/s) = 3.01509 3.71613 3.38381
# Velocity P-wave (km/s) = 5.05727 6.24688 5.68329
#
# Compressibility (1/GPa) = 0.03119825
#
# Stress axis : x y z
#
# Youngs Moduli (GPa) = 44.58003 80.19430 29.56419
#
# Poissons Ratio (x) = 0.54978 0.45436
# Poissons Ratio (y) = 0.30563 -0.10231
# Poissons Ratio (z) = 0.68514 -0.27751
#
# Static dielectric constant tensor:
#      x y z
#    x 1.983940 0.040810 0.020550 
#    y 0.040810 1.902200 -0.037590 
#    z 0.020550 -0.037590 1.957720 
# 
# From -- ./inp_files/244439.got.cif
#   From: 2010.05.17/outbox.cif.g08.bks.cpg/sg2_123_cif.got.tgz:244439.got - 2010.06.03 11:33:40.
