data_PCOD9045411
_publ_section_title
;
Structure prediction by ZEFSAII (Michael W. Deem and Ramdas Pophale) SiO2 
 PCOD9045411
Probable space group: P -1
;
_chemical_formula_sum "Si O2"
_cell_formula_units_Z 12
_cell_length_a 17.129248
_cell_length_b 6.523849
_cell_length_c 5.391983
_cell_angle_alpha 71.517679
_cell_angle_beta 130.800630
_cell_angle_gamma 103.410157
_cell_volume 432.336878
_symmetry_space_group_name_H-M "P -1"
_symmetry_group_IT_number 2
_symmetry_cell_setting 'triclinic'
loop_
_space_group_symop_operation_xyz
x,y,z
-x,-y,-z
loop_
_atom_site_type_symbol
_atom_site_label
_atom_site_fract_x
_atom_site_fract_y
_atom_site_fract_z
Si Si1 0.176102 0.094603 0.215312
Si Si2 0.648754 0.098280 0.642325
Si Si3 0.005121 0.248625 0.481179
Si Si4 0.683504 0.568965 0.317968
Si Si5 0.554208 0.958321 0.924619
Si Si6 0.845454 0.381332 0.421612
O O1 0.238492 0.259121 0.458669
O O2 0.256149 0.049456 0.174793
O O3 0.149898 0.850379 0.345281
O O4 0.075149 0.218503 0.883515
O O5 0.662547 0.349274 0.508689
O O6 0.571043 0.021885 0.250060
O O7 0.649586 0.092928 0.949210
O O8 0.070871 0.428249 0.397875
O O9 0.890521 0.324572 0.267516
O O10 0.000000 0.000000 0.500000
O O11 0.737168 0.489290 0.208903
O O12 0.580593 0.706702 0.043038
O O13 0.500000 0.000000 0.500000
#
# Coordination Sequence:
#
# PCOD9045411 Si02
#       6
#     2   2   2   2   2   2
#     4  11  23  42  63  94 127 169 215 267 320 382
#     4  10  24  42  65  98 128 172 219 262 325 382
#     4  11  24  42  64  95 129 168 215 266 319 389
#     4  11  23  42  65  94 131 170 216 271 317 384
#     4  11  22  44  67  93 134 171 216 268 320 384
#     4  10  24  40  65  93 125 169 213 262 328 375
#
# _framework density 27.756132000000001
#
# number of rings (size 3 to 8) (size 9 to 14) (size 15 to 20)
#    0.000    1.333    1.667    3.000    0.000    8.667 
#    3.000    0.000    0.000    0.000    0.000    0.000 
#    0.000    0.000    0.000    0.000    0.000    0.000 
#
# Total GULP energy -66894.859543 kJ/mol
# GULP energy per Si atom -5574.571629 kJ/mol
# Density = 2.769296 g / cm^3
# Si number density = 27.756132 Si / 1000 Ang^3
#
#
#
# Elastic Constant Matrix: (Units=GPa)
#
#
# Indices 1 2 3 4 5 6 
#
# 1 212.3241 67.3836 42.2664 -8.4067 -31.5883 -47.2423
# 2 67.3836 236.3346 62.0270 -26.8878 -20.5097 -4.7425
# 3 42.2664 62.0270 79.4184 -16.9617 -1.8969 12.0486
# 4 -8.4067 -26.8878 -16.9617 64.3463 3.4044 3.8171
# 5 -31.5883 -20.5097 -1.8969 3.4044 43.5009 -13.7059
# 6 -47.2423 -4.7425 12.0486 3.8171 -13.7059 53.6745
#
#
#
# Elastic Compliance Matrix: (Units=1/GPa)
#
#
# Indices 1 2 3 4 5 6 
#
# 1 0.012167 0.000256 -0.009392 -0.002502 0.013968 0.016585
# 2 0.000256 0.005898 -0.004880 0.000866 0.003531 0.002682
# 3 -0.009392 -0.004880 0.024935 0.005142 -0.014198 -0.018287
# 4 -0.002502 0.000866 0.005142 0.017494 -0.004327 -0.005629
# 5 0.013968 0.003531 -0.014198 -0.004327 0.043052 0.027094
# 6 0.016585 0.002682 -0.018287 -0.005629 0.027094 0.044889
#
#
# Mechanical properties :
#
#
# Convention : Reuss Voigt Hill
#
# Bulk Modulus (GPa) = 66.81225 96.82565 81.81895
# Shear Modulus (GPa) = 27.55469 56.06436 41.80953
#
# Velocity S-wave (km/s) = 3.15420 4.49920 3.88534
# Velocity P-wave (km/s) = 6.11463 7.87086 7.04767
#
# Compressibility (1/GPa) = 0.01496731
#
# Stress axis : x y z
#
# Youngs Moduli (GPa) = 82.18795 169.55226 40.10383
#
# Poissons Ratio (x) = -0.04345 0.37667
# Poissons Ratio (y) = -0.02106 0.19573
# Poissons Ratio (z) = 0.77194 0.82749
#
# Static dielectric constant tensor:
#      x y z
#    x 1.885060 -0.072410 -0.101410 
#    y -0.072410 2.066600 0.093910 
#    z -0.101410 0.093910 2.279630 
# 
# From -- ./inp_files/3479.got.cif
#   From: 2010.05.17/outbox.cif.g08.bks.cpg/sg2_2_cif.got.tgz:3479.got - 2010.06.03 11:33:40.
