data_PCOD9045861
_publ_section_title
;
Structure prediction by ZEFSAII (Michael W. Deem and Ramdas Pophale) SiO2 
 PCOD9045861
Probable space group: P -1
;
_chemical_formula_sum "Si O2"
_cell_formula_units_Z 14
_cell_length_a 11.633373
_cell_length_b 15.832306
_cell_length_c 5.099213
_cell_angle_alpha 69.634568
_cell_angle_beta 55.176810
_cell_angle_gamma 64.911699
_cell_volume 691.141380
_symmetry_space_group_name_H-M "P -1"
_symmetry_group_IT_number 2
_symmetry_cell_setting 'triclinic'
loop_
_space_group_symop_operation_xyz
x,y,z
-x,-y,-z
loop_
_atom_site_type_symbol
_atom_site_label
_atom_site_fract_x
_atom_site_fract_y
_atom_site_fract_z
Si Si1 0.390193 0.103251 0.055959
Si Si2 0.048826 0.693281 0.333602
Si Si3 0.619278 0.530825 0.646976
Si Si4 0.243732 0.656036 0.618613
Si Si5 0.785956 0.823493 0.272679
Si Si6 0.517403 0.715215 0.266370
Si Si7 0.786249 0.630609 0.613432
O O1 0.257741 0.119791 0.999447
O O2 0.473829 0.181098 0.796030
O O3 0.326880 0.126684 0.406205
O O4 0.500000 0.000000 0.000000
O O5 0.943168 0.792435 0.247584
O O6 0.940916 0.626457 0.545896
O O7 0.114386 0.692877 0.535816
O O8 0.178091 0.663246 0.986165
O O9 0.674479 0.453341 0.434648
O O10 0.542195 0.637545 0.545335
O O11 0.760729 0.540581 0.608347
O O12 0.500000 0.500000 0.000000
O O13 0.360666 0.713727 0.362389
O O14 0.772460 0.718684 0.339389
O O15 0.652783 0.668605 0.947015
#
# Coordination Sequence:
#
# PCOD9045861 Si02
#       7
#     2   2   2   2   2   2   2
#     4  11  21  39  72  99 114 156 218 265 307 376
#     4  10  24  42  59  92 127 176 202 258 310 371
#     4  12  23  39  61  92 129 171 215 260 313 354
#     4  12  25  37  62  92 127 169 219 246 302 387
#     4   9  20  41  62  88 129 158 195 261 321 351
#     4  11  23  42  62  90 131 163 208 272 316 354
#     4   9  22  39  63  80 125 174 205 248 320 354
#
# _framework density 20.256349
#
# number of rings (size 3 to 8) (size 9 to 14) (size 15 to 20)
#    0.857    0.571    2.857    2.571    4.000    1.143 
#    0.000    0.000    0.000    5.143    0.000    0.000 
#    0.000    0.000    0.000    0.000    0.000    0.000 
#
# Total GULP energy -78076.753082 kJ/mol
# GULP energy per Si atom -5576.910934 kJ/mol
# Density = 2.021024 g / cm^3
# Si number density = 20.256349 Si / 1000 Ang^3
#
#
#
# Elastic Constant Matrix: (Units=GPa)
#
#
# Indices 1 2 3 4 5 6 
#
# 1 93.0784 11.3079 -3.1540 -10.9393 -13.5115 -6.4571
# 2 11.3079 101.2886 3.4996 -0.9548 -5.9587 -2.8038
# 3 -3.1540 3.4996 53.4100 1.7326 -11.0872 1.9509
# 4 -10.9393 -0.9548 1.7326 22.1514 -4.5397 3.1147
# 5 -13.5115 -5.9587 -11.0872 -4.5397 36.5492 -1.5883
# 6 -6.4571 -2.8038 1.9509 3.1147 -1.5883 21.8663
#
#
#
# Elastic Compliance Matrix: (Units=1/GPa)
#
#
# Indices 1 2 3 4 5 6 
#
# 1 0.012838 -0.000986 0.001757 0.006998 0.006116 0.002955
# 2 -0.000986 0.010102 -0.000518 0.000073 0.001183 0.001126
# 3 0.001757 -0.000518 0.020277 0.000785 0.006771 -0.000977
# 4 0.006998 0.000073 0.000785 0.051029 0.008975 -0.004611
# 5 0.006116 0.001183 0.006771 0.008975 0.033091 0.002479
# 6 0.002955 0.001126 -0.000977 -0.004611 0.002479 0.047674
#
#
# Mechanical properties :
#
#
# Convention : Reuss Voigt Hill
#
# Bulk Modulus (GPa) = 22.87129 30.12048 26.49588
# Shear Modulus (GPa) = 26.44398 31.85495 29.14946
#
# Velocity S-wave (km/s) = 3.61704 3.96989 3.79757
# Velocity P-wave (km/s) = 5.36278 5.99294 5.68660
#
# Compressibility (1/GPa) = 0.04372295
#
# Stress axis : x y z
#
# Youngs Moduli (GPa) = 77.89193 98.98775 49.31789
#
# Poissons Ratio (x) = 0.09764 -0.08667
# Poissons Ratio (y) = 0.07683 0.02555
# Poissons Ratio (z) = -0.13689 0.05128
#
# Static dielectric constant tensor:
#      x y z
#    x 1.862850 -0.030590 0.000860 
#    y -0.030590 1.708740 -0.006820 
#    z 0.000860 -0.006820 1.711480 
# 
# From -- ./inp_files/75623.got.cif
#   From: 2010.05.17/outbox.cif.g08.bks.cpg/sg2_38_cif.got.tgz:75623.got - 2010.06.03 11:33:40.
