data_PCOD9045387
_publ_section_title
;
Structure prediction by ZEFSAII (Michael W. Deem and Ramdas Pophale) SiO2 
 PCOD9045387
Probable space group: P -1
;
_chemical_formula_sum "Si O2"
_cell_formula_units_Z 10
_cell_length_a 4.969672
_cell_length_b 20.330208
_cell_length_c 4.885637
_cell_angle_alpha 58.796763
_cell_angle_beta 115.521488
_cell_angle_gamma 107.474731
_cell_volume 379.106845
_symmetry_space_group_name_H-M "P -1"
_symmetry_group_IT_number 2
_symmetry_cell_setting 'triclinic'
loop_
_space_group_symop_operation_xyz
x,y,z
-x,-y,-z
loop_
_atom_site_type_symbol
_atom_site_label
_atom_site_fract_x
_atom_site_fract_y
_atom_site_fract_z
Si Si1 0.920387 0.126801 0.397025
Si Si2 0.562558 0.957916 0.403589
Si Si3 0.872987 0.419021 0.749904
Si Si4 0.430677 0.808286 0.369012
Si Si5 0.511553 0.363305 0.198906
O O1 0.697971 0.039841 0.476454
O O2 0.149443 0.087379 0.357837
O O3 0.222631 0.164492 0.610389
O O4 0.762337 0.184545 0.001808
O O5 0.324134 0.868378 0.424120
O O6 0.500000 0.000000 0.000000
O O7 0.296029 0.576936 0.044782
O O8 0.000000 0.500000 0.500000
O O9 0.628372 0.379058 0.521484
O O10 0.161837 0.372110 0.007005
O O11 0.416542 0.722623 0.662146
#
# Coordination Sequence:
#
# PCOD9045387 Si02
#       5
#     2   2   2   2   2
#     4  10  24  40  64  89 131 164 228 266 333 389
#     4  10  24  42  64  92 129 172 219 272 330 392
#     4  12  26  48  72 105 140 182 228 280 345 414
#     4  10  26  40  66  95 132 170 224 271 334 394
#     4  12  26  43  75 102 142 182 228 285 341 406
#
# _framework density 26.377786
#
# number of rings (size 3 to 8) (size 9 to 14) (size 15 to 20)
#    1.200    0.000    0.000    4.800    8.400    1.600 
#    0.000    0.000    0.000    0.000    0.000    0.000 
#    0.000    0.000    0.000    0.000    0.000    0.000 
#
# Total GULP energy -55975.085370 kJ/mol
# GULP energy per Si atom -5597.508537 kJ/mol
# Density = 2.631775 g / cm^3
# Si number density = 26.377786 Si / 1000 Ang^3
#
#
#
# Elastic Constant Matrix: (Units=GPa)
#
#
# Indices 1 2 3 4 5 6 
#
# 1 169.3320 -5.0704 62.0442 19.3342 9.0802 33.1355
# 2 -5.0704 70.3370 22.5004 4.1986 15.3193 -4.4558
# 3 62.0442 22.5004 167.8295 27.1527 20.7332 -4.8845
# 4 19.3342 4.1986 27.1527 37.2554 -3.8661 -7.0669
# 5 9.0802 15.3193 20.7332 -3.8661 46.2738 5.3535
# 6 33.1355 -4.4558 -4.8845 -7.0669 5.3535 46.2370
#
#
#
# Elastic Compliance Matrix: (Units=1/GPa)
#
#
# Indices 1 2 3 4 5 6 
#
# 1 0.008928 0.001481 -0.003010 -0.004003 -0.000402 -0.007139
# 2 0.001481 0.016137 -0.001798 -0.001680 -0.005041 0.000631
# 3 -0.003010 -0.001798 0.008482 -0.004262 -0.003272 0.002607
# 4 -0.004003 -0.001680 -0.004262 0.034064 0.005305 0.006848
# 5 -0.000402 -0.005041 -0.003272 0.005305 0.025579 -0.002694
# 6 -0.007139 0.000631 0.002607 0.006848 -0.002694 0.028439
#
#
# Mechanical properties :
#
#
# Convention : Reuss Voigt Hill
#
# Bulk Modulus (GPa) = 37.18389 62.93854 50.06121
# Shear Modulus (GPa) = 36.43049 47.82153 42.12601
#
# Velocity S-wave (km/s) = 3.72035 4.26249 4.00062
# Velocity P-wave (km/s) = 5.70806 6.93811 6.35293
#
# Compressibility (1/GPa) = 0.02689337
#
# Stress axis : x y z
#
# Youngs Moduli (GPa) = 112.00505 61.96829 117.89965
#
# Poissons Ratio (x) = -0.09175 0.35483
# Poissons Ratio (y) = -0.16584 0.21198
# Poissons Ratio (z) = 0.33709 0.11142
#
# Static dielectric constant tensor:
#      x y z
#    x 2.043600 0.024140 -0.038110 
#    y 0.024140 2.281570 -0.018820 
#    z -0.038110 -0.018820 1.888200 
# 
# From -- ./inp_files/2704.got.cif
#   From: 2010.05.17/outbox.cif.g08.bks.cpg/sg2_2_cif.got.tgz:2704.got - 2010.06.03 11:33:40.
