data_PCOD9045663
_publ_section_title
;
Structure prediction by ZEFSAII (Michael W. Deem and Ramdas Pophale) SiO2 
 PCOD9045663
Probable space group: P -1
;
_chemical_formula_sum "Si O2"
_cell_formula_units_Z 16
_cell_length_a 8.126903
_cell_length_b 5.385146
_cell_length_c 20.729658
_cell_angle_alpha 55.802646
_cell_angle_beta 115.523045
_cell_angle_gamma 95.694735
_cell_volume 664.610322
_symmetry_space_group_name_H-M "P -1"
_symmetry_group_IT_number 2
_symmetry_cell_setting 'triclinic'
loop_
_space_group_symop_operation_xyz
x,y,z
-x,-y,-z
loop_
_atom_site_type_symbol
_atom_site_label
_atom_site_fract_x
_atom_site_fract_y
_atom_site_fract_z
Si Si1 0.795850 0.213573 0.590389
Si Si2 0.384842 0.331921 0.918903
Si Si3 0.042109 0.000187 0.082206
Si Si4 0.741336 0.520348 0.990784
Si Si5 0.817722 0.556889 0.723647
Si Si6 0.212216 0.144548 0.645637
Si Si7 0.486554 0.553850 0.580965
Si Si8 0.196138 0.442843 0.733637
O O1 0.652449 0.456179 0.571619
O O2 0.667067 0.166259 0.513526
O O3 0.989873 0.286227 0.587913
O O4 0.839217 0.906657 0.685624
O O5 0.240753 0.400330 0.942828
O O6 0.307202 0.359694 0.830581
O O7 0.531460 0.548472 0.927749
O O8 0.500000 0.000000 0.000000
O O9 0.851814 0.174117 0.055753
O O10 0.133421 0.680515 0.175359
O O11 0.173994 0.250225 0.073610
O O12 0.000000 0.000000 0.000000
O O13 0.606752 0.576038 0.661813
O O14 0.979708 0.445078 0.714023
O O15 0.355732 0.301660 0.606568
O O16 0.257589 0.214716 0.718021
O O17 0.219349 0.795136 0.675233
#
# Coordination Sequence:
#
# PCOD9045663 Si02
#       8
#     2   2   2   2   2   2   2   2
#     4  10  24  49  70 107 146 189 241 306 369 442
#     4  11  24  42  66  92 139 192 238 303 367 427
#     4  11  24  43  66 102 141 185 238 300 364 430
#     4  10  24  41  65  98 132 189 240 297 361 440
#     4  11  24  43  71  99 144 192 242 302 369 437
#     4  11  26  47  71 111 143 196 237 309 363 448
#     4  11  24  44  76 105 143 192 244 301 373 441
#     4  11  26  45  70 102 148 188 251 298 370 436
#
# _framework density 24.074256999999999
#
# number of rings (size 3 to 8) (size 9 to 14) (size 15 to 20)
#    0.000    1.250    1.250    3.000    8.750    3.000 
#    0.000    1.875    0.000    0.000    0.000    0.000 
#    0.000    0.000    0.000    0.000    0.000    0.000 
#
# Total GULP energy -89373.014227 kJ/mol
# GULP energy per Si atom -5585.813389 kJ/mol
# Density = 2.401946 g / cm^3
# Si number density = 24.074257 Si / 1000 Ang^3
#
#
#
# Elastic Constant Matrix: (Units=GPa)
#
#
# Indices 1 2 3 4 5 6 
#
# 1 104.2032 20.4954 38.4930 2.7809 3.6323 28.9513
# 2 20.4954 72.1763 36.0877 3.2898 1.6288 5.7205
# 3 38.4930 36.0877 136.9442 -1.4971 4.9958 9.2933
# 4 2.7809 3.2898 -1.4971 37.8687 8.9433 -1.3234
# 5 3.6323 1.6288 4.9958 8.9433 26.0504 -0.4620
# 6 28.9513 5.7205 9.2933 -1.3234 -0.4620 53.9082
#
#
#
# Elastic Compliance Matrix: (Units=1/GPa)
#
#
# Indices 1 2 3 4 5 6 
#
# 1 0.012703 -0.001718 -0.002671 -0.000880 -0.000960 -0.006209
# 2 -0.001718 0.016341 -0.003846 -0.001568 0.000490 -0.000183
# 3 -0.002671 -0.003846 0.009118 0.001271 -0.001567 0.000289
# 4 -0.000880 -0.001568 0.001271 0.029051 -0.009978 0.001047
# 5 -0.000960 0.000490 -0.001567 -0.009978 0.042231 0.000850
# 6 -0.006209 -0.000183 0.000289 0.001047 0.000850 0.021887
#
#
# Mechanical properties :
#
#
# Convention : Reuss Voigt Hill
#
# Bulk Modulus (GPa) = 46.09974 55.94178 51.02076
# Shear Modulus (GPa) = 32.25130 38.11529 35.18330
#
# Velocity S-wave (km/s) = 3.66411 3.98331 3.82704
# Velocity P-wave (km/s) = 6.09028 6.66658 6.38493
#
# Compressibility (1/GPa) = 0.02169210
#
# Stress axis : x y z
#
# Youngs Moduli (GPa) = 78.71909 61.19752 109.67274
#
# Poissons Ratio (x) = 0.10512 0.29297
# Poissons Ratio (y) = 0.13522 0.42179
# Poissons Ratio (z) = 0.21028 0.23536
#
# Static dielectric constant tensor:
#      x y z
#    x 2.000040 0.131610 0.018530 
#    y 0.131610 2.338750 0.148950 
#    z 0.018530 0.148950 1.964470 
# 
# From -- ./inp_files/548307.got.cif
#   From: 2010.05.17/outbox.cif.g08.bks.cpg/sg2_275_cif.got.tgz:548307.got - 2010.06.03 11:33:40.
