data_PCOD9045677
_publ_section_title
;
Structure prediction by ZEFSAII (Michael W. Deem and Ramdas Pophale) SiO2 
 PCOD9045677
Probable space group: P -1
;
_chemical_formula_sum "Si O2"
_cell_formula_units_Z 16
_cell_length_a 23.767192
_cell_length_b 8.587017
_cell_length_c 9.575812
_cell_angle_alpha 31.095316
_cell_angle_beta 48.269271
_cell_angle_gamma 56.288894
_cell_volume 752.678633
_symmetry_space_group_name_H-M "P -1"
_symmetry_group_IT_number 2
_symmetry_cell_setting 'triclinic'
loop_
_space_group_symop_operation_xyz
x,y,z
-x,-y,-z
loop_
_atom_site_type_symbol
_atom_site_label
_atom_site_fract_x
_atom_site_fract_y
_atom_site_fract_z
Si Si1 0.944409 0.243903 0.848998
Si Si2 0.480913 0.002584 0.690752
Si Si3 0.731411 0.676285 0.868384
Si Si4 0.581232 0.367019 0.435893
Si Si5 0.194845 0.826102 0.064865
Si Si6 0.814203 0.330385 0.216556
Si Si7 0.225525 0.513931 0.541124
Si Si8 0.611602 0.429792 0.637027
O O1 0.886439 0.153242 0.890238
O O2 0.000000 0.500000 0.500000
O O3 0.890314 0.327835 0.002588
O O4 0.000000 0.000000 0.000000
O O5 0.557079 0.112351 0.560723
O O6 0.412673 0.238373 0.625031
O O7 0.500000 0.000000 0.500000
O O8 0.450421 0.707904 0.048389
O O9 0.761734 0.421057 0.908761
O O10 0.768581 0.005933 0.520169
O O11 0.642415 0.600570 0.088994
O O12 0.764640 0.587586 0.032392
O O13 0.500000 0.500000 0.500000
O O14 0.609528 0.258739 0.623059
O O15 0.198134 0.704756 0.309679
O O16 0.227544 0.167350 0.754670
O O17 0.825092 0.415239 0.294610
O O18 0.309362 0.593308 0.399209
#
# Coordination Sequence:
#
# PCOD9045677 Si02
#       8
#     2   2   2   2   2   2   2   2
#     4  11  23  47  74 101 139 178 220 265 328 411
#     4  11  25  43  60  92 128 170 236 286 351 397
#     4  11  23  43  66  97 132 180 236 272 333 407
#     4  10  24  41  66  91 131 177 235 284 341 403
#     4  11  25  43  68 106 135 177 218 283 332 395
#     4  11  24  43  72 101 133 180 224 267 330 410
#     4  12  24  42  68  98 144 166 231 276 338 392
#     4  11  24  42  63  88 129 182 217 284 344 396
#
# _framework density 21.257411000000001
#
# number of rings (size 3 to 8) (size 9 to 14) (size 15 to 20)
#    0.000    1.000    1.250    6.000    7.000    2.000 
#    0.000    3.750    0.000    0.000    0.000    0.000 
#    0.000    0.000    0.000    0.000    0.000    0.000 
#
# Total GULP energy -89371.124350 kJ/mol
# GULP energy per Si atom -5585.695272 kJ/mol
# Density = 2.120903 g / cm^3
# Si number density = 21.257411 Si / 1000 Ang^3
#
#
#
# Elastic Constant Matrix: (Units=GPa)
#
#
# Indices 1 2 3 4 5 6 
#
# 1 137.3471 42.1007 38.9515 14.5335 13.1161 15.0861
# 2 42.1007 51.1286 17.5883 7.7610 -9.6234 -0.9061
# 3 38.9515 17.5883 121.2337 1.1769 -5.7188 -4.9033
# 4 14.5335 7.7610 1.1769 35.8559 -4.2088 5.3717
# 5 13.1161 -9.6234 -5.7188 -4.2088 36.8973 6.2646
# 6 15.0861 -0.9061 -4.9033 5.3717 6.2646 41.7853
#
#
#
# Elastic Compliance Matrix: (Units=1/GPa)
#
#
# Indices 1 2 3 4 5 6 
#
# 1 0.012828 -0.010507 -0.003070 -0.003154 -0.007510 -0.003688
# 2 -0.010507 0.030712 -0.000426 -0.001526 0.011003 0.002956
# 3 -0.003070 -0.000426 0.009464 0.001032 0.002270 0.001737
# 4 -0.003154 -0.001526 0.001032 0.030562 0.004954 -0.003445
# 5 -0.007510 0.011003 0.002270 0.004954 0.033986 -0.002516
# 6 -0.003688 0.002956 0.001737 -0.003445 -0.002516 0.026351
#
#
# Mechanical properties :
#
#
# Convention : Reuss Voigt Hill
#
# Bulk Modulus (GPa) = 40.00439 56.33226 48.16832
# Shear Modulus (GPa) = 27.74030 36.97895 32.35963
#
# Velocity S-wave (km/s) = 3.61636 4.17535 3.90587
# Velocity P-wave (km/s) = 6.02472 7.05708 6.56123
#
# Compressibility (1/GPa) = 0.02499726
#
# Stress axis : x y z
#
# Youngs Moduli (GPa) = 77.95295 32.56034 105.66269
#
# Poissons Ratio (x) = 0.34212 0.32439
# Poissons Ratio (y) = 0.81907 0.04505
# Poissons Ratio (z) = 0.23932 0.01388
#
# Static dielectric constant tensor:
#      x y z
#    x 1.780430 0.006520 -0.024180 
#    y 0.006520 1.886130 -0.016430 
#    z -0.024180 -0.016430 1.764830 
# 
# From -- ./inp_files/351960.got.cif
#   From: 2010.05.17/outbox.cif.g08.bks.cpg/sg2_176_cif.got.tgz:351960.got - 2010.06.03 11:33:40.
