data_PCOD9045755
_publ_section_title
;
Structure prediction by ZEFSAII (Michael W. Deem and Ramdas Pophale) SiO2 
 PCOD9045755
Probable space group: P -1
;
_chemical_formula_sum "Si O2"
_cell_formula_units_Z 14
_cell_length_a 17.809018
_cell_length_b 9.494185
_cell_length_c 14.624229
_cell_angle_alpha 123.415959
_cell_angle_beta 156.043186
_cell_angle_gamma 42.083412
_cell_volume 594.465001
_symmetry_space_group_name_H-M "P -1"
_symmetry_group_IT_number 2
_symmetry_cell_setting 'triclinic'
loop_
_space_group_symop_operation_xyz
x,y,z
-x,-y,-z
loop_
_atom_site_type_symbol
_atom_site_label
_atom_site_fract_x
_atom_site_fract_y
_atom_site_fract_z
Si Si1 0.780274 0.523674 0.158854
Si Si2 0.587413 0.183590 0.989967
Si Si3 0.270539 0.107057 0.676991
Si Si4 0.567492 0.697803 0.344777
Si Si5 0.813927 0.206788 0.528719
Si Si6 0.953500 0.112358 0.859144
Si Si7 0.961646 0.752591 0.827599
O O1 0.800403 0.714207 0.258525
O O2 0.032442 0.278354 0.402246
O O3 0.817285 0.441610 0.068114
O O4 0.549460 0.631275 0.012297
O O5 0.519119 0.031875 0.879708
O O6 0.446639 0.312094 0.783940
O O7 0.891278 0.008012 0.255229
O O8 0.312787 0.890144 0.674631
O O9 0.694002 0.451804 0.441905
O O10 0.738693 0.753332 0.578874
O O11 0.266952 0.903967 0.116336
O O12 0.823041 0.213887 0.651563
O O13 0.919375 0.286614 0.954685
O O14 0.863712 0.997389 0.767885
#
# Coordination Sequence:
#
# PCOD9045755 Si02
#       7
#     2   2   2   2   2   2   2
#     4   9  17  38  68  83 122 173 196 245 310 362
#     4   9  20  39  63  88 122 170 192 243 317 363
#     4   9  17  37  62  90 124 161 201 244 309 372
#     4  11  22  40  64  96 124 157 203 263 307 356
#     4  11  22  38  64  98 125 152 208 257 303 368
#     4  10  24  41  68  89 115 172 210 246 308 364
#     4  11  20  44  65  86 124 167 210 247 304 369
#
# _framework density 23.550587
#
# number of rings (size 3 to 8) (size 9 to 14) (size 15 to 20)
#    0.857    1.143    2.857    0.429    0.000    2.286 
#    2.571    6.429    0.000    0.000    0.000    0.000 
#    0.000    0.000    0.000    0.000    0.000    0.000 
#
# Total GULP energy -78327.235272 kJ/mol
# GULP energy per Si atom -5594.802519 kJ/mol
# Density = 2.349698 g / cm^3
# Si number density = 23.550587 Si / 1000 Ang^3
#
#
#
# Elastic Constant Matrix: (Units=GPa)
#
#
# Indices 1 2 3 4 5 6 
#
# 1 98.0220 45.5075 22.5462 16.6830 -12.1154 -4.5192
# 2 45.5075 119.7818 46.3405 33.7392 -11.5901 16.6938
# 3 22.5462 46.3405 61.6081 22.1786 3.1471 13.1947
# 4 16.6830 33.7392 22.1786 36.4462 9.1890 1.7557
# 5 -12.1154 -11.5901 3.1471 9.1890 32.1025 9.8226
# 6 -4.5192 16.6938 13.1947 1.7557 9.8226 50.0035
#
#
#
# Elastic Compliance Matrix: (Units=1/GPa)
#
#
# Indices 1 2 3 4 5 6 
#
# 1 0.013335 -0.003364 -0.001951 -0.002966 0.004209 0.002121
# 2 -0.003364 0.018178 -0.006649 -0.013934 0.011913 -0.006469
# 3 -0.001951 -0.006649 0.025766 -0.007890 -0.002164 -0.004053
# 4 -0.002966 -0.013934 -0.007890 0.051859 -0.023025 0.009168
# 5 0.004209 0.011913 -0.002164 -0.023025 0.047368 -0.011522
# 6 0.002121 -0.006469 -0.004053 0.009168 -0.011522 0.025361
#
#
# Mechanical properties :
#
#
# Convention : Reuss Voigt Hill
#
# Bulk Modulus (GPa) = 29.98455 56.46671 43.22563
# Shear Modulus (GPa) = 23.05072 34.71163 28.88118
#
# Velocity S-wave (km/s) = 3.13193 3.84333 3.50572
# Velocity P-wave (km/s) = 5.08314 6.61239 5.89754
#
# Compressibility (1/GPa) = 0.03335051
#
# Stress axis : x y z
#
# Youngs Moduli (GPa) = 74.98881 55.01169 38.81084
#
# Poissons Ratio (x) = 0.18508 0.07572
# Poissons Ratio (y) = 0.25229 0.25805
# Poissons Ratio (z) = 0.14631 0.36577
#
# Static dielectric constant tensor:
#      x y z
#    x 1.886000 0.008290 -0.009370 
#    y 0.008290 1.876270 0.024130 
#    z -0.009370 0.024130 1.952570 
# 
# From -- ./inp_files/577430.got.cif
#   From: 2010.05.17/outbox.cif.g08.bks.cpg/sg2_289_cif.got.tgz:577430.got - 2010.06.03 11:33:40.
