data_PCOD9045804
_publ_section_title
;
Structure prediction by ZEFSAII (Michael W. Deem and Ramdas Pophale) SiO2 
 PCOD9045804
Probable space group: P -1
;
_chemical_formula_sum "Si O2"
_cell_formula_units_Z 16
_cell_length_a 5.398770
_cell_length_b 13.590376
_cell_length_c 21.887574
_cell_angle_alpha 24.245224
_cell_angle_beta 91.603221
_cell_angle_gamma 87.229838
_cell_volume 648.448280
_symmetry_space_group_name_H-M "P -1"
_symmetry_group_IT_number 2
_symmetry_cell_setting 'triclinic'
loop_
_space_group_symop_operation_xyz
x,y,z
-x,-y,-z
loop_
_atom_site_type_symbol
_atom_site_label
_atom_site_fract_x
_atom_site_fract_y
_atom_site_fract_z
Si Si1 0.712155 0.214813 0.532256
Si Si2 0.223883 0.130319 0.903407
Si Si3 0.346872 0.095362 0.695490
Si Si4 0.533160 0.270157 0.361826
Si Si5 0.057695 0.364819 0.648899
Si Si6 0.972564 0.222233 0.165688
Si Si7 0.212864 0.036753 0.146091
Si Si8 0.036052 0.481246 0.802699
O O1 0.509380 0.236970 0.572364
O O2 0.583057 0.279439 0.429928
O O3 0.915079 0.377081 0.466521
O O4 0.849242 0.930779 0.696208
O O5 0.223535 0.178844 0.804346
O O6 0.136183 0.386009 0.791090
O O7 0.500000 0.000000 0.000000
O O8 0.000000 0.000000 0.000000
O O9 0.177920 0.307680 0.614875
O O10 0.286551 0.877386 0.774114
O O11 0.518758 0.950290 0.831706
O O12 0.776467 0.327481 0.293626
O O13 0.264296 0.435990 0.248169
O O14 0.500000 0.000000 0.500000
O O15 0.811445 0.234028 0.722421
O O16 0.041155 0.093259 0.173372
O O17 0.000000 0.500000 0.000000
O O18 0.117015 0.249458 0.978007
#
# Coordination Sequence:
#
# PCOD9045804 Si02
#       8
#     2   2   2   2   2   2   2   2
#     4  11  26  45  70 105 145 192 247 308 376 454
#     4  12  24  41  70 109 152 199 243 300 370 454
#     4  10  24  43  71 104 142 191 244 301 379 439
#     4  12  30  49  75 109 148 205 256 318 377 443
#     4  11  23  41  68 104 151 183 243 296 380 448
#     4  10  25  45  70  99 136 188 247 309 364 430
#     4  10  24  41  70 106 139 192 240 302 364 449
#     4  12  26  47  74 107 152 197 254 305 383 444
#
# _framework density 24.674288000000001
#
# number of rings (size 3 to 8) (size 9 to 14) (size 15 to 20)
#    0.000    1.000    2.500    2.250    7.000    8.500 
#    0.000    0.000    0.000    0.000    0.000    0.000 
#    0.000    0.000    0.000    0.000    0.000    0.000 
#
# Total GULP energy -89246.722663 kJ/mol
# GULP energy per Si atom -5577.920166 kJ/mol
# Density = 2.461813 g / cm^3
# Si number density = 24.674288 Si / 1000 Ang^3
#
#
#
# Elastic Constant Matrix: (Units=GPa)
#
#
# Indices 1 2 3 4 5 6 
#
# 1 89.0184 -3.7985 31.4393 -1.9972 13.4630 28.9732
# 2 -3.7985 51.4873 11.7349 2.7176 -2.6361 12.1043
# 3 31.4393 11.7349 140.9794 -18.6651 -7.7987 20.1087
# 4 -1.9972 2.7176 -18.6651 46.4048 5.5902 -11.6337
# 5 13.4630 -2.6361 -7.7987 5.5902 40.4616 -0.7273
# 6 28.9732 12.1043 20.1087 -11.6337 -0.7273 26.0159
#
#
#
# Elastic Compliance Matrix: (Units=1/GPa)
#
#
# Indices 1 2 3 4 5 6 
#
# 1 0.024923 0.010674 -0.003095 -0.008486 -0.007639 -0.034338
# 2 0.010674 0.027374 -0.002031 -0.008530 -0.001465 -0.026908
# 3 -0.003095 -0.002031 0.008585 0.002968 0.002127 -0.000858
# 4 -0.008486 -0.008530 0.002968 0.029001 -0.000734 0.024073
# 5 -0.007639 -0.001465 0.002127 -0.000734 0.027816 0.007994
# 6 -0.034338 -0.026908 -0.000858 0.024073 0.007994 0.100851
#
#
# Mechanical properties :
#
#
# Convention : Reuss Voigt Hill
#
# Bulk Modulus (GPa) = 13.89314 40.02627 26.95970
# Shear Modulus (GPa) = 21.60320 38.71710 30.16015
#
# Velocity S-wave (km/s) = 2.96215 3.96552 3.49998
# Velocity P-wave (km/s) = 4.16437 6.10116 5.22332
#
# Compressibility (1/GPa) = 0.07197796
#
# Stress axis : x y z
#
# Youngs Moduli (GPa) = 40.12328 36.53129 116.47736
#
# Poissons Ratio (x) = -0.38992 0.36045
# Poissons Ratio (y) = -0.42826 0.23658
# Poissons Ratio (z) = 0.12417 0.07420
#
# Static dielectric constant tensor:
#      x y z
#    x 2.251230 -0.028500 -0.049550 
#    y -0.028500 1.909410 0.019170 
#    z -0.049550 0.019170 2.060740 
# 
# From -- ./inp_files/604706.got.cif
#   From: 2010.05.17/outbox.cif.g08.bks.cpg/sg2_303_cif.got.tgz:604706.got - 2010.06.03 11:33:40.
