data_PCOD9045898
_publ_section_title
;
Structure prediction by ZEFSAII (Michael W. Deem and Ramdas Pophale) SiO2 
 PCOD9045898
Probable space group: P -1
;
_chemical_formula_sum "Si O2"
_cell_formula_units_Z 16
_cell_length_a 24.172889
_cell_length_b 8.804396
_cell_length_c 8.690165
_cell_angle_alpha 47.318824
_cell_angle_beta 139.605755
_cell_angle_gamma 139.688669
_cell_volume 754.285983
_symmetry_space_group_name_H-M "P -1"
_symmetry_group_IT_number 2
_symmetry_cell_setting 'triclinic'
loop_
_space_group_symop_operation_xyz
x,y,z
-x,-y,-z
loop_
_atom_site_type_symbol
_atom_site_label
_atom_site_fract_x
_atom_site_fract_y
_atom_site_fract_z
Si Si1 0.565933 0.925286 0.094932
Si Si2 0.767132 0.238839 0.463376
Si Si3 0.022259 0.104231 0.215941
Si Si4 0.722749 0.039991 0.836515
Si Si5 0.044714 0.724945 0.323868
Si Si6 0.395851 0.816094 0.320804
Si Si7 0.494038 0.426705 0.360162
Si Si8 0.841017 0.776037 0.283093
O O1 0.501931 0.641325 0.128669
O O2 0.664051 0.014041 0.341410
O O3 0.500000 0.000000 0.000000
O O4 0.599630 0.064303 0.913070
O O5 0.853970 0.247187 0.542384
O O6 0.771565 0.494222 0.284207
O O7 0.775360 0.185212 0.694776
O O8 0.095621 0.219740 0.437418
O O9 0.054561 0.946216 0.292156
O O10 0.915907 0.921055 0.200007
O O11 0.013812 0.280409 0.953557
O O12 0.611061 0.816563 0.718727
O O13 0.699123 0.209967 0.775107
O O14 0.783540 0.915881 0.107723
O O15 0.000000 0.500000 0.500000
O O16 0.411152 0.594824 0.469855
O O17 0.500000 0.000000 0.500000
O O18 0.500000 0.500000 0.500000
#
# Coordination Sequence:
#
# PCOD9045898 Si02
#       8
#     2   2   2   2   2   2   2   2
#     4  12  23  41  70  98 133 178 225 273 333 395
#     4  12  25  41  68 100 134 178 227 272 337 404
#     4  10  24  45  69  96 133 172 225 274 347 399
#     4  11  24  43  62 100 139 170 229 275 330 406
#     4  11  23  46  72 100 131 175 225 286 335 405
#     4  10  24  42  63  94 130 174 224 277 329 387
#     4  11  21  42  70  92 131 183 219 273 328 389
#     4  11  24  43  68  98 133 180 216 280 338 405
#
# _framework density 21.212112999999999
#
# number of rings (size 3 to 8) (size 9 to 14) (size 15 to 20)
#    0.000    1.000    5.000    1.500    1.750    4.500 
#    0.000    0.000    0.000    0.000    0.000    0.000 
#    0.000    0.000    0.000    0.000    0.000    0.000 
#
# Total GULP energy -89341.370999 kJ/mol
# GULP energy per Si atom -5583.835687 kJ/mol
# Density = 2.116383 g / cm^3
# Si number density = 21.212113 Si / 1000 Ang^3
#
#
#
# Elastic Constant Matrix: (Units=GPa)
#
#
# Indices 1 2 3 4 5 6 
#
# 1 152.0853 19.8930 38.4670 -7.4318 21.0086 8.1252
# 2 19.8930 42.5307 12.5873 -16.1333 3.0791 7.9769
# 3 38.4670 12.5873 89.3780 -17.7124 0.0959 7.7477
# 4 -7.4318 -16.1333 -17.7124 28.8510 -5.7797 -1.3910
# 5 21.0086 3.0791 0.0959 -5.7797 46.6043 -4.6237
# 6 8.1252 7.9769 7.7477 -1.3910 -4.6237 28.3981
#
#
#
# Elastic Compliance Matrix: (Units=1/GPa)
#
#
# Indices 1 2 3 4 5 6 
#
# 1 0.008416 -0.003412 -0.003584 -0.002810 -0.004035 -0.001266
# 2 -0.003412 0.032988 0.001047 0.018015 0.000841 -0.007556
# 3 -0.003584 0.001047 0.014568 0.008968 0.002389 -0.002415
# 4 -0.002810 0.018015 0.008968 0.050563 0.006006 -0.003248
# 5 -0.004035 0.000841 0.002389 0.006006 0.024411 0.004535
# 6 -0.001266 -0.007556 -0.002415 -0.003248 0.004535 0.038937
#
#
# Mechanical properties :
#
#
# Convention : Reuss Voigt Hill
#
# Bulk Modulus (GPa) = 22.68963 47.32095 35.00529
# Shear Modulus (GPa) = 25.44897 34.97379 30.21138
#
# Velocity S-wave (km/s) = 3.46748 4.06490 3.77802
# Velocity P-wave (km/s) = 5.17214 6.66244 5.96402
#
# Compressibility (1/GPa) = 0.04407300
#
# Stress axis : x y z
#
# Youngs Moduli (GPa) = 118.82343 30.31372 68.64563
#
# Poissons Ratio (x) = 0.10342 0.24605
# Poissons Ratio (y) = 0.40540 -0.07185
# Poissons Ratio (z) = 0.42590 -0.03173
#
# Static dielectric constant tensor:
#      x y z
#    x 1.931240 0.057430 0.091630 
#    y 0.057430 1.821440 0.016300 
#    z 0.091630 0.016300 1.809640 
# 
# From -- ./inp_files/351998.got.cif
#   From: 2010.05.17/outbox.cif.g08.bks.cpg/sg2_176_cif.got.tgz:351998.got - 2010.06.03 11:33:40.
