data_PCOD9045628
_publ_section_title
;
Structure prediction by ZEFSAII (Michael W. Deem and Ramdas Pophale) SiO2 
 PCOD9045628
Probable space group: P -1
;
_chemical_formula_sum "Si O2"
_cell_formula_units_Z 15
_cell_length_a 22.300483
_cell_length_b 5.775030
_cell_length_c 5.072061
_cell_angle_alpha 86.256119
_cell_angle_beta 98.650731
_cell_angle_gamma 76.477287
_cell_volume 624.437237
_symmetry_space_group_name_H-M "P -1"
_symmetry_group_IT_number 2
_symmetry_cell_setting 'triclinic'
loop_
_space_group_symop_operation_xyz
x,y,z
-x,-y,-z
loop_
_atom_site_type_symbol
_atom_site_label
_atom_site_fract_x
_atom_site_fract_y
_atom_site_fract_z
Si Si1 0.753378 0.631959 0.804758
Si Si2 0.807601 0.339123 0.344833
Si Si3 0.519021 0.688917 0.804493
Si Si4 0.598252 0.288164 0.550558
Si Si5 0.717048 0.055718 0.404834
Si Si6 0.364621 0.145592 0.009787
Si Si7 0.000000 0.500000 0.000000
Si Si8 0.951262 0.255615 0.484562
O O1 0.779098 0.456553 0.593579
O O2 0.681734 0.658611 0.851592
O O3 0.751955 0.899638 0.683248
O O4 0.795126 0.537879 0.093422
O O5 0.767477 0.147527 0.265577
O O6 0.880620 0.227379 0.432768
O O7 0.560227 0.543701 0.605405
O O8 0.452961 0.824167 0.625840
O O9 0.567310 0.807978 0.976326
O O10 0.500000 0.500000 0.000000
O O11 0.659433 0.279361 0.421933
O O12 0.622462 0.112190 0.821009
O O13 0.678989 0.879493 0.261274
O O14 0.036842 0.629500 0.236932
O O15 0.962176 0.412905 0.230205
O O16 0.000000 0.000000 0.500000
#
# Coordination Sequence:
#
# PCOD9045628 Si02
#       8
#     2   2   2   2   2   2   1   2
#     4  11  26  46  71 105 149 193 243 301 364 438
#     4  12  27  46  75 111 148 194 242 296 366 438
#     4  11  24  40  65  94 132 186 241 302 372 442
#     4  10  24  41  64  94 135 184 237 305 368 442
#     4  11  26  45  72 102 146 190 245 305 370 437
#     4  11  24  44  66  98 138 184 241 308 365 436
#     4  10  24  48  78 112 154 202 244 302 364 432
#     4  11  25  49  79 116 157 201 250 307 368 445
#
# _framework density 24.021628
#
# number of rings (size 3 to 8) (size 9 to 14) (size 15 to 20)
#    0.000    1.067    1.333    3.200    7.467    9.600 
#    2.400    0.000    0.000    0.000    0.000    0.000 
#    0.000    0.000    0.000    0.000    0.000    0.000 
#
# Total GULP energy -83629.878249 kJ/mol
# GULP energy per Si atom -5575.325217 kJ/mol
# Density = 2.396695 g / cm^3
# Si number density = 24.021628 Si / 1000 Ang^3
#
#
#
# Elastic Constant Matrix: (Units=GPa)
#
#
# Indices 1 2 3 4 5 6 
#
# 1 164.7502 45.6476 36.3764 -1.6861 25.4658 -5.4544
# 2 45.6476 45.8248 28.3223 13.9428 10.8755 -6.0976
# 3 36.3764 28.3223 145.4074 20.4685 6.6112 -6.4243
# 4 -1.6861 13.9428 20.4685 37.9207 -1.7892 2.8074
# 5 25.4658 10.8755 6.6112 -1.7892 29.5967 -2.8415
# 6 -5.4544 -6.0976 -6.4243 2.8074 -2.8415 34.0212
#
#
#
# Elastic Compliance Matrix: (Units=1/GPa)
#
#
# Indices 1 2 3 4 5 6 
#
# 1 0.009559 -0.009268 -0.001030 0.004257 -0.004432 -0.001045
# 2 -0.009268 0.039283 -0.002828 -0.014038 -0.006133 0.005667
# 3 -0.001030 -0.002828 0.008237 -0.003540 -0.000016 0.001174
# 4 0.004257 -0.014038 -0.003540 0.034185 0.003873 -0.005000
# 5 -0.004432 -0.006133 -0.000016 0.003873 0.040210 0.001226
# 6 -0.001045 0.005667 0.001174 -0.005000 0.001226 0.030978
#
#
# Mechanical properties :
#
#
# Convention : Reuss Voigt Hill
#
# Bulk Modulus (GPa) = 32.43841 64.07499 48.25670
# Shear Modulus (GPa) = 25.12820 36.68347 30.90583
#
# Velocity S-wave (km/s) = 3.23780 3.91205 3.59079
# Velocity P-wave (km/s) = 5.24509 6.86566 6.10935
#
# Compressibility (1/GPa) = 0.03082766
#
# Stress axis : x y z
#
# Youngs Moduli (GPa) = 104.61120 25.45631 121.41027
#
# Poissons Ratio (x) = 0.23593 0.12506
# Poissons Ratio (y) = 0.96953 0.34329
# Poissons Ratio (z) = 0.10776 0.07198
#
# Static dielectric constant tensor:
#      x y z
#    x 1.883780 0.014940 0.007890 
#    y 0.014940 1.995880 0.049630 
#    z 0.007890 0.049630 2.021890 
# 
# From -- ./inp_files/114023.got.cif
#   From: 2010.05.17/outbox.cif.g08.bks.cpg/sg2_58_cif.got.tgz:114023.got - 2010.06.03 11:33:40.
