data_PCOD9045943
_publ_section_title
;
Structure prediction by ZEFSAII (Michael W. Deem and Ramdas Pophale) SiO2 
 PCOD9045943
Probable space group: P -1
;
_chemical_formula_sum "Si O2"
_cell_formula_units_Z 14
_cell_length_a 17.839393
_cell_length_b 5.705125
_cell_length_c 8.921677
_cell_angle_alpha 57.197012
_cell_angle_beta 66.597259
_cell_angle_gamma 62.429193
_cell_volume 663.351098
_symmetry_space_group_name_H-M "P -1"
_symmetry_group_IT_number 2
_symmetry_cell_setting 'triclinic'
loop_
_space_group_symop_operation_xyz
x,y,z
-x,-y,-z
loop_
_atom_site_type_symbol
_atom_site_label
_atom_site_fract_x
_atom_site_fract_y
_atom_site_fract_z
Si Si1 0.457446 0.798336 0.835609
Si Si2 0.718755 0.763092 0.676822
Si Si3 0.892860 0.804887 0.837074
Si Si4 0.904752 0.739678 0.508284
Si Si5 0.435240 0.811564 0.491290
Si Si6 0.943528 0.175397 0.118078
Si Si7 0.293258 0.878626 0.120458
O O1 0.440935 0.787325 0.674850
O O2 0.523492 0.981686 0.711735
O O3 0.500000 0.500000 0.000000
O O4 0.365511 0.941566 0.938375
O O5 0.820649 0.639036 0.600067
O O6 0.686559 0.479099 0.768229
O O7 0.664813 0.040012 0.521978
O O8 0.709768 0.925881 0.792356
O O9 0.898537 0.867874 0.635905
O O10 0.984011 0.795022 0.834923
O O11 0.804443 0.016560 0.900518
O O12 0.887468 0.482228 0.987693
O O13 0.000000 0.500000 0.500000
O O14 0.894399 0.985658 0.306291
O O15 0.500000 0.500000 0.500000
O O16 0.000000 0.000000 0.000000
#
# Coordination Sequence:
#
# PCOD9045943 Si02
#       7
#     2   2   2   2   2   2   2
#     4  11  24  46  73 101 144 187 229 290 360 418
#     4  11  26  46  70 106 140 183 241 287 349 427
#     4  10  24  42  64  98 133 180 234 285 342 422
#     4  11  22  43  69  94 140 185 225 291 352 403
#     4  11  26  44  73 108 142 184 239 291 354 428
#     4  11  22  40  65  96 132 177 236 282 348 408
#     4  11  25  46  73  99 142 186 232 287 352 416
#
# _framework density 21.104959999999998
#
# number of rings (size 3 to 8) (size 9 to 14) (size 15 to 20)
#    0.000    1.143    2.857    2.143    6.000    4.571 
#    2.571    0.000    0.000    0.000    0.000    0.000 
#    0.000    0.000    0.000    0.000    0.000    0.000 
#
# Total GULP energy -77947.490018 kJ/mol
# GULP energy per Si atom -5567.677858 kJ/mol
# Density = 2.105692 g / cm^3
# Si number density = 21.104960 Si / 1000 Ang^3
#
#
#
# Elastic Constant Matrix: (Units=GPa)
#
#
# Indices 1 2 3 4 5 6 
#
# 1 35.5566 11.4055 8.2274 -8.6127 -24.5103 -18.3788
# 2 11.4055 100.2227 33.9420 -17.0256 -13.4784 -26.0858
# 3 8.2274 33.9420 133.9000 -10.2718 -21.3333 -1.0961
# 4 -8.6127 -17.0256 -10.2718 16.7134 -26.7947 -3.3253
# 5 -24.5103 -13.4784 -21.3333 -26.7947 7.6124 6.1827
# 6 -18.3788 -26.0858 -1.0961 -3.3253 6.1827 38.0939
#
#
#
# Elastic Compliance Matrix: (Units=1/GPa)
#
#
# Indices 1 2 3 4 5 6 
#
# 1 0.020776 -0.003570 -0.003804 -0.016271 -0.014137 0.008344
# 2 -0.003570 0.012979 -0.004054 -0.000031 -0.006572 0.008113
# 3 -0.003804 -0.004054 0.008456 -0.002356 -0.000352 -0.004516
# 4 -0.016271 -0.000031 -0.002356 0.008898 -0.025237 -0.003067
# 5 -0.014137 -0.006572 -0.000352 -0.025237 -0.005314 -0.012671
# 6 0.008344 0.008113 -0.004516 -0.003067 -0.012671 0.037491
#
#
# Mechanical properties :
#
#
# Convention : Reuss Voigt Hill
#
# Bulk Modulus (GPa) = 51.66241 41.86991 46.76616
# Shear Modulus (GPa) = 44.40774 26.89088 35.64931
#
# Velocity S-wave (km/s) = 4.59206 3.57340 4.11438
# Velocity P-wave (km/s) = 7.25590 6.07516 6.69162
#
# Compressibility (1/GPa) = 0.01935643
#
# Stress axis : x y z
#
# Youngs Moduli (GPa) = 48.13231 77.04482 118.26134
#
# Poissons Ratio (x) = 0.27503 0.44985
# Poissons Ratio (y) = 0.17182 0.47941
# Poissons Ratio (z) = 0.18309 0.31233
#
# Static dielectric constant tensor:
#      x y z
#    x 3.026920 -1.387460 -0.430480 
#    y -1.387460 3.678530 0.521680 
#    z -0.430480 0.521680 1.895300 
# 
# From -- ./inp_files/51108.got.cif
#   From: 2010.05.17/outbox.cif.g08.bks.cpg/sg2_26_cif.got.tgz:51108.got - 2010.06.03 11:33:40.
