data_PCOD9045743
_publ_section_title
;
Structure prediction by ZEFSAII (Michael W. Deem and Ramdas Pophale) SiO2 
 PCOD9045743
Probable space group: P -1
;
_chemical_formula_sum "Si O2"
_cell_formula_units_Z 15
_cell_length_a 7.971155
_cell_length_b 5.830765
_cell_length_c 14.824698
_cell_angle_alpha 107.219551
_cell_angle_beta 61.154654
_cell_angle_gamma 117.073188
_cell_volume 534.811241
_symmetry_space_group_name_H-M "P -1"
_symmetry_group_IT_number 2
_symmetry_cell_setting 'triclinic'
loop_
_space_group_symop_operation_xyz
x,y,z
-x,-y,-z
loop_
_atom_site_type_symbol
_atom_site_label
_atom_site_fract_x
_atom_site_fract_y
_atom_site_fract_z
Si Si1 0.630289 0.570831 0.340242
Si Si2 0.176835 0.293871 0.882860
Si Si3 0.180843 0.224113 0.078901
Si Si4 0.670465 0.965252 0.681175
Si Si5 0.500000 0.000000 0.500000
Si Si6 0.032444 0.517640 0.278159
Si Si7 0.525864 0.208933 0.093811
Si Si8 0.955684 0.224089 0.435297
O O1 0.670034 0.671189 0.237624
O O2 0.526908 0.257777 0.339622
O O3 0.857670 0.637712 0.329079
O O4 0.496130 0.714900 0.435663
O O5 0.240826 0.599315 0.924576
O O6 0.219436 0.202037 0.960503
O O7 0.962194 0.066529 0.886803
O O8 0.385875 0.347524 0.099598
O O9 0.065290 0.416088 0.159436
O O10 0.589391 0.910134 0.799441
O O11 0.860630 0.871993 0.605160
O O12 0.772285 0.276317 0.697249
O O13 0.722530 0.051573 0.499739
O O14 0.948182 0.267397 0.334588
O O15 0.500000 0.000000 0.000000
O O16 0.000000 0.500000 0.500000
#
# Coordination Sequence:
#
# PCOD9045743 Si02
#       8
#     2   2   2   2   1   2   2   2
#     4  11  25  45  69 105 137 188 233 293 346 414
#     4  10  24  41  68 101 145 178 233 287 343 413
#     4  11  23  42  69 104 140 188 230 285 351 415
#     4  11  24  47  70 105 144 182 232 290 350 414
#     4  12  24  48  76  96 146 176 240 292 346 410
#     4  12  26  45  76 102 140 185 236 280 361 417
#     4  11  23  42  69 102 143 188 231 283 345 416
#     4  12  26  48  73 103 138 187 231 298 348 413
#
# _framework density 28.047279
#
# number of rings (size 3 to 8) (size 9 to 14) (size 15 to 20)
#    0.000    0.800    4.000    2.800    0.000    8.533 
#    0.000    0.000    0.000    0.000    0.000    0.000 
#    0.000    0.000    0.000    0.000    0.000    0.000 
#
# Total GULP energy -83701.278562 kJ/mol
# GULP energy per Si atom -5580.085237 kJ/mol
# Density = 2.798344 g / cm^3
# Si number density = 28.047279 Si / 1000 Ang^3
#
#
#
# Elastic Constant Matrix: (Units=GPa)
#
#
# Indices 1 2 3 4 5 6 
#
# 1 103.3194 20.4415 19.7948 8.7187 -8.5480 27.4054
# 2 20.4415 136.1942 52.8112 7.0999 2.2754 36.7724
# 3 19.7948 52.8112 84.1556 0.5005 5.6859 13.6572
# 4 8.7187 7.0999 0.5005 53.5607 -9.6285 12.3131
# 5 -8.5480 2.2754 5.6859 -9.6285 43.9627 6.5337
# 6 27.4054 36.7724 13.6572 12.3131 6.5337 51.8659
#
#
#
# Elastic Compliance Matrix: (Units=1/GPa)
#
#
# Indices 1 2 3 4 5 6 
#
# 1 0.012109 0.000987 -0.002596 0.000181 0.003708 -0.006925
# 2 0.000987 0.011637 -0.006451 0.000333 0.001590 -0.007353
# 3 -0.002596 -0.006451 0.016404 0.000237 -0.002521 0.001887
# 4 0.000181 0.000333 0.000237 0.020974 0.005482 -0.006064
# 5 0.003708 0.001590 -0.002521 0.005482 0.025951 -0.006993
# 6 -0.006925 -0.007353 0.001887 -0.006064 -0.006993 0.029976
#
#
# Mechanical properties :
#
#
# Convention : Reuss Voigt Hill
#
# Bulk Modulus (GPa) = 41.61183 56.64045 49.12614
# Shear Modulus (GPa) = 35.41534 45.25265 40.33399
#
# Velocity S-wave (km/s) = 3.55731 4.02112 3.79631
# Velocity P-wave (km/s) = 5.63392 6.46512 6.06378
#
# Compressibility (1/GPa) = 0.02403162
#
# Stress axis : x y z
#
# Youngs Moduli (GPa) = 82.58343 85.93152 60.95944
#
# Poissons Ratio (x) = -0.08485 0.15823
# Poissons Ratio (y) = -0.08154 0.39326
# Poissons Ratio (z) = 0.21436 0.55436
#
# Static dielectric constant tensor:
#      x y z
#    x 2.207150 -0.063000 -0.293080 
#    y -0.063000 2.185640 -0.050740 
#    z -0.293080 -0.050740 2.090630 
# 
# From -- ./inp_files/350664.got.cif
#   From: 2010.05.17/outbox.cif.g08.bks.cpg/sg2_176_cif.got.tgz:350664.got - 2010.06.03 11:33:40.
