data_PCOD9045499
_publ_section_title
;
Structure prediction by ZEFSAII (Michael W. Deem and Ramdas Pophale) SiO2 
 PCOD9045499
Probable space group: P -1
;
_chemical_formula_sum "Si O2"
_cell_formula_units_Z 16
_cell_length_a 19.259896
_cell_length_b 15.265883
_cell_length_c 27.846426
_cell_angle_alpha 15.387795
_cell_angle_beta 161.766192
_cell_angle_gamma 155.687258
_cell_volume 678.807075
_symmetry_space_group_name_H-M "P -1"
_symmetry_group_IT_number 2
_symmetry_cell_setting 'triclinic'
loop_
_space_group_symop_operation_xyz
x,y,z
-x,-y,-z
loop_
_atom_site_type_symbol
_atom_site_label
_atom_site_fract_x
_atom_site_fract_y
_atom_site_fract_z
Si Si1 0.323645 0.510614 0.927403
Si Si2 0.478738 0.311086 0.668760
Si Si3 0.184773 0.301338 0.044820
Si Si4 0.185626 0.772534 0.606116
Si Si5 0.071230 0.484442 0.109229
Si Si6 0.728072 0.482814 0.478911
Si Si7 0.308062 0.877956 0.184614
Si Si8 0.404191 0.373616 0.240574
O O1 0.185903 0.492625 0.894423
O O2 0.580265 0.396783 0.168764
O O3 0.262578 0.208961 0.010638
O O4 0.241417 0.807362 0.681061
O O5 0.710695 0.322997 0.842018
O O6 0.311773 0.327893 0.596086
O O7 0.422224 0.632900 0.428485
O O8 0.547705 0.068854 0.797279
O O9 0.364119 0.475368 0.104839
O O10 0.267708 0.912822 0.298527
O O11 0.925072 0.276510 0.901367
O O12 0.961004 0.576388 0.559332
O O13 0.130912 0.117290 0.361885
O O14 0.000000 0.500000 0.000000
O O15 0.852447 0.635245 0.910470
O O16 0.541745 0.551844 0.278032
O O17 0.500000 0.000000 0.500000
#
# Coordination Sequence:
#
# PCOD9045499 Si02
#       8
#     2   2   2   2   2   2   2   2
#     4  11  22  42  66  99 137 174 209 271 329 392
#     4  11  22  37  67  98 126 167 224 265 326 383
#     4  11  20  40  72  95 125 178 222 258 326 388
#     4  11  25  40  68  97 136 173 215 270 334 383
#     4  12  23  45  69  91 128 179 220 272 327 386
#     4  11  21  42  65  96 133 173 217 270 320 386
#     4  11  20  36  68  98 127 166 221 272 308 396
#     4  10  24  40  69  96 126 167 227 271 310 393
#
# _framework density 23.570761999999998
#
# number of rings (size 3 to 8) (size 9 to 14) (size 15 to 20)
#    0.000    1.000    6.250    1.125    1.750    0.500 
#    0.000    4.375    0.000    0.000    0.000    0.000 
#    0.000    0.000    0.000    0.000    0.000    0.000 
#
# Total GULP energy -89157.988658 kJ/mol
# GULP energy per Si atom -5572.374291 kJ/mol
# Density = 2.351711 g / cm^3
# Si number density = 23.570762 Si / 1000 Ang^3
#
#
#
# Elastic Constant Matrix: (Units=GPa)
#
#
# Indices 1 2 3 4 5 6 
#
# 1 97.1993 20.9447 13.7247 1.8692 -12.3087 -26.9015
# 2 20.9447 51.5847 24.4207 35.9000 -6.3611 -14.8655
# 3 13.7247 24.4207 112.4895 17.7328 -12.6120 -9.3622
# 4 1.8692 35.9000 17.7328 42.2653 -0.3074 -7.4754
# 5 -12.3087 -6.3611 -12.6120 -0.3074 30.4131 15.7360
# 6 -26.9015 -14.8655 -9.3622 -7.4754 15.7360 37.3795
#
#
#
# Elastic Compliance Matrix: (Units=1/GPa)
#
#
# Indices 1 2 3 4 5 6 
#
# 1 0.014615 -0.009911 -0.000493 0.009507 -0.000753 0.008672
# 2 -0.009911 0.061185 -0.003424 -0.049248 0.004486 0.004605
# 3 -0.000493 -0.003424 0.010284 -0.001549 0.003898 -0.001092
# 4 0.009507 -0.049248 -0.001549 0.066301 -0.008299 0.003622
# 5 -0.000753 0.004486 0.003898 -0.008299 0.044437 -0.018148
# 6 0.008672 0.004605 -0.001092 0.003622 -0.018148 0.042916
#
#
# Mechanical properties :
#
#
# Convention : Reuss Voigt Hill
#
# Bulk Modulus (GPa) = 17.11521 42.16151 29.63836
# Shear Modulus (GPa) = 17.42954 35.49047 26.46000
#
# Velocity S-wave (km/s) = 2.72224 3.88454 3.35412
# Velocity P-wave (km/s) = 4.14220 6.16811 5.25373
#
# Compressibility (1/GPa) = 0.05842755
#
# Stress axis : x y z
#
# Youngs Moduli (GPa) = 68.42158 16.34392 97.24248
#
# Poissons Ratio (x) = 0.16199 0.04794
# Poissons Ratio (y) = 0.67814 0.33295
# Poissons Ratio (z) = 0.03373 0.05596
#
# Static dielectric constant tensor:
#      x y z
#    x 2.567930 -0.018060 0.046370 
#    y -0.018060 2.024880 -0.064510 
#    z 0.046370 -0.064510 1.897850 
# 
# From -- ./inp_files/620466.got.cif
#   From: 2010.05.17/outbox.cif.g08.bks.cpg/sg2_311_cif.got.tgz:620466.got - 2010.06.03 11:33:40.
