data_PCOD9045679
_publ_section_title
;
Structure prediction by ZEFSAII (Michael W. Deem and Ramdas Pophale) SiO2 
 PCOD9045679
Probable space group: P -1
;
_chemical_formula_sum "Si O2"
_cell_formula_units_Z 12
_cell_length_a 8.148479
_cell_length_b 14.485600
_cell_length_c 8.094475
_cell_angle_alpha 139.634988
_cell_angle_beta 127.618759
_cell_angle_gamma 56.717718
_cell_volume 483.575378
_symmetry_space_group_name_H-M "P -1"
_symmetry_group_IT_number 2
_symmetry_cell_setting 'triclinic'
loop_
_space_group_symop_operation_xyz
x,y,z
-x,-y,-z
loop_
_atom_site_type_symbol
_atom_site_label
_atom_site_fract_x
_atom_site_fract_y
_atom_site_fract_z
Si Si1 0.915097 0.187045 0.992830
Si Si2 0.478702 0.626994 0.419513
Si Si3 0.775477 0.390011 0.446791
Si Si4 0.167624 0.101924 0.513863
Si Si5 0.971361 0.369182 0.970858
Si Si6 0.509267 0.131812 0.497378
O O1 0.667328 0.200599 0.809691
O O2 0.011450 0.282289 0.048917
O O3 0.984526 0.015900 0.776558
O O4 0.916527 0.254623 0.265115
O O5 0.660621 0.491437 0.368567
O O6 0.393896 0.656857 0.595686
O O7 0.533617 0.765523 0.546487
O O8 0.277752 0.585093 0.142882
O O9 0.907341 0.496833 0.766250
O O10 0.051869 0.249010 0.719016
O O11 0.308025 0.114535 0.456310
O O12 0.340074 0.022533 0.645700
#
# Coordination Sequence:
#
# PCOD9045679 Si02
#       6
#     2   2   2   2   2   2
#     4   9  20  40  66  88 131 166 202 263 315 360
#     4  10  24  41  66  94 127 172 205 259 320 370
#     4  11  24  42  62  96 133 157 217 265 298 377
#     4   9  19  40  69  92 125 166 210 261 311 379
#     4  11  22  42  69  92 126 170 209 256 321 370
#     4   8  19  38  68  92 121 175 205 247 330 372
#
# _framework density 24.815156999999999
#
# number of rings (size 3 to 8) (size 9 to 14) (size 15 to 20)
#    1.000    1.333    0.000    1.500    4.667    2.667 
#    6.000    4.167    0.000    0.000    0.000    0.000 
#    0.000    0.000    0.000    0.000    0.000    0.000 
#
# Total GULP energy -67082.743060 kJ/mol
# GULP energy per Si atom -5590.228588 kJ/mol
# Density = 2.475868 g / cm^3
# Si number density = 24.815157 Si / 1000 Ang^3
#
#
#
# Elastic Constant Matrix: (Units=GPa)
#
#
# Indices 1 2 3 4 5 6 
#
# 1 53.5047 30.3342 18.5101 14.2063 0.6939 26.3137
# 2 30.3342 148.9933 29.8668 11.9759 13.2140 6.9345
# 3 18.5101 29.8668 107.4042 16.2165 -24.4674 -3.4064
# 4 14.2063 11.9759 16.2165 20.4366 -3.3367 12.7964
# 5 0.6939 13.2140 -24.4674 -3.3367 23.8704 2.3088
# 6 26.3137 6.9345 -3.4064 12.7964 2.3088 59.6612
#
#
#
# Elastic Compliance Matrix: (Units=1/GPa)
#
#
# Indices 1 2 3 4 5 6 
#
# 1 0.030022 -0.003884 -0.003651 -0.009318 -0.002714 -0.010895
# 2 -0.003884 0.009124 -0.003569 -0.002062 -0.009004 0.001239
# 3 -0.003651 -0.003569 0.016156 -0.007877 0.017156 0.003973
# 4 -0.009318 -0.002062 -0.007877 0.070738 0.004333 -0.011440
# 5 -0.002714 -0.009004 0.017156 0.004333 0.065169 -0.000228
# 6 -0.010895 0.001239 0.003973 -0.011440 -0.000228 0.024112
#
#
# Mechanical properties :
#
#
# Convention : Reuss Voigt Hill
#
# Bulk Modulus (GPa) = 30.21524 51.92493 41.07008
# Shear Modulus (GPa) = 20.11589 36.20639 28.16114
#
# Velocity S-wave (km/s) = 2.85024 3.82389 3.37239
# Velocity P-wave (km/s) = 4.79942 6.36131 5.63474
#
# Compressibility (1/GPa) = 0.03309588
#
# Stress axis : x y z
#
# Youngs Moduli (GPa) = 33.30857 109.59704 61.89760
#
# Poissons Ratio (x) = 0.42565 0.22598
# Poissons Ratio (y) = 0.12936 0.22088
# Poissons Ratio (z) = 0.12161 0.39110
#
# Static dielectric constant tensor:
#      x y z
#    x 1.915900 0.005050 -0.010240 
#    y 0.005050 2.046510 -0.018440 
#    z -0.010240 -0.018440 1.956270 
# 
# From -- ./inp_files/148972.got.cif
#   From: 2010.05.17/outbox.cif.g08.bks.cpg/sg2_75_cif.got.tgz:148972.got - 2010.06.03 11:33:40.
