data_PCOD9045257
_publ_section_title
;
Structure prediction by ZEFSAII (Michael W. Deem and Ramdas Pophale) SiO2 
 PCOD9045257
Probable space group: P -1
;
_chemical_formula_sum "Si O2"
_cell_formula_units_Z 14
_cell_length_a 26.695469
_cell_length_b 5.208269
_cell_length_c 5.233810
_cell_angle_alpha 119.303741
_cell_angle_beta 83.037572
_cell_angle_gamma 100.727157
_cell_volume 623.101752
_symmetry_space_group_name_H-M "P -1"
_symmetry_group_IT_number 2
_symmetry_cell_setting 'triclinic'
loop_
_space_group_symop_operation_xyz
x,y,z
-x,-y,-z
loop_
_atom_site_type_symbol
_atom_site_label
_atom_site_fract_x
_atom_site_fract_y
_atom_site_fract_z
Si Si1 0.979800 0.649722 0.835863
Si Si2 0.770979 0.140688 0.812119
Si Si3 0.858764 0.546291 0.817432
Si Si4 0.678649 0.416644 0.824781
Si Si5 0.640688 0.045069 0.168911
Si Si6 0.479794 0.149858 0.835840
Si Si7 0.199274 0.396439 0.627367
O O1 0.000000 0.500000 0.500000
O O2 0.918491 0.597688 0.842467
O O3 0.000000 0.500000 0.000000
O O4 0.000000 0.000000 0.000000
O O5 0.830221 0.212878 0.723319
O O6 0.774286 0.266078 0.158318
O O7 0.736362 0.347903 0.791080
O O8 0.758025 0.801974 0.575879
O O9 0.829675 0.700270 0.134837
O O10 0.841195 0.613822 0.579141
O O11 0.655645 0.256845 0.504984
O O12 0.671305 0.761304 0.007831
O O13 0.651488 0.239304 0.999865
O O14 0.581369 0.910602 0.155502
O O15 0.500000 0.000000 0.500000
O O16 0.500000 0.500000 0.000000
O O17 0.500000 0.000000 0.000000
#
# Coordination Sequence:
#
# PCOD9045257 Si02
#       7
#     2   2   2   2   2   2   2
#     4  12  28  46  73 102 139 178 226 285 353 404
#     4  10  26  41  69  94 133 179 224 271 335 406
#     4  10  26  42  70  95 135 170 231 271 335 406
#     4  12  27  44  71  98 147 178 229 278 353 404
#     4  12  26  46  69 106 141 182 226 289 340 404
#     4  12  25  45  74 102 137 183 236 282 340 404
#     4  10  24  38  68  92 131 165 232 265 334 384
#
# _framework density 22.468240999999999
#
# number of rings (size 3 to 8) (size 9 to 14) (size 15 to 20)
#    0.857    0.000    0.000    6.000   10.000    0.000 
#    0.000    0.000    0.000    0.000    0.000    0.000 
#    0.000    0.000    0.000    0.000    0.000    0.000 
#
# Total GULP energy -78267.364029 kJ/mol
# GULP energy per Si atom -5590.526002 kJ/mol
# Density = 2.241710 g / cm^3
# Si number density = 22.468241 Si / 1000 Ang^3
#
#
#
# Elastic Constant Matrix: (Units=GPa)
#
#
# Indices 1 2 3 4 5 6 
#
# 1 121.8297 22.1530 50.3182 -2.9920 9.1353 8.8852
# 2 22.1530 110.8351 73.8840 -3.5641 -6.9548 -7.9557
# 3 50.3182 73.8840 207.2226 -12.1419 -13.2472 -13.5478
# 4 -2.9920 -3.5641 -12.1419 42.6845 -8.4534 -0.3817
# 5 9.1353 -6.9548 -13.2472 -8.4534 41.0787 -0.9205
# 6 8.8852 -7.9557 -13.5478 -0.3817 -0.9205 41.5598
#
#
#
# Elastic Compliance Matrix: (Units=1/GPa)
#
#
# Indices 1 2 3 4 5 6 
#
# 1 0.009887 -0.000693 -0.002627 -0.000814 -0.003402 -0.003186
# 2 -0.000693 0.011938 -0.003951 0.000019 0.000931 0.001166
# 3 -0.002627 -0.003951 0.007323 0.002138 0.002768 0.002273
# 4 -0.000814 0.000019 0.002138 0.025197 0.006087 0.001241
# 5 -0.003402 0.000931 0.002768 0.006087 0.027458 0.002472
# 6 -0.003186 0.001166 0.002273 0.001241 0.002472 0.025773
#
#
# Mechanical properties :
#
#
# Convention : Reuss Voigt Hill
#
# Bulk Modulus (GPa) = 68.47053 81.39976 74.93514
# Shear Modulus (GPa) = 39.37431 44.63343 42.00387
#
# Velocity S-wave (km/s) = 4.19076 4.46187 4.32844
# Velocity P-wave (km/s) = 7.34555 7.92791 7.64228
#
# Compressibility (1/GPa) = 0.01460482
#
# Stress axis : x y z
#
# Youngs Moduli (GPa) = 101.14623 83.76950 136.55318
#
# Poissons Ratio (x) = 0.05807 0.35873
# Poissons Ratio (y) = 0.07012 0.53953
# Poissons Ratio (z) = 0.26571 0.33098
#
# Static dielectric constant tensor:
#      x y z
#    x 1.830870 0.044870 -0.017100 
#    y 0.044870 1.895090 0.054600 
#    z -0.017100 0.054600 1.866560 
# 
# From -- ./inp_files/121927.got.cif
#   From: 2010.05.17/outbox.cif.g08.bks.cpg/sg2_61_cif.got.tgz:121927.got - 2010.06.03 11:33:40.
