data_PCOD9045131
_publ_section_title
;
Structure prediction by ZEFSAII (Michael W. Deem and Ramdas Pophale) SiO2 
 PCOD9045131
Probable space group: P -1
;
_chemical_formula_sum "Si O2"
_cell_formula_units_Z 16
_cell_length_a 15.245467
_cell_length_b 15.831195
_cell_length_c 5.179886
_cell_angle_alpha 119.279415
_cell_angle_beta 62.238720
_cell_angle_gamma 145.177468
_cell_volume 617.486740
_symmetry_space_group_name_H-M "P -1"
_symmetry_group_IT_number 2
_symmetry_cell_setting 'triclinic'
loop_
_space_group_symop_operation_xyz
x,y,z
-x,-y,-z
loop_
_atom_site_type_symbol
_atom_site_label
_atom_site_fract_x
_atom_site_fract_y
_atom_site_fract_z
Si Si1 0.833563 0.169419 0.784239
Si Si2 0.815314 0.795992 0.180794
Si Si3 0.172825 0.061278 0.133162
Si Si4 0.871691 0.376304 0.698200
Si Si5 0.382813 0.135656 0.601798
Si Si6 0.341531 0.520503 0.144301
Si Si7 0.829711 0.538678 0.208578
Si Si8 0.606822 0.138357 0.366311
O O1 0.863576 0.259203 0.622915
O O2 0.004660 0.293232 0.851804
O O3 0.765167 0.012888 0.583482
O O4 0.713202 0.146538 0.068980
O O5 0.783142 0.840599 0.536078
O O6 0.818261 0.861434 0.014603
O O7 0.690189 0.617282 0.055753
O O8 0.993151 0.894156 0.132676
O O9 0.300233 0.075899 0.908072
O O10 0.716923 0.281102 0.611709
O O11 0.000000 0.500000 0.500000
O O12 0.863379 0.448811 0.045745
O O13 0.494652 0.313616 0.729849
O O14 0.500583 0.137157 0.371791
O O15 0.222664 0.462049 0.445390
O O16 0.294347 0.528137 0.940954
O O17 0.500000 0.000000 0.500000
#
# Coordination Sequence:
#
# PCOD9045131 Si02
#       8
#     2   2   2   2   2   2   2   2
#     4  12  27  45  69 100 148 201 249 293 350 426
#     4  10  23  49  75 103 136 181 231 291 365 434
#     4  10  24  46  76 103 138 180 231 292 361 442
#     4  12  24  45  69  99 139 202 253 298 346 413
#     4  12  27  45  68 110 144 189 235 298 363 432
#     4  12  27  45  75 110 146 182 237 305 360 432
#     4  12  26  45  72 106 144 193 252 294 343 421
#     4  12  26  44  68  98 151 196 239 297 361 418
#
# _framework density 25.911487999999999
#
# number of rings (size 3 to 8) (size 9 to 14) (size 15 to 20)
#    0.000    0.500    3.750    3.750    1.750    6.000 
#    0.000    0.000    0.000    0.000    0.000    0.000 
#    0.000    0.000    0.000    0.000    0.000    0.000 
#
# Total GULP energy -89513.152309 kJ/mol
# GULP energy per Si atom -5594.572019 kJ/mol
# Density = 2.585251 g / cm^3
# Si number density = 25.911488 Si / 1000 Ang^3
#
#
#
# Elastic Constant Matrix: (Units=GPa)
#
#
# Indices 1 2 3 4 5 6 
#
# 1 54.7326 12.6686 10.5340 10.7652 1.6765 -17.4386
# 2 12.6686 161.2104 56.4149 30.9971 -10.8660 15.7300
# 3 10.5340 56.4149 153.1067 -0.4118 -0.0031 -8.5342
# 4 10.7652 30.9971 -0.4118 60.4641 4.8098 -0.8822
# 5 1.6765 -10.8660 -0.0031 4.8098 34.1442 -6.3773
# 6 -17.4386 15.7300 -8.5342 -0.8822 -6.3773 45.9130
#
#
#
# Elastic Compliance Matrix: (Units=1/GPa)
#
#
# Indices 1 2 3 4 5 6 
#
# 1 0.022212 -0.001941 -0.000317 -0.002860 0.000383 0.009041
# 2 -0.001941 0.009044 -0.003443 -0.004601 0.002842 -0.004169
# 3 -0.000317 -0.003443 0.007964 0.001983 -0.000901 0.002453
# 4 -0.002860 -0.004601 0.001983 0.019747 -0.003977 0.000686
# 5 0.000383 0.002842 -0.000901 -0.003977 0.031346 0.003282
# 6 0.009041 -0.004169 0.002453 0.000686 0.003282 0.027568
#
#
# Mechanical properties :
#
#
# Convention : Reuss Voigt Hill
#
# Bulk Modulus (GPa) = 35.94855 58.69829 47.32342
# Shear Modulus (GPa) = 36.08645 47.39974 41.74310
#
# Velocity S-wave (km/s) = 3.73591 4.28167 4.01807
# Velocity P-wave (km/s) = 5.70203 6.86630 6.31107
#
# Compressibility (1/GPa) = 0.02781754
#
# Stress axis : x y z
#
# Youngs Moduli (GPa) = 45.01990 110.57368 125.56443
#
# Poissons Ratio (x) = 0.21463 0.03977
# Poissons Ratio (y) = 0.08739 0.43238
# Poissons Ratio (z) = 0.01426 0.38076
#
# Static dielectric constant tensor:
#      x y z
#    x 2.162070 0.034780 -0.044850 
#    y 0.034780 2.029310 0.016310 
#    z -0.044850 0.016310 2.022350 
# 
# From -- ./inp_files/111700.got.cif
#   From: 2010.05.17/outbox.cif.g08.bks.cpg/sg2_56_cif.got.tgz:111700.got - 2010.06.03 11:33:40.
