data_PCOD9045380
_publ_section_title
;
Structure prediction by ZEFSAII (Michael W. Deem and Ramdas Pophale) SiO2 
 PCOD9045380
Probable space group: P -1
;
_chemical_formula_sum "Si O2"
_cell_formula_units_Z 16
_cell_length_a 11.898365
_cell_length_b 17.114176
_cell_length_c 9.493885
_cell_angle_alpha 135.235704
_cell_angle_beta 37.360441
_cell_angle_gamma 133.203057
_cell_volume 792.738602
_symmetry_space_group_name_H-M "P -1"
_symmetry_group_IT_number 2
_symmetry_cell_setting 'triclinic'
loop_
_space_group_symop_operation_xyz
x,y,z
-x,-y,-z
loop_
_atom_site_type_symbol
_atom_site_label
_atom_site_fract_x
_atom_site_fract_y
_atom_site_fract_z
Si Si1 0.806284 0.975145 0.755121
Si Si2 0.807990 0.647696 0.651568
Si Si3 0.211772 0.248610 0.888348
Si Si4 0.836090 0.237945 0.715798
Si Si5 0.077097 0.993661 0.759655
Si Si6 0.852282 0.223921 0.004498
Si Si7 0.573397 0.383678 0.523241
Si Si8 0.569684 0.732062 0.757095
O O1 0.664973 0.848009 0.718940
O O2 0.000000 0.000000 0.500000
O O3 0.886836 0.976620 0.833313
O O4 0.733760 0.087775 0.950752
O O5 0.686900 0.514936 0.609958
O O6 0.705596 0.708623 0.714455
O O7 0.022769 0.667042 0.401187
O O8 0.818991 0.706416 0.868166
O O9 0.219995 0.116644 0.729422
O O10 0.401327 0.331519 0.735939
O O11 0.031032 0.242277 0.956533
O O12 0.838578 0.113437 0.492676
O O13 0.917133 0.248246 0.808515
O O14 0.623629 0.251831 0.959474
O O15 0.000000 0.000000 0.000000
O O16 0.721206 0.305498 0.279105
O O17 0.487727 0.368933 0.430967
#
# Coordination Sequence:
#
# PCOD9045380 Si02
#       8
#     2   2   2   2   2   2   2   2
#     4  11  19  38  65  90 134 158 200 264 312 374
#     4  12  24  46  61  90 133 167 212 258 310 368
#     4  11  24  41  66  91 128 168 207 261 315 369
#     4  11  23  40  65  94 129 163 209 260 312 376
#     4  11  20  39  63  93 128 165 200 255 326 370
#     4  10  24  40  63  99 121 164 210 256 317 369
#     4  11  26  41  66  92 125 171 214 256 304 378
#     4  11  24  40  67  98 120 170 211 259 314 368
#
# _framework density 20.183198000000001
#
# number of rings (size 3 to 8) (size 9 to 14) (size 15 to 20)
#    0.000    1.000    3.750    3.000    1.750    5.500 
#    0.000    1.250    0.000    0.000    0.000    0.000 
#    0.000    0.000    0.000    0.000    0.000    0.000 
#
# Total GULP energy -89422.659001 kJ/mol
# GULP energy per Si atom -5588.916188 kJ/mol
# Density = 2.013726 g / cm^3
# Si number density = 20.183198 Si / 1000 Ang^3
#
#
#
# Elastic Constant Matrix: (Units=GPa)
#
#
# Indices 1 2 3 4 5 6 
#
# 1 56.5307 5.2116 29.8281 -7.2687 10.4626 -1.1834
# 2 5.2116 129.7272 17.3687 -3.7002 -12.2595 6.2009
# 3 29.8281 17.3687 64.5501 -18.6530 10.0187 6.0396
# 4 -7.2687 -3.7002 -18.6530 38.3764 3.1055 3.3752
# 5 10.4626 -12.2595 10.0187 3.1055 25.2754 4.6256
# 6 -1.1834 6.2009 6.0396 3.3752 4.6256 22.0602
#
#
#
# Elastic Compliance Matrix: (Units=1/GPa)
#
#
# Indices 1 2 3 4 5 6 
#
# 1 0.024937 -0.000523 -0.011011 -0.000630 -0.007254 0.006117
# 2 -0.000523 0.008869 -0.003184 -0.001063 0.006430 -0.002835
# 3 -0.011011 -0.003184 0.026738 0.011863 -0.007723 -0.007212
# 4 -0.000630 -0.001063 0.011863 0.032794 -0.007822 -0.006360
# 5 -0.007254 0.006430 -0.007723 -0.007822 0.051479 -0.009680
# 6 0.006117 -0.002835 -0.007212 -0.006360 -0.009680 0.051433
#
#
# Mechanical properties :
#
#
# Convention : Reuss Voigt Hill
#
# Bulk Modulus (GPa) = 32.14752 39.51384 35.83068
# Shear Modulus (GPa) = 21.18137 30.36903 25.77520
#
# Velocity S-wave (km/s) = 3.24304 3.88321 3.57748
# Velocity P-wave (km/s) = 5.47591 6.30285 5.90387
#
# Compressibility (1/GPa) = 0.03110660
#
# Stress axis : x y z
#
# Youngs Moduli (GPa) = 40.10070 112.75639 37.39985
#
# Poissons Ratio (x) = 0.05903 0.41181
# Poissons Ratio (y) = 0.02099 0.11909
# Poissons Ratio (z) = 0.44155 0.35905
#
# Static dielectric constant tensor:
#      x y z
#    x 1.738920 0.007070 0.032740 
#    y 0.007070 1.745230 0.010480 
#    z 0.032740 0.010480 1.740350 
# 
# From -- ./inp_files/258137.got.cif
#   From: 2010.05.17/outbox.cif.g08.bks.cpg/sg2_130_cif.got.tgz:258137.got - 2010.06.03 11:33:40.
