data_PCOD9045650
_publ_section_title
;
Structure prediction by ZEFSAII (Michael W. Deem and Ramdas Pophale) SiO2 
 PCOD9045650
Probable space group: P -1
;
_chemical_formula_sum "Si O2"
_cell_formula_units_Z 14
_cell_length_a 7.932713
_cell_length_b 12.115584
_cell_length_c 11.645055
_cell_angle_alpha 50.175940
_cell_angle_beta 71.129752
_cell_angle_gamma 53.546893
_cell_volume 688.423493
_symmetry_space_group_name_H-M "P -1"
_symmetry_group_IT_number 2
_symmetry_cell_setting 'triclinic'
loop_
_space_group_symop_operation_xyz
x,y,z
-x,-y,-z
loop_
_atom_site_type_symbol
_atom_site_label
_atom_site_fract_x
_atom_site_fract_y
_atom_site_fract_z
Si Si1 0.883992 0.778956 0.853145
Si Si2 0.593346 0.031275 0.573747
Si Si3 0.136656 0.962643 0.673839
Si Si4 0.155632 0.652467 0.489492
Si Si5 0.544091 0.614330 0.571322
Si Si6 0.461709 0.382959 0.166670
Si Si7 0.020746 0.507313 0.819417
O O1 0.034541 0.622628 0.838773
O O2 0.985654 0.891339 0.774466
O O3 0.673965 0.897356 0.747279
O O4 0.864186 0.685572 0.030988
O O5 0.799868 0.023972 0.480579
O O6 0.443062 0.218959 0.530915
O O7 0.500000 0.000000 0.500000
O O8 0.360767 0.811024 0.772620
O O9 0.030619 0.152929 0.617482
O O10 0.343686 0.658214 0.508752
O O11 0.253864 0.543975 0.425410
O O12 0.092019 0.551287 0.657145
O O13 0.508481 0.582076 0.731211
O O14 0.225302 0.427065 0.179837
O O15 0.500000 0.500000 0.000000
#
# Coordination Sequence:
#
# PCOD9045650 Si02
#       7
#     2   2   2   2   2   2   2
#     4  11  20  36  62  91 123 165 208 263 312 370
#     4  11  21  38  63  98 122 161 220 267 303 372
#     4  11  21  37  64  87 123 167 214 256 311 378
#     4  11  23  43  64  92 125 174 214 255 318 391
#     4  10  24  41  65  89 130 169 211 264 318 378
#     4  11  23  39  62  97 127 160 212 277 313 363
#     4  11  23  36  62  96 127 162 211 266 322 366
#
# _framework density 20.336321000000002
#
# number of rings (size 3 to 8) (size 9 to 14) (size 15 to 20)
#    0.000    1.143    4.286    3.857    2.000    0.571 
#    0.000    1.429    0.000    0.000    0.000    0.000 
#    0.000    0.000    0.000    0.000    0.000    0.000 
#
# Total GULP energy -78155.975586 kJ/mol
# GULP energy per Si atom -5582.569685 kJ/mol
# Density = 2.029003 g / cm^3
# Si number density = 20.336321 Si / 1000 Ang^3
#
#
#
# Elastic Constant Matrix: (Units=GPa)
#
#
# Indices 1 2 3 4 5 6 
#
# 1 84.8924 32.7363 37.8131 -8.2066 -0.0611 5.6465
# 2 32.7363 146.7892 66.0763 -21.3854 1.9356 -1.7222
# 3 37.8131 66.0763 152.8299 -33.0790 1.0656 -4.3353
# 4 -8.2066 -21.3854 -33.0790 26.1944 -4.9385 1.4265
# 5 -0.0611 1.9356 1.0656 -4.9385 31.7627 -4.5592
# 6 5.6465 -1.7222 -4.3353 1.4265 -4.5592 22.9938
#
#
#
# Elastic Compliance Matrix: (Units=1/GPa)
#
#
# Indices 1 2 3 4 5 6 
#
# 1 0.014038 -0.001978 -0.002891 -0.000729 -0.000470 -0.004189
# 2 -0.001978 0.008931 -0.002636 0.003341 0.000128 0.000476
# 3 -0.002891 -0.002636 0.010781 0.010772 0.001789 0.002232
# 4 -0.000729 0.003341 0.010772 0.055789 0.008197 0.000624
# 5 -0.000470 0.000128 0.001789 0.008197 0.033640 0.006624
# 6 -0.004189 0.000476 0.002232 0.000624 0.006624 0.046250
#
#
# Mechanical properties :
#
#
# Convention : Reuss Voigt Hill
#
# Bulk Modulus (GPa) = 53.36678 73.08475 63.22576
# Shear Modulus (GPa) = 26.22104 32.71589 29.46847
#
# Velocity S-wave (km/s) = 3.59468 4.01526 3.81078
# Velocity P-wave (km/s) = 6.59757 7.58370 7.10776
#
# Compressibility (1/GPa) = 0.01873825
#
# Stress axis : x y z
#
# Youngs Moduli (GPa) = 71.23444 111.97039 92.75925
#
# Poissons Ratio (x) = 0.22152 0.26819
# Poissons Ratio (y) = 0.14093 0.24453
# Poissons Ratio (z) = 0.20595 0.29517
#
# Static dielectric constant tensor:
#      x y z
#    x 1.854340 -0.000160 -0.020510 
#    y -0.000160 1.707190 -0.037950 
#    z -0.020510 -0.037950 1.751130 
# 
# From -- ./inp_files/392047.got.cif
#   From: 2010.05.17/outbox.cif.g08.bks.cpg/sg2_197_cif.got.tgz:392047.got - 2010.06.03 11:33:40.
