data_PCOD9045043
_publ_section_title
;
Structure prediction by ZEFSAII (Michael W. Deem and Ramdas Pophale) SiO2 
 PCOD9045043
Probable space group: P -1
;
_chemical_formula_sum "Si O2"
_cell_formula_units_Z 14
_cell_length_a 9.131171
_cell_length_b 11.740401
_cell_length_c 7.254043
_cell_angle_alpha 96.036651
_cell_angle_beta 131.539107
_cell_angle_gamma 95.244468
_cell_volume 565.125681
_symmetry_space_group_name_H-M "P -1"
_symmetry_group_IT_number 2
_symmetry_cell_setting 'triclinic'
loop_
_space_group_symop_operation_xyz
x,y,z
-x,-y,-z
loop_
_atom_site_type_symbol
_atom_site_label
_atom_site_fract_x
_atom_site_fract_y
_atom_site_fract_z
Si Si1 0.800500 0.302196 0.710155
Si Si2 0.371663 0.618754 0.093176
Si Si3 0.215890 0.276519 0.252409
Si Si4 0.098238 0.842428 0.520002
Si Si5 0.318454 0.335365 0.954636
Si Si6 0.957268 0.946026 0.752077
Si Si7 0.059018 0.457469 0.344846
O O1 0.749788 0.220251 0.473748
O O2 0.896735 0.431970 0.734767
O O3 0.615415 0.320643 0.685620
O O4 0.989011 0.261970 0.963133
O O5 0.341380 0.476250 0.033399
O O6 0.147654 0.633654 0.871219
O O7 0.514942 0.671358 0.057605
O O8 0.884716 0.108840 0.248479
O O9 0.231819 0.389163 0.421846
O O10 0.338023 0.288885 0.167524
O O11 0.890112 0.741894 0.314379
O O12 0.784893 0.833798 0.638707
O O13 0.090051 0.954630 0.404388
O O14 0.000000 0.000000 0.000000
O O15 0.000000 0.500000 0.500000
#
# Coordination Sequence:
#
# PCOD9045043 Si02
#       7
#     2   2   2   2   2   2   2
#     4  10  17  34  52  78 108 142 181 223 266 319
#     4  10  19  32  54  78 114 150 171 210 285 324
#     4  10  18  32  55  76 106 142 181 227 268 314
#     4  10  21  34  58  84 107 139 191 227 269 322
#     4  10  18  34  53  80 112 146 176 218 269 337
#     4  11  20  35  58  85 101 142 189 240 267 306
#     4  11  19  31  51  81 109 141 184 226 266 326
#
# _framework density 24.773251999999999
#
# number of rings (size 3 to 8) (size 9 to 14) (size 15 to 20)
#    0.000    1.714    7.143    1.714    0.000    0.000 
#    0.000    2.143    0.000   11.143    0.000    0.000 
#    0.000    0.000    0.000    0.000    0.000    0.000 
#
# Total GULP energy -77982.474410 kJ/mol
# GULP energy per Si atom -5570.176744 kJ/mol
# Density = 2.471687 g / cm^3
# Si number density = 24.773252 Si / 1000 Ang^3
#
#
#
# Elastic Constant Matrix: (Units=GPa)
#
#
# Indices 1 2 3 4 5 6 
#
# 1 171.5384 58.6567 42.4144 1.8393 -74.7915 -6.9379
# 2 58.6567 137.5229 30.4766 -4.8485 -29.0140 3.7281
# 3 42.4144 30.4766 118.2848 17.0391 -51.9216 -9.9668
# 4 1.8393 -4.8485 17.0391 34.7678 -7.7402 -21.5565
# 5 -74.7915 -29.0140 -51.9216 -7.7402 63.8482 6.7912
# 6 -6.9379 3.7281 -9.9668 -21.5565 6.7912 33.2997
#
#
#
# Elastic Compliance Matrix: (Units=1/GPa)
#
#
# Indices 1 2 3 4 5 6 
#
# 1 0.013676 -0.002851 0.003341 0.002523 0.017510 0.002230
# 2 -0.002851 0.008864 -0.001765 0.001499 -0.000453 -0.001052
# 3 0.003341 -0.001765 0.014763 -0.004943 0.014610 -0.000867
# 4 0.002523 0.001499 -0.004943 0.051457 0.002485 0.031682
# 5 0.017510 -0.000453 0.014610 0.002485 0.048165 -0.000143
# 6 0.002230 -0.001052 -0.000867 0.031682 -0.000143 0.050891
#
#
# Mechanical properties :
#
#
# Convention : Reuss Voigt Hill
#
# Bulk Modulus (GPa) = 28.77353 76.71571 52.74462
# Shear Modulus (GPa) = 24.75849 46.10305 35.43077
#
# Velocity S-wave (km/s) = 3.16476 4.31861 3.78590
# Velocity P-wave (km/s) = 4.99943 7.47674 6.35987
#
# Compressibility (1/GPa) = 0.03475417
#
# Stress axis : x y z
#
# Youngs Moduli (GPa) = 73.12092 112.81047 67.73642
#
# Poissons Ratio (x) = 0.32161 -0.22634
# Poissons Ratio (y) = 0.20846 0.11957
# Poissons Ratio (z) = -0.24433 0.19913
#
# Static dielectric constant tensor:
#      x y z
#    x 2.016850 -0.037160 0.110160 
#    y -0.037160 1.929920 -0.048730 
#    z 0.110160 -0.048730 1.866070 
# 
# From -- ./inp_files/170578.got.cif
#   From: 2010.05.17/outbox.cif.g08.bks.cpg/sg2_86_cif.got.tgz:170578.got - 2010.06.03 11:33:40.
