data_PCOD9045384
_publ_section_title
;
Structure prediction by ZEFSAII (Michael W. Deem and Ramdas Pophale) SiO2 
 PCOD9045384
Probable space group: P -1
;
_chemical_formula_sum "Si O2"
_cell_formula_units_Z 16
_cell_length_a 17.639546
_cell_length_b 13.180970
_cell_length_c 8.877768
_cell_angle_alpha 63.296350
_cell_angle_beta 71.521806
_cell_angle_gamma 21.238127
_cell_volume 633.984737
_symmetry_space_group_name_H-M "P -1"
_symmetry_group_IT_number 2
_symmetry_cell_setting 'triclinic'
loop_
_space_group_symop_operation_xyz
x,y,z
-x,-y,-z
loop_
_atom_site_type_symbol
_atom_site_label
_atom_site_fract_x
_atom_site_fract_y
_atom_site_fract_z
Si Si1 0.865063 0.802864 0.070262
Si Si2 0.422290 0.999223 0.718913
Si Si3 0.100749 0.702067 0.088900
Si Si4 0.193069 0.243359 0.426462
Si Si5 0.671706 0.693504 0.196565
Si Si6 0.842168 0.059343 0.613602
Si Si7 0.999438 0.042380 0.721614
Si Si8 0.651453 0.087218 0.704934
O O1 0.898824 0.889513 0.037729
O O2 0.093854 0.443655 0.216659
O O3 0.680302 0.982799 0.164168
O O4 0.809331 0.846390 0.906156
O O5 0.674046 0.662823 0.830091
O O6 0.388795 0.038025 0.534998
O O7 0.300997 0.263035 0.702619
O O8 0.084493 0.756275 0.238508
O O9 0.121948 0.788504 0.920136
O O10 0.259097 0.041732 0.436017
O O11 0.000000 0.500000 0.500000
O O12 0.920812 0.321228 0.245614
O O13 0.545889 0.741410 0.273395
O O14 0.500000 0.000000 0.000000
O O15 0.869571 0.071142 0.419572
O O16 0.649064 0.224219 0.645406
O O17 0.827058 0.188671 0.645346
#
# Coordination Sequence:
#
# PCOD9045384 Si02
#       8
#     2   2   2   2   2   2   2   2
#     4  11  23  41  69 103 139 182 223 273 354 420
#     4  11  25  44  69 109 141 175 223 286 348 415
#     4  11  24  47  73  97 137 182 235 281 348 399
#     4  10  24  40  64 105 143 178 217 276 347 422
#     4  12  26  42  72 108 139 176 224 282 343 420
#     4  11  25  48  68  98 141 177 236 283 339 402
#     4  10  25  47  72  94 132 192 233 290 330 396
#     4  12  25  41  70  99 137 186 220 274 348 409
#
# _framework density 25.237200000000001
#
# number of rings (size 3 to 8) (size 9 to 14) (size 15 to 20)
#    0.000    1.000    2.500    3.375    8.750    1.000 
#    0.000    7.500    0.000    0.000    0.000    0.000 
#    0.000    0.000    0.000    0.000    0.000    0.000 
#
# Total GULP energy -89380.400486 kJ/mol
# GULP energy per Si atom -5586.275030 kJ/mol
# Density = 2.517976 g / cm^3
# Si number density = 25.237200 Si / 1000 Ang^3
#
#
#
# Elastic Constant Matrix: (Units=GPa)
#
#
# Indices 1 2 3 4 5 6 
#
# 1 148.3708 40.2701 27.0419 9.0704 6.0799 -9.1773
# 2 40.2701 70.0671 17.3930 1.0972 8.1123 4.7718
# 3 27.0419 17.3930 120.3490 4.9803 13.7647 6.1958
# 4 9.0704 1.0972 4.9803 35.2763 9.9824 4.3148
# 5 6.0799 8.1123 13.7647 9.9824 45.6343 15.4539
# 6 -9.1773 4.7718 6.1958 4.3148 15.4539 40.4727
#
#
#
# Elastic Compliance Matrix: (Units=1/GPa)
#
#
# Indices 1 2 3 4 5 6 
#
# 1 0.008604 -0.004752 -0.001261 -0.002123 -0.000516 0.003128
# 2 -0.004752 0.017644 -0.001233 0.001617 -0.001633 -0.002518
# 3 -0.001261 -0.001233 0.009052 -0.000249 -0.002045 -0.000719
# 4 -0.002123 0.001617 -0.000249 0.030807 -0.006135 -0.001576
# 5 -0.000516 -0.001633 -0.002045 -0.006135 0.027424 -0.009429
# 6 0.003128 -0.002518 -0.000719 -0.001576 -0.009429 0.029592
#
#
# Mechanical properties :
#
#
# Convention : Reuss Voigt Hill
#
# Bulk Modulus (GPa) = 48.05563 56.46632 52.26097
# Shear Modulus (GPa) = 34.58987 41.21547 37.90267
#
# Velocity S-wave (km/s) = 3.70617 4.04558 3.87958
# Velocity P-wave (km/s) = 6.11532 6.65170 6.38914
#
# Compressibility (1/GPa) = 0.02080922
#
# Stress axis : x y z
#
# Youngs Moduli (GPa) = 116.22824 56.67530 110.47504
#
# Poissons Ratio (x) = 0.26932 0.13927
# Poissons Ratio (y) = 0.55231 0.13619
# Poissons Ratio (z) = 0.14652 0.06987
#
# Static dielectric constant tensor:
#      x y z
#    x 2.011170 0.003810 -0.041700 
#    y 0.003810 2.036370 -0.036630 
#    z -0.041700 -0.036630 2.123150 
# 
# From -- ./inp_files/307035.got.cif
#   From: 2010.05.17/outbox.cif.g08.bks.cpg/sg2_154_cif.got.tgz:307035.got - 2010.06.03 11:33:40.
