data_PCOD9045312
_publ_section_title
;
Structure prediction by ZEFSAII (Michael W. Deem and Ramdas Pophale) SiO2 
 PCOD9045312
Probable space group: P -1
;
_chemical_formula_sum "Si O2"
_cell_formula_units_Z 16
_cell_length_a 9.236911
_cell_length_b 10.859160
_cell_length_c 16.326530
_cell_angle_alpha 32.764487
_cell_angle_beta 52.265086
_cell_angle_gamma 63.090587
_cell_volume 693.497387
_symmetry_space_group_name_H-M "P -1"
_symmetry_group_IT_number 2
_symmetry_cell_setting 'triclinic'
loop_
_space_group_symop_operation_xyz
x,y,z
-x,-y,-z
loop_
_atom_site_type_symbol
_atom_site_label
_atom_site_fract_x
_atom_site_fract_y
_atom_site_fract_z
Si Si1 0.288720 0.051889 0.848507
Si Si2 0.333658 0.743091 0.153638
Si Si3 0.668600 0.073428 0.463560
Si Si4 0.436042 0.722645 0.854118
Si Si5 0.698013 0.523326 0.121685
Si Si6 0.941842 0.700533 0.318512
Si Si7 0.337120 0.748486 0.335074
Si Si8 0.031000 0.025035 0.263957
O O1 0.321978 0.853704 0.884052
O O2 0.117984 0.169309 0.813100
O O3 0.481888 0.224538 0.688277
O O4 0.283578 0.942896 0.000742
O O5 0.504095 0.626240 0.129083
O O6 0.379403 0.823273 0.184748
O O7 0.130646 0.588597 0.309741
O O8 0.690970 0.353596 0.297754
O O9 0.858425 0.026911 0.382396
O O10 0.500000 0.000000 0.500000
O O11 0.602361 0.913239 0.654131
O O12 0.309963 0.629702 0.872258
O O13 0.500000 0.500000 0.000000
O O14 0.868269 0.727010 0.941302
O O15 0.768709 0.504955 0.496997
O O16 0.969658 0.870370 0.291620
O O17 0.190195 0.913545 0.319384
#
# Coordination Sequence:
#
# PCOD9045312 Si02
#       8
#     2   2   2   2   2   2   2   2
#     4  12  24  46  63  98 140 175 224 278 346 399
#     4  11  23  43  69  96 132 179 228 273 342 399
#     4  10  24  39  68 100 130 175 228 274 331 403
#     4  11  23  42  69  99 137 180 213 279 347 400
#     4  11  23  43  72  98 138 177 234 276 333 410
#     4  11  26  40  69 102 135 176 227 286 338 399
#     4  11  25  42  71  97 134 179 229 278 337 409
#     4  11  22  45  69 103 135 179 235 278 333 408
#
# _framework density 23.071465
#
# number of rings (size 3 to 8) (size 9 to 14) (size 15 to 20)
#    0.000    1.000    2.500    4.500   10.500    0.000 
#    0.000    3.750    0.000    0.000    0.000    0.000 
#    0.000    0.000    0.000    0.000    0.000    0.000 
#
# Total GULP energy -89401.018833 kJ/mol
# GULP energy per Si atom -5587.563677 kJ/mol
# Density = 2.301895 g / cm^3
# Si number density = 23.071465 Si / 1000 Ang^3
#
#
#
# Elastic Constant Matrix: (Units=GPa)
#
#
# Indices 1 2 3 4 5 6 
#
# 1 105.6615 31.7037 35.4255 -0.5087 -5.7794 -20.2266
# 2 31.7037 41.6211 10.3542 6.0737 -9.6041 -8.3980
# 3 35.4255 10.3542 147.2472 -15.5728 7.5508 -3.0646
# 4 -0.5087 6.0737 -15.5728 29.6002 3.8384 -10.3181
# 5 -5.7794 -9.6041 7.5508 3.8384 48.9758 -0.4387
# 6 -20.2266 -8.3980 -3.0646 -10.3181 -0.4387 23.3133
#
#
#
# Elastic Compliance Matrix: (Units=1/GPa)
#
#
# Indices 1 2 3 4 5 6 
#
# 1 0.015371 -0.009509 -0.002232 0.005196 -0.000007 0.011917
# 2 -0.009509 0.034443 -0.001387 -0.008725 0.006532 0.000236
# 3 -0.002232 -0.001387 0.008091 0.005075 -0.002173 0.000833
# 4 0.005196 -0.008725 0.005075 0.046944 -0.005356 0.022708
# 5 -0.000007 0.006532 -0.002173 -0.005356 0.022454 0.000113
# 6 0.011917 0.000236 0.000833 0.022708 0.000113 0.063481
#
#
# Mechanical properties :
#
#
# Convention : Reuss Voigt Hill
#
# Bulk Modulus (GPa) = 31.59535 49.94408 40.76971
# Shear Modulus (GPa) = 21.96942 34.84761 28.40851
#
# Velocity S-wave (km/s) = 3.08918 3.89063 3.51283
# Velocity P-wave (km/s) = 5.14279 6.47126 5.84489
#
# Compressibility (1/GPa) = 0.03165022
#
# Stress axis : x y z
#
# Youngs Moduli (GPa) = 65.05563 29.03373 123.59020
#
# Poissons Ratio (x) = 0.27608 0.27579
# Poissons Ratio (y) = 0.61862 0.17142
# Poissons Ratio (z) = 0.14517 0.04027
#
# Static dielectric constant tensor:
#      x y z
#    x 1.830690 -0.032910 0.011760 
#    y -0.032910 1.880290 0.005960 
#    z 0.011760 0.005960 2.045700 
# 
# From -- ./inp_files/559513.got.cif
#   From: 2010.05.17/outbox.cif.g08.bks.cpg/sg2_280_cif.got.tgz:559513.got - 2010.06.03 11:33:40.
