data_PCOD9045304
_publ_section_title
;
Structure prediction by ZEFSAII (Michael W. Deem and Ramdas Pophale) SiO2 
 PCOD9045304
Probable space group: P -1
;
_chemical_formula_sum "Si O2"
_cell_formula_units_Z 15
_cell_length_a 13.304296
_cell_length_b 6.840920
_cell_length_c 11.732141
_cell_angle_alpha 126.454864
_cell_angle_beta 126.422336
_cell_angle_gamma 82.934462
_cell_volume 646.058218
_symmetry_space_group_name_H-M "P -1"
_symmetry_group_IT_number 2
_symmetry_cell_setting 'triclinic'
loop_
_space_group_symop_operation_xyz
x,y,z
-x,-y,-z
loop_
_atom_site_type_symbol
_atom_site_label
_atom_site_fract_x
_atom_site_fract_y
_atom_site_fract_z
Si Si1 0.069140 0.682208 0.006136
Si Si2 0.607855 0.093451 0.437031
Si Si3 0.378125 0.794391 0.780069
Si Si4 0.776451 0.736066 0.425937
Si Si5 0.805441 0.935074 0.150543
Si Si6 0.647488 0.355559 0.793130
Si Si7 0.977653 0.800472 0.776814
Si Si8 0.000000 0.000000 0.500000
O O1 0.219127 0.698692 0.102981
O O2 0.065928 0.967110 0.125610
O O3 0.000000 0.500000 0.000000
O O4 0.981181 0.595211 0.802755
O O5 0.603650 0.198954 0.342684
O O6 0.621763 0.295616 0.619694
O O7 0.728771 0.981715 0.491848
O O8 0.474812 0.845619 0.290074
O O9 0.351943 0.521941 0.731798
O O10 0.253626 0.887240 0.754185
O O11 0.500000 0.000000 0.000000
O O12 0.871013 0.683825 0.567643
O O13 0.861271 0.786568 0.385931
O O14 0.935181 0.926053 0.302015
O O15 0.690632 0.660392 0.954143
O O16 0.872402 0.074342 0.127257
#
# Coordination Sequence:
#
# PCOD9045304 Si02
#       8
#     2   2   2   2   2   2   2   1
#     4  11  22  41  69 100 144 180 223 292 366 417
#     4  11  26  50  69 105 143 191 246 292 363 421
#     4  12  29  46  74 103 143 196 239 296 359 432
#     4  11  24  47  72 102 145 185 239 293 356 425
#     4  11  24  45  71 111 138 186 243 286 371 420
#     4  11  25  45  77  99 143 194 234 302 357 426
#     4  10  24  39  67 107 136 175 234 290 351 432
#     4  10  24  44  74 106 142 192 226 302 356 426
#
# _framework density 23.217722999999999
#
# number of rings (size 3 to 8) (size 9 to 14) (size 15 to 20)
#    0.000    1.067    4.000    0.800    5.600    4.267 
#    0.000    2.000    0.000    0.000    0.000    0.000 
#    0.000    0.000    0.000    0.000    0.000    0.000 
#
# Total GULP energy -83619.097403 kJ/mol
# GULP energy per Si atom -5574.606494 kJ/mol
# Density = 2.316488 g / cm^3
# Si number density = 23.217723 Si / 1000 Ang^3
#
#
#
# Elastic Constant Matrix: (Units=GPa)
#
#
# Indices 1 2 3 4 5 6 
#
# 1 86.4926 37.5401 2.8563 -2.4921 3.4941 12.4187
# 2 37.5401 106.9853 24.6431 -7.7045 -3.5383 21.5326
# 3 2.8563 24.6431 72.9225 6.9262 5.9275 3.5029
# 4 -2.4921 -7.7045 6.9262 38.5216 -0.9395 -4.7555
# 5 3.4941 -3.5383 5.9275 -0.9395 31.8388 0.9785
# 6 12.4187 21.5326 3.5029 -4.7555 0.9785 26.3170
#
#
#
# Elastic Compliance Matrix: (Units=1/GPa)
#
#
# Indices 1 2 3 4 5 6 
#
# 1 0.014101 -0.004822 0.001475 -0.000738 -0.002289 -0.002953
# 2 -0.004822 0.014064 -0.004660 0.002394 0.003285 -0.008301
# 3 0.001475 -0.004660 0.015866 -0.003723 -0.003758 0.000471
# 4 -0.000738 0.002394 -0.003723 0.027572 0.001737 0.003803
# 5 -0.002289 0.003285 -0.003758 0.001737 0.032837 -0.002015
# 6 -0.002953 -0.008301 0.000471 0.003803 -0.002015 0.046883
#
#
# Mechanical properties :
#
#
# Convention : Reuss Voigt Hill
#
# Bulk Modulus (GPa) = 35.69037 44.05329 39.87183
# Shear Modulus (GPa) = 28.30025 32.75953 30.52989
#
# Velocity S-wave (km/s) = 3.49507 3.76036 3.63014
# Velocity P-wave (km/s) = 5.62963 6.15378 5.89753
#
# Compressibility (1/GPa) = 0.02801876
#
# Stress axis : x y z
#
# Youngs Moduli (GPa) = 70.91595 71.10217 63.02604
#
# Poissons Ratio (x) = 0.34287 -0.09298
# Poissons Ratio (y) = 0.34197 0.29368
# Poissons Ratio (z) = -0.10462 0.33131
#
# Static dielectric constant tensor:
#      x y z
#    x 1.952780 0.038860 0.045860 
#    y 0.038860 1.969780 0.027300 
#    z 0.045860 0.027300 1.937120 
# 
# From -- ./inp_files/94474.got.cif
#   From: 2010.05.17/outbox.cif.g08.bks.cpg/sg2_48_cif.got.tgz:94474.got - 2010.06.03 11:33:40.
