data_PCOD9045037
_publ_section_title
;
Structure prediction by ZEFSAII (Michael W. Deem and Ramdas Pophale) SiO2 
 PCOD9045037
Probable space group: P -1
;
_chemical_formula_sum "Si O2"
_cell_formula_units_Z 13
_cell_length_a 7.396181
_cell_length_b 9.598677
_cell_length_c 10.515759
_cell_angle_alpha 67.038728
_cell_angle_beta 59.625592
_cell_angle_gamma 107.540677
_cell_volume 461.657695
_symmetry_space_group_name_H-M "P -1"
_symmetry_group_IT_number 2
_symmetry_cell_setting 'triclinic'
loop_
_space_group_symop_operation_xyz
x,y,z
-x,-y,-z
loop_
_atom_site_type_symbol
_atom_site_label
_atom_site_fract_x
_atom_site_fract_y
_atom_site_fract_z
Si Si1 0.705429 0.841083 0.110322
Si Si2 0.988565 0.542610 0.296921
Si Si3 0.500000 0.500000 0.500000
Si Si4 0.778990 0.670337 0.907814
Si Si5 0.483877 0.916295 0.844263
Si Si6 0.934747 0.757434 0.545456
Si Si7 0.643050 0.341946 0.241659
O O1 0.570994 0.657738 0.313589
O O2 0.559605 0.933499 0.146995
O O3 0.735605 0.783062 0.982096
O O4 0.000000 0.000000 0.000000
O O5 0.765077 0.394271 0.320364
O O6 0.046502 0.418574 0.401936
O O7 0.833005 0.620976 0.370258
O O8 0.270065 0.721115 0.070621
O O9 0.962098 0.789938 0.679669
O O10 0.500000 0.500000 0.000000
O O11 0.824865 0.542637 0.023609
O O12 0.399901 0.831025 0.759968
O O13 0.805850 0.049540 0.678624
O O14 0.650869 0.707733 0.627341
#
# Coordination Sequence:
#
# PCOD9045037 Si02
#       7
#     2   2   1   2   2   2   2
#     4  12  25  45  76 119 158 198 275 338 392 481
#     4  12  25  47  78 112 155 212 260 327 409 474
#     4  12  24  46  74 116 160 206 256 338 406 468
#     4  10  23  48  75 105 161 211 251 325 403 479
#     4  12  25  45  76 117 151 199 274 329 386 480
#     4  11  26  47  78 112 155 210 263 323 407 473
#     4  11  24  48  76 110 159 201 265 328 391 485
#
# _framework density 28.159389999999998
#
# number of rings (size 3 to 8) (size 9 to 14) (size 15 to 20)
#    0.000    0.615    6.154    0.923    2.154    1.846 
#    0.000   10.000    0.000    0.000    0.000    0.000 
#    0.000    0.000    0.000    0.000    0.000    0.000 
#
# Total GULP energy -72676.336813 kJ/mol
# GULP energy per Si atom -5590.487447 kJ/mol
# Density = 2.809530 g / cm^3
# Si number density = 28.159390 Si / 1000 Ang^3
#
#
#
# Elastic Constant Matrix: (Units=GPa)
#
#
# Indices 1 2 3 4 5 6 
#
# 1 186.8305 50.7992 46.5413 -6.7980 -7.7708 0.1827
# 2 50.7992 194.8655 46.9056 21.5833 12.2123 3.8752
# 3 46.5413 46.9056 183.0726 -25.6352 -25.0040 0.3290
# 4 -6.7980 21.5833 -25.6352 44.9398 -0.9651 -7.7931
# 5 -7.7708 12.2123 -25.0040 -0.9651 50.0375 -12.8559
# 6 0.1827 3.8752 0.3290 -7.7931 -12.8559 49.8128
#
#
#
# Elastic Compliance Matrix: (Units=1/GPa)
#
#
# Indices 1 2 3 4 5 6 
#
# 1 0.006090 -0.001640 -0.000777 0.001398 0.001145 0.000625
# 2 -0.001640 0.007193 -0.002808 -0.005832 -0.004175 -0.002525
# 3 -0.000777 -0.002808 0.007992 0.006344 0.005332 0.002537
# 4 0.001398 -0.005832 0.006344 0.030251 0.007192 0.006995
# 5 0.001145 -0.004175 0.005332 0.007192 0.026077 0.008140
# 6 0.000625 -0.002525 0.002537 0.006995 0.008140 0.023448
#
#
# Mechanical properties :
#
#
# Convention : Reuss Voigt Hill
#
# Bulk Modulus (GPa) = 92.38498 94.80676 93.59587
# Shear Modulus (GPa) = 43.43754 56.99286 50.21520
#
# Velocity S-wave (km/s) = 3.93180 4.50370 4.22743
# Velocity P-wave (km/s) = 7.31377 7.79650 7.55899
#
# Compressibility (1/GPa) = 0.01082427
#
# Stress axis : x y z
#
# Youngs Moduli (GPa) = 164.21209 139.02467 125.13220
#
# Poissons Ratio (x) = 0.22794 0.09723
# Poissons Ratio (y) = 0.26923 0.35142
# Poissons Ratio (z) = 0.12759 0.39044
#
# Static dielectric constant tensor:
#      x y z
#    x 2.273650 -0.117770 -0.010880 
#    y -0.117770 2.517260 0.086770 
#    z -0.010880 0.086770 2.120830 
# 
# From -- ./inp_files/378161.got.cif
#   From: 2010.05.17/outbox.cif.g08.bks.cpg/sg2_190_cif.got.tgz:378161.got - 2010.06.03 11:33:40.
