data_PCOD9045228
_publ_section_title
;
Structure prediction by ZEFSAII (Michael W. Deem and Ramdas Pophale) SiO2 
 PCOD9045228
Probable space group: P -1
;
_chemical_formula_sum "Si O2"
_cell_formula_units_Z 14
_cell_length_a 7.774576
_cell_length_b 15.315172
_cell_length_c 16.903655
_cell_angle_alpha 24.932352
_cell_angle_beta 54.726279
_cell_angle_gamma 66.572809
_cell_volume 644.518449
_symmetry_space_group_name_H-M "P -1"
_symmetry_group_IT_number 2
_symmetry_cell_setting 'triclinic'
loop_
_space_group_symop_operation_xyz
x,y,z
-x,-y,-z
loop_
_atom_site_type_symbol
_atom_site_label
_atom_site_fract_x
_atom_site_fract_y
_atom_site_fract_z
Si Si1 0.659475 0.106756 0.479029
Si Si2 0.126774 0.726866 0.326714
Si Si3 0.748859 0.879100 0.131474
Si Si4 0.685212 0.425836 0.442558
Si Si5 0.990572 0.719052 0.631847
Si Si6 0.185561 0.107646 0.617596
Si Si7 0.746947 0.290321 0.137980
O O1 0.831989 0.102752 0.504184
O O2 0.456703 0.189309 0.492185
O O3 0.780152 0.259820 0.246991
O O4 0.515104 0.861843 0.685061
O O5 0.251215 0.661879 0.419330
O O6 0.000000 0.500000 0.500000
O O7 0.952372 0.825952 0.332452
O O8 0.287640 0.914571 0.071301
O O9 0.725156 0.682576 0.236469
O O10 0.573714 0.743889 0.356955
O O11 0.000000 0.000000 0.000000
O O12 0.849649 0.392841 0.361366
O O13 0.873898 0.801042 0.524540
O O14 0.817832 0.534081 0.885226
O O15 0.124080 0.845176 0.833741
#
# Coordination Sequence:
#
# PCOD9045228 Si02
#       7
#     2   2   2   2   2   2   2
#     4   9  21  41  60  90 121 152 200 245 296 358
#     4  11  21  39  60  84 122 156 196 249 291 351
#     4  11  22  38  62  80 116 162 194 251 298 338
#     4  10  24  38  56  92 112 155 209 234 300 361
#     4  11  21  38  62  86 123 155 193 248 298 355
#     4   9  22  39  57  91 118 152 206 237 293 361
#     4   9  20  43  60  88 123 152 198 250 289 361
#
# _framework density 21.721643
#
# number of rings (size 3 to 8) (size 9 to 14) (size 15 to 20)
#    0.857    1.143    1.429    1.714    2.000    1.143 
#    2.571    1.429    0.000    0.000    0.000    0.000 
#    0.000    0.000    0.000    0.000    0.000    0.000 
#
# Total GULP energy -78080.808423 kJ/mol
# GULP energy per Si atom -5577.200602 kJ/mol
# Density = 2.167220 g / cm^3
# Si number density = 21.721643 Si / 1000 Ang^3
#
#
#
# Elastic Constant Matrix: (Units=GPa)
#
#
# Indices 1 2 3 4 5 6 
#
# 1 74.7620 13.8242 24.2699 -3.8281 -6.2602 12.8109
# 2 13.8242 62.7235 3.3802 4.9866 -5.6164 -14.5977
# 3 24.2699 3.3802 105.4880 -8.5835 -8.4074 7.9936
# 4 -3.8281 4.9866 -8.5835 25.9688 -0.4194 4.2468
# 5 -6.2602 -5.6164 -8.4074 -0.4194 28.1309 2.4745
# 6 12.8109 -14.5977 7.9936 4.2468 2.4745 39.0882
#
#
#
# Elastic Compliance Matrix: (Units=1/GPa)
#
#
# Indices 1 2 3 4 5 6 
#
# 1 0.016974 -0.005466 -0.002614 0.003985 0.002639 -0.007670
# 2 -0.005466 0.020177 -0.000543 -0.006474 0.001670 0.010035
# 3 -0.002614 -0.000543 0.010780 0.003674 0.002773 -0.002125
# 4 0.003985 -0.006474 0.003674 0.043108 0.002153 -0.009295
# 5 0.002639 0.001670 0.002773 0.002153 0.037631 -0.003424
# 6 -0.007670 0.010035 -0.002125 -0.009295 -0.003424 0.033506
#
#
# Mechanical properties :
#
#
# Convention : Reuss Voigt Hill
#
# Bulk Modulus (GPa) = 32.59008 36.21356 34.40182
# Shear Modulus (GPa) = 26.36441 32.07086 29.21763
#
# Velocity S-wave (km/s) = 3.48766 3.84663 3.67153
# Velocity P-wave (km/s) = 5.59056 6.03627 5.81769
#
# Compressibility (1/GPa) = 0.03068418
#
# Stress axis : x y z
#
# Youngs Moduli (GPa) = 58.91210 49.56233 92.76692
#
# Poissons Ratio (x) = 0.27089 0.24254
# Poissons Ratio (y) = 0.32200 0.05038
# Poissons Ratio (z) = 0.15402 0.02692
#
# Static dielectric constant tensor:
#      x y z
#    x 1.871490 -0.016700 -0.046060 
#    y -0.016700 1.803110 0.015340 
#    z -0.046060 0.015340 1.780990 
# 
# From -- ./inp_files/503573.got.cif
#   From: 2010.05.17/outbox.cif.g08.bks.cpg/sg2_252_cif.got.tgz:503573.got - 2010.06.03 11:33:40.
