data_PCOD9045732
_publ_section_title
;
Structure prediction by ZEFSAII (Michael W. Deem and Ramdas Pophale) SiO2 
 PCOD9045732
Probable space group: P -1
;
_chemical_formula_sum "Si O2"
_cell_formula_units_Z 14
_cell_length_a 9.911210
_cell_length_b 12.216535
_cell_length_c 16.996852
_cell_angle_alpha 156.438849
_cell_angle_beta 126.586543
_cell_angle_gamma 56.557243
_cell_volume 660.468664
_symmetry_space_group_name_H-M "P -1"
_symmetry_group_IT_number 2
_symmetry_cell_setting 'triclinic'
loop_
_space_group_symop_operation_xyz
x,y,z
-x,-y,-z
loop_
_atom_site_type_symbol
_atom_site_label
_atom_site_fract_x
_atom_site_fract_y
_atom_site_fract_z
Si Si1 0.818710 0.339644 0.556465
Si Si2 0.482833 0.169669 0.387394
Si Si3 0.107914 0.346206 0.370405
Si Si4 0.994895 0.828385 0.215207
Si Si5 0.999727 0.785612 0.013083
Si Si6 0.346940 0.045730 0.534749
Si Si7 0.649336 0.384050 0.028283
O O1 0.617734 0.332991 0.491627
O O2 0.882837 0.490386 0.599902
O O3 0.304871 0.310657 0.440700
O O4 0.882632 0.021973 0.361675
O O5 0.893561 0.530240 0.777098
O O6 0.589305 0.072491 0.437137
O O7 0.418473 0.893281 0.140172
O O8 0.000000 0.500000 0.500000
O O9 0.020064 0.048877 0.137091
O O10 0.945190 0.892853 0.150158
O O11 0.183144 0.905570 0.353333
O O12 0.000000 0.500000 0.000000
O O13 0.192760 0.680789 0.015069
O O14 0.500000 0.000000 0.500000
O O15 0.303776 0.368796 0.736709
O O16 0.500000 0.500000 0.000000
#
# Coordination Sequence:
#
# PCOD9045732 Si02
#       7
#     2   2   2   2   2   2   2
#     4  12  25  44  70  99 139 178 219 284 338 389
#     4  10  24  41  67  98 136 173 223 281 337 390
#     4  11  23  47  73  95 130 180 235 275 328 401
#     4  12  26  39  67 103 139 175 217 274 342 398
#     4  11  23  44  67  98 131 180 228 268 332 406
#     4  11  22  39  64  99 138 177 224 266 331 408
#     4   9  19  37  62  89 131 176 212 265 325 399
#
# _framework density 21.197071000000001
#
# number of rings (size 3 to 8) (size 9 to 14) (size 15 to 20)
#    0.000    1.143    2.857    4.286    6.000    1.143 
#    0.000    0.714    0.000    0.000    0.000    0.000 
#    0.000    0.000    0.000    0.000    0.000    0.000 
#
# Total GULP energy -78122.156355 kJ/mol
# GULP energy per Si atom -5580.154025 kJ/mol
# Density = 2.114883 g / cm^3
# Si number density = 21.197071 Si / 1000 Ang^3
#
#
#
# Elastic Constant Matrix: (Units=GPa)
#
#
# Indices 1 2 3 4 5 6 
#
# 1 98.5516 9.9277 45.9622 -4.7974 -4.7045 -20.1841
# 2 9.9277 45.0957 27.4588 -1.7175 -4.1531 -1.9258
# 3 45.9622 27.4588 167.3142 -13.7754 -0.5759 -13.1140
# 4 -4.7974 -1.7175 -13.7754 31.8419 -0.3691 1.8154
# 5 -4.7045 -4.1531 -0.5759 -0.3691 33.5762 -2.6344
# 6 -20.1841 -1.9258 -13.1140 1.8154 -2.6344 35.0805
#
#
#
# Elastic Compliance Matrix: (Units=1/GPa)
#
#
# Indices 1 2 3 4 5 6 
#
# 1 0.013033 -0.000584 -0.002940 0.000314 0.002218 0.006518
# 2 -0.000584 0.024970 -0.003978 -0.000416 0.002917 -0.000212
# 3 -0.002940 -0.003978 0.007713 0.002626 -0.000681 0.000786
# 4 0.000314 -0.000416 0.002626 0.032600 0.000355 -0.000521
# 5 0.002218 0.002917 -0.000681 0.000355 0.030719 0.003470
# 6 0.006518 -0.000212 0.000786 -0.000521 0.003470 0.032826
#
#
# Mechanical properties :
#
#
# Convention : Reuss Voigt Hill
#
# Bulk Modulus (GPa) = 32.56221 53.07321 42.81771
# Shear Modulus (GPa) = 29.92164 35.27390 32.59777
#
# Velocity S-wave (km/s) = 3.76119 4.08376 3.92579
# Velocity P-wave (km/s) = 5.85296 6.87957 6.38692
#
# Compressibility (1/GPa) = 0.03071045
#
# Stress axis : x y z
#
# Youngs Moduli (GPa) = 76.72765 40.04831 129.65430
#
# Poissons Ratio (x) = 0.02341 0.38118
# Poissons Ratio (y) = 0.04484 0.51580
# Poissons Ratio (z) = 0.22558 0.15932
#
# Static dielectric constant tensor:
#      x y z
#    x 1.722880 0.014600 -0.042110 
#    y 0.014600 1.822940 0.058480 
#    z -0.042110 0.058480 1.785070 
# 
# From -- ./inp_files/590551.got.cif
#   From: 2010.05.17/outbox.cif.g08.bks.cpg/sg2_296_cif.got.tgz:590551.got - 2010.06.03 11:33:40.
