data_PCOD9045835
_publ_section_title
;
Structure prediction by ZEFSAII (Michael W. Deem and Ramdas Pophale) SiO2 
 PCOD9045835
Probable space group: P -1
;
_chemical_formula_sum "Si O2"
_cell_formula_units_Z 16
_cell_length_a 8.103412
_cell_length_b 21.248810
_cell_length_c 9.377535
_cell_angle_alpha 134.635916
_cell_angle_beta 84.450633
_cell_angle_gamma 132.011748
_cell_volume 604.186570
_symmetry_space_group_name_H-M "P -1"
_symmetry_group_IT_number 2
_symmetry_cell_setting 'triclinic'
loop_
_space_group_symop_operation_xyz
x,y,z
-x,-y,-z
loop_
_atom_site_type_symbol
_atom_site_label
_atom_site_fract_x
_atom_site_fract_y
_atom_site_fract_z
Si Si1 0.737113 0.024529 0.851574
Si Si2 0.160349 0.383219 0.382422
Si Si3 0.824317 0.998262 0.099531
Si Si4 0.581187 0.636918 0.258498
Si Si5 0.733525 0.862266 0.144735
Si Si6 0.455539 0.882784 0.374888
Si Si7 0.238446 0.533736 0.846784
Si Si8 0.137535 0.485315 0.282683
O O1 0.901901 0.192151 0.069394
O O2 0.681847 0.989004 0.967007
O O3 0.975734 0.057304 0.821870
O O4 0.444896 0.879477 0.541319
O O5 0.500000 0.500000 0.500000
O O6 0.158235 0.402296 0.581061
O O7 0.129297 0.457262 0.404810
O O8 0.065019 0.164822 0.442531
O O9 0.592665 0.845625 0.987358
O O10 0.000000 0.000000 0.000000
O O11 0.459713 0.600115 0.369299
O O12 0.500000 0.500000 0.000000
O O13 0.372993 0.596965 0.095277
O O14 0.729474 0.942202 0.384261
O O15 0.524788 0.697828 0.984708
O O16 0.500000 0.000000 0.500000
O O17 0.133092 0.699377 0.052737
O O18 0.949895 0.462906 0.705398
#
# Coordination Sequence:
#
# PCOD9045835 Si02
#       8
#     2   2   2   2   2   2   2   2
#     4  11  22  43  68 101 139 180 231 281 343 408
#     4  12  22  42  71 100 136 180 234 285 341 421
#     4  10  25  43  68 103 135 174 232 287 335 406
#     4  12  27  46  73 103 136 184 238 289 347 417
#     4  10  24  41  72  98 132 181 230 280 337 414
#     4  11  24  43  67 100 138 183 226 281 347 408
#     4  11  25  44  70 102 139 185 225 292 350 409
#     4  11  26  45  67 100 142 178 230 288 352 419
#
# _framework density 26.481884000000001
#
# number of rings (size 3 to 8) (size 9 to 14) (size 15 to 20)
#    0.000    1.000    2.500    3.375   12.250    0.000 
#    0.000    0.625    0.000    0.000    0.000    0.000 
#    0.000    0.000    0.000    0.000    0.000    0.000 
#
# Total GULP energy -89474.423849 kJ/mol
# GULP energy per Si atom -5592.151491 kJ/mol
# Density = 2.642161 g / cm^3
# Si number density = 26.481884 Si / 1000 Ang^3
#
#
#
# Elastic Constant Matrix: (Units=GPa)
#
#
# Indices 1 2 3 4 5 6 
#
# 1 88.7113 4.0832 16.7335 1.4871 -7.3224 -18.8543
# 2 4.0832 94.1790 12.9660 -28.9953 9.0361 -16.7552
# 3 16.7335 12.9660 121.0788 -26.1835 -1.5604 -13.3500
# 4 1.4871 -28.9953 -26.1835 43.2456 -14.6831 15.5821
# 5 -7.3224 9.0361 -1.5604 -14.6831 36.5067 -4.4881
# 6 -18.8543 -16.7552 -13.3500 15.5821 -4.4881 37.0343
#
#
#
# Elastic Compliance Matrix: (Units=1/GPa)
#
#
# Indices 1 2 3 4 5 6 
#
# 1 0.013573 -0.000331 -0.001778 -0.003935 0.002133 0.008034
# 2 -0.000331 0.013679 0.000797 0.008880 0.000477 0.002629
# 3 -0.001778 0.000797 0.010143 0.007662 0.002992 0.000250
# 4 -0.003935 0.008880 0.007662 0.042400 0.012981 -0.011491
# 5 0.002133 0.000477 0.002992 0.012981 0.033166 0.000938
# 6 0.008034 0.002629 0.000250 -0.011491 0.000938 0.037320
#
#
# Mechanical properties :
#
#
# Convention : Reuss Voigt Hill
#
# Bulk Modulus (GPa) = 28.76005 41.28161 35.02083
# Shear Modulus (GPa) = 30.39644 41.36975 35.88309
#
# Velocity S-wave (km/s) = 3.39162 3.95674 3.68503
# Velocity P-wave (km/s) = 5.12068 6.04127 5.59992
#
# Compressibility (1/GPa) = 0.03477045
#
# Stress axis : x y z
#
# Youngs Moduli (GPa) = 73.67781 73.10735 98.59388
#
# Poissons Ratio (x) = 0.02418 0.17532
# Poissons Ratio (y) = 0.02436 -0.07860
# Poissons Ratio (z) = 0.13101 -0.05828
#
# Static dielectric constant tensor:
#      x y z
#    x 2.379250 0.053770 0.168310 
#    y 0.053770 2.120970 0.039680 
#    z 0.168310 0.039680 2.144760 
# 
# From -- ./inp_files/226647.got.cif
#   From: 2010.05.17/outbox.cif.g08.bks.cpg/sg2_114_cif.got.tgz:226647.got - 2010.06.03 11:33:40.
