data_PCOD9045367
_publ_section_title
;
Structure prediction by ZEFSAII (Michael W. Deem and Ramdas Pophale) SiO2 
 PCOD9045367
Probable space group: P -1
;
_chemical_formula_sum "Si O2"
_cell_formula_units_Z 16
_cell_length_a 8.742003
_cell_length_b 21.335238
_cell_length_c 17.657103
_cell_angle_alpha 26.693220
_cell_angle_beta 37.355779
_cell_angle_gamma 51.505849
_cell_volume 849.862321
_symmetry_space_group_name_H-M "P -1"
_symmetry_group_IT_number 2
_symmetry_cell_setting 'triclinic'
loop_
_space_group_symop_operation_xyz
x,y,z
-x,-y,-z
loop_
_atom_site_type_symbol
_atom_site_label
_atom_site_fract_x
_atom_site_fract_y
_atom_site_fract_z
Si Si1 0.723253 0.843922 0.642689
Si Si2 0.932597 0.591789 0.821560
Si Si3 0.569280 0.465818 0.238831
Si Si4 0.078459 0.154452 0.137896
Si Si5 0.748912 0.632656 0.288073
Si Si6 0.192335 0.621742 0.026054
Si Si7 0.474202 0.211994 0.053996
Si Si8 0.933354 0.652865 0.358248
O O1 0.937953 0.757681 0.654790
O O2 0.481162 0.727638 0.819343
O O3 0.619079 0.864067 0.746081
O O4 0.849419 0.000061 0.384988
O O5 0.213894 0.574746 0.751530
O O6 0.701668 0.491536 0.076277
O O7 0.847172 0.527962 0.840725
O O8 0.271894 0.352210 0.487637
O O9 0.547246 0.623709 0.102898
O O10 0.944530 0.279587 0.076527
O O11 0.274798 0.141566 0.140470
O O12 0.226760 0.222837 0.927762
O O13 0.500000 0.500000 0.500000
O O14 0.762446 0.653280 0.349489
O O15 0.016311 0.594972 0.200520
O O16 0.775968 0.227453 0.895219
O O17 0.000000 0.500000 0.500000
#
# Coordination Sequence:
#
# PCOD9045367 Si02
#       8
#     2   2   2   2   2   2   2   2
#     4  11  21  34  54  85 113 142 185 229 276 328
#     4  10  19  34  54  81 117 143 182 221 275 334
#     4   9  18  32  54  81 109 145 179 227 276 319
#     4  10  21  34  56  83 111 144 181 230 286 315
#     4  10  19  33  56  83 110 139 180 230 279 320
#     4  10  20  35  54  82 112 143 181 223 280 322
#     4  10  17  34  53  83 108 139 187 231 271 320
#     4  10  18  31  55  84 107 137 184 239 264 313
#
# _framework density 18.826581000000001
#
# number of rings (size 3 to 8) (size 9 to 14) (size 15 to 20)
#    0.750    1.250    2.500    3.375    0.000    0.000 
#    0.000    0.000    0.000    3.750    0.000    0.000 
#    0.000    0.000    0.000    0.000    0.000    0.000 
#
# Total GULP energy -89105.911385 kJ/mol
# GULP energy per Si atom -5569.119462 kJ/mol
# Density = 1.878373 g / cm^3
# Si number density = 18.826581 Si / 1000 Ang^3
#
#
#
# Elastic Constant Matrix: (Units=GPa)
#
#
# Indices 1 2 3 4 5 6 
#
# 1 44.9264 -8.4670 5.5208 2.6518 -1.1351 0.2985
# 2 -8.4670 41.8751 11.8367 17.5330 1.3060 -6.0893
# 3 5.5208 11.8367 81.5183 12.2235 7.6331 -11.7858
# 4 2.6518 17.5330 12.2235 19.5540 -2.1521 -5.1092
# 5 -1.1351 1.3060 7.6331 -2.1521 24.4290 5.7526
# 6 0.2985 -6.0893 -11.7858 -5.1092 5.7526 19.4967
#
#
#
# Elastic Compliance Matrix: (Units=1/GPa)
#
#
# Indices 1 2 3 4 5 6 
#
# 1 0.025138 0.010347 -0.001651 -0.011978 0.000408 -0.001410
# 2 0.010347 0.043640 0.000355 -0.040150 -0.006712 0.005145
# 3 -0.001651 0.000355 0.015747 -0.008246 -0.008068 0.009875
# 4 -0.011978 -0.040150 -0.008246 0.096370 0.011599 0.004491
# 5 0.000408 -0.006712 -0.008068 0.011599 0.049202 -0.018457
# 6 -0.001410 0.005145 0.009875 0.004491 -0.018457 0.065511
#
#
# Mechanical properties :
#
#
# Convention : Reuss Voigt Hill
#
# Bulk Modulus (GPa) = 9.74388 20.67786 15.21087
# Shear Modulus (GPa) = 16.04032 23.32457 19.68244
#
# Velocity S-wave (km/s) = 2.92208 3.52364 3.23687
# Velocity P-wave (km/s) = 4.07082 5.24995 4.69752
#
# Compressibility (1/GPa) = 0.10262852
#
# Stress axis : x y z
#
# Youngs Moduli (GPa) = 39.78005 22.91458 63.50408
#
# Poissons Ratio (x) = -0.23710 0.10483
# Poissons Ratio (y) = -0.41161 -0.02256
# Poissons Ratio (z) = 0.06567 -0.00814
#
# Static dielectric constant tensor:
#      x y z
#    x 1.692590 -0.022340 0.007570 
#    y -0.022340 1.655050 0.040930 
#    z 0.007570 0.040930 1.655960 
# 
# From -- ./inp_files/464612.got.cif
#   From: 2010.05.17/outbox.cif.g08.bks.cpg/sg2_233_cif.got.tgz:464612.got - 2010.06.03 11:33:40.
