data_PCOD9045772
_publ_section_title
;
Structure prediction by ZEFSAII (Michael W. Deem and Ramdas Pophale) SiO2 
 PCOD9045772
Probable space group: P -1
;
_chemical_formula_sum "Si O2"
_cell_formula_units_Z 16
_cell_length_a 5.400916
_cell_length_b 20.156908
_cell_length_c 9.178187
_cell_angle_alpha 129.723303
_cell_angle_beta 61.060870
_cell_angle_gamma 118.135653
_cell_volume 652.705978
_symmetry_space_group_name_H-M "P -1"
_symmetry_group_IT_number 2
_symmetry_cell_setting 'triclinic'
loop_
_space_group_symop_operation_xyz
x,y,z
-x,-y,-z
loop_
_atom_site_type_symbol
_atom_site_label
_atom_site_fract_x
_atom_site_fract_y
_atom_site_fract_z
Si Si1 0.223470 0.417408 0.942276
Si Si2 0.395304 0.233330 0.663614
Si Si3 0.019233 0.934916 0.617809
Si Si4 0.603391 0.893254 0.284166
Si Si5 0.749385 0.503110 0.252625
Si Si6 0.850962 0.580600 0.632338
Si Si7 0.140674 0.765445 0.709071
Si Si8 0.337298 0.131195 0.098554
O O1 0.279683 0.321481 0.808900
O O2 0.133756 0.431074 0.820069
O O3 0.500000 0.500000 0.000000
O O4 0.961285 0.439534 0.137761
O O5 0.404418 0.203722 0.786914
O O6 0.692584 0.249738 0.508307
O O7 0.186574 0.146514 0.524483
O O8 0.342614 0.917201 0.486005
O O9 0.883157 0.932442 0.814759
O O10 0.088518 0.035334 0.678640
O O11 0.566691 0.898204 0.127377
O O12 0.730069 0.566582 0.481243
O O13 0.437719 0.438485 0.216535
O O14 0.000000 0.500000 0.500000
O O15 0.058713 0.676705 0.704650
O O16 0.375280 0.833370 0.836048
O O17 0.855459 0.798827 0.793093
#
# Coordination Sequence:
#
# PCOD9045772 Si02
#       8
#     2   2   2   2   2   2   2   2
#     4  11  24  44  67 103 143 187 239 303 368 439
#     4  11  24  44  73 101 146 195 245 305 371 444
#     4  10  24  47  71 107 148 190 243 306 379 442
#     4  11  24  46  75 106 143 193 245 308 371 449
#     4  10  24  41  68  99 135 188 242 300 366 440
#     4  11  24  43  67  96 138 193 240 305 366 436
#     4  11  26  46  71 104 151 190 252 303 374 443
#     4  11  26  47  73 112 144 196 240 311 369 453
#
# _framework density 24.513335999999999
#
# number of rings (size 3 to 8) (size 9 to 14) (size 15 to 20)
#    0.000    1.250    1.250    3.000    8.750    5.000 
#    0.000    1.875    0.000    0.000    0.000    0.000 
#    0.000    0.000    0.000    0.000    0.000    0.000 
#
# Total GULP energy -89429.601314 kJ/mol
# GULP energy per Si atom -5589.350082 kJ/mol
# Density = 2.445754 g / cm^3
# Si number density = 24.513336 Si / 1000 Ang^3
#
#
#
# Elastic Constant Matrix: (Units=GPa)
#
#
# Indices 1 2 3 4 5 6 
#
# 1 54.0127 8.6079 5.6187 2.6872 -15.9159 4.7333
# 2 8.6079 120.9375 30.3138 -15.8980 -12.0468 -1.0877
# 3 5.6187 30.3138 99.9138 -24.6211 4.6602 0.3847
# 4 2.6872 -15.8980 -24.6211 34.6682 -8.5880 0.0975
# 5 -15.9159 -12.0468 4.6602 -8.5880 42.5411 -1.6717
# 6 4.7333 -1.0877 0.3847 0.0975 -1.6717 38.3975
#
#
#
# Elastic Compliance Matrix: (Units=1/GPa)
#
#
# Indices 1 2 3 4 5 6 
#
# 1 0.021291 -0.000502 -0.001682 -0.001165 0.007683 -0.002285
# 2 -0.000502 0.009710 -0.002135 0.003865 0.003596 0.000505
# 3 -0.001682 -0.002135 0.012760 0.007959 -0.001027 -0.000046
# 4 -0.001165 0.003865 0.007959 0.038222 0.007518 0.000404
# 5 0.007683 0.003596 -0.001027 0.007518 0.029046 0.000411
# 6 -0.002285 0.000505 -0.000046 0.000404 0.000411 0.026357
#
#
# Mechanical properties :
#
#
# Convention : Reuss Voigt Hill
#
# Bulk Modulus (GPa) = 28.47077 40.43831 34.45454
# Shear Modulus (GPa) = 31.69929 38.47625 35.08777
#
# Velocity S-wave (km/s) = 3.59993 3.96612 3.78746
# Velocity P-wave (km/s) = 5.37764 6.12419 5.76302
#
# Compressibility (1/GPa) = 0.03512374
#
# Stress axis : x y z
#
# Youngs Moduli (GPa) = 46.96783 102.98154 78.36715
#
# Poissons Ratio (x) = 0.05174 0.13178
# Poissons Ratio (y) = 0.02360 0.16733
# Poissons Ratio (z) = 0.07898 0.21988
#
# Static dielectric constant tensor:
#      x y z
#    x 2.041870 0.008680 0.105370 
#    y 0.008680 1.971030 -0.026850 
#    z 0.105370 -0.026850 2.105290 
# 
# From -- ./inp_files/138805.got.cif
#   From: 2010.05.17/outbox.cif.g08.bks.cpg/sg2_70_cif.got.tgz:138805.got - 2010.06.03 11:33:40.
