data_PCOD9045734
_publ_section_title
;
Structure prediction by ZEFSAII (Michael W. Deem and Ramdas Pophale) SiO2 
 PCOD9045734
Probable space group: P -1
;
_chemical_formula_sum "Si O2"
_cell_formula_units_Z 16
_cell_length_a 18.164549
_cell_length_b 5.264832
_cell_length_c 8.077143
_cell_angle_alpha 115.607234
_cell_angle_beta 85.034476
_cell_angle_gamma 72.222794
_cell_volume 641.477191
_symmetry_space_group_name_H-M "P -1"
_symmetry_group_IT_number 2
_symmetry_cell_setting 'triclinic'
loop_
_space_group_symop_operation_xyz
x,y,z
-x,-y,-z
loop_
_atom_site_type_symbol
_atom_site_label
_atom_site_fract_x
_atom_site_fract_y
_atom_site_fract_z
Si Si1 0.969172 0.728628 0.916408
Si Si2 0.937860 0.841759 0.448943
Si Si3 0.456929 0.361058 0.335345
Si Si4 0.334895 0.437147 0.654539
Si Si5 0.197651 0.698985 0.539030
Si Si6 0.318157 0.646785 0.230887
Si Si7 0.372882 0.038594 0.861375
Si Si8 0.176556 0.130363 0.224520
O O1 0.016282 0.513013 0.692529
O O2 0.874640 0.840737 0.923474
O O3 0.000000 0.500000 0.000000
O O4 0.000000 0.000000 0.000000
O O5 0.878928 0.930511 0.641003
O O6 0.880215 0.000023 0.350017
O O7 0.000000 0.000000 0.500000
O O8 0.500000 0.500000 0.500000
O O9 0.391903 0.294022 0.443478
O O10 0.407163 0.587225 0.262725
O O11 0.531550 0.084595 0.170596
O O12 0.242848 0.537498 0.648330
O O13 0.355783 0.201641 0.732472
O O14 0.348956 0.745448 0.784466
O O15 0.264724 0.763788 0.438083
O O16 0.177263 0.455089 0.366325
O O17 0.265642 0.878221 0.166146
O O18 0.328282 0.308473 0.074274
#
# Coordination Sequence:
#
# PCOD9045734 Si02
#       8
#     2   2   2   2   2   2   2   2
#     4  12  28  45  70 105 140 170 222 292 348 397
#     4  11  23  46  72  98 131 184 237 275 339 427
#     4   9  20  43  68  98 135 183 234 279 332 409
#     4  10  24  41  67  99 135 180 231 284 337 409
#     4  10  24  42  70  94 134 183 234 278 336 414
#     4  10  24  42  66 100 139 179 225 286 345 404
#     4  11  23  43  66 100 139 177 227 287 346 397
#     4  11  25  45  72  95 137 187 229 279 342 425
#
# _framework density 24.942429000000001
#
# number of rings (size 3 to 8) (size 9 to 14) (size 15 to 20)
#    0.000    1.500    1.250    1.875   12.250    2.000 
#    2.250    3.125    0.000    0.000    0.000    0.000 
#    0.000    0.000    0.000    0.000    0.000    0.000 
#
# Total GULP energy -89488.280872 kJ/mol
# GULP energy per Si atom -5593.017554 kJ/mol
# Density = 2.488566 g / cm^3
# Si number density = 24.942429 Si / 1000 Ang^3
#
#
#
# Elastic Constant Matrix: (Units=GPa)
#
#
# Indices 1 2 3 4 5 6 
#
# 1 80.5457 74.9723 28.2538 -7.9168 16.5947 -34.7102
# 2 74.9723 180.6936 46.4007 -2.9131 15.9497 -39.8906
# 3 28.2538 46.4007 87.6225 10.0787 12.7945 -7.3335
# 4 -7.9168 -2.9131 10.0787 54.1135 -5.7391 9.4847
# 5 16.5947 15.9497 12.7945 -5.7391 42.1024 -5.9965
# 6 -34.7102 -39.8906 -7.3335 9.4847 -5.9965 64.4990
#
#
#
# Elastic Compliance Matrix: (Units=1/GPa)
#
#
# Indices 1 2 3 4 5 6 
#
# 1 0.024825 -0.007379 -0.002984 0.001935 -0.004718 0.007734
# 2 -0.007379 0.009614 -0.002558 -0.000368 0.000244 0.001761
# 3 -0.002984 -0.002558 0.014422 -0.003334 -0.002881 -0.001325
# 4 0.001935 -0.000368 -0.003334 0.020056 0.002803 -0.002254
# 5 -0.004718 0.000244 -0.002881 0.002803 0.026684 -0.000647
# 6 0.007734 0.001761 -0.001325 -0.002254 -0.000647 0.020876
#
#
# Mechanical properties :
#
#
# Convention : Reuss Voigt Hill
#
# Bulk Modulus (GPa) = 43.43922 72.01281 57.72601
# Shear Modulus (GPa) = 33.33507 45.42532 39.38020
#
# Velocity S-wave (km/s) = 3.65976 4.27219 3.97778
# Velocity P-wave (km/s) = 5.94239 7.29861 6.65514
#
# Compressibility (1/GPa) = 0.02302067
#
# Stress axis : x y z
#
# Youngs Moduli (GPa) = 40.28130 104.01482 69.33740
#
# Poissons Ratio (x) = 0.76756 0.20687
# Poissons Ratio (y) = 0.29725 0.17734
# Poissons Ratio (z) = 0.12018 0.26603
#
# Static dielectric constant tensor:
#      x y z
#    x 2.609600 -0.381300 -0.428390 
#    y -0.381300 2.183320 0.181670 
#    z -0.428390 0.181670 2.284370 
# 
# From -- ./inp_files/112339.got.cif
#   From: 2010.05.17/outbox.cif.g08.bks.cpg/sg2_57_cif.got.tgz:112339.got - 2010.06.03 11:33:40.
