data_PCOD9045121
_publ_section_title
;
Structure prediction by ZEFSAII (Michael W. Deem and Ramdas Pophale) SiO2 
 PCOD9045121
Probable space group: P -1
;
_chemical_formula_sum "Si O2"
_cell_formula_units_Z 16
_cell_length_a 18.845447
_cell_length_b 7.520067
_cell_length_c 9.127659
_cell_angle_alpha 129.745365
_cell_angle_beta 61.612095
_cell_angle_gamma 135.140759
_cell_volume 700.977993
_symmetry_space_group_name_H-M "P -1"
_symmetry_group_IT_number 2
_symmetry_cell_setting 'triclinic'
loop_
_space_group_symop_operation_xyz
x,y,z
-x,-y,-z
loop_
_atom_site_type_symbol
_atom_site_label
_atom_site_fract_x
_atom_site_fract_y
_atom_site_fract_z
Si Si1 0.274493 0.892003 0.953572
Si Si2 0.721020 0.259685 0.647413
Si Si3 0.392623 0.932678 0.580636
Si Si4 0.379053 0.318486 0.542069
Si Si5 0.268592 0.309228 0.388441
Si Si6 0.956253 0.663208 0.560093
Si Si7 0.617487 0.271106 0.024141
Si Si8 0.906314 0.711538 0.312544
O O1 0.351409 0.996509 0.794249
O O2 0.324654 0.816469 0.983672
O O3 0.168088 0.598180 0.855243
O O4 0.265218 0.122130 0.162405
O O5 0.627486 0.947838 0.481365
O O6 0.841196 0.489696 0.633556
O O7 0.716142 0.998864 0.607088
O O8 0.662629 0.335317 0.851990
O O9 0.301124 0.613121 0.434490
O O10 0.500000 0.000000 0.500000
O O11 0.500000 0.500000 0.500000
O O12 0.359077 0.476362 0.504836
O O13 0.360595 0.454081 0.772300
O O14 0.165611 0.208519 0.510572
O O15 0.952607 0.662489 0.383841
O O16 0.000000 0.500000 0.500000
O O17 0.016219 0.007274 0.713250
O O18 0.500000 0.000000 0.000000
#
# Coordination Sequence:
#
# PCOD9045121 Si02
#       8
#     2   2   2   2   2   2   2   2
#     4  11  22  42  70  95 134 195 229 277 368 428
#     4  12  24  42  67 106 138 173 237 293 343 427
#     4  11  23  40  65  98 142 174 225 289 343 426
#     4  12  22  39  67  99 139 188 226 279 350 419
#     4  11  21  42  69  92 134 187 230 277 356 427
#     4  11  24  46  77 104 139 189 242 305 366 420
#     4  12  23  40  68 104 141 182 232 285 355 430
#     4  10  23  49  73  97 143 187 236 305 367 418
#
# _framework density 22.825254999999999
#
# number of rings (size 3 to 8) (size 9 to 14) (size 15 to 20)
#    0.000    0.750    7.500    2.250    0.000    1.500 
#    0.000    4.375    0.000    0.000    0.000    0.000 
#    0.000    0.000    0.000    0.000    0.000    0.000 
#
# Total GULP energy -89105.745011 kJ/mol
# GULP energy per Si atom -5569.109063 kJ/mol
# Density = 2.277330 g / cm^3
# Si number density = 22.825255 Si / 1000 Ang^3
#
#
#
# Elastic Constant Matrix: (Units=GPa)
#
#
# Indices 1 2 3 4 5 6 
#
# 1 132.3939 22.2185 44.7503 6.4421 5.8013 26.2919
# 2 22.2185 157.7776 64.4835 3.6417 -18.7784 30.4677
# 3 44.7503 64.4835 176.5670 5.6612 -14.5436 -2.4410
# 4 6.4421 3.6417 5.6612 43.3111 -10.0955 -3.9751
# 5 5.8013 -18.7784 -14.5436 -10.0955 40.0364 3.1929
# 6 26.2919 30.4677 -2.4410 -3.9751 3.1929 18.8095
#
#
#
# Elastic Compliance Matrix: (Units=1/GPa)
#
#
# Indices 1 2 3 4 5 6 
#
# 1 0.017017 0.008827 -0.007862 -0.005823 0.000575 -0.040433
# 2 0.008827 0.018350 -0.008881 -0.004304 0.006625 -0.045249
# 3 -0.007862 -0.008881 0.011151 0.002880 -0.000443 0.027505
# 4 -0.005823 -0.004304 0.002880 0.026984 0.005054 0.020328
# 5 0.000575 0.006625 -0.000443 0.005054 0.030365 -0.015679
# 6 -0.040433 -0.045249 0.027505 0.020328 -0.015679 0.193503
#
#
# Mechanical properties :
#
#
# Convention : Reuss Voigt Hill
#
# Bulk Modulus (GPa) = 32.58637 81.07145 56.82891
# Shear Modulus (GPa) = 15.45934 42.78382 29.12158
#
# Velocity S-wave (km/s) = 2.60530 4.33414 3.57578
# Velocity P-wave (km/s) = 4.83297 7.78728 6.48072
#
# Compressibility (1/GPa) = 0.03068768
#
# Stress axis : x y z
#
# Youngs Moduli (GPa) = 58.76591 54.49536 89.67965
#
# Poissons Ratio (x) = -0.48105 0.70502
# Poissons Ratio (y) = -0.51874 0.79642
# Poissons Ratio (z) = 0.46199 0.48396
#
# Static dielectric constant tensor:
#      x y z
#    x 1.998310 -0.280540 0.034450 
#    y -0.280540 2.464120 -0.092770 
#    z 0.034450 -0.092770 1.852580 
# 
# From -- ./inp_files/343860.got.cif
#   From: 2010.05.17/outbox.cif.g08.bks.cpg/sg2_172_cif.got.tgz:343860.got - 2010.06.03 11:33:40.
