data_PCOD9045811
_publ_section_title
;
Structure prediction by ZEFSAII (Michael W. Deem and Ramdas Pophale) SiO2 
 PCOD9045811
Probable space group: P -1
;
_chemical_formula_sum "Si O2"
_cell_formula_units_Z 12
_cell_length_a 5.098388
_cell_length_b 5.723697
_cell_length_c 23.791947
_cell_angle_alpha 50.944018
_cell_angle_beta 72.487029
_cell_angle_gamma 80.134472
_cell_volume 513.989724
_symmetry_space_group_name_H-M "P -1"
_symmetry_group_IT_number 2
_symmetry_cell_setting 'triclinic'
loop_
_space_group_symop_operation_xyz
x,y,z
-x,-y,-z
loop_
_atom_site_type_symbol
_atom_site_label
_atom_site_fract_x
_atom_site_fract_y
_atom_site_fract_z
Si Si1 0.513917 0.836920 0.277770
Si Si2 0.560381 0.190681 0.363342
Si Si3 0.786082 0.857823 0.991001
Si Si4 0.010405 0.858820 0.457563
Si Si5 0.022676 0.833756 0.750426
Si Si6 0.125577 0.792415 0.874909
O O1 0.412969 0.498322 0.342744
O O2 0.779747 0.871872 0.295549
O O3 0.271658 0.072422 0.266008
O O4 0.639789 0.957901 0.191946
O O5 0.307781 0.969779 0.397795
O O6 0.784346 0.319828 0.283769
O O7 0.753952 0.013687 0.420068
O O8 0.894234 0.913559 0.912531
O O9 0.762663 0.500197 0.057499
O O10 0.500000 0.000000 0.000000
O O11 0.000000 0.000000 0.000000
O O12 0.000000 0.500000 0.500000
O O13 0.000000 0.000000 0.500000
O O14 0.014030 0.697766 0.834286
#
# Coordination Sequence:
#
# PCOD9045811 Si02
#       6
#     2   2   2   2   2   2
#     4  10  24  41  70  99 141 172 237 291 360 409
#     4  12  26  46  75 107 141 190 236 296 359 431
#     4  11  26  41  64  92 140 181 238 281 362 421
#     4  12  30  50  80 108 154 193 240 293 366 442
#     4  10  24  41  70  99 141 172 237 291 360 409
#     4   9  26  40  67  98 135 180 236 296 347 424
#
# _framework density 23.346768999999998
#
# number of rings (size 3 to 8) (size 9 to 14) (size 15 to 20)
#    1.000    0.333    0.000    3.000   14.000    1.333 
#    0.000    0.000    0.000    0.000    0.000    0.000 
#    0.000    0.000    0.000    0.000    0.000    0.000 
#
# Total GULP energy -66908.079792 kJ/mol
# GULP energy per Si atom -5575.673316 kJ/mol
# Density = 2.329363 g / cm^3
# Si number density = 23.346769 Si / 1000 Ang^3
#
#
#
# Elastic Constant Matrix: (Units=GPa)
#
#
# Indices 1 2 3 4 5 6 
#
# 1 111.6427 14.0040 37.1946 -1.6248 -5.4680 -25.1291
# 2 14.0040 74.6708 33.6450 8.0614 -10.3494 -18.2926
# 3 37.1946 33.6450 83.7653 13.2182 -0.6654 -4.9441
# 4 -1.6248 8.0614 13.2182 50.3336 7.1021 -10.7943
# 5 -5.4680 -10.3494 -0.6654 7.1021 28.1072 -1.8365
# 6 -25.1291 -18.2926 -4.9441 -10.7943 -1.8365 41.6777
#
#
#
# Elastic Compliance Matrix: (Units=1/GPa)
#
#
# Indices 1 2 3 4 5 6 
#
# 1 0.013303 0.003161 -0.007116 0.003374 0.003357 0.009586
# 2 0.003161 0.020550 -0.009009 0.000168 0.008598 0.010279
# 3 -0.007116 -0.009009 0.019021 -0.004876 -0.003503 -0.007406
# 4 0.003374 0.000168 -0.004876 0.023502 -0.004852 0.007403
# 5 0.003357 0.008598 -0.003503 -0.004852 0.040927 0.005929
# 6 0.009586 0.010279 -0.007406 0.007403 0.005929 0.035585
#
#
# Mechanical properties :
#
#
# Convention : Reuss Voigt Hill
#
# Bulk Modulus (GPa) = 37.11304 48.86291 42.98797
# Shear Modulus (GPa) = 26.62414 36.37272 31.49843
#
# Velocity S-wave (km/s) = 3.38061 3.95135 3.67707
# Velocity P-wave (km/s) = 5.58292 6.46469 6.03992
#
# Compressibility (1/GPa) = 0.02694471
#
# Stress axis : x y z
#
# Youngs Moduli (GPa) = 75.17300 48.66093 52.57300
#
# Poissons Ratio (x) = -0.15382 0.37413
# Poissons Ratio (y) = -0.23762 0.47365
# Poissons Ratio (z) = 0.53496 0.43840
#
# Static dielectric constant tensor:
#      x y z
#    x 1.816560 0.038890 -0.039500 
#    y 0.038890 2.004100 0.100020 
#    z -0.039500 0.100020 1.913370 
# 
# From -- ./inp_files/602597.got.cif
#   From: 2010.05.17/outbox.cif.g08.bks.cpg/sg2_302_cif.got.tgz:602597.got - 2010.06.03 11:33:40.
