data_PCOD9045071
_publ_section_title
;
Structure prediction by ZEFSAII (Michael W. Deem and Ramdas Pophale) SiO2 
 PCOD9045071
Probable space group: P -1
;
_chemical_formula_sum "Si O2"
_cell_formula_units_Z 10
_cell_length_a 14.490627
_cell_length_b 11.927876
_cell_length_c 4.789112
_cell_angle_alpha 81.484585
_cell_angle_beta 101.113016
_cell_angle_gamma 156.005139
_cell_volume 329.486365
_symmetry_space_group_name_H-M "P -1"
_symmetry_group_IT_number 2
_symmetry_cell_setting 'triclinic'
loop_
_space_group_symop_operation_xyz
x,y,z
-x,-y,-z
loop_
_atom_site_type_symbol
_atom_site_label
_atom_site_fract_x
_atom_site_fract_y
_atom_site_fract_z
Si Si1 0.117059 0.194829 0.250802
Si Si2 0.488836 0.815671 0.945746
Si Si3 0.203102 0.665612 0.233565
Si Si4 0.490330 0.384146 0.260349
Si Si5 0.891469 0.151906 0.425162
O O1 0.021864 0.214372 0.257398
O O2 0.376026 0.462060 0.422161
O O3 0.000000 0.000000 0.500000
O O4 0.000000 0.000000 0.000000
O O5 0.386546 0.588281 0.835738
O O6 0.616545 0.035346 0.710621
O O7 0.687645 0.986755 0.198249
O O8 0.333669 0.723935 0.079937
O O9 0.080979 0.457874 0.482271
O O10 0.000000 0.500000 0.000000
O O11 0.239036 0.060535 0.327272
O O12 0.500000 0.500000 0.000000
#
# Coordination Sequence:
#
# PCOD9045071 Si02
#       5
#     2   2   2   2   2
#     4  12  32  52  82 123 177 234 294 361 439 526
#     4  10  23  48  81 122 171 226 290 361 436 535
#     4   9  21  46  82 120 170 226 289 360 444 521
#     4  12  30  51  84 128 175 230 298 361 440 523
#     4  11  26  48  81 118 174 227 288 360 437 524
#
# _framework density 30.350268
#
# number of rings (size 3 to 8) (size 9 to 14) (size 15 to 20)
#    0.000    1.200    0.000    2.400   11.200    4.800 
#    0.000   14.000    0.000    0.000    0.000    0.000 
#    0.000    0.600    0.000    0.000    0.000    0.000 
#
# Total GULP energy -56027.247229 kJ/mol
# GULP energy per Si atom -5602.724723 kJ/mol
# Density = 3.028119 g / cm^3
# Si number density = 30.350268 Si / 1000 Ang^3
#
#
#
# Elastic Constant Matrix: (Units=GPa)
#
#
# Indices 1 2 3 4 5 6 
#
# 1 251.7899 62.1542 74.4021 13.7571 5.4446 12.5798
# 2 62.1542 201.0764 85.6849 -29.5590 18.5811 -35.8866
# 3 74.4021 85.6849 203.6087 12.7772 7.4245 -24.8906
# 4 13.7571 -29.5590 12.7772 78.1170 -16.4986 13.1548
# 5 5.4446 18.5811 7.4245 -16.4986 53.7697 -7.5652
# 6 12.5798 -35.8866 -24.8906 13.1548 -7.5652 65.1389
#
#
#
# Elastic Compliance Matrix: (Units=1/GPa)
#
#
# Indices 1 2 3 4 5 6 
#
# 1 0.004887 -0.001389 -0.001389 -0.000887 -0.000392 -0.002106
# 2 -0.001389 0.007418 -0.002421 0.002805 -0.000839 0.002766
# 3 -0.001389 -0.002421 0.006826 -0.002192 -0.000365 0.001943
# 4 -0.000887 0.002805 -0.002192 0.015510 0.003930 -0.001797
# 5 -0.000392 -0.000839 -0.000365 0.003930 0.020330 0.001042
# 6 -0.002106 0.002766 0.001943 -0.001797 0.001042 0.018509
#
#
# Mechanical properties :
#
#
# Convention : Reuss Voigt Hill
#
# Bulk Modulus (GPa) = 114.51006 122.32860 118.41933
# Shear Modulus (GPa) = 57.61117 68.35403 62.98260
#
# Velocity S-wave (km/s) = 4.36157 4.75085 4.56037
# Velocity P-wave (km/s) = 7.94832 8.39567 8.17506
#
# Compressibility (1/GPa) = 0.00873286
#
# Stress axis : x y z
#
# Youngs Moduli (GPa) = 204.62737 134.81098 146.49239
#
# Poissons Ratio (x) = 0.18723 0.20345
# Poissons Ratio (y) = 0.28420 0.35472
# Poissons Ratio (z) = 0.28419 0.32644
#
# Static dielectric constant tensor:
#      x y z
#    x 2.991960 -0.096660 0.254480 
#    y -0.096660 2.338660 -0.103450 
#    z 0.254480 -0.103450 2.519210 
# 
# From -- ./inp_files/92358.got.cif
#   From: 2010.05.17/outbox.cif.g08.bks.cpg/sg2_47_cif.got.tgz:92358.got - 2010.06.03 11:33:40.
