data_PCOD9045407
_publ_section_title
;
Structure prediction by ZEFSAII (Michael W. Deem and Ramdas Pophale) SiO2 
 PCOD9045407
Probable space group: P -1
;
_chemical_formula_sum "Si O2"
_cell_formula_units_Z 14
_cell_length_a 7.548597
_cell_length_b 8.996592
_cell_length_c 18.405146
_cell_angle_alpha 35.057079
_cell_angle_beta 59.905707
_cell_angle_gamma 59.107171
_cell_volume 607.686340
_symmetry_space_group_name_H-M "P -1"
_symmetry_group_IT_number 2
_symmetry_cell_setting 'triclinic'
loop_
_space_group_symop_operation_xyz
x,y,z
-x,-y,-z
loop_
_atom_site_type_symbol
_atom_site_label
_atom_site_fract_x
_atom_site_fract_y
_atom_site_fract_z
Si Si1 0.010154 0.323787 0.945842
Si Si2 0.277931 0.119394 0.177516
Si Si3 0.922012 0.808767 0.384265
Si Si4 0.920277 0.259976 0.820227
Si Si5 0.141825 0.164354 0.448530
Si Si6 0.552378 0.668249 0.074605
Si Si7 0.487957 0.914331 0.709280
O O1 0.722480 0.879284 0.345926
O O2 0.855678 0.581887 0.904671
O O3 0.978414 0.319570 0.867495
O O4 0.968099 0.043563 0.095514
O O5 0.393373 0.030629 0.264665
O O6 0.112320 0.938795 0.267676
O O7 0.434707 0.134889 0.073449
O O8 0.053777 0.481980 0.332807
O O9 0.000000 0.500000 0.500000
O O10 0.852034 0.917304 0.436128
O O11 0.672245 0.258351 0.870560
O O12 0.755088 0.658245 0.086797
O O13 0.360427 0.103968 0.384581
O O14 0.000000 0.000000 0.500000
O O15 0.561849 0.376431 0.157551
#
# Coordination Sequence:
#
# PCOD9045407 Si02
#       7
#     2   2   2   2   2   2   2
#     4  11  21  41  66  99 129 170 216 273 333 391
#     4  12  24  44  66  99 133 173 216 272 343 394
#     4  12  28  46  68 100 133 176 230 274 327 396
#     4  10  24  40  65 102 131 164 223 275 324 388
#     4  11  22  48  70  93 137 182 224 265 324 404
#     4  11  23  39  69  97 132 168 215 272 337 390
#     4  11  24  45  72  92 131 179 225 271 332 400
#
# _framework density 23.038198999999999
#
# number of rings (size 3 to 8) (size 9 to 14) (size 15 to 20)
#    0.000    0.857    5.714    1.714    2.000    0.571 
#    2.571    0.000    0.000    0.000    0.000    0.000 
#    0.000    0.000    0.000    0.000    0.000    0.000 
#
# Total GULP energy -78429.720240 kJ/mol
# GULP energy per Si atom -5602.122874 kJ/mol
# Density = 2.298576 g / cm^3
# Si number density = 23.038199 Si / 1000 Ang^3
#
#
#
# Elastic Constant Matrix: (Units=GPa)
#
#
# Indices 1 2 3 4 5 6 
#
# 1 116.7193 18.8059 5.0471 3.5612 0.6228 -1.2613
# 2 18.8059 58.4327 23.2718 -14.4091 -3.3135 -6.6909
# 3 5.0471 23.2718 106.6048 3.0677 -11.1142 -12.7838
# 4 3.5612 -14.4091 3.0677 47.9851 4.4892 15.1134
# 5 0.6228 -3.3135 -11.1142 4.4892 32.6390 -7.4737
# 6 -1.2613 -6.6909 -12.7838 15.1134 -7.4737 26.5000
#
#
#
# Elastic Compliance Matrix: (Units=1/GPa)
#
#
# Indices 1 2 3 4 5 6 
#
# 1 0.009196 -0.003577 0.000558 -0.002153 0.000197 0.001087
# 2 -0.003577 0.022007 -0.005193 0.007897 -0.000987 -0.001901
# 3 0.000558 -0.005193 0.012654 -0.006351 0.007032 0.010425
# 4 -0.002153 0.007897 -0.006351 0.031840 -0.010825 -0.022384
# 5 0.000197 -0.000987 0.007032 -0.010825 0.039076 0.020346
# 6 0.001087 -0.001901 0.010425 -0.022384 0.020346 0.060841
#
#
# Mechanical properties :
#
#
# Convention : Reuss Voigt Hill
#
# Bulk Modulus (GPa) = 36.45267 41.77850 39.11558
# Shear Modulus (GPa) = 24.85322 37.06696 30.96009
#
# Velocity S-wave (km/s) = 3.28805 4.01550 3.66985
# Velocity P-wave (km/s) = 5.50200 6.29864 5.91375
#
# Compressibility (1/GPa) = 0.02743284
#
# Stress axis : x y z
#
# Youngs Moduli (GPa) = 108.74040 45.44039 79.02928
#
# Poissons Ratio (x) = 0.16256 -0.04413
# Poissons Ratio (y) = 0.38901 0.41039
# Poissons Ratio (z) = -0.06072 0.23597
#
# Static dielectric constant tensor:
#      x y z
#    x 1.821290 -0.001450 0.005940 
#    y -0.001450 1.915240 0.039270 
#    z 0.005940 0.039270 1.859710 
# 
# From -- ./inp_files/587129.got.cif
#   From: 2010.05.17/outbox.cif.g08.bks.cpg/sg2_294_cif.got.tgz:587129.got - 2010.06.03 11:33:40.
