data_PCOD9045925
_publ_section_title
;
Structure prediction by ZEFSAII (Michael W. Deem and Ramdas Pophale) SiO2 
 PCOD9045925
Probable space group: P -1
;
_chemical_formula_sum "Si O2"
_cell_formula_units_Z 10
_cell_length_a 10.584769
_cell_length_b 4.840032
_cell_length_c 10.159584
_cell_angle_alpha 77.407213
_cell_angle_beta 126.295036
_cell_angle_gamma 90.685959
_cell_volume 404.845498
_symmetry_space_group_name_H-M "P -1"
_symmetry_group_IT_number 2
_symmetry_cell_setting 'triclinic'
loop_
_space_group_symop_operation_xyz
x,y,z
-x,-y,-z
loop_
_atom_site_type_symbol
_atom_site_label
_atom_site_fract_x
_atom_site_fract_y
_atom_site_fract_z
Si Si1 0.207165 0.739534 0.104371
Si Si2 0.244831 0.899271 0.601974
Si Si3 0.611457 0.764645 0.878167
Si Si4 0.806567 0.671493 0.258665
Si Si5 0.935690 0.648001 0.746605
O O1 0.345714 0.546122 0.127893
O O2 0.169618 0.563780 0.226603
O O3 0.266245 0.041139 0.128684
O O4 0.051202 0.760339 0.914658
O O5 0.432571 0.897121 0.727324
O O6 0.218109 0.572034 0.626460
O O7 0.168930 0.088168 0.416295
O O8 0.170670 0.049146 0.675143
O O9 0.655782 0.737273 0.062349
O O10 0.948830 0.540195 0.265851
#
# Coordination Sequence:
#
# PCOD9045925 Si02
#       5
#     2   2   2   2   2
#     4  10  24  43  64  87 123 164 202 248 303 360
#     4  12  24  39  65  93 123 158 203 253 299 359
#     4  11  23  42  64  90 123 162 201 248 305 360
#     4  11  23  40  62  92 125 160 198 249 306 361
#     4  10  24  42  64  91 122 161 206 250 299 358
#
# _framework density 24.700780999999999
#
# number of rings (size 3 to 8) (size 9 to 14) (size 15 to 20)
#    0.000    1.200    0.000    6.000    0.000   15.200 
#    0.000    0.000    0.000    0.000    0.000    0.000 
#    0.000    0.000    0.000    0.000    0.000    0.000 
#
# Total GULP energy -56155.814760 kJ/mol
# GULP energy per Si atom -5615.581476 kJ/mol
# Density = 2.464456 g / cm^3
# Si number density = 24.700781 Si / 1000 Ang^3
#
#
#
# Elastic Constant Matrix: (Units=GPa)
#
#
# Indices 1 2 3 4 5 6 
#
# 1 63.8736 10.1129 50.3241 -2.4071 -6.6365 9.5890
# 2 10.1129 81.9159 11.2653 -8.3505 8.1737 3.3891
# 3 50.3241 11.2653 191.2829 -19.5756 2.9123 11.5449
# 4 -2.4071 -8.3505 -19.5756 30.0978 4.1748 -3.9699
# 5 -6.6365 8.1737 2.9123 4.1748 24.3128 -11.5624
# 6 9.5890 3.3891 11.5449 -3.9699 -11.5624 29.2548
#
#
#
# Elastic Compliance Matrix: (Units=1/GPa)
#
#
# Indices 1 2 3 4 5 6 
#
# 1 0.021746 -0.002948 -0.005970 -0.004261 0.007378 -0.002093
# 2 -0.002948 0.013899 0.000779 0.004784 -0.008049 -0.003484
# 3 -0.005970 0.000779 0.007468 0.004951 -0.004717 -0.002273
# 4 -0.004261 0.004784 0.004951 0.038839 -0.009920 0.000238
# 5 0.007378 -0.008049 -0.004717 -0.009920 0.058689 0.022225
# 6 -0.002093 -0.003484 -0.002273 0.000238 0.022225 0.044985
#
#
# Mechanical properties :
#
#
# Convention : Reuss Voigt Hill
#
# Bulk Modulus (GPa) = 37.26097 53.38630 45.32363
# Shear Modulus (GPa) = 23.71370 34.42441 29.06906
#
# Velocity S-wave (km/s) = 3.10181 3.73722 3.43424
# Velocity P-wave (km/s) = 5.28640 6.34685 5.84074
#
# Compressibility (1/GPa) = 0.02683774
#
# Stress axis : x y z
#
# Youngs Moduli (GPa) = 45.98524 71.94572 133.90190
#
# Poissons Ratio (x) = 0.21207 0.79934
# Poissons Ratio (y) = 0.13555 -0.10436
# Poissons Ratio (z) = 0.27451 -0.05607
#
# Static dielectric constant tensor:
#      x y z
#    x 1.946610 -0.006410 -0.012980 
#    y -0.006410 1.899040 0.019290 
#    z -0.012980 0.019290 1.917620 
# 
# From -- ./inp_files/18126.got.cif
#   From: 2010.05.17/outbox.cif.g08.bks.cpg/sg2_10_cif.got.tgz:18126.got - 2010.06.03 11:33:40.
