data_PCOD9045882
_publ_section_title
;
Structure prediction by ZEFSAII (Michael W. Deem and Ramdas Pophale) SiO2 
 PCOD9045882
Probable space group: P -1
;
_chemical_formula_sum "Si O2"
_cell_formula_units_Z 16
_cell_length_a 14.984159
_cell_length_b 10.981347
_cell_length_c 6.498878
_cell_angle_alpha 116.566298
_cell_angle_beta 125.431839
_cell_angle_gamma 64.632228
_cell_volume 758.046415
_symmetry_space_group_name_H-M "P -1"
_symmetry_group_IT_number 2
_symmetry_cell_setting 'triclinic'
loop_
_space_group_symop_operation_xyz
x,y,z
-x,-y,-z
loop_
_atom_site_type_symbol
_atom_site_label
_atom_site_fract_x
_atom_site_fract_y
_atom_site_fract_z
Si Si1 0.616484 0.297723 0.569952
Si Si2 0.328802 0.308698 0.691568
Si Si3 0.828851 0.104605 0.887421
Si Si4 0.799130 0.731643 0.133538
Si Si5 0.312286 0.060899 0.178247
Si Si6 0.358987 0.428848 0.432637
Si Si7 0.465345 0.874974 0.980967
Si Si8 0.035220 0.089297 0.428128
O O1 0.721246 0.232952 0.807203
O O2 0.487753 0.331269 0.511255
O O3 0.634407 0.434287 0.580828
O O4 0.622093 0.178710 0.316103
O O5 0.223026 0.312504 0.698476
O O6 0.336441 0.179878 0.447655
O O7 0.335824 0.437699 0.653786
O O8 0.433289 0.259634 0.947284
O O9 0.786614 0.994468 0.892905
O O10 0.875150 0.020073 0.676913
O O11 0.931046 0.144322 0.175842
O O12 0.916441 0.779852 0.326639
O O13 0.720455 0.873984 0.041317
O O14 0.748309 0.623506 0.844807
O O15 0.416417 0.933309 0.178438
O O16 0.500000 0.000000 0.000000
O O17 0.000000 0.000000 0.500000
#
# Coordination Sequence:
#
# PCOD9045882 Si02
#       8
#     2   2   2   2   2   2   2   2
#     4  11  23  43  59  92 131 166 214 253 297 369
#     4  11  20  36  58  87 123 168 200 248 309 368
#     4  11  23  38  63  95 126 159 197 263 321 365
#     4  11  20  40  61  89 124 160 206 253 309 372
#     4  11  20  33  58  91 125 154 195 256 316 378
#     4  10  24  42  62  85 129 176 211 251 292 364
#     4  12  20  33  59  91 129 160 195 254 317 372
#     4  11  23  41  66  95 125 155 203 262 328 378
#
# _framework density 21.106888000000001
#
# number of rings (size 3 to 8) (size 9 to 14) (size 15 to 20)
#    0.000    1.000    5.000    3.375    0.000    0.500 
#    2.250    0.625    0.000    1.500    0.000    0.000 
#    0.000    0.000    0.000    0.000    0.000    0.000 
#
# Total GULP energy -89172.689515 kJ/mol
# GULP energy per Si atom -5573.293095 kJ/mol
# Density = 2.105885 g / cm^3
# Si number density = 21.106888 Si / 1000 Ang^3
#
#
#
# Elastic Constant Matrix: (Units=GPa)
#
#
# Indices 1 2 3 4 5 6 
#
# 1 89.7025 16.9185 31.7619 -3.6445 -3.7042 30.5942
# 2 16.9185 54.9869 27.5223 -11.2207 9.3858 16.8616
# 3 31.7619 27.5223 84.5359 -15.6121 22.6391 7.2390
# 4 -3.6445 -11.2207 -15.6121 22.3547 3.3749 -0.5969
# 5 -3.7042 9.3858 22.6391 3.3749 43.5237 -5.1075
# 6 30.5942 16.8616 7.2390 -0.5969 -5.1075 34.5093
#
#
#
# Elastic Compliance Matrix: (Units=1/GPa)
#
#
# Indices 1 2 3 4 5 6 
#
# 1 0.018898 0.001679 -0.007759 -0.002460 0.003660 -0.015448
# 2 0.001679 0.027982 -0.004703 0.011556 -0.006087 -0.014875
# 3 -0.007759 -0.004703 0.021523 0.013226 -0.011493 0.003189
# 4 -0.002460 0.011556 0.013226 0.061469 -0.015219 -0.007430
# 5 0.003660 -0.006087 -0.011493 -0.015219 0.032544 0.006693
# 6 -0.015448 -0.014875 0.003189 -0.007430 0.006693 0.050135
#
#
# Mechanical properties :
#
#
# Convention : Reuss Voigt Hill
#
# Bulk Modulus (GPa) = 21.35003 42.40342 31.87673
# Shear Modulus (GPa) = 20.02178 30.27906 25.15042
#
# Velocity S-wave (km/s) = 3.08326 3.79166 3.45566
# Velocity P-wave (km/s) = 4.77624 6.26916 5.57292
#
# Compressibility (1/GPa) = 0.04683835
#
# Stress axis : x y z
#
# Youngs Moduli (GPa) = 52.91426 35.73716 46.46241
#
# Poissons Ratio (x) = -0.06001 0.36049
# Poissons Ratio (y) = -0.08885 0.21851
# Poissons Ratio (z) = 0.41055 0.16807
#
# Static dielectric constant tensor:
#      x y z
#    x 1.839110 -0.035320 0.021350 
#    y -0.035320 1.783700 -0.014750 
#    z 0.021350 -0.014750 1.809750 
# 
# From -- ./inp_files/79635.got.cif
#   From: 2010.05.17/outbox.cif.g08.bks.cpg/sg2_40_cif.got.tgz:79635.got - 2010.06.03 11:33:40.
