data_PCOD9045208
_publ_section_title
;
Structure prediction by ZEFSAII (Michael W. Deem and Ramdas Pophale) SiO2 
 PCOD9045208
Probable space group: P -1
;
_chemical_formula_sum "Si O2"
_cell_formula_units_Z 14
_cell_length_a 12.978653
_cell_length_b 11.738247
_cell_length_c 5.278342
_cell_angle_alpha 82.581010
_cell_angle_beta 62.460546
_cell_angle_gamma 124.067116
_cell_volume 501.463432
_symmetry_space_group_name_H-M "P -1"
_symmetry_group_IT_number 2
_symmetry_cell_setting 'triclinic'
loop_
_space_group_symop_operation_xyz
x,y,z
-x,-y,-z
loop_
_atom_site_type_symbol
_atom_site_label
_atom_site_fract_x
_atom_site_fract_y
_atom_site_fract_z
Si Si1 0.922759 0.693030 0.150002
Si Si2 0.350814 0.097323 0.767973
Si Si3 0.662551 0.054213 0.684539
Si Si4 0.275483 0.240529 0.477828
Si Si5 0.928106 0.780183 0.626661
Si Si6 0.848867 0.405060 0.504932
Si Si7 0.621170 0.394705 0.104061
O O1 0.760418 0.657737 0.399267
O O2 0.013701 0.779859 0.289440
O O3 0.891134 0.536176 0.221382
O O4 0.012123 0.820811 0.785992
O O5 0.241730 0.125649 0.770555
O O6 0.535398 0.279962 0.481353
O O7 0.352463 0.002581 0.568922
O O8 0.316289 0.032022 0.107051
O O9 0.796591 0.248721 0.490500
O O10 0.500000 0.000000 0.000000
O O11 0.150974 0.158323 0.406613
O O12 0.463489 0.346374 0.170018
O O13 0.768103 0.586270 0.919183
O O14 0.000000 0.500000 0.500000
O O15 0.698502 0.349829 0.857613
#
# Coordination Sequence:
#
# PCOD9045208 Si02
#       7
#     2   2   2   2   2   2   2
#     4   9  21  36  60  91 127 161 208 267 320 369
#     4  10  24  36  68  95 128 162 209 275 322 378
#     4  12  24  43  64  93 132 173 218 260 317 381
#     4   8  19  34  62  97 125 154 209 274 330 365
#     4   9  18  31  56  94 129 153 196 269 328 368
#     4  11  25  43  66  93 134 178 219 259 315 388
#     4   9  19  37  60  96 129 159 212 265 325 366
#
# _framework density 27.918286999999999
#
# number of rings (size 3 to 8) (size 9 to 14) (size 15 to 20)
#    1.714    0.571    1.429    0.857    4.000    1.714 
#    0.000    6.429    0.000    1.714    0.000    0.000 
#    0.000    0.000    0.000    0.000    0.000    0.000 
#
# Total GULP energy -78311.216984 kJ/mol
# GULP energy per Si atom -5593.658356 kJ/mol
# Density = 2.785474 g / cm^3
# Si number density = 27.918287 Si / 1000 Ang^3
#
#
#
# Elastic Constant Matrix: (Units=GPa)
#
#
# Indices 1 2 3 4 5 6 
#
# 1 135.5496 33.1117 46.8686 -9.8006 10.0352 -24.2975
# 2 33.1117 108.9733 29.0120 -16.6910 2.4666 -7.3681
# 3 46.8686 29.0120 194.0111 -9.4362 21.9574 -2.6919
# 4 -9.8006 -16.6910 -9.4362 48.3756 -3.5136 6.4733
# 5 10.0352 2.4666 21.9574 -3.5136 60.3116 -6.1660
# 6 -24.2975 -7.3681 -2.6919 6.4733 -6.1660 47.3224
#
#
#
# Elastic Compliance Matrix: (Units=1/GPa)
#
#
# Indices 1 2 3 4 5 6 
#
# 1 0.009315 -0.002006 -0.001840 0.000237 -0.000346 0.004288
# 2 -0.002006 0.010518 -0.000990 0.003037 0.000461 0.000196
# 3 -0.001840 -0.000990 0.005970 0.000455 -0.001910 -0.001070
# 4 0.000237 0.003037 0.000455 0.022220 0.000728 -0.002324
# 5 -0.000346 0.000461 -0.001910 0.000728 0.017559 0.001974
# 6 0.004288 0.000196 -0.001070 -0.002324 0.001974 0.023878
#
#
# Mechanical properties :
#
#
# Convention : Reuss Voigt Hill
#
# Bulk Modulus (GPa) = 61.99515 72.94652 67.47084
# Shear Modulus (GPa) = 47.84250 53.17138 50.50694
#
# Velocity S-wave (km/s) = 4.14413 4.36883 4.25796
# Velocity P-wave (km/s) = 6.71957 7.18570 6.95654
#
# Compressibility (1/GPa) = 0.01613029
#
# Stress axis : x y z
#
# Youngs Moduli (GPa) = 107.35166 95.07820 167.49528
#
# Poissons Ratio (x) = 0.19077 0.30821
# Poissons Ratio (y) = 0.21540 0.16579
# Poissons Ratio (z) = 0.19754 0.09411
#
# Static dielectric constant tensor:
#      x y z
#    x 2.223260 0.078640 0.043280 
#    y 0.078640 2.210990 0.038080 
#    z 0.043280 0.038080 2.259740 
# 
# From -- ./inp_files/66278.got.cif
#   From: 2010.05.17/outbox.cif.g08.bks.cpg/sg2_34_cif.got.tgz:66278.got - 2010.06.03 11:33:40.
