data_PCOD9045083
_publ_section_title
;
Structure prediction by ZEFSAII (Michael W. Deem and Ramdas Pophale) SiO2 
 PCOD9045083
Probable space group: P -1
;
_chemical_formula_sum "Si O2"
_cell_formula_units_Z 15
_cell_length_a 10.461654
_cell_length_b 13.879404
_cell_length_c 16.320165
_cell_angle_alpha 20.868882
_cell_angle_beta 47.537086
_cell_angle_gamma 45.716553
_cell_volume 601.931884
_symmetry_space_group_name_H-M "P -1"
_symmetry_group_IT_number 2
_symmetry_cell_setting 'triclinic'
loop_
_space_group_symop_operation_xyz
x,y,z
-x,-y,-z
loop_
_atom_site_type_symbol
_atom_site_label
_atom_site_fract_x
_atom_site_fract_y
_atom_site_fract_z
Si Si1 0.870387 0.857025 0.567533
Si Si2 0.500000 0.500000 0.500000
Si Si3 0.856508 0.272174 0.990675
Si Si4 0.452586 0.537040 0.245755
Si Si5 0.394347 0.760306 0.732063
Si Si6 0.238931 0.151257 0.901313
Si Si7 0.838975 0.729348 0.344490
Si Si8 0.728533 0.184976 0.516064
O O1 0.846817 0.597973 0.729444
O O2 0.076668 0.818764 0.530590
O O3 0.783579 0.121493 0.339402
O O4 0.763702 0.912257 0.656893
O O5 0.371506 0.325868 0.737215
O O6 0.590717 0.225710 0.618763
O O7 0.062465 0.158486 0.025337
O O8 0.686962 0.278485 0.115386
O O9 0.856288 0.042001 0.104634
O O10 0.485034 0.497287 0.166624
O O11 0.338744 0.321456 0.496728
O O12 0.639975 0.433405 0.293766
O O13 0.340193 0.835130 0.088343
O O14 0.500000 0.000000 0.500000
O O15 0.170523 0.305593 0.721185
O O16 0.000000 0.500000 0.500000
#
# Coordination Sequence:
#
# PCOD9045083 Si02
#       8
#     2   1   2   2   2   2   2   2
#     4  10  25  48  70 102 148 186 237 297 363 413
#     4  12  24  46  76 104 134 190 246 294 346 422
#     4  12  26  43  74 109 141 194 231 289 371 428
#     4  11  25  48  71 103 143 189 238 298 357 419
#     4  11  26  44  71 107 144 188 237 291 349 439
#     4  12  28  46  74 106 143 190 237 300 359 417
#     4  12  26  45  71 107 152 182 240 297 355 432
#     4  10  23  49  69 100 142 186 238 301 344 419
#
# _framework density 24.919764000000001
#
# number of rings (size 3 to 8) (size 9 to 14) (size 15 to 20)
#    0.000    0.800    5.333    0.400    5.600    2.133 
#    4.800    2.000    0.000    0.000    0.000    0.000 
#    0.000    0.000    0.000    0.000    0.000    0.000 
#
# Total GULP energy -83581.941409 kJ/mol
# GULP energy per Si atom -5572.129427 kJ/mol
# Density = 2.486305 g / cm^3
# Si number density = 24.919764 Si / 1000 Ang^3
#
#
#
# Elastic Constant Matrix: (Units=GPa)
#
#
# Indices 1 2 3 4 5 6 
#
# 1 81.4214 20.3067 10.5889 -6.1266 11.6487 -9.9562
# 2 20.3067 167.1916 16.3300 -4.2575 -0.0997 -0.2763
# 3 10.5889 16.3300 51.7129 -9.9983 -18.8704 -6.5513
# 4 -6.1266 -4.2575 -9.9983 49.5379 -5.8802 1.3858
# 5 11.6487 -0.0997 -18.8704 -5.8802 34.2979 -7.9807
# 6 -9.9562 -0.2763 -6.5513 1.3858 -7.9807 42.7315
#
#
#
# Elastic Compliance Matrix: (Units=1/GPa)
#
#
# Indices 1 2 3 4 5 6 
#
# 1 0.014483 -0.001256 -0.005257 -0.000312 -0.007601 0.001151
# 2 -0.001256 0.006346 -0.002238 -0.000158 -0.000994 -0.000775
# 3 -0.005257 -0.002238 0.031812 0.008027 0.022418 0.007564
# 4 -0.000312 -0.000158 0.008027 0.022754 0.008908 0.002083
# 5 -0.007601 -0.000994 0.022418 0.008908 0.048001 0.010336
# 6 0.001151 -0.000775 0.007564 0.002083 0.010336 0.026688
#
#
# Mechanical properties :
#
#
# Convention : Reuss Voigt Hill
#
# Bulk Modulus (GPa) = 28.45910 43.86413 36.16161
# Shear Modulus (GPa) = 27.88623 42.18681 35.03652
#
# Velocity S-wave (km/s) = 3.34884 4.11896 3.75370
# Velocity P-wave (km/s) = 5.13790 6.34519 5.77319
#
# Compressibility (1/GPa) = 0.03513815
#
# Stress axis : x y z
#
# Youngs Moduli (GPa) = 69.04429 157.56803 31.43512
#
# Poissons Ratio (x) = 0.19794 0.16526
# Poissons Ratio (y) = 0.08674 0.07036
# Poissons Ratio (z) = 0.36297 0.35269
#
# Static dielectric constant tensor:
#      x y z
#    x 1.958380 -0.060210 -0.016630 
#    y -0.060210 1.993670 -0.018310 
#    z -0.016630 -0.018310 1.957000 
# 
# From -- ./inp_files/569649.got.cif
#   From: 2010.05.17/outbox.cif.g08.bks.cpg/sg2_285_cif.got.tgz:569649.got - 2010.06.03 11:33:40.
