data_PCOD9045606
_publ_section_title
;
Structure prediction by ZEFSAII (Michael W. Deem and Ramdas Pophale) SiO2 
 PCOD9045606
Probable space group: P -1
;
_chemical_formula_sum "Si O2"
_cell_formula_units_Z 16
_cell_length_a 12.048901
_cell_length_b 9.762086
_cell_length_c 12.347372
_cell_angle_alpha 132.999914
_cell_angle_beta 73.035193
_cell_angle_gamma 130.912881
_cell_volume 770.531921
_symmetry_space_group_name_H-M "P -1"
_symmetry_group_IT_number 2
_symmetry_cell_setting 'triclinic'
loop_
_space_group_symop_operation_xyz
x,y,z
-x,-y,-z
loop_
_atom_site_type_symbol
_atom_site_label
_atom_site_fract_x
_atom_site_fract_y
_atom_site_fract_z
Si Si1 0.200349 0.879040 0.127078
Si Si2 0.376437 0.174279 0.438697
Si Si3 0.405253 0.032738 0.963235
Si Si4 0.696045 0.322863 0.403801
Si Si5 0.654322 0.044311 0.463661
Si Si6 0.865960 0.613769 0.106836
Si Si7 0.595661 0.577972 0.123386
Si Si8 0.842104 0.719650 0.407751
O O1 0.045322 0.831517 0.157186
O O2 0.328470 0.094334 0.285497
O O3 0.171224 0.638118 0.049702
O O4 0.252765 0.923462 0.012883
O O5 0.556241 0.316990 0.471908
O O6 0.291489 0.942468 0.422275
O O7 0.304724 0.297875 0.556939
O O8 0.373139 0.894323 0.784012
O O9 0.501380 0.322441 0.077472
O O10 0.500000 0.000000 0.000000
O O11 0.827197 0.575697 0.440514
O O12 0.743507 0.256312 0.461181
O O13 0.616590 0.799739 0.294005
O O14 0.500000 0.000000 0.500000
O O15 0.760665 0.655092 0.101227
O O16 0.831237 0.589938 0.231596
O O17 0.500000 0.500000 0.000000
O O18 0.000000 0.000000 0.500000
#
# Coordination Sequence:
#
# PCOD9045606 Si02
#       8
#     2   2   2   2   2   2   2   2
#     4  11  23  39  66  98 132 173 220 274 332 387
#     4  11  22  39  67  96 128 167 222 275 328 387
#     4  12  21  38  69 102 126 170 232 276 323 383
#     4  11  22  41  63  95 133 168 221 277 326 389
#     4  10  24  41  62  95 137 171 213 275 332 391
#     4  11  23  41  63  95 135 172 218 269 333 389
#     4  12  23  41  70  97 132 174 222 271 327 398
#     4  12  23  40  65  96 129 169 218 275 337 384
#
# _framework density 20.764876000000001
#
# number of rings (size 3 to 8) (size 9 to 14) (size 15 to 20)
#    0.000    0.750    7.500    0.375    1.750    2.000 
#    0.000    1.250    0.000    0.000    0.000    0.000 
#    0.000    0.000    0.000    0.000    0.000    0.000 
#
# Total GULP energy -89328.639544 kJ/mol
# GULP energy per Si atom -5583.039972 kJ/mol
# Density = 2.071761 g / cm^3
# Si number density = 20.764876 Si / 1000 Ang^3
#
#
#
# Elastic Constant Matrix: (Units=GPa)
#
#
# Indices 1 2 3 4 5 6 
#
# 1 88.2727 33.3161 21.7178 -5.0386 -19.5086 -7.7321
# 2 33.3161 125.9422 11.8719 -3.3758 -3.0382 -17.7589
# 3 21.7178 11.8719 57.8245 -5.4177 -13.5288 2.7914
# 4 -5.0386 -3.3758 -5.4177 36.0513 -1.6291 -1.7759
# 5 -19.5086 -3.0382 -13.5288 -1.6291 29.5801 -6.6242
# 6 -7.7321 -17.7589 2.7914 -1.7759 -6.6242 31.8279
#
#
#
# Elastic Compliance Matrix: (Units=1/GPa)
#
#
# Indices 1 2 3 4 5 6 
#
# 1 0.015942 -0.002969 -0.003067 0.002171 0.009975 0.004682
# 2 -0.002969 0.009483 -0.001107 0.000514 -0.000431 0.004606
# 3 -0.003067 -0.001107 0.020680 0.002822 0.007134 -0.001534
# 4 0.002171 0.000514 0.002822 0.028904 0.005092 0.003239
# 5 0.009975 -0.000431 0.007134 0.005092 0.046462 0.011511
# 6 0.004682 0.004606 -0.001534 0.003239 0.011511 0.037837
#
#
# Mechanical properties :
#
#
# Convention : Reuss Voigt Hill
#
# Bulk Modulus (GPa) = 31.42697 45.09455 38.26076
# Shear Modulus (GPa) = 27.14439 33.16745 30.15592
#
# Velocity S-wave (km/s) = 3.61948 4.00094 3.81498
# Velocity P-wave (km/s) = 5.71271 6.56561 6.15396
#
# Compressibility (1/GPa) = 0.03181980
#
# Stress axis : x y z
#
# Youngs Moduli (GPa) = 62.72679 105.45455 48.35505
#
# Poissons Ratio (x) = 0.31311 0.14830
# Poissons Ratio (y) = 0.18624 0.05351
# Poissons Ratio (z) = 0.19238 0.11670
#
# Static dielectric constant tensor:
#      x y z
#    x 1.753220 -0.002170 0.005570 
#    y -0.002170 1.815690 0.007880 
#    z 0.005570 0.007880 1.786550 
# 
# From -- ./inp_files/190816.got.cif
#   From: 2010.05.17/outbox.cif.g08.bks.cpg/sg2_96_cif.got.tgz:190816.got - 2010.06.03 11:33:40.
