data_PCOD9045951
_publ_section_title
;
Structure prediction by ZEFSAII (Michael W. Deem and Ramdas Pophale) SiO2 
 PCOD9045951
Probable space group: P -1
;
_chemical_formula_sum "Si O2"
_cell_formula_units_Z 16
_cell_length_a 14.027984
_cell_length_b 12.057235
_cell_length_c 14.291930
_cell_angle_alpha 72.667826
_cell_angle_beta 129.111701
_cell_angle_gamma 149.502904
_cell_volume 743.944652
_symmetry_space_group_name_H-M "P -1"
_symmetry_group_IT_number 2
_symmetry_cell_setting 'triclinic'
loop_
_space_group_symop_operation_xyz
x,y,z
-x,-y,-z
loop_
_atom_site_type_symbol
_atom_site_label
_atom_site_fract_x
_atom_site_fract_y
_atom_site_fract_z
Si Si1 0.100071 0.540723 0.386476
Si Si2 0.832145 0.286363 0.095604
Si Si3 0.834652 0.795122 0.168579
Si Si4 0.248555 0.930230 0.378359
Si Si5 0.134936 0.461698 0.064643
Si Si6 0.151475 0.208978 0.121039
Si Si7 0.171900 0.241275 0.606496
Si Si8 0.276844 0.942391 0.614847
O O1 0.092846 0.672552 0.331413
O O2 0.020135 0.412195 0.270504
O O3 0.849020 0.288294 0.368518
O O4 0.441966 0.803158 0.553560
O O5 0.892167 0.260880 0.047425
O O6 0.922255 0.491989 0.062005
O O7 0.500000 0.000000 0.000000
O O8 0.840312 0.803557 0.281194
O O9 0.034292 0.855119 0.247686
O O10 0.500000 0.500000 0.000000
O O11 0.974671 0.029259 0.150731
O O12 0.327504 0.993392 0.522598
O O13 0.153781 0.347877 0.066825
O O14 0.439501 0.766561 0.226564
O O15 0.486327 0.457890 0.282394
O O16 0.000000 0.000000 0.000000
O O17 0.999009 0.211777 0.495076
O O18 0.000000 0.000000 0.500000
#
# Coordination Sequence:
#
# PCOD9045951 Si02
#       8
#     2   2   2   2   2   2   2   2
#     4  11  22  40  70  96 130 180 219 279 350 401
#     4  11  24  44  67  98 132 179 221 282 347 407
#     4  11  25  46  68  99 141 184 236 284 358 421
#     4  10  24  42  64  99 135 169 233 277 335 422
#     4  11  25  43  66  99 138 174 233 284 341 424
#     4  12  26  46  70 101 141 186 233 297 354 411
#     4  11  24  44  71 101 136 181 231 286 348 422
#     4  11  21  43  65  96 135 171 223 281 339 413
#
# _framework density 21.506976000000002
#
# number of rings (size 3 to 8) (size 9 to 14) (size 15 to 20)
#    0.000    1.000    5.000    1.125    1.750    3.500 
#    0.000    0.000    0.000    0.000    0.000    0.000 
#    0.000    0.000    0.000    0.000    0.000    0.000 
#
# Total GULP energy -89439.363071 kJ/mol
# GULP energy per Si atom -5589.960192 kJ/mol
# Density = 2.145802 g / cm^3
# Si number density = 21.506976 Si / 1000 Ang^3
#
#
#
# Elastic Constant Matrix: (Units=GPa)
#
#
# Indices 1 2 3 4 5 6 
#
# 1 62.8495 17.4503 18.0303 14.5656 6.7417 -7.4735
# 2 17.4503 89.7233 18.2206 15.9881 3.4324 8.8037
# 3 18.0303 18.2206 90.7647 11.6055 -2.1877 0.7135
# 4 14.5656 15.9881 11.6055 36.3474 2.7745 4.8304
# 5 6.7417 3.4324 -2.1877 2.7745 29.3357 8.0804
# 6 -7.4735 8.8037 0.7135 4.8304 8.0804 32.0779
#
#
#
# Elastic Compliance Matrix: (Units=1/GPa)
#
#
# Indices 1 2 3 4 5 6 
#
# 1 0.020755 -0.002810 -0.002910 -0.006771 -0.006298 0.008278
# 2 -0.002810 0.013006 -0.001550 -0.003632 0.000382 -0.003739
# 3 -0.002910 -0.001550 0.012237 -0.002125 0.002171 -0.000752
# 4 -0.006771 -0.003632 -0.002125 0.033228 0.000220 -0.005593
# 5 -0.006298 0.000382 0.002171 0.000220 0.038778 -0.011422
# 6 0.008278 -0.003739 -0.000752 -0.005593 -0.011422 0.037865
#
#
# Mechanical properties :
#
#
# Convention : Reuss Voigt Hill
#
# Bulk Modulus (GPa) = 31.78828 38.97109 35.37968
# Shear Modulus (GPa) = 27.64037 32.19462 29.91750
#
# Velocity S-wave (km/s) = 3.58883 3.87323 3.73374
# Velocity P-wave (km/s) = 5.65557 6.17754 5.92231
#
# Compressibility (1/GPa) = 0.03145814
#
# Stress axis : x y z
#
# Youngs Moduli (GPa) = 48.18065 76.88658 81.72224
#
# Poissons Ratio (x) = 0.21609 0.23780
# Poissons Ratio (y) = 0.13541 0.12664
# Poissons Ratio (z) = 0.14020 0.11914
#
# Static dielectric constant tensor:
#      x y z
#    x 1.752180 0.019760 -0.004510 
#    y 0.019760 1.784810 -0.014930 
#    z -0.004510 -0.014930 1.776100 
# 
# From -- ./inp_files/531808.got.cif
#   From: 2010.05.17/outbox.cif.g08.bks.cpg/sg2_266_cif.got.tgz:531808.got - 2010.06.03 11:33:40.
