data_PCOD9045398
_publ_section_title
;
Structure prediction by ZEFSAII (Michael W. Deem and Ramdas Pophale) SiO2 
 PCOD9045398
Probable space group: P -1
;
_chemical_formula_sum "Si O2"
_cell_formula_units_Z 16
_cell_length_a 5.169848
_cell_length_b 10.757053
_cell_length_c 11.347820
_cell_angle_alpha 88.134751
_cell_angle_beta 99.723194
_cell_angle_gamma 87.137619
_cell_volume 620.698713
_symmetry_space_group_name_H-M "P -1"
_symmetry_group_IT_number 2
_symmetry_cell_setting 'triclinic'
loop_
_space_group_symop_operation_xyz
x,y,z
-x,-y,-z
loop_
_atom_site_type_symbol
_atom_site_label
_atom_site_fract_x
_atom_site_fract_y
_atom_site_fract_z
Si Si1 0.713362 0.275361 0.220428
Si Si2 0.179667 0.335311 0.514060
Si Si3 0.852855 0.159513 0.639594
Si Si4 0.521672 0.341195 0.750875
Si Si5 0.189901 0.433157 0.259618
Si Si6 0.361138 0.086959 0.116873
Si Si7 0.281077 0.156606 0.874313
Si Si8 0.838792 0.887308 0.631033
O O1 0.462755 0.355871 0.250266
O O2 0.593549 0.183184 0.120873
O O3 0.936259 0.366953 0.193584
O O4 0.872022 0.181605 0.326525
O O5 0.936975 0.273491 0.561743
O O6 0.337837 0.396144 0.629695
O O7 0.147402 0.426994 0.398210
O O8 0.303340 0.209148 0.460921
O O9 0.085993 0.132163 0.753157
O O10 0.618029 0.212747 0.699877
O O11 0.816876 0.028083 0.579873
O O12 0.758445 0.429221 0.784295
O O13 0.371618 0.295955 0.854480
O O14 0.262550 0.103150 0.242316
O O15 0.482278 0.948588 0.112586
O O16 0.165955 0.131337 0.995607
#
# Coordination Sequence:
#
# PCOD9045398 Si02
#       8
#     2   2   2   2   2   2   2   2
#     4  11  23  44  71 100 131 182 225 283 329 403
#     4  10  24  40  64  96 134 186 224 278 332 406
#     4  11  23  39  64 102 139 174 222 285 345 403
#     4  11  25  44  63  97 139 182 227 281 332 404
#     4  11  26  45  71  94 141 185 235 270 329 403
#     4  11  21  44  71  99 137 175 226 281 349 407
#     4  10  24  41  68 103 133 175 223 285 346 407
#     4  11  22  41  67 102 139 171 227 280 349 406
#
# _framework density 25.7774
#
# number of rings (size 3 to 8) (size 9 to 14) (size 15 to 20)
#    0.000    1.250    5.000    0.750    7.000    2.500 
#    0.000    1.250    0.000    0.000    0.000    0.000 
#    0.000    0.000    0.000    0.000    0.000    0.000 
#
# Total GULP energy -89402.682137 kJ/mol
# GULP energy per Si atom -5587.667634 kJ/mol
# Density = 2.571873 g / cm^3
# Si number density = 25.777400 Si / 1000 Ang^3
#
#
#
# Elastic Constant Matrix: (Units=GPa)
#
#
# Indices 1 2 3 4 5 6 
#
# 1 104.3526 30.2732 22.2222 2.5825 -5.5303 0.8103
# 2 30.2732 115.5881 24.1175 -3.6036 -0.2821 20.4103
# 3 22.2222 24.1175 68.8772 -5.4465 -11.9723 2.0974
# 4 2.5825 -3.6036 -5.4465 18.9289 0.2957 -1.7890
# 5 -5.5303 -0.2821 -11.9723 0.2957 22.8194 0.2854
# 6 0.8103 20.4103 2.0974 -1.7890 0.2854 49.4926
#
#
#
# Elastic Compliance Matrix: (Units=1/GPa)
#
#
# Indices 1 2 3 4 5 6 
#
# 1 0.011025 -0.002566 -0.002680 -0.002700 0.001258 0.000886
# 2 -0.002566 0.010737 -0.003072 0.001145 -0.002063 -0.004202
# 3 -0.002680 -0.003072 0.018377 0.004992 0.008881 0.000661
# 4 -0.002700 0.001145 0.004992 0.054959 0.001250 0.001340
# 5 0.001258 -0.002063 0.008881 0.001250 0.048742 0.000218
# 6 0.000886 -0.004202 0.000661 0.001340 0.000218 0.021943
#
#
# Mechanical properties :
#
#
# Convention : Reuss Voigt Hill
#
# Bulk Modulus (GPa) = 42.54762 49.11596 45.83179
# Shear Modulus (GPa) = 26.28066 32.39515 29.33791
#
# Velocity S-wave (km/s) = 3.19646 3.54888 3.37727
# Velocity P-wave (km/s) = 5.49225 5.99066 5.74686
#
# Compressibility (1/GPa) = 0.02350308
#
# Stress axis : x y z
#
# Youngs Moduli (GPa) = 90.70609 93.13528 54.41467
#
# Poissons Ratio (x) = 0.23896 0.14585
# Poissons Ratio (y) = 0.23273 0.16716
# Poissons Ratio (z) = 0.24313 0.28610
#
# Static dielectric constant tensor:
#      x y z
#    x 2.107850 -0.012620 0.022710 
#    y -0.012620 2.060740 -0.018290 
#    z 0.022710 -0.018290 2.106490 
# 
# From -- ./inp_files/69012.got.cif
#   From: 2010.05.17/outbox.cif.g08.bks.cpg/sg2_35_cif.got.tgz:69012.got - 2010.06.03 11:33:40.
