data_PCOD9045634
_publ_section_title
;
Structure prediction by ZEFSAII (Michael W. Deem and Ramdas Pophale) SiO2 
 PCOD9045634
Probable space group: P -1
;
_chemical_formula_sum "Si O2"
_cell_formula_units_Z 14
_cell_length_a 9.168750
_cell_length_b 5.227790
_cell_length_c 20.049960
_cell_angle_alpha 99.084236
_cell_angle_beta 50.963695
_cell_angle_gamma 118.302605
_cell_volume 643.182398
_symmetry_space_group_name_H-M "P -1"
_symmetry_group_IT_number 2
_symmetry_cell_setting 'triclinic'
loop_
_space_group_symop_operation_xyz
x,y,z
-x,-y,-z
loop_
_atom_site_type_symbol
_atom_site_label
_atom_site_fract_x
_atom_site_fract_y
_atom_site_fract_z
Si Si1 0.775088 0.113306 0.292695
Si Si2 0.000803 0.775941 0.287718
Si Si3 0.807572 0.575468 0.060311
Si Si4 0.969633 0.911342 0.891786
Si Si5 0.615424 0.923493 0.903024
Si Si6 0.896796 0.766066 0.461120
Si Si7 0.363279 0.916623 0.468814
O O1 0.844752 0.425871 0.319769
O O2 0.880848 0.195184 0.192282
O O3 0.882718 0.938897 0.292061
O O4 0.519261 0.932187 0.364527
O O5 0.041771 0.868707 0.356831
O O6 0.210788 0.833711 0.187223
O O7 0.572370 0.307626 0.100735
O O8 0.854492 0.774870 0.988803
O O9 0.855577 0.753846 0.122892
O O10 0.000000 0.500000 0.000000
O O11 0.773642 0.839537 0.895212
O O12 0.500000 0.000000 0.000000
O O13 0.825013 0.425589 0.485340
O O14 0.697828 0.823147 0.506450
O O15 0.000000 0.000000 0.500000
O O16 0.500000 0.000000 0.500000
#
# Coordination Sequence:
#
# PCOD9045634 Si02
#       7
#     2   2   2   2   2   2   2
#     4  11  23  41  70  97 127 174 232 272 326 399
#     4  11  23  42  65  97 133 173 224 277 329 411
#     4  11  22  42  63  95 134 167 224 279 331 400
#     4  10  24  41  64  95 131 176 223 279 329 408
#     4  11  22  41  68  93 130 181 220 269 349 394
#     4  12  25  43  65 102 142 174 219 285 347 398
#     4  12  22  43  71  94 129 179 227 268 334 404
#
# _framework density 21.766763000000001
#
# number of rings (size 3 to 8) (size 9 to 14) (size 15 to 20)
#    0.000    0.857    4.286    3.000    2.000    2.286 
#    2.571    0.000    0.000    0.000    0.000    0.000 
#    0.000    0.000    0.000    0.000    0.000    0.000 
#
# Total GULP energy -78020.968618 kJ/mol
# GULP energy per Si atom -5572.926330 kJ/mol
# Density = 2.171722 g / cm^3
# Si number density = 21.766763 Si / 1000 Ang^3
#
#
#
# Elastic Constant Matrix: (Units=GPa)
#
#
# Indices 1 2 3 4 5 6 
#
# 1 64.0087 17.1970 -6.8791 -2.5806 -6.1305 11.9316
# 2 17.1970 91.2251 -0.4093 -1.9623 9.4279 5.2939
# 3 -6.8791 -0.4093 101.4163 -7.0330 -17.3741 -5.5287
# 4 -2.5806 -1.9623 -7.0330 37.7152 5.0499 -1.0212
# 5 -6.1305 9.4279 -17.3741 5.0499 13.4642 4.5699
# 6 11.9316 5.2939 -5.5287 -1.0212 4.5699 34.8392
#
#
#
# Elastic Compliance Matrix: (Units=1/GPa)
#
#
# Indices 1 2 3 4 5 6 
#
# 1 0.021714 -0.006077 0.005002 -0.001372 0.024141 -0.008926
# 2 -0.006077 0.013900 -0.003201 0.002185 -0.018095 0.001899
# 3 0.005002 -0.003201 0.014079 -0.000409 0.023550 -0.002094
# 4 -0.001372 0.002185 -0.000409 0.028448 -0.014296 0.002782
# 5 0.024141 -0.018095 0.023550 -0.014296 0.140694 -0.020655
# 6 -0.008926 0.001899 -0.002094 0.002782 -0.020655 0.033930
#
#
# Mechanical properties :
#
#
# Convention : Reuss Voigt Hill
#
# Bulk Modulus (GPa) = 24.30681 30.71860 27.51271
# Shear Modulus (GPa) = 18.17981 33.65314 25.91648
#
# Velocity S-wave (km/s) = 2.89313 3.93629 3.45431
# Velocity P-wave (km/s) = 4.72774 5.89936 5.34574
#
# Compressibility (1/GPa) = 0.04114073
#
# Stress axis : x y z
#
# Youngs Moduli (GPa) = 46.05330 71.94220 71.02915
#
# Poissons Ratio (x) = 0.43722 -0.35531
# Poissons Ratio (y) = 0.27988 0.22736
# Poissons Ratio (z) = -0.23038 0.23029
#
# Static dielectric constant tensor:
#      x y z
#    x 1.802580 -0.007700 0.068730 
#    y -0.007700 1.929080 -0.017870 
#    z 0.068730 -0.017870 1.932470 
# 
# From -- ./inp_files/107577.got.cif
#   From: 2010.05.17/outbox.cif.g08.bks.cpg/sg2_54_cif.got.tgz:107577.got - 2010.06.03 11:33:40.
