data_PCOD9045250
_publ_section_title
;
Structure prediction by ZEFSAII (Michael W. Deem and Ramdas Pophale) SiO2 
 PCOD9045250
Probable space group: P -1
;
_chemical_formula_sum "Si O2"
_cell_formula_units_Z 14
_cell_length_a 9.517353
_cell_length_b 9.065980
_cell_length_c 9.517426
_cell_angle_alpha 92.134746
_cell_angle_beta 124.758135
_cell_angle_gamma 92.134953
_cell_volume 672.490960
_symmetry_space_group_name_H-M "P -1"
_symmetry_group_IT_number 2
_symmetry_cell_setting 'triclinic'
loop_
_space_group_symop_operation_xyz
x,y,z
-x,-y,-z
loop_
_atom_site_type_symbol
_atom_site_label
_atom_site_fract_x
_atom_site_fract_y
_atom_site_fract_z
Si Si1 0.016229 0.971473 0.840997
Si Si2 0.659007 0.028524 0.483774
Si Si3 0.162740 0.103032 0.662740
Si Si4 0.829456 0.545450 0.329457
Si Si5 0.590459 0.358211 0.390106
Si Si6 0.264189 0.499997 0.235812
Si Si7 0.890099 0.358214 0.090455
O O1 0.077753 0.806496 0.850076
O O2 0.150582 0.067368 0.821074
O O3 0.829665 0.999996 0.670336
O O4 0.000000 0.000000 0.000000
O O5 0.649935 0.193504 0.422258
O O6 0.500000 0.000000 0.500000
O O7 0.678925 0.932632 0.349419
O O8 0.154417 0.278308 0.654415
O O9 0.000000 0.000000 0.500000
O O10 0.674330 0.467979 0.325826
O O11 0.825824 0.467980 0.174332
O O12 0.000000 0.500000 0.500000
O O13 0.388251 0.372998 0.261367
O O14 0.656861 0.424543 0.578212
O O15 0.078208 0.424541 0.156858
O O16 0.238641 0.626993 0.111749
#
# Coordination Sequence:
#
# PCOD9045250 Si02
#       7
#     2   2   2   2   2   2   2
#     4  11  23  41  67  94 128 166 211 264 324 378
#     4  11  23  41  67  94 128 166 211 264 324 378
#     4  10  24  40  59  96 128 164 217 262 315 387
#     4  12  22  39  66  92 128 172 212 264 319 382
#     4  11  23  41  66  93 126 168 213 263 319 381
#     4  10  24  38  66  94 126 156 222 260 312 380
#     4  11  23  41  66  93 126 168 213 263 319 381
#
# _framework density 20.818123
#
# number of rings (size 3 to 8) (size 9 to 14) (size 15 to 20)
#    0.000    1.143    1.429    6.000    8.000    0.571 
#    0.000    0.714    0.000    0.000    0.000    0.000 
#    0.000    0.000    0.000    0.000    0.000    0.000 
#
# Total GULP energy -78113.447388 kJ/mol
# GULP energy per Si atom -5579.531956 kJ/mol
# Density = 2.077074 g / cm^3
# Si number density = 20.818123 Si / 1000 Ang^3
#
#
#
# Elastic Constant Matrix: (Units=GPa)
#
#
# Indices 1 2 3 4 5 6 
#
# 1 121.5162 54.4942 66.3971 -7.7980 -31.5215 -9.4649
# 2 54.4942 204.7429 34.1835 -28.6190 -17.6000 -16.5250
# 3 66.3971 34.1835 72.9296 -19.7604 -10.5702 -6.4489
# 4 -7.7980 -28.6190 -19.7604 30.8531 -5.3956 -2.9098
# 5 -31.5215 -17.6000 -10.5702 -5.3956 27.5102 -5.9795
# 6 -9.4649 -16.5250 -6.4489 -2.9098 -5.9795 34.2142
#
#
#
# Elastic Compliance Matrix: (Units=1/GPa)
#
#
# Indices 1 2 3 4 5 6 
#
# 1 0.025550 -0.001690 -0.019848 -0.003566 0.021152 0.005904
# 2 -0.001690 0.007280 0.002059 0.009286 0.006498 0.005362
# 3 -0.019848 0.002059 0.036067 0.019809 -0.002926 0.003475
# 4 -0.003566 0.009286 0.019809 0.058664 0.024561 0.016514
# 5 0.021152 0.006498 -0.002926 0.024561 0.073518 0.023376
# 6 0.005904 0.005362 0.003475 0.016514 0.023376 0.039595
#
#
# Mechanical properties :
#
#
# Convention : Reuss Voigt Hill
#
# Bulk Modulus (GPa) = 33.40157 78.81538 56.10848
# Shear Modulus (GPa) = 17.26443 34.78975 26.02709
#
# Velocity S-wave (km/s) = 2.88288 4.09238 3.53967
# Velocity P-wave (km/s) = 5.21158 7.76346 6.61180
#
# Compressibility (1/GPa) = 0.02993871
#
# Stress axis : x y z
#
# Youngs Moduli (GPa) = 39.13842 137.36842 27.72581
#
# Poissons Ratio (x) = 0.23220 0.55030
# Poissons Ratio (y) = 0.06616 -0.05708
# Poissons Ratio (z) = 0.77681 -0.28282
#
# Static dielectric constant tensor:
#      x y z
#    x 1.728540 0.001740 -0.020680 
#    y 0.001740 1.750750 0.002980 
#    z -0.020680 0.002980 1.704680 
# 
# From -- ./inp_files/158410.got.cif
#   From: 2010.05.17/outbox.cif.g08.bks.cpg/sg2_80_cif.got.tgz:158410.got - 2010.06.03 11:33:40.
