data_PCOD9045081
_publ_section_title
;
Structure prediction by ZEFSAII (Michael W. Deem and Ramdas Pophale) SiO2 
 PCOD9045081
Probable space group: P -1
;
_chemical_formula_sum "Si O2"
_cell_formula_units_Z 16
_cell_length_a 17.412097
_cell_length_b 11.420783
_cell_length_c 8.399578
_cell_angle_alpha 74.512411
_cell_angle_beta 141.669472
_cell_angle_gamma 131.801869
_cell_volume 643.219903
_symmetry_space_group_name_H-M "P -1"
_symmetry_group_IT_number 2
_symmetry_cell_setting 'triclinic'
loop_
_space_group_symop_operation_xyz
x,y,z
-x,-y,-z
loop_
_atom_site_type_symbol
_atom_site_label
_atom_site_fract_x
_atom_site_fract_y
_atom_site_fract_z
Si Si1 0.261334 0.387903 0.495831
Si Si2 0.736129 0.299712 0.073608
Si Si3 0.361011 0.948693 0.430659
Si Si4 0.221366 0.946812 0.715068
Si Si5 0.114087 0.970732 0.855639
Si Si6 0.676877 0.314688 0.330132
Si Si7 0.900617 0.649820 0.091801
Si Si8 0.621755 0.598886 0.824305
O O1 0.267753 0.517536 0.558598
O O2 0.471585 0.490445 0.764453
O O3 0.106506 0.183148 0.396463
O O4 0.176427 0.357685 0.195428
O O5 0.793815 0.202951 0.192831
O O6 0.756627 0.352740 0.270692
O O7 0.861886 0.477952 0.098996
O O8 0.511847 0.136134 0.717631
O O9 0.280722 0.772169 0.459888
O O10 0.500000 0.000000 0.500000
O O11 0.204699 0.920520 0.110398
O O12 0.128980 0.959319 0.696281
O O13 0.109215 0.857459 0.398737
O O14 0.445246 0.142815 0.997372
O O15 0.250559 0.184500 0.044524
O O16 0.767770 0.598061 0.041084
O O17 0.500000 0.500000 0.500000
#
# Coordination Sequence:
#
# PCOD9045081 Si02
#       8
#     2   2   2   2   2   2   2   2
#     4  11  25  44  70 102 131 181 229 278 332 408
#     4  11  23  41  66  98 145 178 220 276 341 398
#     4  11  19  38  67  98 135 185 211 274 337 398
#     4  11  23  43  64 101 142 174 218 285 329 407
#     4  12  24  42  73 100 137 174 230 273 341 398
#     4  11  23  42  65 100 146 174 224 273 343 401
#     4  11  25  43  69  96 133 180 228 276 340 395
#     4  10  23  49  68  96 138 172 227 288 331 395
#
# _framework density 24.874853000000002
#
# number of rings (size 3 to 8) (size 9 to 14) (size 15 to 20)
#    0.000    1.000    3.750    4.875    3.500    3.000 
#    2.250    1.250    0.000    0.000    0.000    0.000 
#    0.000    0.000    0.000    0.000    0.000    0.000 
#
# Total GULP energy -89699.898754 kJ/mol
# GULP energy per Si atom -5606.243672 kJ/mol
# Density = 2.481824 g / cm^3
# Si number density = 24.874853 Si / 1000 Ang^3
#
#
#
# Elastic Constant Matrix: (Units=GPa)
#
#
# Indices 1 2 3 4 5 6 
#
# 1 98.6681 48.4041 21.7065 14.9034 -5.4675 -2.9684
# 2 48.4041 98.1530 40.6085 13.6021 -0.0636 8.3797
# 3 21.7065 40.6085 99.7936 19.2851 -6.6188 -9.0805
# 4 14.9034 13.6021 19.2851 43.7780 5.5958 -5.8395
# 5 -5.4675 -0.0636 -6.6188 5.5958 45.7971 12.4177
# 6 -2.9684 8.3797 -9.0805 -5.8395 12.4177 25.8449
#
#
#
# Elastic Compliance Matrix: (Units=1/GPa)
#
#
# Indices 1 2 3 4 5 6 
#
# 1 0.014017 -0.007083 0.000699 -0.002653 0.001294 0.002931
# 2 -0.007083 0.017152 -0.005888 -0.001707 0.001069 -0.009343
# 3 0.000699 -0.005888 0.013558 -0.003793 0.001034 0.005399
# 4 -0.002653 -0.001707 -0.003793 0.027899 -0.006544 0.008364
# 5 0.001294 0.001069 0.001034 -0.006544 0.026786 -0.014183
# 6 0.002931 -0.009343 0.005399 0.008364 -0.014183 0.052660
#
#
# Mechanical properties :
#
#
# Convention : Reuss Voigt Hill
#
# Bulk Modulus (GPa) = 49.55138 57.56145 53.55641
# Shear Modulus (GPa) = 27.27115 35.47704 31.37410
#
# Velocity S-wave (km/s) = 3.31469 3.78063 3.55530
# Velocity P-wave (km/s) = 5.88328 6.49986 6.19924
#
# Compressibility (1/GPa) = 0.02018107
#
# Stress axis : x y z
#
# Youngs Moduli (GPa) = 71.34353 58.30135 73.75905
#
# Poissons Ratio (x) = 0.41295 -0.05153
# Poissons Ratio (y) = 0.50533 0.43432
# Poissons Ratio (z) = -0.04985 0.34330
#
# Static dielectric constant tensor:
#      x y z
#    x 1.971630 0.004550 0.033310 
#    y 0.004550 1.961210 0.003720 
#    z 0.033310 0.003720 2.014250 
# 
# From -- ./inp_files/307330.got.cif
#   From: 2010.05.17/outbox.cif.g08.bks.cpg/sg2_154_cif.got.tgz:307330.got - 2010.06.03 11:33:40.
