data_PCOD9045809
_publ_section_title
;
Structure prediction by ZEFSAII (Michael W. Deem and Ramdas Pophale) SiO2 
 PCOD9045809
Probable space group: P -1
;
_chemical_formula_sum "Si O2"
_cell_formula_units_Z 12
_cell_length_a 14.197088
_cell_length_b 5.466225
_cell_length_c 20.999012
_cell_angle_alpha 95.577149
_cell_angle_beta 21.046643
_cell_angle_gamma 105.332016
_cell_volume 509.055696
_symmetry_space_group_name_H-M "P -1"
_symmetry_group_IT_number 2
_symmetry_cell_setting 'triclinic'
loop_
_space_group_symop_operation_xyz
x,y,z
-x,-y,-z
loop_
_atom_site_type_symbol
_atom_site_label
_atom_site_fract_x
_atom_site_fract_y
_atom_site_fract_z
Si Si1 0.850515 0.949666 0.661477
Si Si2 0.099376 0.324772 0.625455
Si Si3 0.700047 0.374998 0.075120
Si Si4 0.822931 0.947433 0.044805
Si Si5 0.851982 0.712042 0.780277
Si Si6 0.302547 0.425609 0.685460
O O1 0.929509 0.772662 0.657557
O O2 0.497467 0.784762 0.865117
O O3 0.000000 0.000000 0.500000
O O4 0.959327 0.230157 0.641143
O O5 0.452863 0.440493 0.409722
O O6 0.026783 0.567760 0.698162
O O7 0.940072 0.026501 0.756176
O O8 0.655038 0.133871 0.148691
O O9 0.057453 0.529130 0.842084
O O10 0.627005 0.617750 0.148061
O O11 0.081224 0.098433 0.831699
O O12 0.000000 0.000000 0.000000
O O13 0.500000 0.500000 0.000000
O O14 0.500000 0.500000 0.500000
#
# Coordination Sequence:
#
# PCOD9045809 Si02
#       6
#     2   2   2   2   2   2
#     4  10  26  44  70  99 135 174 223 274 329 396
#     4  10  25  42  69  99 134 171 224 271 334 387
#     4  10  25  42  69  99 134 171 224 271 334 387
#     4  10  24  41  70  94 138 172 222 265 336 386
#     4  10  24  41  70  94 138 172 222 265 336 386
#     4  10  26  44  70  99 135 174 223 274 329 396
#
# _framework density 23.573060000000002
#
# number of rings (size 3 to 8) (size 9 to 14) (size 15 to 20)
#    2.000    0.000    0.000    1.000    9.333    4.000 
#    0.000    0.000    0.000    0.000    0.000    0.000 
#    0.000    0.000    0.000    0.000    0.000    0.000 
#
# Total GULP energy -66867.151744 kJ/mol
# GULP energy per Si atom -5572.262645 kJ/mol
# Density = 2.351941 g / cm^3
# Si number density = 23.573060 Si / 1000 Ang^3
#
#
#
# Elastic Constant Matrix: (Units=GPa)
#
#
# Indices 1 2 3 4 5 6 
#
# 1 80.0463 27.9178 -1.1489 -8.6340 -1.8181 -2.4453
# 2 27.9178 150.4509 14.0774 -9.9273 0.1061 -36.0871
# 3 -1.1489 14.0774 78.8864 -6.9267 -5.8024 -11.3255
# 4 -8.6340 -9.9273 -6.9267 14.2262 3.7290 1.1445
# 5 -1.8181 0.1061 -5.8024 3.7290 47.1476 -5.8191
# 6 -2.4453 -36.0871 -11.3255 1.1445 -5.8191 24.2361
#
#
#
# Elastic Compliance Matrix: (Units=1/GPa)
#
#
# Indices 1 2 3 4 5 6 
#
# 1 0.014230 -0.002944 0.000938 0.007344 -0.000271 -0.002922
# 2 -0.002944 0.011686 0.000987 0.004952 0.001782 0.017758
# 3 0.000938 0.000987 0.014535 0.007035 0.002326 0.008583
# 4 0.007344 0.004952 0.007035 0.082316 -0.004581 0.006416
# 5 -0.000271 0.001782 0.002326 -0.004581 0.023011 0.009454
# 6 -0.002922 0.017758 0.008583 0.006416 0.009454 0.073385
#
#
# Mechanical properties :
#
#
# Convention : Reuss Voigt Hill
#
# Bulk Modulus (GPa) = 26.03317 43.45291 34.74304
# Shear Modulus (GPa) = 21.36713 35.02446 28.19579
#
# Velocity S-wave (km/s) = 3.01395 3.85877 3.46222
# Velocity P-wave (km/s) = 4.81450 6.19086 5.54555
#
# Compressibility (1/GPa) = 0.03841254
#
# Stress axis : x y z
#
# Youngs Moduli (GPa) = 70.27457 85.57566 68.79958
#
# Poissons Ratio (x) = 0.25196 -0.06455
# Poissons Ratio (y) = 0.20691 -0.06792
# Poissons Ratio (z) = -0.06593 -0.08448
#
# Static dielectric constant tensor:
#      x y z
#    x 1.970610 0.013150 -0.073140 
#    y 0.013150 1.969660 -0.006400 
#    z -0.073140 -0.006400 1.991380 
# 
# From -- ./inp_files/25546.got.cif
#   From: 2010.05.17/outbox.cif.g08.bks.cpg/sg2_13_cif.got.tgz:25546.got - 2010.06.03 11:33:40.
