data_PCOD9045495
_publ_section_title
;
Structure prediction by ZEFSAII (Michael W. Deem and Ramdas Pophale) SiO2 
 PCOD9045495
Probable space group: P -1
;
_chemical_formula_sum "Si O2"
_cell_formula_units_Z 16
_cell_length_a 14.529614
_cell_length_b 8.841299
_cell_length_c 11.793948
_cell_angle_alpha 81.845864
_cell_angle_beta 150.008132
_cell_angle_gamma 85.360930
_cell_volume 683.200945
_symmetry_space_group_name_H-M "P -1"
_symmetry_group_IT_number 2
_symmetry_cell_setting 'triclinic'
loop_
_space_group_symop_operation_xyz
x,y,z
-x,-y,-z
loop_
_atom_site_type_symbol
_atom_site_label
_atom_site_fract_x
_atom_site_fract_y
_atom_site_fract_z
Si Si1 0.130493 0.425506 0.033982
Si Si2 0.416458 0.484878 0.188366
Si Si3 0.692294 0.849617 0.437234
Si Si4 0.424263 0.212749 0.070390
Si Si5 0.024483 0.925641 0.907908
Si Si6 0.654166 0.584609 0.264209
Si Si7 0.514309 0.290857 0.600157
Si Si8 0.010407 0.243242 0.734623
O O1 0.191982 0.531073 0.992491
O O2 0.356549 0.314196 0.330898
O O3 0.036817 0.319848 0.875490
O O4 0.000000 0.500000 0.000000
O O5 0.454063 0.589711 0.114022
O O6 0.537961 0.530724 0.412367
O O7 0.489401 0.298556 0.236239
O O8 0.866110 0.852235 0.705540
O O9 0.743314 0.693668 0.423614
O O10 0.523148 0.833357 0.339281
O O11 0.588633 0.026439 0.244796
O O12 0.393632 0.330489 0.917305
O O13 0.208948 0.214056 0.876020
O O14 0.000113 0.069842 0.774332
O O15 0.251895 0.786534 0.167613
O O16 0.000000 0.000000 0.000000
O O17 0.815719 0.391446 0.456027
#
# Coordination Sequence:
#
# PCOD9045495 Si02
#       8
#     2   2   2   2   2   2   2   2
#     4  11  24  41  71 101 139 183 225 279 347 418
#     4  10  24  40  69 101 136 173 234 281 338 416
#     4  11  25  46  70 102 140 177 233 290 342 419
#     4  11  23  46  72  99 137 182 233 295 350 400
#     4  12  28  42  71 101 145 188 227 282 351 414
#     4  11  24  46  72  99 137 184 231 297 349 401
#     4  11  25  44  67 103 143 182 228 278 350 417
#     4  11  25  43  67 103 139 178 241 283 339 421
#
# _framework density 23.419172
#
# number of rings (size 3 to 8) (size 9 to 14) (size 15 to 20)
#    0.000    1.000    1.250    4.500   12.250    1.000 
#    0.000    0.625    0.000    0.000    0.000    0.000 
#    0.000    0.000    0.000    0.000    0.000    0.000 
#
# Total GULP energy -89444.569665 kJ/mol
# GULP energy per Si atom -5590.285604 kJ/mol
# Density = 2.336587 g / cm^3
# Si number density = 23.419172 Si / 1000 Ang^3
#
#
#
# Elastic Constant Matrix: (Units=GPa)
#
#
# Indices 1 2 3 4 5 6 
#
# 1 104.9853 23.6451 31.9429 -6.9668 6.4736 16.9453
# 2 23.6451 98.0934 32.3520 -3.7337 6.9607 13.8815
# 3 31.9429 32.3520 100.8403 -9.2925 11.5661 -1.3933
# 4 -6.9668 -3.7337 -9.2925 44.5202 2.7749 -3.9330
# 5 6.4736 6.9607 11.5661 2.7749 34.2620 -0.3860
# 6 16.9453 13.8815 -1.3933 -3.9330 -0.3860 32.8196
#
#
#
# Elastic Compliance Matrix: (Units=1/GPa)
#
#
# Indices 1 2 3 4 5 6 
#
# 1 0.011779 -0.000804 -0.003377 0.000621 -0.001038 -0.005823
# 2 -0.000804 0.012385 -0.003675 -0.000225 -0.001162 -0.005020
# 3 -0.003377 -0.003675 0.012796 0.002388 -0.003082 0.004091
# 4 0.000621 -0.000225 0.002388 0.023444 -0.002746 0.002653
# 5 -0.001038 -0.001162 -0.003082 -0.002746 0.030892 0.000931
# 6 -0.005823 -0.005020 0.004091 0.002653 0.000931 0.036102
#
#
# Mechanical properties :
#
#
# Convention : Reuss Voigt Hill
#
# Bulk Modulus (GPa) = 47.06903 53.31102 50.19002
# Shear Modulus (GPa) = 33.29052 36.71894 35.00473
#
# Velocity S-wave (km/s) = 3.77438 3.96397 3.87033
# Velocity P-wave (km/s) = 6.25593 6.61544 6.43819
#
# Compressibility (1/GPa) = 0.02124539
#
# Stress axis : x y z
#
# Youngs Moduli (GPa) = 84.89775 80.74535 78.15106
#
# Poissons Ratio (x) = 0.06493 0.26394
# Poissons Ratio (y) = 0.06827 0.28724
# Poissons Ratio (z) = 0.28673 0.29678
#
# Static dielectric constant tensor:
#      x y z
#    x 1.938000 0.024030 -0.016100 
#    y 0.024030 1.939300 -0.015730 
#    z -0.016100 -0.015730 1.860460 
# 
# From -- ./inp_files/187096.got.cif
#   From: 2010.05.17/outbox.cif.g08.bks.cpg/sg2_94_cif.got.tgz:187096.got - 2010.06.03 11:33:40.
