data_PCOD9045605
_publ_section_title
;
Structure prediction by ZEFSAII (Michael W. Deem and Ramdas Pophale) SiO2 
 PCOD9045605
Probable space group: P -1
;
_chemical_formula_sum "Si O2"
_cell_formula_units_Z 16
_cell_length_a 22.590709
_cell_length_b 7.164597
_cell_length_c 16.741477
_cell_angle_alpha 68.400890
_cell_angle_beta 163.358098
_cell_angle_gamma 117.290526
_cell_volume 662.116384
_symmetry_space_group_name_H-M "P -1"
_symmetry_group_IT_number 2
_symmetry_cell_setting 'triclinic'
loop_
_space_group_symop_operation_xyz
x,y,z
-x,-y,-z
loop_
_atom_site_type_symbol
_atom_site_label
_atom_site_fract_x
_atom_site_fract_y
_atom_site_fract_z
Si Si1 0.756656 0.829105 0.696578
Si Si2 0.298559 0.336843 0.114007
Si Si3 0.825488 0.991516 0.591516
Si Si4 0.221971 0.598013 0.216715
Si Si5 0.808788 0.856343 0.161405
Si Si6 0.725438 0.814488 0.312379
Si Si7 0.597447 0.317262 0.217067
Si Si8 0.299447 0.777216 0.127604
O O1 0.736712 0.822937 0.575634
O O2 0.748030 0.605751 0.755262
O O3 0.564228 0.891991 0.472796
O O4 0.000000 0.000000 0.000000
O O5 0.536666 0.313789 0.439906
O O6 0.287252 0.558767 0.099642
O O7 0.241843 0.314520 0.949912
O O8 0.092873 0.129799 0.917298
O O9 0.746529 0.875851 0.422841
O O10 0.724253 0.176731 0.439543
O O11 0.181201 0.727316 0.068728
O O12 0.000000 0.500000 0.000000
O O13 0.074592 0.979538 0.503181
O O14 0.761596 0.059981 0.031680
O O15 0.633668 0.741065 0.022791
O O16 0.741192 0.577202 0.362773
O O17 0.488972 0.766352 0.970679
#
# Coordination Sequence:
#
# PCOD9045605 Si02
#       8
#     2   2   2   2   2   2   2   2
#     4  11  23  40  63  93 131 176 216 272 325 391
#     4  10  24  41  62  94 129 171 218 276 319 395
#     4  11  22  43  68  94 133 178 222 268 339 398
#     4  11  26  40  64  91 132 174 222 275 331 387
#     4  11  24  40  71  95 133 174 223 271 339 397
#     4  10  25  42  67 101 138 168 224 283 333 408
#     4  11  23  44  69 100 132 177 220 279 343 396
#     4  11  23  44  60  92 132 172 218 272 323 392
#
# _framework density 24.164936999999998
#
# number of rings (size 3 to 8) (size 9 to 14) (size 15 to 20)
#    0.000    1.250    1.250    4.500    8.750    1.500 
#    0.000    0.000    0.000    8.250    0.000    0.000 
#    0.000    0.000    0.000    0.000    0.000    0.000 
#
# Total GULP energy -89471.951529 kJ/mol
# GULP energy per Si atom -5591.996971 kJ/mol
# Density = 2.410994 g / cm^3
# Si number density = 24.164937 Si / 1000 Ang^3
#
#
#
# Elastic Constant Matrix: (Units=GPa)
#
#
# Indices 1 2 3 4 5 6 
#
# 1 100.5550 4.2506 26.9337 18.4179 4.4288 11.4737
# 2 4.2506 73.9838 12.3167 0.2717 -2.8378 -7.2630
# 3 26.9337 12.3167 80.0163 24.3492 2.5484 -3.9764
# 4 18.4179 0.2717 24.3492 36.6059 -0.5692 2.3821
# 5 4.4288 -2.8378 2.5484 -0.5692 31.7633 4.5414
# 6 11.4737 -7.2630 -3.9764 2.3821 4.5414 37.1181
#
#
#
# Elastic Compliance Matrix: (Units=1/GPa)
#
#
# Indices 1 2 3 4 5 6 
#
# 1 0.011923 -0.000593 -0.002910 -0.003831 -0.001015 -0.003743
# 2 -0.000593 0.014234 -0.002413 0.001657 0.001227 0.002454
# 3 -0.002910 -0.002413 0.017154 -0.010161 -0.001817 0.003139
# 4 -0.003831 0.001657 -0.010161 0.036174 0.002461 -0.002203
# 5 -0.001015 0.001227 -0.001817 0.002461 0.032463 -0.003770
# 6 -0.003743 0.002454 0.003139 -0.002203 -0.003770 0.029517
#
#
# Mechanical properties :
#
#
# Convention : Reuss Voigt Hill
#
# Bulk Modulus (GPa) = 31.76620 37.95076 34.85848
# Shear Modulus (GPa) = 30.52698 35.16773 32.84735
#
# Velocity S-wave (km/s) = 3.55811 3.81901 3.69087
# Velocity P-wave (km/s) = 5.48219 5.93173 5.71138
#
# Compressibility (1/GPa) = 0.03148001
#
# Stress axis : x y z
#
# Youngs Moduli (GPa) = 83.87277 70.25397 58.29461
#
# Poissons Ratio (x) = 0.04165 0.16963
# Poissons Ratio (y) = 0.04973 0.14065
# Poissons Ratio (z) = 0.24406 0.16951
#
# Static dielectric constant tensor:
#      x y z
#    x 1.959180 -0.023220 -0.010480 
#    y -0.023220 2.004940 0.204050 
#    z -0.010480 0.204050 2.316150 
# 
# From -- ./inp_files/349978.got.cif
#   From: 2010.05.17/outbox.cif.g08.bks.cpg/sg2_175_cif.got.tgz:349978.got - 2010.06.03 11:33:40.
