data_PCOD9045117
_publ_section_title
;
Structure prediction by ZEFSAII (Michael W. Deem and Ramdas Pophale) SiO2 
 PCOD9045117
Probable space group: P -1
;
_chemical_formula_sum "Si O2"
_cell_formula_units_Z 14
_cell_length_a 11.520358
_cell_length_b 19.875541
_cell_length_c 13.693050
_cell_angle_alpha 151.644115
_cell_angle_beta 21.669349
_cell_angle_gamma 148.238094
_cell_volume 540.381171
_symmetry_space_group_name_H-M "P -1"
_symmetry_group_IT_number 2
_symmetry_cell_setting 'triclinic'
loop_
_space_group_symop_operation_xyz
x,y,z
-x,-y,-z
loop_
_atom_site_type_symbol
_atom_site_label
_atom_site_fract_x
_atom_site_fract_y
_atom_site_fract_z
Si Si1 0.921392 0.138507 0.502356
Si Si2 0.884513 0.392595 0.707757
Si Si3 0.382644 0.868176 0.003228
Si Si4 0.619183 0.188945 0.279669
Si Si5 0.789861 0.023879 0.101204
Si Si6 0.805801 0.425849 0.148479
Si Si7 0.277080 0.483092 0.335425
O O1 0.897221 0.281690 0.643621
O O2 0.246642 0.155561 0.334889
O O3 0.032300 0.041814 0.207698
O O4 0.568718 0.059590 0.705552
O O5 0.006984 0.542106 0.856982
O O6 0.119645 0.385563 0.425459
O O7 0.521384 0.402152 0.982913
O O8 0.211731 0.831206 0.984317
O O9 0.268649 0.746537 0.018490
O O10 0.379635 0.030113 0.251047
O O11 0.578307 0.355965 0.528464
O O12 0.755405 0.171362 0.260488
O O13 0.000000 0.000000 0.000000
O O14 0.500000 0.500000 0.500000
O O15 0.000000 0.500000 0.000000
O O16 0.000000 0.500000 0.500000
#
# Coordination Sequence:
#
# PCOD9045117 Si02
#       7
#     2   2   2   2   2   2   2
#     4  11  25  44  75 107 143 192 242 310 368 439
#     4  12  26  46  74 106 147 192 257 298 384 435
#     4  10  23  49  73 112 154 193 248 304 381 453
#     4  10  25  47  74 106 150 197 243 308 374 446
#     4  11  26  48  73 106 142 194 253 303 371 438
#     4  12  25  43  74 109 150 189 241 306 374 450
#     4  12  28  50  72 108 146 203 254 313 373 446
#
# _framework density 25.907637999999999
#
# number of rings (size 3 to 8) (size 9 to 14) (size 15 to 20)
#    0.000    0.857    2.857    2.571    8.000    2.857 
#    0.000    0.000    0.000    0.000    0.000    0.000 
#    0.000    0.000    0.000    0.000    0.000    0.000 
#
# Total GULP energy -78029.334127 kJ/mol
# GULP energy per Si atom -5573.523866 kJ/mol
# Density = 2.584867 g / cm^3
# Si number density = 25.907638 Si / 1000 Ang^3
#
#
#
# Elastic Constant Matrix: (Units=GPa)
#
#
# Indices 1 2 3 4 5 6 
#
# 1 103.4551 32.3340 1.1590 -18.8788 -12.6631 -31.4689
# 2 32.3340 133.5339 31.8988 -4.7295 9.7465 -41.3071
# 3 1.1590 31.8988 159.8779 -28.5916 13.2371 9.7632
# 4 -18.8788 -4.7295 -28.5916 38.3715 -1.8119 0.7441
# 5 -12.6631 9.7465 13.2371 -1.8119 42.2855 3.9650
# 6 -31.4689 -41.3071 9.7632 0.7441 3.9650 52.5938
#
#
#
# Elastic Compliance Matrix: (Units=1/GPa)
#
#
# Indices 1 2 3 4 5 6 
#
# 1 0.013976 -0.001571 0.000791 0.007333 0.003997 0.006577
# 2 -0.001571 0.011461 -0.002885 -0.001829 -0.003118 0.008858
# 3 0.000791 -0.002885 0.008222 0.006173 -0.001096 -0.003324
# 4 0.007333 -0.001829 0.006173 0.034117 0.002037 0.001169
# 5 0.003997 -0.003118 -0.001096 0.002037 0.026169 -0.001855
# 6 0.006577 0.008858 -0.003324 0.001169 -0.001855 0.030647
#
#
# Mechanical properties :
#
#
# Convention : Reuss Voigt Hill
#
# Bulk Modulus (GPa) = 37.97992 58.62782 48.30387
# Shear Modulus (GPa) = 35.53697 48.74851 42.14274
#
# Velocity S-wave (km/s) = 3.70764 4.34248 4.03755
# Velocity P-wave (km/s) = 5.74633 6.91531 6.35774
#
# Compressibility (1/GPa) = 0.02632970
#
# Stress axis : x y z
#
# Youngs Moduli (GPa) = 71.55079 87.24967 121.61975
#
# Poissons Ratio (x) = 0.13704 -0.09619
# Poissons Ratio (y) = 0.11238 0.35091
# Poissons Ratio (z) = -0.05659 0.25174
#
# Static dielectric constant tensor:
#      x y z
#    x 2.161720 -0.111560 -0.105030 
#    y -0.111560 1.950620 -0.083810 
#    z -0.105030 -0.083810 2.003400 
# 
# From -- ./inp_files/524079.got.cif
#   From: 2010.05.17/outbox.cif.g08.bks.cpg/sg2_263_cif.got.tgz:524079.got - 2010.06.03 11:33:40.
