data_PCOD9045288
_publ_section_title
;
Structure prediction by ZEFSAII (Michael W. Deem and Ramdas Pophale) SiO2 
 PCOD9045288
Probable space group: P -1
;
_chemical_formula_sum "Si O2"
_cell_formula_units_Z 14
_cell_length_a 7.799085
_cell_length_b 11.907513
_cell_length_c 11.493372
_cell_angle_alpha 49.323459
_cell_angle_beta 76.737354
_cell_angle_gamma 51.476240
_cell_volume 604.620375
_symmetry_space_group_name_H-M "P -1"
_symmetry_group_IT_number 2
_symmetry_cell_setting 'triclinic'
loop_
_space_group_symop_operation_xyz
x,y,z
-x,-y,-z
loop_
_atom_site_type_symbol
_atom_site_label
_atom_site_fract_x
_atom_site_fract_y
_atom_site_fract_z
Si Si1 0.444926 0.062438 0.205251
Si Si2 0.820164 0.709169 0.115697
Si Si3 0.789772 0.403864 0.406019
Si Si4 0.264424 0.046474 0.464600
Si Si5 0.033436 0.307290 0.651620
Si Si6 0.634313 0.339177 0.260630
Si Si7 0.249409 0.472204 0.055641
O O1 0.388634 0.257789 0.128590
O O2 0.293154 0.038640 0.326458
O O3 0.712110 0.880693 0.299795
O O4 0.364707 0.101172 0.058310
O O5 0.722489 0.610876 0.253748
O O6 0.952007 0.719567 0.193580
O O7 0.005180 0.565160 0.084940
O O8 0.627976 0.389188 0.362488
O O9 0.839146 0.341060 0.575800
O O10 0.042992 0.246653 0.414446
O O11 0.254699 0.882004 0.615301
O O12 0.500000 0.000000 0.500000
O O13 0.000000 0.500000 0.500000
O O14 0.394291 0.455994 0.152893
O O15 0.764447 0.395462 0.129870
#
# Coordination Sequence:
#
# PCOD9045288 Si02
#       7
#     2   2   2   2   2   2   2
#     4  12  21  40  69  96 123 169 215 262 314 376
#     4  11  22  41  66  95 128 172 217 252 315 388
#     4  11  20  39  61  96 132 169 208 263 316 374
#     4  12  21  36  66  97 127 162 214 264 315 375
#     4  10  24  39  64  96 130 168 216 262 310 379
#     4  11  23  36  62 100 133 161 207 269 322 368
#     4  11  22  40  67  97 130 165 208 270 317 374
#
# _framework density 23.155024000000001
#
# number of rings (size 3 to 8) (size 9 to 14) (size 15 to 20)
#    0.000    0.857    5.714    2.143    2.000    0.000 
#    0.000    0.714    0.000    8.571    0.000    0.000 
#    0.000    0.000    0.000    0.000    0.000    0.000 
#
# Total GULP energy -78232.738518 kJ/mol
# GULP energy per Si atom -5588.052751 kJ/mol
# Density = 2.310232 g / cm^3
# Si number density = 23.155024 Si / 1000 Ang^3
#
#
#
# Elastic Constant Matrix: (Units=GPa)
#
#
# Indices 1 2 3 4 5 6 
#
# 1 58.8008 19.4450 39.2132 2.3027 22.1708 20.5271
# 2 19.4450 89.9494 30.9876 9.0362 8.6929 2.0044
# 3 39.2132 30.9876 154.4086 7.5932 20.5307 16.0227
# 4 2.3027 9.0362 7.5932 37.8696 19.3003 12.5386
# 5 22.1708 8.6929 20.5307 19.3003 54.1406 12.8288
# 6 20.5271 2.0044 16.0227 12.5386 12.8288 34.0266
#
#
#
# Elastic Compliance Matrix: (Units=1/GPa)
#
#
# Indices 1 2 3 4 5 6 
#
# 1 0.030504 -0.004860 -0.004275 0.010657 -0.010040 -0.016244
# 2 -0.004860 0.013010 -0.001746 -0.004432 0.001151 0.004187
# 3 -0.004275 -0.001746 0.008104 -0.000322 -0.000754 -0.000732
# 4 0.010657 -0.004432 -0.000322 0.038943 -0.013822 -0.015156
# 5 -0.010040 0.001151 -0.000754 -0.013822 0.027343 0.001129
# 6 -0.016244 0.004187 -0.000732 -0.015156 0.001129 0.044446
#
#
# Mechanical properties :
#
#
# Convention : Reuss Voigt Hill
#
# Bulk Modulus (GPa) = 33.49389 53.60560 43.54975
# Shear Modulus (GPa) = 25.76472 39.44154 32.60313
#
# Velocity S-wave (km/s) = 3.33934 4.13167 3.75645
# Velocity P-wave (km/s) = 5.41892 6.77952 6.13704
#
# Compressibility (1/GPa) = 0.02985620
#
# Stress axis : x y z
#
# Youngs Moduli (GPa) = 32.78309 76.86260 123.38915
#
# Poissons Ratio (x) = 0.37354 0.52746
# Poissons Ratio (y) = 0.15932 0.21548
# Poissons Ratio (z) = 0.14014 0.13423
#
# Static dielectric constant tensor:
#      x y z
#    x 1.896010 0.039890 0.055150 
#    y 0.039890 1.894100 0.049990 
#    z 0.055150 0.049990 1.890310 
# 
# From -- ./inp_files/174194.got.cif
#   From: 2010.05.17/outbox.cif.g08.bks.cpg/sg2_88_cif.got.tgz:174194.got - 2010.06.03 11:33:40.
