data_PCOD9045383
_publ_section_title
;
Structure prediction by ZEFSAII (Michael W. Deem and Ramdas Pophale) SiO2 
 PCOD9045383
Probable space group: P -1
;
_chemical_formula_sum "Si O2"
_cell_formula_units_Z 13
_cell_length_a 8.143478
_cell_length_b 12.752543
_cell_length_c 12.136918
_cell_angle_alpha 53.895079
_cell_angle_beta 82.688296
_cell_angle_gamma 126.973893
_cell_volume 541.562340
_symmetry_space_group_name_H-M "P -1"
_symmetry_group_IT_number 2
_symmetry_cell_setting 'triclinic'
loop_
_space_group_symop_operation_xyz
x,y,z
-x,-y,-z
loop_
_atom_site_type_symbol
_atom_site_label
_atom_site_fract_x
_atom_site_fract_y
_atom_site_fract_z
Si Si1 0.777209 0.766740 0.587309
Si Si2 0.093856 0.718371 0.550354
Si Si3 0.741803 0.061929 0.177637
Si Si4 0.530931 0.378901 0.521292
Si Si5 0.830213 0.276443 0.826338
Si Si6 0.072788 0.414569 0.106947
Si Si7 0.500000 0.500000 0.000000
O O1 0.585282 0.704698 0.544269
O O2 0.560520 0.561270 0.825201
O O3 0.967820 0.777613 0.505975
O O4 0.000000 0.000000 0.500000
O O5 0.414741 0.900384 0.350393
O O6 0.849077 0.443569 0.713382
O O7 0.111049 0.713587 0.684353
O O8 0.668368 0.870933 0.255425
O O9 0.965276 0.214852 0.170309
O O10 0.883443 0.253997 0.957998
O O11 0.500000 0.500000 0.500000
O O12 0.893832 0.587753 0.359039
O O13 0.500000 0.000000 0.000000
O O14 0.430883 0.615492 0.954694
O O15 0.000000 0.500000 0.000000
#
# Coordination Sequence:
#
# PCOD9045383 Si02
#       7
#     2   2   2   2   2   2   1
#     4  11  25  44  70 104 140 180 231 292 354 417
#     4  10  24  41  70 101 131 180 231 282 350 421
#     4  11  24  44  70  95 138 180 229 284 352 418
#     4  11  27  47  71 104 141 182 233 293 355 425
#     4  11  26  46  69  98 136 186 235 282 341 426
#     4  11  21  41  68 100 137 179 226 292 352 420
#     4  10  24  40  64 100 142 176 236 284 348 420
#
# _framework density 24.004622999999999
#
# number of rings (size 3 to 8) (size 9 to 14) (size 15 to 20)
#    0.000    1.231    1.538    3.231    8.615    1.846 
#    5.538    0.000    0.000    0.000    0.000    0.000 
#    0.000    0.000    0.000    0.000    0.000    0.000 
#
# Total GULP energy -72424.224048 kJ/mol
# GULP energy per Si atom -5571.094158 kJ/mol
# Density = 2.394999 g / cm^3
# Si number density = 24.004623 Si / 1000 Ang^3
#
#
#
# Elastic Constant Matrix: (Units=GPa)
#
#
# Indices 1 2 3 4 5 6 
#
# 1 80.7576 3.1813 18.7498 -8.2678 10.0962 -38.4901
# 2 3.1813 93.2380 14.6378 -23.4532 0.8170 -16.0843
# 3 18.7498 14.6378 77.7454 -16.5850 2.9400 -14.6035
# 4 -8.2678 -23.4532 -16.5850 47.1250 3.0711 13.3246
# 5 10.0962 0.8170 2.9400 3.0711 25.7675 8.8741
# 6 -38.4901 -16.0843 -14.6035 13.3246 8.8741 41.7160
#
#
#
# Elastic Compliance Matrix: (Units=1/GPa)
#
#
# Indices 1 2 3 4 5 6 
#
# 1 0.034981 0.005954 -0.001135 -0.000905 -0.027544 0.040323
# 2 0.005954 0.013784 -0.000722 0.005167 -0.006874 0.010368
# 3 -0.001135 -0.000722 0.014818 0.003934 -0.002794 0.003200
# 4 -0.000905 0.005167 0.003934 0.026722 -0.001485 -0.005685
# 5 -0.027544 -0.006874 -0.002794 -0.001485 0.064909 -0.042376
# 6 0.040323 0.010368 0.003200 -0.005685 -0.042376 0.077124
#
#
# Mechanical properties :
#
#
# Convention : Reuss Voigt Hill
#
# Bulk Modulus (GPa) = 13.93171 36.09765 25.01468
# Shear Modulus (GPa) = 20.15580 37.26651 28.71115
#
# Velocity S-wave (km/s) = 2.90084 3.94442 3.46217
# Velocity P-wave (km/s) = 4.12749 5.98456 5.14058
#
# Compressibility (1/GPa) = 0.07177869
#
# Stress axis : x y z
#
# Youngs Moduli (GPa) = 28.58707 72.54870 67.48562
#
# Poissons Ratio (x) = -0.43197 0.07658
# Poissons Ratio (y) = -0.17021 0.04869
# Poissons Ratio (z) = 0.03244 0.05235
#
# Static dielectric constant tensor:
#      x y z
#    x 1.701760 -0.182630 0.140370 
#    y -0.182630 1.833160 0.102810 
#    z 0.140370 0.102810 1.775390 
# 
# From -- ./inp_files/116207.got.cif
#   From: 2010.05.17/outbox.cif.g08.bks.cpg/sg2_59_cif.got.tgz:116207.got - 2010.06.03 11:33:40.
