data_PCOD9045432
_publ_section_title
;
Structure prediction by ZEFSAII (Michael W. Deem and Ramdas Pophale) SiO2 
 PCOD9045432
Probable space group: P -1
;
_chemical_formula_sum "Si O2"
_cell_formula_units_Z 15
_cell_length_a 6.768297
_cell_length_b 7.141861
_cell_length_c 17.317005
_cell_angle_alpha 99.055887
_cell_angle_beta 82.637367
_cell_angle_gamma 63.674135
_cell_volume 722.139206
_symmetry_space_group_name_H-M "P -1"
_symmetry_group_IT_number 2
_symmetry_cell_setting 'triclinic'
loop_
_space_group_symop_operation_xyz
x,y,z
-x,-y,-z
loop_
_atom_site_type_symbol
_atom_site_label
_atom_site_fract_x
_atom_site_fract_y
_atom_site_fract_z
Si Si1 0.430781 0.281613 0.774666
Si Si2 0.007291 0.546648 0.375620
Si Si3 0.378429 0.361651 0.473010
Si Si4 0.500000 0.000000 0.000000
Si Si5 0.203414 0.898287 0.127599
Si Si6 0.144102 0.716143 0.742413
Si Si7 0.106108 0.292336 0.926801
Si Si8 0.721411 0.977355 0.343383
O O1 0.659589 0.191211 0.805426
O O2 0.360832 0.503561 0.748264
O O3 0.233726 0.326830 0.849817
O O4 0.420828 0.110367 0.705017
O O5 0.800633 0.612692 0.450725
O O6 0.994691 0.372289 0.308039
O O7 0.943347 0.764877 0.346549
O O8 0.234793 0.452945 0.407418
O O9 0.500000 0.500000 0.500000
O O10 0.569335 0.120646 0.430504
O O11 0.627349 0.097592 0.944097
O O12 0.284991 0.094424 0.955598
O O13 0.088250 0.757191 0.097873
O O14 0.010053 0.140058 0.170800
O O15 0.214188 0.868319 0.699937
O O16 0.000000 0.500000 0.000000
#
# Coordination Sequence:
#
# PCOD9045432 Si02
#       8
#     2   2   2   1   2   2   2   2
#     4  10  24  42  63  95 124 165 213 258 316 375
#     4  10  24  42  64  94 129 164 212 259 311 371
#     4  11  22  42  64  94 128 169 208 258 313 370
#     4  10  24  40  66  90 122 168 208 256 320 370
#     4  11  23  43  65  93 128 166 210 263 316 376
#     4  11  22  43  66  91 128 167 209 263 313 372
#     4  11  23  42  63  94 126 163 209 261 316 377
#     4  11  22  43  65  93 128 167 211 259 314 372
#
# _framework density 20.771619000000001
#
# number of rings (size 3 to 8) (size 9 to 14) (size 15 to 20)
#    0.000    1.333    2.667    2.400    0.000    4.800 
#    4.800    0.000    0.000    0.000    0.000    0.000 
#    0.000    0.000    0.000    0.000    0.000    0.000 
#
# Total GULP energy -83632.136095 kJ/mol
# GULP energy per Si atom -5575.475740 kJ/mol
# Density = 2.072434 g / cm^3
# Si number density = 20.771619 Si / 1000 Ang^3
#
#
#
# Elastic Constant Matrix: (Units=GPa)
#
#
# Indices 1 2 3 4 5 6 
#
# 1 56.3090 24.4577 -1.0893 8.1315 6.4642 9.7520
# 2 24.4577 122.5446 25.7665 -1.3266 18.5486 14.6134
# 3 -1.0893 25.7665 52.5031 18.3982 10.6425 13.4034
# 4 8.1315 -1.3266 18.3982 52.1263 -0.2101 3.1570
# 5 6.4642 18.5486 10.6425 -0.2101 27.9990 -3.9282
# 6 9.7520 14.6134 13.4034 3.1570 -3.9282 13.5139
#
#
#
# Elastic Compliance Matrix: (Units=1/GPa)
#
#
# Indices 1 2 3 4 5 6 
#
# 1 0.029708 -0.002365 0.019190 -0.009049 -0.018429 -0.041157
# 2 -0.002365 0.011705 -0.001732 0.001977 -0.008231 -0.012088
# 3 0.019190 -0.001732 0.049401 -0.016589 -0.031479 -0.066247
# 4 -0.009049 0.001977 -0.016589 0.025466 0.009764 0.017734
# 5 -0.018429 -0.008231 -0.031479 0.009764 0.067385 0.070728
# 6 -0.041157 -0.012088 -0.066247 0.017734 0.070728 0.198890
#
#
# Mechanical properties :
#
#
# Convention : Reuss Voigt Hill
#
# Bulk Modulus (GPa) = 8.26441 36.62516 22.44478
# Shear Modulus (GPa) = 12.73233 30.87597 21.80415
#
# Velocity S-wave (km/s) = 2.47850 3.85963 3.24344
# Velocity P-wave (km/s) = 3.48970 6.12641 4.98553
#
# Compressibility (1/GPa) = 0.12100082
#
# Stress axis : x y z
#
# Youngs Moduli (GPa) = 33.66125 85.43238 20.24265
#
# Poissons Ratio (x) = 0.20203 -0.38846
# Poissons Ratio (y) = 0.07960 0.03506
# Poissons Ratio (z) = -0.64597 0.14797
#
# Static dielectric constant tensor:
#      x y z
#    x 1.721540 -0.014890 -0.011600 
#    y -0.014890 1.733370 -0.013830 
#    z -0.011600 -0.013830 1.750790 
# 
# From -- ./inp_files/7807.got.cif
#   From: 2010.05.17/outbox.cif.g08.bks.cpg/sg2_4_cif.got.tgz:7807.got - 2010.06.03 11:33:40.
