data_PCOD9045265
_publ_section_title
;
Structure prediction by ZEFSAII (Michael W. Deem and Ramdas Pophale) SiO2 
 PCOD9045265
Probable space group: P -1
;
_chemical_formula_sum "Si O2"
_cell_formula_units_Z 15
_cell_length_a 8.812334
_cell_length_b 7.908673
_cell_length_c 13.940068
_cell_angle_alpha 77.530122
_cell_angle_beta 127.410542
_cell_angle_gamma 124.532903
_cell_volume 623.350791
_symmetry_space_group_name_H-M "P -1"
_symmetry_group_IT_number 2
_symmetry_cell_setting 'triclinic'
loop_
_space_group_symop_operation_xyz
x,y,z
-x,-y,-z
loop_
_atom_site_type_symbol
_atom_site_label
_atom_site_fract_x
_atom_site_fract_y
_atom_site_fract_z
Si Si1 0.768848 0.666708 0.066838
Si Si2 0.405464 0.261867 0.466014
Si Si3 0.382934 0.248163 0.667782
Si Si4 0.500000 0.000000 0.000000
Si Si5 0.901068 0.011305 0.227211
Si Si6 0.729143 0.403752 0.408052
Si Si7 0.605473 0.874650 0.858990
Si Si8 0.878084 0.370812 0.873601
O O1 0.865098 0.820097 0.175090
O O2 0.912498 0.564800 0.124363
O O3 0.500000 0.500000 0.000000
O O4 0.760009 0.783832 0.953724
O O5 0.500000 0.500000 0.500000
O O6 0.344256 0.148268 0.559576
O O7 0.595739 0.271947 0.469528
O O8 0.167456 0.166582 0.330964
O O9 0.252009 0.082775 0.723085
O O10 0.296940 0.400957 0.622753
O O11 0.659311 0.381520 0.770371
O O12 0.494961 0.877577 0.916402
O O13 0.223156 0.905695 0.892389
O O14 0.584220 0.263223 0.277987
O O15 0.000000 0.500000 0.500000
O O16 0.757116 0.119054 0.860048
O O17 0.000000 0.500000 0.000000
#
# Coordination Sequence:
#
# PCOD9045265 Si02
#       8
#     2   2   2   1   2   2   2   2
#     4  11  25  44  70 105 142 191 241 304 367 435
#     4  10  25  44  70 103 142 193 242 297 361 437
#     4  11  25  46  70 108 143 195 244 302 366 442
#     4  10  24  38  78 104 136 190 234 300 364 428
#     4  11  22  46  70 106 146 186 244 297 371 432
#     4  11  26  49  73 103 145 197 248 303 369 437
#     4  11  24  44  70 103 143 186 246 291 375 420
#     4  12  25  43  69 103 147 189 244 303 366 431
#
# _framework density 24.063496000000001
#
# number of rings (size 3 to 8) (size 9 to 14) (size 15 to 20)
#    0.000    1.067    1.333    4.000    5.600    8.533 
#    0.000    2.000    0.000    0.000    0.000    0.000 
#    0.000    0.000    0.000    0.000    0.000    0.000 
#
# Total GULP energy -83634.246137 kJ/mol
# GULP energy per Si atom -5575.616409 kJ/mol
# Density = 2.400873 g / cm^3
# Si number density = 24.063496 Si / 1000 Ang^3
#
#
#
# Elastic Constant Matrix: (Units=GPa)
#
#
# Indices 1 2 3 4 5 6 
#
# 1 181.2053 23.8096 89.2947 16.7916 22.3026 -3.5240
# 2 23.8096 72.6023 41.0558 8.7911 5.5309 6.7527
# 3 89.2947 41.0558 185.8158 35.9625 19.4416 9.8852
# 4 16.7916 8.7911 35.9625 39.2319 -2.7212 7.4815
# 5 22.3026 5.5309 19.4416 -2.7212 63.4938 0.1886
# 6 -3.5240 6.7527 9.8852 7.4815 0.1886 20.7063
#
#
#
# Elastic Compliance Matrix: (Units=1/GPa)
#
#
# Indices 1 2 3 4 5 6 
#
# 1 0.007606 -0.000693 -0.003362 -0.000784 -0.001625 0.003423
# 2 -0.000693 0.016073 -0.003026 0.000215 -0.000209 -0.003991
# 3 -0.003362 -0.003026 0.009084 -0.005987 -0.001588 -0.001744
# 4 -0.000784 0.000215 -0.005987 0.033305 0.003545 -0.009411
# 5 -0.001625 -0.000209 -0.001588 0.003545 0.016980 -0.000886
# 6 0.003423 -0.003991 -0.001744 -0.009411 -0.000886 0.054420
#
#
# Mechanical properties :
#
#
# Convention : Reuss Voigt Hill
#
# Bulk Modulus (GPa) = 53.76123 83.10485 68.43304
# Shear Modulus (GPa) = 31.67976 43.71729 37.69852
#
# Velocity S-wave (km/s) = 3.63231 4.26696 3.96236
# Velocity P-wave (km/s) = 6.32309 7.67375 7.03093
#
# Compressibility (1/GPa) = 0.01860076
#
# Stress axis : x y z
#
# Youngs Moduli (GPa) = 131.47930 62.21619 110.08679
#
# Poissons Ratio (x) = 0.04309 0.37015
# Poissons Ratio (y) = 0.09106 0.33311
# Poissons Ratio (z) = 0.44208 0.18826
#
# Static dielectric constant tensor:
#      x y z
#    x 1.934330 0.034050 -0.012600 
#    y 0.034050 1.985340 -0.101090 
#    z -0.012600 -0.101090 1.901170 
# 
# From -- ./inp_files/237266.got.cif
#   From: 2010.05.17/outbox.cif.g08.bks.cpg/sg2_119_cif.got.tgz:237266.got - 2010.06.03 11:33:40.
