data_PCOD9045385
_publ_section_title
;
Structure prediction by ZEFSAII (Michael W. Deem and Ramdas Pophale) SiO2 
 PCOD9045385
Probable space group: P -1
;
_chemical_formula_sum "Si O2"
_cell_formula_units_Z 15
_cell_length_a 21.765682
_cell_length_b 5.218231
_cell_length_c 14.461957
_cell_angle_alpha 82.706896
_cell_angle_beta 24.063037
_cell_angle_gamma 94.201419
_cell_volume 587.171213
_symmetry_space_group_name_H-M "P -1"
_symmetry_group_IT_number 2
_symmetry_cell_setting 'triclinic'
loop_
_space_group_symop_operation_xyz
x,y,z
-x,-y,-z
loop_
_atom_site_type_symbol
_atom_site_label
_atom_site_fract_x
_atom_site_fract_y
_atom_site_fract_z
Si Si1 0.435962 0.421267 0.937820
Si Si2 0.149945 0.474238 0.372314
Si Si3 0.192168 0.972369 0.150315
Si Si4 0.214366 0.330956 0.627207
Si Si5 0.895693 0.789163 0.030486
Si Si6 0.876405 0.300681 0.411025
Si Si7 0.615357 0.852343 0.317664
Si Si8 0.500000 0.000000 0.000000
O O1 0.344759 0.547459 0.127471
O O2 0.288162 0.242710 0.075092
O O3 0.487668 0.201532 0.925982
O O4 0.601952 0.640307 0.646303
O O5 0.176961 0.685444 0.238836
O O6 0.083498 0.575358 0.546876
O O7 0.009660 0.134241 0.578408
O O8 0.301172 0.046489 0.903503
O O9 0.154418 0.489217 0.627036
O O10 0.204128 0.435424 0.740100
O O11 0.077893 0.996559 0.815924
O O12 0.957301 0.709745 0.855282
O O13 0.775369 0.931336 0.162461
O O14 0.688567 0.029479 0.694947
O O15 0.500000 0.500000 0.500000
O O16 0.500000 0.000000 0.500000
#
# Coordination Sequence:
#
# PCOD9045385 Si02
#       8
#     2   2   2   2   2   2   2   1
#     4  11  24  46  70 107 151 193 255 313 385 467
#     4  11  26  43  77 110 152 202 252 318 396 465
#     4  11  26  47  73 110 150 199 260 323 388 468
#     4  10  25  44  74 106 141 202 247 318 386 464
#     4  11  26  48  74 106 149 194 257 316 388 458
#     4  11  24  43  69 109 146 189 243 311 381 462
#     4  12  31  53  82 114 155 211 268 329 393 467
#     4  10  24  40  64 106 142 194 234 300 372 458
#
# _framework density 25.546209999999999
#
# number of rings (size 3 to 8) (size 9 to 14) (size 15 to 20)
#    0.000    1.067    1.333    2.400   13.067    2.133 
#    4.800    0.000    0.000    0.000    0.000    0.000 
#    0.000    0.000    0.000    0.000    0.000    0.000 
#
# Total GULP energy -83662.231503 kJ/mol
# GULP energy per Si atom -5577.482100 kJ/mol
# Density = 2.548807 g / cm^3
# Si number density = 25.546210 Si / 1000 Ang^3
#
#
#
# Elastic Constant Matrix: (Units=GPa)
#
#
# Indices 1 2 3 4 5 6 
#
# 1 91.5571 6.3280 53.5396 4.0903 24.7720 -2.4517
# 2 6.3280 58.5396 40.6840 14.1382 8.8876 -6.6512
# 3 53.5396 40.6840 197.8892 18.8084 16.6768 12.7783
# 4 4.0903 14.1382 18.8084 39.8353 -3.9688 -3.8102
# 5 24.7720 8.8876 16.6768 -3.9688 56.8909 -5.5023
# 6 -2.4517 -6.6512 12.7783 -3.8102 -5.5023 25.8762
#
#
#
# Elastic Compliance Matrix: (Units=1/GPa)
#
#
# Indices 1 2 3 4 5 6 
#
# 1 0.014763 0.002648 -0.004203 -0.000729 -0.005380 0.002904
# 2 0.002648 0.022983 -0.005129 -0.005606 -0.002931 0.007243
# 3 -0.004203 -0.005129 0.007862 -0.002072 -0.000397 -0.005989
# 4 -0.000729 -0.005606 -0.002072 0.029022 0.004280 0.004697
# 5 -0.005380 -0.002931 -0.000397 0.004280 0.021186 0.004068
# 6 0.002904 0.007243 -0.005989 0.004697 0.004068 0.045297
#
#
# Mechanical properties :
#
#
# Convention : Reuss Voigt Hill
#
# Bulk Modulus (GPa) = 31.01817 61.00989 46.01403
# Shear Modulus (GPa) = 30.26106 41.01610 35.63858
#
# Velocity S-wave (km/s) = 3.44548 4.01130 3.73911
# Velocity P-wave (km/s) = 5.29120 6.73706 6.05743
#
# Compressibility (1/GPa) = 0.03223917
#
# Stress axis : x y z
#
# Youngs Moduli (GPa) = 67.73642 43.51058 127.18913
#
# Poissons Ratio (x) = -0.11523 0.53464
# Poissons Ratio (y) = -0.17939 0.65241
# Poissons Ratio (z) = 0.28473 0.22319
#
# Static dielectric constant tensor:
#      x y z
#    x 2.064680 -0.031760 -0.034680 
#    y -0.031760 1.024850 -0.237650 
#    z -0.034680 -0.237650 1.938890 
# 
# From -- ./inp_files/542137.got.cif
#   From: 2010.05.17/outbox.cif.g08.bks.cpg/sg2_272_cif.got.tgz:542137.got - 2010.06.03 11:33:40.
