data_PCOD9045666
_publ_section_title
;
Structure prediction by ZEFSAII (Michael W. Deem and Ramdas Pophale) SiO2 
 PCOD9045666
Probable space group: P -1
;
_chemical_formula_sum "Si O2"
_cell_formula_units_Z 15
_cell_length_a 10.793962
_cell_length_b 10.068092
_cell_length_c 13.671171
_cell_angle_alpha 56.153872
_cell_angle_beta 32.225124
_cell_angle_gamma 51.564220
_cell_volume 618.853121
_symmetry_space_group_name_H-M "P -1"
_symmetry_group_IT_number 2
_symmetry_cell_setting 'triclinic'
loop_
_space_group_symop_operation_xyz
x,y,z
-x,-y,-z
loop_
_atom_site_type_symbol
_atom_site_label
_atom_site_fract_x
_atom_site_fract_y
_atom_site_fract_z
Si Si1 0.000000 0.000000 0.500000
Si Si2 0.265021 0.520066 0.001764
Si Si3 0.750517 0.840987 0.886438
Si Si4 0.168221 0.110900 0.623767
Si Si5 0.235064 0.404230 0.580465
Si Si6 0.209179 0.585075 0.341269
Si Si7 0.983348 0.848322 0.933275
Si Si8 0.482237 0.853437 0.359771
O O1 0.276177 0.883167 0.403788
O O2 0.877877 0.873760 0.690079
O O3 0.544176 0.503124 0.849213
O O4 0.163864 0.675375 0.930013
O O5 0.298242 0.336014 0.010489
O O6 0.048865 0.550399 0.213583
O O7 0.932637 0.831219 0.859572
O O8 0.500000 0.000000 0.000000
O O9 0.277849 0.241449 0.547790
O O10 0.924493 0.220195 0.679696
O O11 0.352172 0.990748 0.473346
O O12 0.089703 0.001848 0.802735
O O13 0.273557 0.548592 0.427532
O O14 0.412829 0.331930 0.583038
O O15 0.000000 0.500000 0.500000
O O16 0.721530 0.887378 0.144347
#
# Coordination Sequence:
#
# PCOD9045666 Si02
#       8
#     1   2   2   2   2   2   2   2
#     4  12  26  42  72 102 136 184 242 288 346 416
#     4  11  26  43  70 101 143 183 231 291 352 419
#     4  12  25  45  71 102 139 183 234 289 353 419
#     4  11  23  42  74  99 139 187 233 287 345 420
#     4  10  25  46  67 104 143 185 233 289 351 413
#     4  10  24  41  65  99 137 182 231 284 342 408
#     4  11  24  45  68 102 140 186 234 287 348 412
#     4  11  24  42  68 101 136 181 237 283 344 414
#
# _framework density 24.238384
#
# number of rings (size 3 to 8) (size 9 to 14) (size 15 to 20)
#    0.000    1.067    2.667    2.400    1.867    7.467 
#    0.000    1.333    0.000    0.000    0.000    0.000 
#    0.000    0.000    0.000    0.000    0.000    0.000 
#
# Total GULP energy -83730.200778 kJ/mol
# GULP energy per Si atom -5582.013385 kJ/mol
# Density = 2.418322 g / cm^3
# Si number density = 24.238384 Si / 1000 Ang^3
#
#
#
# Elastic Constant Matrix: (Units=GPa)
#
#
# Indices 1 2 3 4 5 6 
#
# 1 52.1746 36.5386 23.2512 -2.1679 -9.4031 -25.3639
# 2 36.5386 153.3685 79.4082 -7.5093 -2.5585 -34.2657
# 3 23.2512 79.4082 125.7773 9.4383 -14.9158 -23.0136
# 4 -2.1679 -7.5093 9.4383 51.2579 -14.4062 1.6087
# 5 -9.4031 -2.5585 -14.9158 -14.4062 30.7621 -0.7706
# 6 -25.3639 -34.2657 -23.0136 1.6087 -0.7706 53.4083
#
#
#
# Elastic Compliance Matrix: (Units=1/GPa)
#
#
# Indices 1 2 3 4 5 6 
#
# 1 0.029722 -0.004383 0.000414 0.003184 0.010702 0.011540
# 2 -0.004383 0.011494 -0.006450 0.001889 -0.002566 0.002420
# 3 0.000414 -0.006450 0.013019 -0.001969 0.005026 0.001800
# 4 0.003184 0.001889 -0.001969 0.023377 0.011157 0.001333
# 5 0.010702 -0.002566 0.005026 0.011157 0.043375 0.005892
# 6 0.011540 0.002420 0.001800 0.001333 0.005892 0.026578
#
#
# Mechanical properties :
#
#
# Convention : Reuss Voigt Hill
#
# Bulk Modulus (GPa) = 29.94081 67.74626 48.84353
# Shear Modulus (GPa) = 27.84971 39.89381 33.87176
#
# Velocity S-wave (km/s) = 3.39336 4.06136 3.74229
# Velocity P-wave (km/s) = 5.26618 7.07132 6.23443
#
# Compressibility (1/GPa) = 0.03339923
#
# Stress axis : x y z
#
# Youngs Moduli (GPa) = 33.64469 87.00042 76.80976
#
# Poissons Ratio (x) = 0.38130 -0.03182
# Poissons Ratio (y) = 0.14746 0.49541
# Poissons Ratio (z) = -0.01394 0.56114
#
# Static dielectric constant tensor:
#      x y z
#    x 2.023640 -0.001410 0.011320 
#    y -0.001410 1.945140 0.000010 
#    z 0.011320 0.000010 1.930450 
# 
# From -- ./inp_files/518726.got.cif
#   From: 2010.05.17/outbox.cif.g08.bks.cpg/sg2_260_cif.got.tgz:518726.got - 2010.06.03 11:33:40.
