data_PCOD9045914
_publ_section_title
;
Structure prediction by ZEFSAII (Michael W. Deem and Ramdas Pophale) SiO2 
 PCOD9045914
Probable space group: P -1
;
_chemical_formula_sum "Si O2"
_cell_formula_units_Z 13
_cell_length_a 5.022920
_cell_length_b 23.795785
_cell_length_c 24.015739
_cell_angle_alpha 167.748815
_cell_angle_beta 66.574600
_cell_angle_gamma 114.997013
_cell_volume 550.280390
_symmetry_space_group_name_H-M "P -1"
_symmetry_group_IT_number 2
_symmetry_cell_setting 'triclinic'
loop_
_space_group_symop_operation_xyz
x,y,z
-x,-y,-z
loop_
_atom_site_type_symbol
_atom_site_label
_atom_site_fract_x
_atom_site_fract_y
_atom_site_fract_z
Si Si1 0.000000 0.000000 0.000000
Si Si2 0.374142 0.321261 0.222710
Si Si3 0.940744 0.873025 0.505359
Si Si4 0.674931 0.855792 0.771671
Si Si5 0.274830 0.798363 0.515085
Si Si6 0.159990 0.458846 0.004168
Si Si7 0.198152 0.231641 0.029276
O O1 0.959643 0.708380 0.758326
O O2 0.821522 0.839366 0.802505
O O3 0.577562 0.573056 0.475750
O O4 0.393164 0.309791 0.143915
O O5 0.394528 0.017842 0.952418
O O6 0.048310 0.862104 0.549264
O O7 0.588954 0.790919 0.453413
O O8 0.042236 0.166764 0.756179
O O9 0.091747 0.670707 0.260379
O O10 0.899182 0.053227 0.904530
O O11 0.324127 0.036132 0.786797
O O12 0.162929 0.509593 0.272604
O O13 0.500000 0.500000 0.000000
O O14 0.000000 0.500000 0.000000
#
# Coordination Sequence:
#
# PCOD9045914 Si02
#       7
#     1   2   2   2   2   2   2
#     4  10  24  42  64 102 128 174 224 300 350 444
#     4  11  24  42  67  94 133 174 234 283 370 418
#     4  12  26  45  70 108 140 191 236 287 350 413
#     4  11  24  42  67  94 133 174 234 283 370 418
#     4  12  26  45  70  99 148 184 244 291 350 415
#     4  12  24  45  74 105 146 185 234 287 348 413
#     4  11  26  42  66  98 130 189 234 294 350 432
#
# _framework density 23.624317999999999
#
# number of rings (size 3 to 8) (size 9 to 14) (size 15 to 20)
#    0.000    0.615    0.000    7.385    6.462    4.923 
#    0.000    0.000    0.000    0.000    0.000    0.000 
#    0.000    0.000    0.000    0.000    0.000    0.000 
#
# Total GULP energy -72693.647073 kJ/mol
# GULP energy per Si atom -5591.819006 kJ/mol
# Density = 2.357055 g / cm^3
# Si number density = 23.624318 Si / 1000 Ang^3
#
#
#
# Elastic Constant Matrix: (Units=GPa)
#
#
# Indices 1 2 3 4 5 6 
#
# 1 102.7761 16.5457 37.9721 0.3729 10.0551 -9.6728
# 2 16.5457 100.8081 55.4620 7.4230 2.6612 -24.9239
# 3 37.9721 55.4620 179.2941 -5.8667 14.7825 -27.5558
# 4 0.3729 7.4230 -5.8667 43.8452 -2.6962 -0.5985
# 5 10.0551 2.6612 14.7825 -2.6962 42.9297 -2.6254
# 6 -9.6728 -24.9239 -27.5558 -0.5985 -2.6254 42.5971
#
#
#
# Elastic Compliance Matrix: (Units=1/GPa)
#
#
# Indices 1 2 3 4 5 6 
#
# 1 0.010752 -0.000451 -0.001869 -0.000365 -0.001818 0.000851
# 2 -0.000451 0.013373 -0.003318 -0.002591 0.000598 0.005576
# 3 -0.001869 -0.003318 0.007567 0.001518 -0.001717 0.002444
# 4 -0.000365 -0.002591 0.001518 0.023523 0.001188 -0.000214
# 5 -0.001818 0.000598 -0.001717 0.001188 0.024370 0.000345
# 6 0.000851 0.005576 0.002444 -0.000214 0.000345 0.028531
#
#
# Mechanical properties :
#
#
# Convention : Reuss Voigt Hill
#
# Bulk Modulus (GPa) = 48.98244 66.98199 57.98221
# Shear Modulus (GPa) = 39.62043 44.06762 41.84403
#
# Velocity S-wave (km/s) = 4.09969 4.32366 4.21316
# Velocity P-wave (km/s) = 6.57182 7.30341 6.94726
#
# Compressibility (1/GPa) = 0.02041548
#
# Stress axis : x y z
#
# Youngs Moduli (GPa) = 93.00334 74.77615 132.15937
#
# Poissons Ratio (x) = 0.03374 0.24698
# Poissons Ratio (y) = 0.04196 0.43855
# Poissons Ratio (z) = 0.17381 0.24813
#
# Static dielectric constant tensor:
#      x y z
#    x 2.123100 0.162860 -0.116840 
#    y 0.162860 1.966400 -0.070140 
#    z -0.116840 -0.070140 1.927580 
# 
# From -- ./inp_files/9587.got.cif
#   From: 2010.05.17/outbox.cif.g08.bks.cpg/sg2_5_cif.got.tgz:9587.got - 2010.06.03 11:33:40.
