data_PCOD9045006
_publ_section_title
;
Structure prediction by ZEFSAII (Michael W. Deem and Ramdas Pophale) SiO2 
 PCOD9045006
Probable space group: P -1
;
_chemical_formula_sum "Si O2"
_cell_formula_units_Z 12
_cell_length_a 9.202012
_cell_length_b 14.050451
_cell_length_c 5.807882
_cell_angle_alpha 67.322538
_cell_angle_beta 57.889009
_cell_angle_gamma 55.903825
_cell_volume 522.583488
_symmetry_space_group_name_H-M "P -1"
_symmetry_group_IT_number 2
_symmetry_cell_setting 'triclinic'
loop_
_space_group_symop_operation_xyz
x,y,z
-x,-y,-z
loop_
_atom_site_type_symbol
_atom_site_label
_atom_site_fract_x
_atom_site_fract_y
_atom_site_fract_z
Si Si1 0.998803 0.258934 0.498773
Si Si2 0.702364 0.886345 0.926877
Si Si3 0.289945 0.325379 0.109165
Si Si4 0.697150 0.445262 0.241721
Si Si5 0.982459 0.060051 0.208561
Si Si6 0.674837 0.271389 0.092852
O O1 0.172128 0.135885 0.393116
O O2 0.119941 0.325757 0.412483
O O3 0.872383 0.338935 0.319259
O O4 0.844277 0.245599 0.793591
O O5 0.685484 0.765806 0.034273
O O6 0.849088 0.897819 0.972226
O O7 0.500000 0.000000 0.000000
O O8 0.246706 0.452430 0.947618
O O9 0.488536 0.276916 0.125137
O O10 0.500000 0.500000 0.500000
O O11 0.644390 0.391116 0.117113
O O12 0.000000 0.000000 0.500000
O O13 0.769877 0.168448 0.290539
O O14 0.000000 0.000000 0.000000
#
# Coordination Sequence:
#
# PCOD9045006 Si02
#       6
#     2   2   2   2   2   2
#     4  10  24  46  73 106 156 199 262 315 396 457
#     4  10  23  48  72 112 151 195 263 318 385 464
#     4  10  24  45  75 114 151 204 259 317 387 462
#     4  12  24  45  75 110 158 201 264 314 396 463
#     4  12  27  49  81 110 155 207 258 326 394 466
#     4  12  24  49  73 110 153 203 259 322 392 467
#
# _framework density 22.962837
#
# number of rings (size 3 to 8) (size 9 to 14) (size 15 to 20)
#    1.000    0.000    3.333    3.000    0.000    2.000 
#    9.000    2.500    0.000    0.000    0.000    0.000 
#    0.000    0.000    0.000    0.000    0.000    0.000 
#
# Total GULP energy -66886.096523 kJ/mol
# GULP energy per Si atom -5573.841377 kJ/mol
# Density = 2.291057 g / cm^3
# Si number density = 22.962837 Si / 1000 Ang^3
#
#
#
# Elastic Constant Matrix: (Units=GPa)
#
#
# Indices 1 2 3 4 5 6 
#
# 1 177.8683 44.6176 43.7153 -1.4749 -4.7762 12.1314
# 2 44.6176 112.5255 18.9390 -3.1988 23.8653 8.3752
# 3 43.7153 18.9390 49.5979 -14.1230 12.3613 -5.6263
# 4 -1.4749 -3.1988 -14.1230 39.9293 -2.9333 -3.4452
# 5 -4.7762 23.8653 12.3613 -2.9333 27.2279 4.6480
# 6 12.1314 8.3752 -5.6263 -3.4452 4.6480 61.2056
#
#
#
# Elastic Compliance Matrix: (Units=1/GPa)
#
#
# Indices 1 2 3 4 5 6 
#
# 1 0.009895 -0.004148 -0.011156 -0.003425 0.010651 -0.003421
# 2 -0.004148 0.012922 0.002209 0.000731 -0.013027 0.000287
# 3 -0.011156 0.002209 0.039027 0.012660 -0.021587 0.007848
# 4 -0.003425 0.000731 0.012660 0.029449 -0.004455 0.003739
# 5 0.010651 -0.013027 -0.021587 -0.004455 0.060556 -0.007162
# 6 -0.003421 0.000287 0.007848 0.003739 -0.007162 0.018453
#
#
# Mechanical properties :
#
#
# Convention : Reuss Voigt Hill
#
# Bulk Modulus (GPa) = 28.04679 61.61505 44.83092
# Shear Modulus (GPa) = 23.99507 41.18721 32.59114
#
# Velocity S-wave (km/s) = 3.23608 4.23974 3.77145
# Velocity P-wave (km/s) = 5.11893 7.13148 6.20731
#
# Compressibility (1/GPa) = 0.03565470
#
# Stress axis : x y z
#
# Youngs Moduli (GPa) = 101.05855 77.38826 25.62354
#
# Poissons Ratio (x) = 0.32098 0.28585
# Poissons Ratio (y) = 0.41915 -0.05660
# Poissons Ratio (z) = 1.12738 -0.17094
#
# Static dielectric constant tensor:
#      x y z
#    x 1.864370 0.051790 -0.007140 
#    y 0.051790 1.920910 -0.029680 
#    z -0.007140 -0.029680 1.954640 
# 
# From -- ./inp_files/29381.got.cif
#   From: 2010.05.17/outbox.cif.g08.bks.cpg/sg2_15_cif.got.tgz:29381.got - 2010.06.03 11:33:40.
