data_PCOD9045768
_publ_section_title
;
Structure prediction by ZEFSAII (Michael W. Deem and Ramdas Pophale) SiO2 
 PCOD9045768
Probable space group: P -1
;
_chemical_formula_sum "Si O2"
_cell_formula_units_Z 14
_cell_length_a 12.406074
_cell_length_b 19.313460
_cell_length_c 5.331818
_cell_angle_alpha 82.965430
_cell_angle_beta 79.755097
_cell_angle_gamma 28.275466
_cell_volume 593.927988
_symmetry_space_group_name_H-M "P -1"
_symmetry_group_IT_number 2
_symmetry_cell_setting 'triclinic'
loop_
_space_group_symop_operation_xyz
x,y,z
-x,-y,-z
loop_
_atom_site_type_symbol
_atom_site_label
_atom_site_fract_x
_atom_site_fract_y
_atom_site_fract_z
Si Si1 0.487478 0.553933 0.726156
Si Si2 0.805968 0.555085 0.148299
Si Si3 0.113563 0.560986 0.337349
Si Si4 0.856690 0.122766 0.293827
Si Si5 0.226948 0.144408 0.527998
Si Si6 0.348669 0.868638 0.973264
Si Si7 0.308484 0.046023 0.029137
O O1 0.500000 0.500000 0.500000
O O2 0.714666 0.473213 0.660156
O O3 0.284269 0.725772 0.696518
O O4 0.500000 0.500000 0.000000
O O5 0.826661 0.532866 0.447040
O O6 0.541796 0.722615 0.124691
O O7 0.865455 0.461886 0.959105
O O8 0.000000 0.500000 0.000000
O O9 0.870907 0.723491 0.472333
O O10 0.672539 0.168935 0.245364
O O11 0.000000 0.000000 0.500000
O O12 0.077391 0.020705 0.081478
O O13 0.180541 0.123325 0.313980
O O14 0.500000 0.000000 0.500000
O O15 0.146468 0.154700 0.815089
O O16 0.415673 0.912217 0.962631
O O17 0.500000 0.000000 0.000000
#
# Coordination Sequence:
#
# PCOD9045768 Si02
#       7
#     2   2   2   2   2   2   2
#     4  12  29  49  77 114 158 201 262 331 401 457
#     4  12  28  47  75 112 149 201 251 312 387 467
#     4  12  26  49  71 105 155 195 250 313 390 463
#     4  11  27  51  80 111 152 208 271 321 391 469
#     4  10  24  41  68  98 145 187 239 296 372 447
#     4  11  27  46  79 105 152 196 263 312 389 454
#     4  10  24  43  69 106 144 188 245 307 375 446
#
# _framework density 23.57188
#
# number of rings (size 3 to 8) (size 9 to 14) (size 15 to 20)
#    0.000    0.857    1.429    3.000   18.000    0.000 
#    0.000    0.000    0.000    0.000    0.000    0.000 
#    0.000    0.000    0.000    0.000    0.000    0.000 
#
# Total GULP energy -77951.853192 kJ/mol
# GULP energy per Si atom -5567.989514 kJ/mol
# Density = 2.351823 g / cm^3
# Si number density = 23.571880 Si / 1000 Ang^3
#
#
#
# Elastic Constant Matrix: (Units=GPa)
#
#
# Indices 1 2 3 4 5 6 
#
# 1 106.7352 17.1985 20.7129 17.3579 9.3119 18.5544
# 2 17.1985 173.9331 25.4297 0.4418 11.4706 15.8484
# 3 20.7129 25.4297 135.0866 -8.0633 15.9702 16.8228
# 4 17.3579 0.4418 -8.0633 37.1443 3.9603 -1.7906
# 5 9.3119 11.4706 15.9702 3.9603 28.7305 5.4571
# 6 18.5544 15.8484 16.8228 -1.7906 5.4571 36.9456
#
#
#
# Elastic Compliance Matrix: (Units=1/GPa)
#
#
# Indices 1 2 3 4 5 6 
#
# 1 0.011634 -0.000401 -0.001278 -0.005842 -0.001106 -0.005208
# 2 -0.000401 0.006166 -0.000670 0.000048 -0.001605 -0.001899
# 3 -0.001278 -0.000670 0.008659 0.002811 -0.004087 -0.002274
# 4 -0.005842 0.000048 0.002811 0.030945 -0.004680 0.003825
# 5 -0.001106 -0.001605 -0.004087 -0.004680 0.039278 -0.002924
# 6 -0.005208 -0.001899 -0.002274 0.003825 -0.002924 0.032150
#
#
# Mechanical properties :
#
#
# Convention : Reuss Voigt Hill
#
# Bulk Modulus (GPa) = 45.95526 60.27081 53.11304
# Shear Modulus (GPa) = 35.51600 44.05834 39.78717
#
# Velocity S-wave (km/s) = 3.88585 4.32801 4.11287
# Velocity P-wave (km/s) = 6.29851 7.11337 6.71830
#
# Compressibility (1/GPa) = 0.02176029
#
# Stress axis : x y z
#
# Youngs Moduli (GPa) = 85.95837 162.18684 115.48937
#
# Poissons Ratio (x) = 0.06507 0.14755
# Poissons Ratio (y) = 0.03449 0.07738
# Poissons Ratio (z) = 0.10982 0.10867
#
# Static dielectric constant tensor:
#      x y z
#    x 2.030550 0.185180 0.121330 
#    y 0.185180 2.109350 0.160340 
#    z 0.121330 0.160340 2.155860 
# 
# From -- ./inp_files/81335.got.cif
#   From: 2010.05.17/outbox.cif.g08.bks.cpg/sg2_41_cif.got.tgz:81335.got - 2010.06.03 11:33:40.
