data_PCOD9045692
_publ_section_title
;
Structure prediction by ZEFSAII (Michael W. Deem and Ramdas Pophale) SiO2 
 PCOD9045692
Probable space group: P -1
;
_chemical_formula_sum "Si O2"
_cell_formula_units_Z 16
_cell_length_a 13.496507
_cell_length_b 12.581534
_cell_length_c 8.978438
_cell_angle_alpha 123.291629
_cell_angle_beta 44.228006
_cell_angle_gamma 139.312370
_cell_volume 693.236505
_symmetry_space_group_name_H-M "P -1"
_symmetry_group_IT_number 2
_symmetry_cell_setting 'triclinic'
loop_
_space_group_symop_operation_xyz
x,y,z
-x,-y,-z
loop_
_atom_site_type_symbol
_atom_site_label
_atom_site_fract_x
_atom_site_fract_y
_atom_site_fract_z
Si Si1 0.184438 0.316143 0.829147
Si Si2 0.244614 0.906904 0.795167
Si Si3 0.918357 0.576846 0.231912
Si Si4 0.837349 0.963284 0.253397
Si Si5 0.560801 0.426987 0.994010
Si Si6 0.537794 0.871061 0.997940
Si Si7 0.819303 0.394604 0.509025
Si Si8 0.776651 0.121410 0.692367
O O1 0.214705 0.418085 0.728245
O O2 0.222868 0.187453 0.694979
O O3 0.303281 0.438187 0.928241
O O4 0.968472 0.208226 0.014997
O O5 0.292630 0.050051 0.742537
O O6 0.252296 0.783698 0.596810
O O7 0.365574 0.987464 0.872591
O O8 0.848038 0.482930 0.390295
O O9 0.072685 0.762094 0.258581
O O10 0.000000 0.500000 0.000000
O O11 0.867072 0.098462 0.438051
O O12 0.000000 0.000000 0.000000
O O13 0.426638 0.256264 0.095830
O O14 0.669215 0.387156 0.750495
O O15 0.500000 0.500000 0.000000
O O16 0.329287 0.805450 0.170052
O O17 0.624830 0.949925 0.804568
O O18 0.000000 0.500000 0.500000
#
# Coordination Sequence:
#
# PCOD9045692 Si02
#       8
#     2   2   2   2   2   2   2   2
#     4  11  23  44  65  98 138 183 237 285 340 419
#     4  11  21  43  68  99 132 180 239 285 334 424
#     4  12  22  42  71 104 135 180 244 294 336 418
#     4  10  24  41  66  98 138 178 235 290 342 415
#     4  12  27  45  67 103 146 183 226 292 359 419
#     4  11  24  44  69 100 144 173 226 293 360 418
#     4  12  23  42  74 102 134 188 239 285 347 417
#     4  11  24  43  69 103 137 182 230 292 357 410
#
# _framework density 23.080145999999999
#
# number of rings (size 3 to 8) (size 9 to 14) (size 15 to 20)
#    0.000    0.750    3.750    3.750    1.750    5.500 
#    0.000    1.250    0.000    0.000    0.000    0.000 
#    0.000    0.000    0.000    0.000    0.000    0.000 
#
# Total GULP energy -89395.676699 kJ/mol
# GULP energy per Si atom -5587.229794 kJ/mol
# Density = 2.302761 g / cm^3
# Si number density = 23.080146 Si / 1000 Ang^3
#
#
#
# Elastic Constant Matrix: (Units=GPa)
#
#
# Indices 1 2 3 4 5 6 
#
# 1 164.9422 37.5295 19.7634 4.3294 20.9831 -27.6849
# 2 37.5295 56.3988 8.7183 8.7597 -4.5420 -22.3171
# 3 19.7634 8.7183 68.9577 11.5984 8.4572 -4.4356
# 4 4.3294 8.7597 11.5984 28.3226 -4.1944 8.7359
# 5 20.9831 -4.5420 8.4572 -4.1944 27.8834 4.6380
# 6 -27.6849 -22.3171 -4.4356 8.7359 4.6380 64.0916
#
#
#
# Elastic Compliance Matrix: (Units=1/GPa)
#
#
# Indices 1 2 3 4 5 6 
#
# 1 0.008807 -0.005068 -0.000437 -0.001659 -0.008039 0.002817
# 2 -0.005068 0.025965 -0.000615 -0.008491 0.005696 0.007555
# 3 -0.000437 -0.000615 0.017099 -0.008472 -0.006633 0.002415
# 4 -0.001659 -0.008491 -0.008472 0.046884 0.011397 -0.011475
# 5 -0.008039 0.005696 -0.006633 0.011397 0.047724 -0.006955
# 6 0.002817 0.007555 0.002415 -0.011475 -0.006955 0.021685
#
#
# Mechanical properties :
#
#
# Convention : Reuss Voigt Hill
#
# Bulk Modulus (GPa) = 25.23264 46.92456 36.07860
# Shear Modulus (GPa) = 25.82457 39.01203 32.41830
#
# Velocity S-wave (km/s) = 3.34864 4.11577 3.75186
# Velocity P-wave (km/s) = 5.08994 6.55449 5.86809
#
# Compressibility (1/GPa) = 0.03963120
#
# Stress axis : x y z
#
# Youngs Moduli (GPa) = 113.54162 38.51317 58.48430
#
# Poissons Ratio (x) = 0.19518 0.02557
# Poissons Ratio (y) = 0.57542 0.03596
# Poissons Ratio (z) = 0.04964 0.02368
#
# Static dielectric constant tensor:
#      x y z
#    x 1.784960 0.068220 -0.001750 
#    y 0.068220 1.821770 -0.004900 
#    z -0.001750 -0.004900 1.898890 
# 
# From -- ./inp_files/262974.got.cif
#   From: 2010.05.17/outbox.cif.g08.bks.cpg/sg2_132_cif.got.tgz:262974.got - 2010.06.03 11:33:40.
