data_PCOD9045341
_publ_section_title
;
Structure prediction by ZEFSAII (Michael W. Deem and Ramdas Pophale) SiO2 
 PCOD9045341
Probable space group: P -1
;
_chemical_formula_sum "Si O2"
_cell_formula_units_Z 14
_cell_length_a 14.377615
_cell_length_b 8.520130
_cell_length_c 5.362742
_cell_angle_alpha 122.480012
_cell_angle_beta 102.030240
_cell_angle_gamma 75.686961
_cell_volume 534.665668
_symmetry_space_group_name_H-M "P -1"
_symmetry_group_IT_number 2
_symmetry_cell_setting 'triclinic'
loop_
_space_group_symop_operation_xyz
x,y,z
-x,-y,-z
loop_
_atom_site_type_symbol
_atom_site_label
_atom_site_fract_x
_atom_site_fract_y
_atom_site_fract_z
Si Si1 0.130783 0.988682 0.126165
Si Si2 0.612692 0.437214 0.208423
Si Si3 0.146167 0.401203 0.891436
Si Si4 0.796746 0.280055 0.448202
Si Si5 0.704730 0.967561 0.440245
Si Si6 0.457179 0.742887 0.483410
Si Si7 0.009849 0.722988 0.951995
O O1 0.242033 0.001712 0.243166
O O2 0.067279 0.187892 0.219331
O O3 0.122924 0.858096 0.772614
O O4 0.076684 0.877165 0.198358
O O5 0.724023 0.387992 0.292002
O O6 0.568679 0.657399 0.417345
O O7 0.563290 0.324564 0.303540
O O8 0.591292 0.370702 0.860756
O O9 0.085818 0.537713 0.769841
O O10 0.239753 0.240665 0.770859
O O11 0.176619 0.556200 0.227490
O O12 0.061734 0.310146 0.895311
O O13 0.742169 0.130375 0.434612
O O14 0.590689 0.039451 0.406368
#
# Coordination Sequence:
#
# PCOD9045341 Si02
#       7
#     2   2   2   2   2   2   2
#     4  11  22  40  65  84 118 168 213 264 316 377
#     4   9  18  35  63  94 125 165 209 255 317 390
#     4  11  24  40  61  88 126 164 209 268 320 373
#     4  11  22  40  61  91 123 163 206 266 315 381
#     4  11  22  40  61  91 123 163 206 266 315 381
#     4   9  18  35  63  94 125 165 209 255 317 390
#     4  10  24  40  58  90 118 166 216 262 317 375
#
# _framework density 26.184588000000002
#
# number of rings (size 3 to 8) (size 9 to 14) (size 15 to 20)
#    0.000    1.714    4.286    0.000    0.000    8.000 
#    0.000    0.714    0.000    0.000    0.000   12.000 
#    0.000    0.000    0.000    0.000    0.000    0.000 
#
# Total GULP energy -78117.435654 kJ/mol
# GULP energy per Si atom -5579.816832 kJ/mol
# Density = 2.612499 g / cm^3
# Si number density = 26.184588 Si / 1000 Ang^3
#
#
#
# Elastic Constant Matrix: (Units=GPa)
#
#
# Indices 1 2 3 4 5 6 
#
# 1 51.2572 28.7441 9.4115 8.6339 -18.6852 -22.8732
# 2 28.7441 175.8412 52.3619 26.7798 -10.1721 -45.0594
# 3 9.4115 52.3619 117.0524 23.7370 -15.3705 -5.5690
# 4 8.6339 26.7798 23.7370 40.5750 -6.9310 -14.3497
# 5 -18.6852 -10.1721 -15.3705 -6.9310 24.6312 4.1152
# 6 -22.8732 -45.0594 -5.5690 -14.3497 4.1152 58.4642
#
#
#
# Elastic Compliance Matrix: (Units=1/GPa)
#
#
# Indices 1 2 3 4 5 6 
#
# 1 0.033633 -0.002144 0.001725 0.001008 0.024283 0.010208
# 2 -0.002144 0.008470 -0.003222 -0.001708 -0.001466 0.005066
# 3 0.001725 -0.003222 0.011511 -0.004730 0.006216 -0.002310
# 4 0.001008 -0.001708 -0.004730 0.031272 0.004912 0.005957
# 5 0.024283 -0.001466 0.006216 0.004912 0.062714 0.005753
# 6 0.010208 0.005066 -0.002310 0.005957 0.005753 0.025840
#
#
# Mechanical properties :
#
#
# Convention : Reuss Voigt Hill
#
# Bulk Modulus (GPa) = 21.58328 58.35399 39.96863
# Shear Modulus (GPa) = 25.48847 41.64296 33.56571
#
# Velocity S-wave (km/s) = 3.12334 3.99226 3.58423
# Velocity P-wave (km/s) = 4.61169 6.60188 5.69441
#
# Compressibility (1/GPa) = 0.04633216
#
# Stress axis : x y z
#
# Youngs Moduli (GPa) = 29.73282 118.05697 86.87103
#
# Poissons Ratio (x) = 0.25317 -0.14985
# Poissons Ratio (y) = 0.06376 0.27989
# Poissons Ratio (z) = -0.05129 0.38036
#
# Static dielectric constant tensor:
#      x y z
#    x 2.127950 0.000120 0.001920 
#    y 0.000120 2.150620 -0.057460 
#    z 0.001920 -0.057460 2.074060 
# 
# From -- ./inp_files/107659.got.cif
#   From: 2010.05.17/outbox.cif.g08.bks.cpg/sg2_54_cif.got.tgz:107659.got - 2010.06.03 11:33:40.
