data_PCOD9045336
_publ_section_title
;
Structure prediction by ZEFSAII (Michael W. Deem and Ramdas Pophale) SiO2 
 PCOD9045336
Probable space group: P -1
;
_chemical_formula_sum "Si O2"
_cell_formula_units_Z 15
_cell_length_a 9.786304
_cell_length_b 16.236820
_cell_length_c 8.795050
_cell_angle_alpha 113.840812
_cell_angle_beta 29.791121
_cell_angle_gamma 112.759097
_cell_volume 633.091567
_symmetry_space_group_name_H-M "P -1"
_symmetry_group_IT_number 2
_symmetry_cell_setting 'triclinic'
loop_
_space_group_symop_operation_xyz
x,y,z
-x,-y,-z
loop_
_atom_site_type_symbol
_atom_site_label
_atom_site_fract_x
_atom_site_fract_y
_atom_site_fract_z
Si Si1 0.972090 0.877152 0.554527
Si Si2 0.741377 0.359176 0.437029
Si Si3 0.720335 0.631304 0.877822
Si Si4 0.572350 0.152897 0.430556
Si Si5 0.617476 0.534303 0.590048
Si Si6 0.546169 0.188220 0.826654
Si Si7 0.000000 0.500000 0.000000
Si Si8 0.026809 0.073244 0.755179
O O1 0.151201 0.799421 0.386148
O O2 0.008536 0.888268 0.349765
O O3 0.088765 0.969979 0.592447
O O4 0.654555 0.864705 0.899680
O O5 0.686747 0.256368 0.359639
O O6 0.791141 0.440075 0.325514
O O7 0.975734 0.361795 0.340818
O O8 0.468705 0.389251 0.806232
O O9 0.680958 0.566337 0.723424
O O10 0.603864 0.722958 0.000642
O O11 0.573967 0.142886 0.602288
O O12 0.265242 0.132967 0.654157
O O13 0.754831 0.082713 0.121657
O O14 0.823606 0.585264 0.308507
O O15 0.300867 0.527511 0.843910
#
# Coordination Sequence:
#
# PCOD9045336 Si02
#       8
#     2   2   2   2   2   2   1   2
#     4  11  24  43  64  91 128 170 216 259 321 398
#     4  11  22  40  66  93 123 162 212 264 311 371
#     4  11  22  40  66  93 123 162 212 264 311 371
#     4  11  23  41  63  97 128 162 214 274 320 372
#     4  11  22  43  62  91 126 173 206 256 306 371
#     4  11  23  41  63  97 128 162 214 274 320 372
#     4  10  24  40  56  88 132 158 206 264 296 366
#     4  11  24  43  64  91 128 170 216 259 321 398
#
# _framework density 23.693256000000002
#
# number of rings (size 3 to 8) (size 9 to 14) (size 15 to 20)
#    0.000    1.067    0.000    8.000    0.000    5.333 
#   14.400    0.000    0.000    0.000    0.000    0.000 
#    0.000    0.000    0.000    0.000    0.000    0.000 
#
# Total GULP energy -83653.594033 kJ/mol
# GULP energy per Si atom -5576.906269 kJ/mol
# Density = 2.363933 g / cm^3
# Si number density = 23.693256 Si / 1000 Ang^3
#
#
#
# Elastic Constant Matrix: (Units=GPa)
#
#
# Indices 1 2 3 4 5 6 
#
# 1 -23.9448 -3.3482 -39.6371 12.4048 -51.5336 -28.6939
# 2 -3.3482 -45.2631 -35.7869 -29.8843 -21.3830 -12.6965
# 3 -39.6371 -35.7869 90.5794 -17.5308 -15.6731 -18.9482
# 4 12.4048 -29.8843 -17.5308 14.4569 7.9968 -10.5165
# 5 -51.5336 -21.3830 -15.6731 7.9968 48.2410 -14.4179
# 6 -28.6939 -12.6965 -18.9482 -10.5165 -14.4179 17.3151
#
#
#
# Elastic Compliance Matrix: (Units=1/GPa)
#
#
# Indices 1 2 3 4 5 6 
#
# 1 -0.004786 0.004296 -0.002523 0.007183 -0.008213 -0.010018
# 2 0.004296 -0.001627 -0.005011 -0.022684 0.002683 -0.011100
# 3 -0.002523 -0.005011 0.007478 0.001701 -0.003144 -0.001257
# 4 0.007183 -0.022684 0.001701 0.028551 -0.002977 0.011993
# 5 -0.008213 0.002683 -0.003144 -0.002977 0.010077 -0.008501
# 6 -0.010018 -0.011100 -0.001257 0.011993 -0.008501 0.031843
#
#
# Mechanical properties :
#
#
# Convention : Reuss Voigt Hill
#
# Bulk Modulus (GPa) = -184.85521 -15.13033 -99.99277
# Shear Modulus (GPa) = 65.60943 22.67883 44.14413
#
# Velocity S-wave (km/s) = 5.26795 3.09720 4.32111
# Velocity P-wave (km/s) = 6.41777 2.52792 4.17118
#
# Compressibility (1/GPa) = -0.00540964
#
# Stress axis : x y z
#
# Youngs Moduli (GPa) = -208.95120 -614.69297 133.72084
#
# Poissons Ratio (x) = 2.64084 0.33741
# Poissons Ratio (y) = 0.89770 0.67002
# Poissons Ratio (z) = -0.52724 -3.07997
#
# Static dielectric constant tensor:
#      x y z
#    x 2.022540 -0.212540 0.229250 
#    y -0.212540 2.130200 -0.188540 
#    z 0.229250 -0.188540 2.113230 
# 
# From -- ./inp_files/218159.got.cif
#   From: 2010.05.17/outbox.cif.g08.bks.cpg/sg2_110_cif.got.tgz:218159.got - 2010.06.03 11:33:40.
