data_PCOD9045706
_publ_section_title
;
Structure prediction by ZEFSAII (Michael W. Deem and Ramdas Pophale) SiO2 
 PCOD9045706
Probable space group: P -1
;
_chemical_formula_sum "Si O2"
_cell_formula_units_Z 16
_cell_length_a 13.195792
_cell_length_b 10.261552
_cell_length_c 5.073536
_cell_angle_alpha 108.001435
_cell_angle_beta 84.349845
_cell_angle_gamma 96.492014
_cell_volume 647.716610
_symmetry_space_group_name_H-M "P -1"
_symmetry_group_IT_number 2
_symmetry_cell_setting 'triclinic'
loop_
_space_group_symop_operation_xyz
x,y,z
-x,-y,-z
loop_
_atom_site_type_symbol
_atom_site_label
_atom_site_fract_x
_atom_site_fract_y
_atom_site_fract_z
Si Si1 0.569594 0.229399 0.056011
Si Si2 0.988816 0.103628 0.800900
Si Si3 0.836762 0.423820 0.463332
Si Si4 0.654628 0.725163 0.835302
Si Si5 0.186047 0.024227 0.993703
Si Si6 0.308741 0.833026 0.501926
Si Si7 0.966596 0.616904 0.898132
Si Si8 0.671206 0.532867 0.216257
O O1 0.606936 0.189751 0.309722
O O2 0.597094 0.393796 0.107489
O O3 0.449078 0.203458 0.037986
O O4 0.634811 0.150587 0.779620
O O5 0.076948 0.077222 0.976910
O O6 0.000000 0.000000 0.500000
O O7 0.866360 0.097175 0.883755
O O8 0.033490 0.257389 0.825002
O O9 0.763983 0.309559 0.561478
O O10 0.938980 0.354933 0.311438
O O11 0.776004 0.475508 0.259297
O O12 0.871772 0.556582 0.712735
O O13 0.676214 0.630169 0.021376
O O14 0.743219 0.847059 0.837861
O O15 0.637617 0.625567 0.525864
O O16 0.244375 0.955045 0.699148
O O17 0.000000 0.500000 0.000000
#
# Coordination Sequence:
#
# PCOD9045706 Si02
#       8
#     2   2   2   2   2   2   2   2
#     4  11  25  45  75 106 141 187 239 300 359 421
#     4  11  27  47  70 102 146 192 236 296 365 437
#     4  10  24  41  67 102 138 184 238 295 356 421
#     4  12  26  45  73 107 145 187 239 295 358 436
#     4  11  28  46  69 100 144 191 239 291 364 433
#     4  11  25  46  73 103 144 190 236 294 361 427
#     4  11  25  41  72 103 140 184 247 300 350 424
#     4  11  24  43  72 104 148 182 233 295 368 421
#
# _framework density 24.702159999999999
#
# number of rings (size 3 to 8) (size 9 to 14) (size 15 to 20)
#    0.000    1.000    1.250    3.750   12.250    2.000 
#    0.000    0.000    0.000    0.000    0.000    0.000 
#    0.000    0.000    0.000    0.000    0.000    0.000 
#
# Total GULP energy -89535.315695 kJ/mol
# GULP energy per Si atom -5595.957231 kJ/mol
# Density = 2.464594 g / cm^3
# Si number density = 24.702160 Si / 1000 Ang^3
#
#
#
# Elastic Constant Matrix: (Units=GPa)
#
#
# Indices 1 2 3 4 5 6 
#
# 1 113.5076 12.2047 -1.4875 -8.2116 -0.8962 15.7648
# 2 12.2047 45.2103 -3.0442 18.9185 15.3648 6.8395
# 3 -1.4875 -3.0442 101.1217 7.2565 -5.7647 12.3670
# 4 -8.2116 18.9185 7.2565 37.8553 -6.9193 4.6132
# 5 -0.8962 15.3648 -5.7647 -6.9193 34.3934 5.5988
# 6 15.7648 6.8395 12.3670 4.6132 5.5988 22.6513
#
#
#
# Elastic Compliance Matrix: (Units=1/GPa)
#
#
# Indices 1 2 3 4 5 6 
#
# 1 0.011731 -0.007770 0.000940 0.008796 0.007321 -0.009933
# 2 -0.007770 0.045490 0.001428 -0.030063 -0.026931 0.003672
# 3 0.000940 0.001428 0.011070 -0.001333 0.002178 -0.007396
# 4 0.008796 -0.030063 -0.001333 0.049830 0.025541 -0.012779
# 5 0.007321 -0.026931 0.002178 0.025541 0.049331 -0.015548
# 6 -0.009933 0.003672 -0.007396 -0.012779 -0.015548 0.060435
#
#
# Mechanical properties :
#
#
# Convention : Reuss Voigt Hill
#
# Bulk Modulus (GPa) = 17.39537 30.57619 23.98578
# Shear Modulus (GPa) = 19.39078 35.79111 27.59094
#
# Velocity S-wave (km/s) = 2.80479 3.81058 3.34570
# Velocity P-wave (km/s) = 4.18885 5.63609 4.96548
#
# Compressibility (1/GPa) = 0.05748656
#
# Stress axis : x y z
#
# Youngs Moduli (GPa) = 85.24102 21.98309 90.33272
#
# Poissons Ratio (x) = 0.17081 -0.08487
# Poissons Ratio (y) = 0.66232 -0.12901
# Poissons Ratio (z) = -0.08009 -0.03139
#
# Static dielectric constant tensor:
#      x y z
#    x 1.964440 -0.013890 -0.022570 
#    y -0.013890 1.089090 0.303860 
#    z -0.022570 0.303860 1.786980 
# 
# From -- ./inp_files/72212.got.cif
#   From: 2010.05.17/outbox.cif.g08.bks.cpg/sg2_37_cif.got.tgz:72212.got - 2010.06.03 11:33:40.
