data_PCOD9045324
_publ_section_title
;
Structure prediction by ZEFSAII (Michael W. Deem and Ramdas Pophale) SiO2 
 PCOD9045324
Probable space group: P -1
;
_chemical_formula_sum "Si O2"
_cell_formula_units_Z 14
_cell_length_a 12.599861
_cell_length_b 20.866951
_cell_length_c 14.388017
_cell_angle_alpha 150.829801
_cell_angle_beta 138.989356
_cell_angle_gamma 21.120388
_cell_volume 624.496477
_symmetry_space_group_name_H-M "P -1"
_symmetry_group_IT_number 2
_symmetry_cell_setting 'triclinic'
loop_
_space_group_symop_operation_xyz
x,y,z
-x,-y,-z
loop_
_atom_site_type_symbol
_atom_site_label
_atom_site_fract_x
_atom_site_fract_y
_atom_site_fract_z
Si Si1 0.650487 0.254095 0.047294
Si Si2 0.595971 0.078236 0.636829
Si Si3 0.351726 0.631647 0.169941
Si Si4 0.281558 0.169877 0.210055
Si Si5 0.318888 0.929606 0.781001
Si Si6 0.724873 0.342960 0.537462
Si Si7 0.405750 0.270977 0.562924
O O1 0.576000 0.414992 0.122140
O O2 0.405000 0.461030 0.227186
O O3 0.591115 0.164217 0.836317
O O4 0.000000 0.000000 0.000000
O O5 0.371388 0.285985 0.669700
O O6 0.500000 0.000000 0.500000
O O7 0.932167 0.862440 0.535256
O O8 0.335491 0.801136 0.384138
O O9 0.500000 0.500000 0.000000
O O10 0.003969 0.814862 0.164122
O O11 0.404197 0.197758 0.255976
O O12 0.442749 0.102236 0.327171
O O13 0.912331 0.444356 0.325240
O O14 0.332033 0.995614 0.972719
O O15 0.312805 0.777859 0.598826
O O16 0.500000 0.500000 0.500000
#
# Coordination Sequence:
#
# PCOD9045324 Si02
#       7
#     2   2   2   2   2   2   2
#     4  12  27  48  78 110 146 197 241 302 373 438
#     4  12  28  49  70 104 148 190 249 307 362 434
#     4  12  22  44  78 103 144 190 242 298 357 435
#     4  10  24  39  70 105 143 181 226 306 359 422
#     4  11  23  45  69 107 143 181 244 294 354 435
#     4  12  27  47  76 105 145 201 245 296 369 442
#     4  11  23  44  68 106 142 189 236 295 364 423
#
# _framework density 22.418060000000001
#
# number of rings (size 3 to 8) (size 9 to 14) (size 15 to 20)
#    0.000    0.571    5.714    0.857    4.000    5.143 
#    0.000    0.000    0.000    0.000    0.000    0.000 
#    0.000    0.000    0.000    0.000    0.000    0.000 
#
# Total GULP energy -78230.137262 kJ/mol
# GULP energy per Si atom -5587.866947 kJ/mol
# Density = 2.236704 g / cm^3
# Si number density = 22.418060 Si / 1000 Ang^3
#
#
#
# Elastic Constant Matrix: (Units=GPa)
#
#
# Indices 1 2 3 4 5 6 
#
# 1 80.0528 31.3888 45.0686 -8.4066 7.7244 -1.7003
# 2 31.3888 93.0806 45.9735 -22.9699 6.7333 7.0268
# 3 45.0686 45.9735 170.2591 -37.6526 -17.3080 -7.6567
# 4 -8.4066 -22.9699 -37.6526 40.5241 1.6432 -3.6463
# 5 7.7244 6.7333 -17.3080 1.6432 47.0117 -3.6206
# 6 -1.7003 7.0268 -7.6567 -3.6463 -3.6206 49.1336
#
#
#
# Elastic Compliance Matrix: (Units=1/GPa)
#
#
# Indices 1 2 3 4 5 6 
#
# 1 0.016473 -0.003816 -0.004268 -0.002564 -0.003642 -0.000008
# 2 -0.003816 0.014824 -0.002153 0.005505 -0.002664 -0.002375
# 3 -0.004268 -0.002153 0.009694 0.006944 0.004530 0.002520
# 4 -0.002564 0.005505 0.006944 0.033921 0.001221 0.002814
# 5 -0.003642 -0.002664 0.004530 0.001221 0.024094 0.002827
# 6 -0.000008 -0.002375 0.002520 0.002814 0.002827 0.021502
#
#
# Mechanical properties :
#
#
# Convention : Reuss Voigt Hill
#
# Bulk Modulus (GPa) = 48.73827 65.36161 57.04994
# Shear Modulus (GPa) = 33.82493 42.06465 37.94479
#
# Velocity S-wave (km/s) = 3.88857 4.33641 4.11858
# Velocity P-wave (km/s) = 6.47682 7.36829 6.93689
#
# Compressibility (1/GPa) = 0.02051776
#
# Stress axis : x y z
#
# Youngs Moduli (GPa) = 60.70689 67.45812 103.15604
#
# Poissons Ratio (x) = 0.25740 0.44024
# Poissons Ratio (y) = 0.23164 0.22210
# Poissons Ratio (z) = 0.25908 0.14524
#
# Static dielectric constant tensor:
#      x y z
#    x 1.789980 0.013010 -0.056740 
#    y 0.013010 1.837660 -0.132610 
#    z -0.056740 -0.132610 1.697350 
# 
# From -- ./inp_files/524105.got.cif
#   From: 2010.05.17/outbox.cif.g08.bks.cpg/sg2_263_cif.got.tgz:524105.got - 2010.06.03 11:33:40.
