data_PCOD9045816
_publ_section_title
;
Structure prediction by ZEFSAII (Michael W. Deem and Ramdas Pophale) SiO2 
 PCOD9045816
Probable space group: P -1
;
_chemical_formula_sum "Si O2"
_cell_formula_units_Z 12
_cell_length_a 9.880970
_cell_length_b 13.172445
_cell_length_c 5.178403
_cell_angle_alpha 108.255859
_cell_angle_beta 121.810217
_cell_angle_gamma 53.562346
_cell_volume 460.793012
_symmetry_space_group_name_H-M "P -1"
_symmetry_group_IT_number 2
_symmetry_cell_setting 'triclinic'
loop_
_space_group_symop_operation_xyz
x,y,z
-x,-y,-z
loop_
_atom_site_type_symbol
_atom_site_label
_atom_site_fract_x
_atom_site_fract_y
_atom_site_fract_z
Si Si1 0.005848 0.888869 0.746480
Si Si2 0.457076 0.233738 0.181807
Si Si3 0.773905 0.244995 0.662388
Si Si4 0.847792 0.636197 0.668349
Si Si5 0.740393 0.499692 0.817037
Si Si6 0.362596 0.108532 0.642819
O O1 0.803372 0.915316 0.489406
O O2 0.125662 0.838426 0.561023
O O3 0.098356 0.784250 0.980907
O O4 0.000000 0.000000 0.000000
O O5 0.608698 0.218378 0.531153
O O6 0.256690 0.267634 0.121122
O O7 0.412789 0.364326 0.109441
O O8 0.513098 0.110704 0.985741
O O9 0.699719 0.390859 0.655715
O O10 0.780807 0.540480 0.608667
O O11 0.755953 0.741187 0.439827
O O12 0.069323 0.555310 0.867322
O O13 0.500000 0.000000 0.500000
#
# Coordination Sequence:
#
# PCOD9045816 Si02
#       6
#     2   2   2   2   2   2
#     4  12  29  48  71 101 146 192 238 290 356 422
#     4  10  24  41  71 103 141 177 241 287 356 415
#     4  12  25  48  72 106 146 187 231 296 358 424
#     4   9  21  42  67  98 140 171 240 283 356 405
#     4   9  20  44  69 105 138 185 232 287 364 415
#     4  12  26  44  71 101 137 192 242 292 351 423
#
# _framework density 26.042062999999999
#
# number of rings (size 3 to 8) (size 9 to 14) (size 15 to 20)
#    1.000    0.333    1.667    3.000    4.667    2.667 
#    0.000    2.500    0.000    0.000    0.000    0.000 
#    0.000    0.000    0.000    0.000    0.000    0.000 
#
# Total GULP energy -66824.281754 kJ/mol
# GULP energy per Si atom -5568.690146 kJ/mol
# Density = 2.598279 g / cm^3
# Si number density = 26.042063 Si / 1000 Ang^3
#
#
#
# Elastic Constant Matrix: (Units=GPa)
#
#
# Indices 1 2 3 4 5 6 
#
# 1 42.5773 16.2625 29.7019 1.8472 5.3213 -6.3649
# 2 16.2625 97.4509 36.1002 -4.7616 18.6167 14.1576
# 3 29.7019 36.1002 124.2488 0.6017 14.2643 0.6558
# 4 1.8472 -4.7616 0.6017 49.2963 5.6740 -0.9740
# 5 5.3213 18.6167 14.2643 5.6740 47.3047 9.2755
# 6 -6.3649 14.1576 0.6558 -0.9740 9.2755 41.5828
#
#
#
# Elastic Compliance Matrix: (Units=1/GPa)
#
#
# Indices 1 2 3 4 5 6 
#
# 1 0.030194 -0.003494 -0.006085 -0.001128 -0.001259 0.006162
# 2 -0.003494 0.013139 -0.002579 0.001739 -0.003391 -0.004170
# 3 -0.006085 -0.002579 0.010420 0.000023 -0.001467 0.000110
# 4 -0.001128 0.001739 0.000023 0.020867 -0.003151 0.000426
# 5 -0.001259 -0.003391 -0.001467 -0.003151 0.024321 -0.004514
# 6 0.006162 -0.004170 0.000110 0.000426 -0.004514 0.027427
#
#
# Mechanical properties :
#
#
# Convention : Reuss Voigt Hill
#
# Bulk Modulus (GPa) = 33.97262 47.60070 40.78666
# Shear Modulus (GPa) = 31.15342 39.78424 35.46883
#
# Velocity S-wave (km/s) = 3.46247 3.91281 3.69451
# Velocity P-wave (km/s) = 5.39060 6.22346 5.82194
#
# Compressibility (1/GPa) = 0.02943547
#
# Stress axis : x y z
#
# Youngs Moduli (GPa) = 33.11946 76.11037 95.96800
#
# Poissons Ratio (x) = 0.26594 0.58398
# Poissons Ratio (y) = 0.11573 0.24753
# Poissons Ratio (z) = 0.20154 0.19631
#
# Static dielectric constant tensor:
#      x y z
#    x 2.089580 0.020400 -0.055590 
#    y 0.020400 2.160800 -0.071860 
#    z -0.055590 -0.071860 2.403280 
# 
# From -- ./inp_files/78502.got.cif
#   From: 2010.05.17/outbox.cif.g08.bks.cpg/sg2_40_cif.got.tgz:78502.got - 2010.06.03 11:33:40.
