data_PCOD9045596
_publ_section_title
;
Structure prediction by ZEFSAII (Michael W. Deem and Ramdas Pophale) SiO2 
 PCOD9045596
Probable space group: P -1
;
_chemical_formula_sum "Si O2"
_cell_formula_units_Z 12
_cell_length_a 12.013433
_cell_length_b 12.371970
_cell_length_c 12.151882
_cell_angle_alpha 23.241927
_cell_angle_beta 65.537712
_cell_angle_gamma 60.892804
_cell_volume 619.879278
_symmetry_space_group_name_H-M "P -1"
_symmetry_group_IT_number 2
_symmetry_cell_setting 'triclinic'
loop_
_space_group_symop_operation_xyz
x,y,z
-x,-y,-z
loop_
_atom_site_type_symbol
_atom_site_label
_atom_site_fract_x
_atom_site_fract_y
_atom_site_fract_z
Si Si1 0.027043 0.723825 0.868011
Si Si2 0.595766 0.263353 0.761025
Si Si3 0.361819 0.166332 0.046312
Si Si4 0.216243 0.814020 0.546804
Si Si5 0.000775 0.733793 0.117566
Si Si6 0.849515 0.372622 0.629908
O O1 0.154848 0.793123 0.710233
O O2 0.905855 0.005512 0.642167
O O3 0.000000 0.500000 0.000000
O O4 0.033145 0.624227 0.083507
O O5 0.500000 0.500000 0.500000
O O6 0.507425 0.174790 0.971028
O O7 0.706670 0.374808 0.660368
O O8 0.655936 0.995855 0.906167
O O9 0.274585 0.492640 0.780462
O O10 0.319761 0.986798 0.327913
O O11 0.888687 0.624925 0.318061
O O12 0.118155 0.628796 0.252707
O O13 0.948207 0.077816 0.819846
#
# Coordination Sequence:
#
# PCOD9045596 Si02
#       6
#     2   2   2   2   2   2
#     4  11  24  35  62  92 118 163 199 255 298 350
#     4  11  24  35  62  92 118 163 199 255 298 350
#     4  11  23  37  54  90 123 153 194 254 302 350
#     4  11  23  37  54  90 123 153 194 254 302 350
#     4  10  24  41  61  87 123 161 196 246 306 364
#     4  10  24  41  61  87 123 161 196 246 306 364
#
# _framework density 19.358609000000001
#
# number of rings (size 3 to 8) (size 9 to 14) (size 15 to 20)
#    0.000    1.333    3.333    1.000   14.000    0.000 
#    0.000    0.000    0.000    2.000    0.000    0.000 
#    0.000    0.000    0.000    0.000    0.000    0.000 
#
# Total GULP energy -67058.486640 kJ/mol
# GULP energy per Si atom -5588.207220 kJ/mol
# Density = 1.931455 g / cm^3
# Si number density = 19.358609 Si / 1000 Ang^3
#
#
#
# Elastic Constant Matrix: (Units=GPa)
#
#
# Indices 1 2 3 4 5 6 
#
# 1 121.3716 34.4896 15.5958 20.2077 -4.6758 4.1869
# 2 34.4896 94.6268 27.5050 12.4450 7.3270 6.0168
# 3 15.5958 27.5050 75.2510 -7.2891 -5.3248 6.7965
# 4 20.2077 12.4450 -7.2891 43.1846 -2.7066 -1.4286
# 5 -4.6758 7.3270 -5.3248 -2.7066 28.2872 8.1008
# 6 4.1869 6.0168 6.7965 -1.4286 8.1008 30.9026
#
#
#
# Elastic Compliance Matrix: (Units=1/GPa)
#
#
# Indices 1 2 3 4 5 6 
#
# 1 0.009987 -0.002881 -0.001127 -0.003940 0.002180 -0.001298
# 2 -0.002881 0.014118 -0.005348 -0.003968 -0.005544 0.000088
# 3 -0.001127 -0.005348 0.016738 0.005140 0.005931 -0.003805
# 4 -0.003940 -0.003968 0.005140 0.027265 0.003829 0.000433
# 5 0.002180 -0.005544 0.005931 0.003829 0.041872 -0.011320
# 6 -0.001298 0.000088 -0.003805 0.000433 -0.011320 0.036343
#
#
# Mechanical properties :
#
#
# Convention : Reuss Voigt Hill
#
# Bulk Modulus (GPa) = 45.18294 49.60336 47.39315
# Shear Modulus (GPa) = 29.00030 34.71882 31.85956
#
# Velocity S-wave (km/s) = 3.87467 4.23952 4.06119
# Velocity P-wave (km/s) = 6.58848 7.04583 6.82099
#
# Compressibility (1/GPa) = 0.02213225
#
# Stress axis : x y z
#
# Youngs Moduli (GPa) = 100.12746 70.83290 59.74333
#
# Poissons Ratio (x) = 0.20404 0.06734
# Poissons Ratio (y) = 0.28843 0.31949
# Poissons Ratio (z) = 0.11286 0.37880
#
# Static dielectric constant tensor:
#      x y z
#    x 1.687870 -0.018550 -0.026510 
#    y -0.018550 1.695510 0.007250 
#    z -0.026510 0.007250 1.724710 
# 
# From -- ./inp_files/424802.got.cif
#   From: 2010.05.17/outbox.cif.g08.bks.cpg/sg2_213_cif.got.tgz:424802.got - 2010.06.03 11:33:40.
