data_PCOD9045235
_publ_section_title
;
Structure prediction by ZEFSAII (Michael W. Deem and Ramdas Pophale) SiO2 
 PCOD9045235
Probable space group: P -1
;
_chemical_formula_sum "Si O2"
_cell_formula_units_Z 14
_cell_length_a 7.427394
_cell_length_b 17.508963
_cell_length_c 4.821900
_cell_angle_alpha 81.030395
_cell_angle_beta 97.800958
_cell_angle_gamma 119.857622
_cell_volume 535.946944
_symmetry_space_group_name_H-M "P -1"
_symmetry_group_IT_number 2
_symmetry_cell_setting 'triclinic'
loop_
_space_group_symop_operation_xyz
x,y,z
-x,-y,-z
loop_
_atom_site_type_symbol
_atom_site_label
_atom_site_fract_x
_atom_site_fract_y
_atom_site_fract_z
Si Si1 0.602629 0.439825 0.475969
Si Si2 0.911706 0.606735 0.167640
Si Si3 0.829290 0.128970 0.522824
Si Si4 0.004369 0.081071 0.118383
Si Si5 0.177834 0.322113 0.390313
Si Si6 0.373392 0.701300 0.131879
Si Si7 0.529521 0.821535 0.587552
O O1 0.500000 0.500000 0.500000
O O2 0.804952 0.506228 0.307984
O O3 0.413916 0.357091 0.324758
O O4 0.631740 0.391525 0.772755
O O5 0.811475 0.655849 0.294880
O O6 0.150749 0.671840 0.238837
O O7 0.884174 0.614692 0.832297
O O8 0.607357 0.127305 0.487696
O O9 0.002902 0.222399 0.371732
O O10 0.845668 0.059531 0.356330
O O11 0.920698 0.124419 0.844040
O O12 0.238559 0.131926 0.263997
O O13 0.000000 0.000000 0.000000
O O14 0.535396 0.782285 0.309934
O O15 0.393602 0.740192 0.812649
#
# Coordination Sequence:
#
# PCOD9045235 Si02
#       7
#     2   2   2   2   2   2   2
#     4  10  24  38  61  93 135 182 226 294 352 390
#     4  11  21  39  60  90 129 173 225 282 336 390
#     4  12  24  47  76 102 144 185 226 286 345 415
#     4  12  28  47  74 111 143 177 225 280 351 431
#     4  11  21  40  62  93 126 172 234 270 335 407
#     4  12  23  44  65  97 137 177 240 286 337 418
#     4  12  26  47  75 105 136 186 235 286 349 413
#
# _framework density 26.121988000000002
#
# number of rings (size 3 to 8) (size 9 to 14) (size 15 to 20)
#    0.000    0.571    2.857    5.571    0.000    6.857 
#    0.000    5.000    0.000    0.000    0.000    0.000 
#    0.000    0.000    0.000    0.000    0.000    0.000 
#
# Total GULP energy -78233.587654 kJ/mol
# GULP energy per Si atom -5588.113404 kJ/mol
# Density = 2.606253 g / cm^3
# Si number density = 26.121988 Si / 1000 Ang^3
#
#
#
# Elastic Constant Matrix: (Units=GPa)
#
#
# Indices 1 2 3 4 5 6 
#
# 1 109.7525 36.3697 40.0984 -1.5636 21.4617 1.0243
# 2 36.3697 54.5754 18.1537 11.6175 9.0166 -4.6438
# 3 40.0984 18.1537 148.9703 7.2029 15.5172 -3.0890
# 4 -1.5636 11.6175 7.2029 42.7630 -3.6095 1.0459
# 5 21.4617 9.0166 15.5172 -3.6095 37.9127 2.8200
# 6 1.0243 -4.6438 -3.0890 1.0459 2.8200 42.2031
#
#
#
# Elastic Compliance Matrix: (Units=1/GPa)
#
#
# Indices 1 2 3 4 5 6 
#
# 1 0.013628 -0.008261 -0.002360 0.002795 -0.004430 -0.001186
# 2 -0.008261 0.026249 -0.000279 -0.007676 -0.002437 0.003421
# 3 -0.002360 -0.000279 0.007671 -0.001484 -0.001935 0.000754
# 4 0.002795 -0.007676 -0.001484 0.026163 0.003483 -0.001902
# 5 -0.004430 -0.002437 -0.001935 0.003483 0.030769 -0.002445
# 6 -0.001186 0.003421 0.000754 -0.001902 -0.002445 0.024366
#
#
# Mechanical properties :
#
#
# Convention : Reuss Voigt Hill
#
# Bulk Modulus (GPa) = 38.83808 55.83798 47.33803
# Shear Modulus (GPa) = 31.40133 39.15420 35.27776
#
# Velocity S-wave (km/s) = 3.47090 3.87576 3.67890
# Velocity P-wave (km/s) = 5.56445 6.43824 6.01723
#
# Compressibility (1/GPa) = 0.02574792
#
# Stress axis : x y z
#
# Youngs Moduli (GPa) = 73.37671 38.09648 130.36240
#
# Poissons Ratio (x) = 0.31472 0.30765
# Poissons Ratio (y) = 0.60617 0.03639
# Poissons Ratio (z) = 0.17317 0.01064
#
# Static dielectric constant tensor:
#      x y z
#    x 2.098020 -0.011960 0.048010 
#    y -0.011960 2.155080 -0.005180 
#    z 0.048010 -0.005180 1.998460 
# 
# From -- ./inp_files/43432.got.cif
#   From: 2010.05.17/outbox.cif.g08.bks.cpg/sg2_22_cif.got.tgz:43432.got - 2010.06.03 11:33:40.
