data_PCOD9045440
_publ_section_title
;
Structure prediction by ZEFSAII (Michael W. Deem and Ramdas Pophale) SiO2 
 PCOD9045440
Probable space group: P -1
;
_chemical_formula_sum "Si O2"
_cell_formula_units_Z 16
_cell_length_a 9.724221
_cell_length_b 15.156202
_cell_length_c 9.245580
_cell_angle_alpha 46.940573
_cell_angle_beta 111.223418
_cell_angle_gamma 82.038463
_cell_volume 764.950262
_symmetry_space_group_name_H-M "P -1"
_symmetry_group_IT_number 2
_symmetry_cell_setting 'triclinic'
loop_
_space_group_symop_operation_xyz
x,y,z
-x,-y,-z
loop_
_atom_site_type_symbol
_atom_site_label
_atom_site_fract_x
_atom_site_fract_y
_atom_site_fract_z
Si Si1 0.659442 0.992112 0.243001
Si Si2 0.970220 0.080862 0.603367
Si Si3 0.671891 0.493343 0.121598
Si Si4 0.395586 0.757694 0.880467
Si Si5 0.842403 0.490906 0.888602
Si Si6 0.487166 0.195589 0.662927
Si Si7 0.159442 0.747754 0.017887
Si Si8 0.810977 0.216211 0.674143
O O1 0.619108 0.096758 0.244525
O O2 0.579981 0.896046 0.337085
O O3 0.569574 0.104539 0.945818
O O4 0.873255 0.897821 0.401792
O O5 0.772187 0.195170 0.340276
O O6 0.954403 0.087974 0.763507
O O7 0.034580 0.921858 0.743737
O O8 0.779365 0.355996 0.420445
O O9 0.500000 0.500000 0.000000
O O10 0.585744 0.642439 0.012043
O O11 0.762309 0.483327 0.017960
O O12 0.349362 0.696760 0.072402
O O13 0.688147 0.638295 0.581182
O O14 0.895719 0.352579 0.962949
O O15 0.000000 0.500000 0.000000
O O16 0.640604 0.203881 0.633713
O O17 0.161207 0.752977 0.185488
#
# Coordination Sequence:
#
# PCOD9045440 Si02
#       8
#     2   2   2   2   2   2   2   2
#     4  10  24  40  66  98 134 172 213 266 329 386
#     4  11  22  40  68  97 134 169 219 271 315 378
#     4  12  23  43  66  96 129 170 221 272 318 377
#     4  11  21  40  70  96 129 174 222 263 315 390
#     4  12  28  46  66  95 132 172 218 271 332 385
#     4  11  23  42  64  97 133 171 208 275 326 376
#     4  11  23  40  69  98 125 175 219 261 320 394
#     4  12  23  42  70  99 131 169 220 271 315 388
#
# _framework density 20.916391000000001
#
# number of rings (size 3 to 8) (size 9 to 14) (size 15 to 20)
#    0.000    0.750    6.250    1.875    7.000    1.000 
#    2.250    1.875    0.000    0.000    0.000    0.000 
#    0.000    0.000    0.000    0.000    0.000    0.000 
#
# Total GULP energy -89285.330732 kJ/mol
# GULP energy per Si atom -5580.333171 kJ/mol
# Density = 2.086878 g / cm^3
# Si number density = 20.916391 Si / 1000 Ang^3
#
#
#
# Elastic Constant Matrix: (Units=GPa)
#
#
# Indices 1 2 3 4 5 6 
#
# 1 94.3878 61.5763 12.4301 -2.9080 4.2265 12.1358
# 2 61.5763 170.5979 25.3482 -3.5186 1.4942 0.5094
# 3 12.4301 25.3482 70.9062 0.2059 -13.0330 -4.1173
# 4 -2.9080 -3.5186 0.2059 31.6495 -4.6272 -2.4679
# 5 4.2265 1.4942 -13.0330 -4.6272 22.0343 7.6684
# 6 12.1358 0.5094 -4.1173 -2.4679 7.6684 36.0330
#
#
#
# Elastic Compliance Matrix: (Units=1/GPa)
#
#
# Indices 1 2 3 4 5 6 
#
# 1 0.014784 -0.005106 -0.001334 0.000199 -0.001599 -0.004705
# 2 -0.005106 0.008035 -0.002125 0.000374 -0.001325 0.001671
# 3 -0.001334 -0.002125 0.017063 0.001105 0.010641 0.000240
# 4 0.000199 0.000374 0.001105 0.032762 0.007204 0.000765
# 5 -0.001599 -0.001325 0.010641 0.007204 0.057022 -0.009868
# 6 -0.004705 0.001671 0.000240 0.000765 -0.009868 0.031493
#
#
# Mechanical properties :
#
#
# Convention : Reuss Voigt Hill
#
# Bulk Modulus (GPa) = 43.95182 59.40013 51.67598
# Shear Modulus (GPa) = 26.90014 33.71252 30.30633
#
# Velocity S-wave (km/s) = 3.59009 4.01905 3.81061
# Velocity P-wave (km/s) = 6.18415 7.07089 6.64233
#
# Compressibility (1/GPa) = 0.02275218
#
# Stress axis : x y z
#
# Youngs Moduli (GPa) = 67.64113 124.46018 58.60523
#
# Poissons Ratio (x) = 0.63546 0.07819
# Poissons Ratio (y) = 0.34536 0.12453
# Poissons Ratio (z) = 0.09025 0.26447
#
# Static dielectric constant tensor:
#      x y z
#    x 1.708530 -0.019500 0.004770 
#    y -0.019500 1.816750 -0.017280 
#    z 0.004770 -0.017280 1.834680 
# 
# From -- ./inp_files/205739.got.cif
#   From: 2010.05.17/outbox.cif.g08.bks.cpg/sg2_103_cif.got.tgz:205739.got - 2010.06.03 11:33:40.
