data_PCOD9045614
_publ_section_title
;
Structure prediction by ZEFSAII (Michael W. Deem and Ramdas Pophale) SiO2 
 PCOD9045614
Probable space group: P -1
;
_chemical_formula_sum "Si O2"
_cell_formula_units_Z 16
_cell_length_a 9.611840
_cell_length_b 7.944054
_cell_length_c 19.438409
_cell_angle_alpha 63.181168
_cell_angle_beta 125.200209
_cell_angle_gamma 73.350803
_cell_volume 716.532709
_symmetry_space_group_name_H-M "P -1"
_symmetry_group_IT_number 2
_symmetry_cell_setting 'triclinic'
loop_
_space_group_symop_operation_xyz
x,y,z
-x,-y,-z
loop_
_atom_site_type_symbol
_atom_site_label
_atom_site_fract_x
_atom_site_fract_y
_atom_site_fract_z
Si Si1 0.421283 0.631915 0.031006
Si Si2 0.006416 0.737138 0.521325
Si Si3 0.000579 0.298416 0.070583
Si Si4 0.046112 0.687150 0.230468
Si Si5 0.713978 0.630290 0.506063
Si Si6 0.060365 0.865544 0.657183
Si Si7 0.438920 0.661997 0.298202
Si Si8 0.188368 0.174240 0.303041
O O1 0.676576 0.444786 0.183290
O O2 0.500000 0.500000 0.000000
O O3 0.264826 0.591536 0.028851
O O4 0.221092 0.974026 0.912556
O O5 0.943055 0.875191 0.552600
O O6 0.313591 0.516504 0.645770
O O7 0.890865 0.624549 0.513412
O O8 0.900472 0.949979 0.388297
O O9 0.069417 0.253277 0.179024
O O10 0.224747 0.991433 0.156236
O O11 0.000000 0.500000 0.000000
O O12 0.121620 0.613179 0.345581
O O13 0.274855 0.608217 0.270153
O O14 0.056516 0.464639 0.247151
O O15 0.555917 0.623686 0.412656
O O16 0.494443 0.935979 0.425376
O O17 0.866008 0.970205 0.642771
#
# Coordination Sequence:
#
# PCOD9045614 Si02
#       8
#     2   2   2   2   2   2   2   2
#     4  11  25  44  67  96 132 179 217 269 330 393
#     4  11  25  41  68  99 133 175 219 280 323 384
#     4  10  24  44  67  96 130 177 214 274 333 390
#     4  11  24  41  68  98 130 177 218 267 335 394
#     4  11  23  41  69  99 130 172 222 274 329 383
#     4  11  25  43  65  98 137 171 222 270 335 380
#     4  10  24  41  63  98 132 169 224 269 331 388
#     4  11  23  44  67  97 134 172 220 273 327 397
#
# _framework density 22.329756
#
# number of rings (size 3 to 8) (size 9 to 14) (size 15 to 20)
#    0.000    1.250    2.500    1.875    8.750    2.500 
#    0.000    2.500    0.000    0.000    0.000    0.000 
#    0.000    0.000    0.000    0.000    0.000    0.000 
#
# Total GULP energy -89403.404632 kJ/mol
# GULP energy per Si atom -5587.712790 kJ/mol
# Density = 2.227893 g / cm^3
# Si number density = 22.329756 Si / 1000 Ang^3
#
#
#
# Elastic Constant Matrix: (Units=GPa)
#
#
# Indices 1 2 3 4 5 6 
#
# 1 146.4133 11.9548 59.5876 -16.7950 -5.6486 1.5273
# 2 11.9548 41.3712 7.3336 -13.2145 -0.7418 4.0704
# 3 59.5876 7.3336 73.6095 -16.8518 6.8100 9.7597
# 4 -16.7950 -13.2145 -16.8518 26.0401 -2.1482 -2.6812
# 5 -5.6486 -0.7418 6.8100 -2.1482 39.6761 -1.3777
# 6 1.5273 4.0704 9.7597 -2.6812 -1.3777 34.9820
#
#
#
# Elastic Compliance Matrix: (Units=1/GPa)
#
#
# Indices 1 2 3 4 5 6 
#
# 1 0.010822 -0.001407 -0.009020 0.000940 0.003197 0.002406
# 2 -0.001407 0.029306 0.001947 0.015005 0.000732 -0.002713
# 3 -0.009020 0.001947 0.024205 0.009794 -0.005082 -0.006035
# 4 0.000940 0.015005 0.009794 0.053053 0.001592 -0.000391
# 5 0.003197 0.000732 -0.005082 0.001592 0.026714 0.002367
# 6 0.002406 -0.002713 -0.006035 -0.000391 0.002367 0.030544
#
#
# Mechanical properties :
#
#
# Convention : Reuss Voigt Hill
#
# Bulk Modulus (GPa) = 21.10935 46.57175 33.84055
# Shear Modulus (GPa) = 24.10865 32.30750 28.20808
#
# Velocity S-wave (km/s) = 3.28939 3.80786 3.55808
# Velocity P-wave (km/s) = 4.88884 6.34308 5.66284
#
# Compressibility (1/GPa) = 0.04737237
#
# Stress axis : x y z
#
# Youngs Moduli (GPa) = 92.40606 34.12293 41.31314
#
# Poissons Ratio (x) = 0.04803 0.37263
# Poissons Ratio (y) = 0.13005 -0.08043
# Poissons Ratio (z) = 0.83347 -0.06643
#
# Static dielectric constant tensor:
#      x y z
#    x 1.820060 -0.035090 0.022040 
#    y -0.035090 1.933200 -0.025960 
#    z 0.022040 -0.025960 1.804650 
# 
# From -- ./inp_files/256265.got.cif
#   From: 2010.05.17/outbox.cif.g08.bks.cpg/sg2_129_cif.got.tgz:256265.got - 2010.06.03 11:33:40.
