data_PCOD9045800
_publ_section_title
;
Structure prediction by ZEFSAII (Michael W. Deem and Ramdas Pophale) SiO2 
 PCOD9045800
Probable space group: P -1
;
_chemical_formula_sum "Si O2"
_cell_formula_units_Z 14
_cell_length_a 9.374589
_cell_length_b 12.341780
_cell_length_c 19.165091
_cell_angle_alpha 47.928017
_cell_angle_beta 37.940931
_cell_angle_gamma 26.338806
_cell_volume 599.389616
_symmetry_space_group_name_H-M "P -1"
_symmetry_group_IT_number 2
_symmetry_cell_setting 'triclinic'
loop_
_space_group_symop_operation_xyz
x,y,z
-x,-y,-z
loop_
_atom_site_type_symbol
_atom_site_label
_atom_site_fract_x
_atom_site_fract_y
_atom_site_fract_z
Si Si1 0.798248 0.207857 0.306501
Si Si2 0.073368 0.156624 0.617253
Si Si3 0.366756 0.921836 0.894097
Si Si4 0.441130 0.433869 0.481729
Si Si5 0.225541 0.241229 0.050867
Si Si6 0.220812 0.536696 0.136992
Si Si7 0.118112 0.552149 0.319638
O O1 0.807810 0.210215 0.385731
O O2 0.383166 0.367113 0.362926
O O3 0.905990 0.300513 0.186803
O O4 0.055535 0.945544 0.293332
O O5 0.809898 0.355050 0.571104
O O6 0.050150 0.217276 0.680448
O O7 0.500000 0.000000 0.500000
O O8 0.493102 0.858028 0.952247
O O9 0.713217 0.662432 0.830004
O O10 0.202534 0.165900 0.830779
O O11 0.000000 0.000000 0.000000
O O12 0.500000 0.500000 0.500000
O O13 0.204463 0.403069 0.597208
O O14 0.000000 0.500000 0.000000
O O15 0.500000 0.000000 0.000000
O O16 0.354469 0.466960 0.195827
O O17 0.500000 0.500000 0.000000
#
# Coordination Sequence:
#
# PCOD9045800 Si02
#       7
#     2   2   2   2   2   2   2
#     4  11  26  45  73  99 142 192 240 297 361 442
#     4  11  21  46  73 100 137 184 249 290 357 445
#     4  10  24  45  69  97 145 182 240 295 357 424
#     4  11  25  44  68 107 142 177 237 305 370 425
#     4  12  30  48  74 108 148 193 246 301 368 439
#     4  10  24  41  70 103 142 181 241 290 357 425
#     4  11  24  42  74 101 139 195 237 296 366 436
#
# _framework density 23.357095999999999
#
# number of rings (size 3 to 8) (size 9 to 14) (size 15 to 20)
#    0.000    1.143    2.857    1.714   16.000    1.714 
#    0.000    0.000    0.000    0.000    0.000    0.000 
#    0.000    0.000    0.000    0.000    0.000    0.000 
#
# Total GULP energy -77993.389374 kJ/mol
# GULP energy per Si atom -5570.956384 kJ/mol
# Density = 2.330393 g / cm^3
# Si number density = 23.357096 Si / 1000 Ang^3
#
#
#
# Elastic Constant Matrix: (Units=GPa)
#
#
# Indices 1 2 3 4 5 6 
#
# 1 212.6897 51.4168 50.3960 3.2944 30.9086 30.2449
# 2 51.4168 116.3205 10.4413 -16.3427 5.4382 27.9222
# 3 50.3960 10.4413 99.5194 -6.7160 7.8890 27.1893
# 4 3.2944 -16.3427 -6.7160 33.2563 9.0246 3.1086
# 5 30.9086 5.4382 7.8890 9.0246 45.3967 9.0750
# 6 30.2449 27.9222 27.1893 3.1086 9.0750 44.4485
#
#
#
# Elastic Compliance Matrix: (Units=1/GPa)
#
#
# Indices 1 2 3 4 5 6 
#
# 1 0.006549 -0.002642 -0.002805 -0.001596 -0.003278 -0.000300
# 2 -0.002642 0.012637 0.002848 0.007858 -0.000090 -0.008414
# 3 -0.002805 0.002848 0.013933 0.005355 -0.000169 -0.008744
# 4 -0.001596 0.007858 0.005355 0.037750 -0.006607 -0.008417
# 5 -0.003278 -0.000090 -0.000169 -0.006607 0.026109 -0.002478
# 6 -0.000300 -0.008414 -0.008744 -0.008417 -0.002478 0.034431
#
#
# Mechanical properties :
#
#
# Convention : Reuss Voigt Hill
#
# Bulk Modulus (GPa) = 35.81418 72.55976 54.18697
# Shear Modulus (GPa) = 34.26685 45.70534 39.98610
#
# Velocity S-wave (km/s) = 3.83441 4.42838 4.14206
# Velocity P-wave (km/s) = 5.91356 7.56837 6.79156
#
# Compressibility (1/GPa) = 0.02792190
#
# Stress axis : x y z
#
# Youngs Moduli (GPa) = 152.70318 79.13190 71.76950
#
# Poissons Ratio (x) = 0.20906 0.20131
# Poissons Ratio (y) = 0.40344 -0.20442
# Poissons Ratio (z) = 0.42833 -0.22539
#
# Static dielectric constant tensor:
#      x y z
#    x 1.891980 0.107750 -0.076680 
#    y 0.107750 2.412340 0.405380 
#    z -0.076680 0.405380 3.013600 
# 
# From -- ./inp_files/72578.got.cif
#   From: 2010.05.17/outbox.cif.g08.bks.cpg/sg2_37_cif.got.tgz:72578.got - 2010.06.03 11:33:40.
