data_PCOD9045193
_publ_section_title
;
Structure prediction by ZEFSAII (Michael W. Deem and Ramdas Pophale) SiO2 
 PCOD9045193
Probable space group: P -1
;
_chemical_formula_sum "Si O2"
_cell_formula_units_Z 14
_cell_length_a 8.175947
_cell_length_b 15.893535
_cell_length_c 20.770953
_cell_angle_alpha 21.610973
_cell_angle_beta 37.051021
_cell_angle_gamma 42.838319
_cell_volume 598.494022
_symmetry_space_group_name_H-M "P -1"
_symmetry_group_IT_number 2
_symmetry_cell_setting 'triclinic'
loop_
_space_group_symop_operation_xyz
x,y,z
-x,-y,-z
loop_
_atom_site_type_symbol
_atom_site_label
_atom_site_fract_x
_atom_site_fract_y
_atom_site_fract_z
Si Si1 0.944828 0.447253 0.665395
Si Si2 0.491262 0.065989 0.065749
Si Si3 0.346148 0.122811 0.711287
Si Si4 0.891397 0.739446 0.111677
Si Si5 0.882651 0.963276 0.339411
Si Si6 0.283829 0.033401 0.464176
Si Si7 0.847870 0.315065 0.336862
O O1 0.901413 0.712072 0.481917
O O2 0.181164 0.348767 0.617312
O O3 0.032335 0.389147 0.753418
O O4 0.672321 0.298992 0.839510
O O5 0.552461 0.966715 0.188096
O O6 0.621671 0.880106 0.109883
O O7 0.170967 0.085749 0.147761
O O8 0.603083 0.178441 0.547732
O O9 0.132524 0.929595 0.890125
O O10 0.858459 0.560587 0.191903
O O11 0.605347 0.080066 0.325486
O O12 0.835539 0.924136 0.458262
O O13 0.216176 0.765637 0.658296
O O14 0.129344 0.200139 0.347288
#
# Coordination Sequence:
#
# PCOD9045193 Si02
#       7
#     2   2   2   2   2   2   2
#     4   9  17  31  56  84 103 129 172 215 260 310
#     4   9  17  31  56  84 103 129 172 215 260 310
#     4   9  17  31  56  84 103 129 172 215 260 310
#     4   9  17  31  56  84 103 129 172 215 260 310
#     4  11  19  39  52  75 106 141 168 220 253 297
#     4  10  24  34  54  74 104 142 188 198 246 318
#     4  11  19  39  52  75 106 141 168 220 253 297
#
# _framework density 23.392046000000001
#
# number of rings (size 3 to 8) (size 9 to 14) (size 15 to 20)
#    0.000    2.286    2.857    2.571    0.000    2.286 
#    0.000   12.857    0.000    3.429    0.000    0.000 
#    0.000    0.000    0.000    0.000    0.000    0.000 
#
# Total GULP energy -78335.956128 kJ/mol
# GULP energy per Si atom -5595.425438 kJ/mol
# Density = 2.333880 g / cm^3
# Si number density = 23.392046 Si / 1000 Ang^3
#
#
#
# Elastic Constant Matrix: (Units=GPa)
#
#
# Indices 1 2 3 4 5 6 
#
# 1 42.1298 23.3191 14.9353 12.5647 -17.6696 -7.6135
# 2 23.3191 101.7793 35.7659 34.0257 -22.1774 14.6408
# 3 14.9353 35.7659 44.4697 31.3089 -18.6213 12.7883
# 4 12.5647 34.0257 31.3089 19.3925 -1.4683 -44.5980
# 5 -17.6696 -22.1774 -18.6213 -1.4683 31.7209 1.7721
# 6 -7.6135 14.6408 12.7883 -44.5980 1.7721 16.1229
#
#
#
# Elastic Compliance Matrix: (Units=1/GPa)
#
#
# Indices 1 2 3 4 5 6 
#
# 1 0.034812 -0.003459 0.000037 -0.004755 0.016518 0.004583
# 2 -0.003459 0.013866 -0.012091 0.002489 0.000663 0.002177
# 3 0.000037 -0.012091 0.025718 0.008035 0.006360 0.012125
# 4 -0.004755 0.002489 0.008035 -0.002138 0.004676 -0.017306
# 5 0.016518 0.000663 0.006360 0.004676 0.044570 0.010190
# 6 0.004583 0.002177 0.012125 -0.017306 0.010190 0.003603
#
#
# Mechanical properties :
#
#
# Convention : Reuss Voigt Hill
#
# Bulk Modulus (GPa) = 23.05746 37.37995 30.21871
# Shear Modulus (GPa) = 30.13602 21.07114 25.60358
#
# Velocity S-wave (km/s) = 3.59319 3.00456 3.31198
# Velocity P-wave (km/s) = 5.20510 5.29632 5.25090
#
# Compressibility (1/GPa) = 0.04336991
#
# Stress axis : x y z
#
# Youngs Moduli (GPa) = 28.72569 72.11959 38.88335
#
# Poissons Ratio (x) = 0.24949 -0.00144
# Poissons Ratio (y) = 0.09937 0.47012
# Poissons Ratio (z) = -0.00106 0.87197
#
# Static dielectric constant tensor:
#      x y z
#    x 1.957940 0.001460 -0.011690 
#    y 0.001460 1.846290 -0.040210 
#    z -0.011690 -0.040210 1.851780 
# 
# From -- ./inp_files/185621.got.cif
#   From: 2010.05.17/outbox.cif.g08.bks.cpg/sg2_93_cif.got.tgz:185621.got - 2010.06.03 11:33:40.
