data_PCOD9045963
_publ_section_title
;
Structure prediction by ZEFSAII (Michael W. Deem and Ramdas Pophale) SiO2 
 PCOD9045963
Probable space group: P -1
;
_chemical_formula_sum "Si O2"
_cell_formula_units_Z 14
_cell_length_a 11.344604
_cell_length_b 18.674303
_cell_length_c 20.354711
_cell_angle_alpha 158.709951
_cell_angle_beta 145.596098
_cell_angle_gamma 22.487319
_cell_volume 578.574640
_symmetry_space_group_name_H-M "P -1"
_symmetry_group_IT_number 2
_symmetry_cell_setting 'triclinic'
loop_
_space_group_symop_operation_xyz
x,y,z
-x,-y,-z
loop_
_atom_site_type_symbol
_atom_site_label
_atom_site_fract_x
_atom_site_fract_y
_atom_site_fract_z
Si Si1 0.173126 0.124823 0.467743
Si Si2 0.259847 0.816594 0.121644
Si Si3 0.578085 0.735077 0.776961
Si Si4 0.335779 0.258617 0.868791
Si Si5 0.978438 0.922338 0.290438
Si Si6 0.775365 0.350457 0.663572
Si Si7 0.765163 0.085043 0.020609
O O1 0.912895 0.466556 0.664538
O O2 0.500000 0.000000 0.500000
O O3 0.093708 0.070473 0.317026
O O4 0.203351 0.931601 0.371365
O O5 0.449894 0.825477 0.166587
O O6 0.500000 0.500000 0.000000
O O7 0.001733 0.878288 0.013380
O O8 0.604454 0.565575 0.704169
O O9 0.313319 0.874543 0.720822
O O10 0.500000 0.000000 0.000000
O O11 0.559818 0.065378 0.870973
O O12 0.079195 0.276898 0.750093
O O13 0.133936 0.598618 0.083081
O O14 0.881423 0.063359 0.438552
O O15 0.500974 0.570190 0.780169
O O16 0.000000 0.000000 0.000000
#
# Coordination Sequence:
#
# PCOD9045963 Si02
#       7
#     2   2   2   2   2   2   2
#     4  11  23  37  64 102 138 171 223 283 336 395
#     4  11  21  41  69  93 134 177 218 274 342 388
#     4  11  22  40  65 102 134 173 227 278 338 398
#     4  11  23  42  66  99 131 180 222 270 338 406
#     4  11  22  40  64  98 136 172 223 277 337 401
#     4  11  22  40  68  91 134 173 222 276 332 404
#     4  10  24  42  65  93 131 174 223 278 339 398
#
# _framework density 24.197398
#
# number of rings (size 3 to 8) (size 9 to 14) (size 15 to 20)
#    0.000    1.143    2.857    5.571    0.000    0.571 
#    0.000    0.000    3.143    4.286    0.000    0.000 
#    0.000    0.000    0.000    0.000    0.000    0.000 
#
# Total GULP energy -78375.234347 kJ/mol
# GULP energy per Si atom -5598.231025 kJ/mol
# Density = 2.414232 g / cm^3
# Si number density = 24.197398 Si / 1000 Ang^3
#
#
#
# Elastic Constant Matrix: (Units=GPa)
#
#
# Indices 1 2 3 4 5 6 
#
# 1 111.4012 53.7767 58.7024 -6.1152 -22.0955 -9.9417
# 2 53.7767 163.3483 47.4744 -26.8320 -9.7780 -4.2765
# 3 58.7024 47.4744 163.4842 -3.5140 -25.9096 -9.5418
# 4 -6.1152 -26.8320 -3.5140 43.5734 -0.8503 -18.6709
# 5 -22.0955 -9.7780 -25.9096 -0.8503 53.2378 3.7643
# 6 -9.9417 -4.2765 -9.5418 -18.6709 3.7643 39.6777
#
#
#
# Elastic Compliance Matrix: (Units=1/GPa)
#
#
# Indices 1 2 3 4 5 6 
#
# 1 0.012928 -0.002978 -0.003133 0.000738 0.003149 0.002213
# 2 -0.002978 0.008443 -0.001157 0.005820 -0.000343 0.002657
# 3 -0.003133 -0.001157 0.007984 -0.000156 0.002320 0.000717
# 4 0.000738 0.005820 -0.000156 0.033747 0.000665 0.016592
# 5 0.003149 -0.000343 0.002320 0.000665 0.021194 -0.000388
# 6 0.002213 0.002657 0.000717 0.016592 -0.000388 0.034061
#
#
# Mechanical properties :
#
#
# Convention : Reuss Voigt Hill
#
# Bulk Modulus (GPa) = 67.47906 84.23785 75.85845
# Shear Modulus (GPa) = 36.27595 45.84980 41.06288
#
# Velocity S-wave (km/s) = 3.87611 4.35768 4.12393
# Velocity P-wave (km/s) = 6.92674 7.75935 7.35484
#
# Compressibility (1/GPa) = 0.01481941
#
# Stress axis : x y z
#
# Youngs Moduli (GPa) = 77.35411 118.43479 125.25272
#
# Poissons Ratio (x) = 0.35267 0.39243
# Poissons Ratio (y) = 0.23034 0.14490
# Poissons Ratio (z) = 0.24236 0.13702
#
# Static dielectric constant tensor:
#      x y z
#    x 1.996860 0.039790 -0.007780 
#    y 0.039790 1.969030 0.012760 
#    z -0.007780 0.012760 1.932690 
# 
# From -- ./inp_files/457762.got.cif
#   From: 2010.05.17/outbox.cif.g08.bks.cpg/sg2_229_cif.got.tgz:457762.got - 2010.06.03 11:33:40.
