data_PCOD9045283
_publ_section_title
;
Structure prediction by ZEFSAII (Michael W. Deem and Ramdas Pophale) SiO2 
 PCOD9045283
Probable space group: P -1
;
_chemical_formula_sum "Si O2"
_cell_formula_units_Z 14
_cell_length_a 26.112800
_cell_length_b 4.866719
_cell_length_c 4.997685
_cell_angle_alpha 114.823218
_cell_angle_beta 103.024997
_cell_angle_gamma 96.550850
_cell_volume 545.745928
_symmetry_space_group_name_H-M "P -1"
_symmetry_group_IT_number 2
_symmetry_cell_setting 'triclinic'
loop_
_space_group_symop_operation_xyz
x,y,z
-x,-y,-z
loop_
_atom_site_type_symbol
_atom_site_label
_atom_site_fract_x
_atom_site_fract_y
_atom_site_fract_z
Si Si1 0.555404 0.440921 0.653591
Si Si2 0.092341 0.176768 0.593071
Si Si3 0.733339 0.272680 0.704750
Si Si4 0.594988 0.157254 0.069858
Si Si5 0.307096 0.318655 0.823008
Si Si6 0.945107 0.540120 0.815852
Si Si7 0.208029 0.513391 0.640518
O O1 0.500000 0.500000 0.500000
O O2 0.579195 0.247430 0.381399
O O3 0.551793 0.253577 0.850552
O O4 0.592750 0.791671 0.882104
O O5 0.083532 0.292333 0.925830
O O6 0.149168 0.362346 0.613755
O O7 0.048668 0.262330 0.369993
O O8 0.087743 0.809867 0.432403
O O9 0.686403 0.011617 0.405778
O O10 0.783508 0.372715 0.603192
O O11 0.704967 0.561472 0.850548
O O12 0.759159 0.229826 0.006867
O O13 0.649445 0.394287 0.129324
O O14 0.246922 0.276617 0.607628
O O15 0.000000 0.500000 0.000000
#
# Coordination Sequence:
#
# PCOD9045283 Si02
#       7
#     2   2   2   2   2   2   2
#     4  12  26  47  70 101 134 175 227 285 334 396
#     4  12  26  43  74 100 135 179 222 274 341 396
#     4  10  24  39  64  88 138 168 220 261 326 376
#     4  12  26  43  74  98 137 177 226 270 345 396
#     4  10  26  40  66  95 135 172 218 267 325 396
#     4  12  26  48  70 101 134 175 227 282 334 396
#     4  10  26  40  66  95 137 168 222 263 329 392
#
# _framework density 25.652964000000001
#
# number of rings (size 3 to 8) (size 9 to 14) (size 15 to 20)
#    0.857    0.000    0.000    6.000   10.000    0.000 
#    0.000    0.000    0.000    0.000    0.000    0.000 
#    0.000    0.000    0.000    0.000    0.000    0.000 
#
# Total GULP energy -78318.864246 kJ/mol
# GULP energy per Si atom -5594.204589 kJ/mol
# Density = 2.559458 g / cm^3
# Si number density = 25.652964 Si / 1000 Ang^3
#
#
#
# Elastic Constant Matrix: (Units=GPa)
#
#
# Indices 1 2 3 4 5 6 
#
# 1 68.2900 -24.7288 20.6527 16.3364 -4.3526 8.2663
# 2 -24.7288 101.3363 45.3803 22.8445 -9.1470 2.2285
# 3 20.6527 45.3803 187.4415 30.7120 -30.8011 15.6403
# 4 16.3364 22.8445 30.7120 45.2137 -3.3832 14.0180
# 5 -4.3526 -9.1470 -30.8011 -3.3832 38.7747 -10.0708
# 6 8.2663 2.2285 15.6403 14.0180 -10.0708 27.8237
#
#
#
# Elastic Compliance Matrix: (Units=1/GPa)
#
#
# Indices 1 2 3 4 5 6 
#
# 1 0.021096 0.008725 -0.002510 -0.010267 0.001587 0.000191
# 2 0.008725 0.015760 -0.003058 -0.010031 0.002374 0.003778
# 3 -0.002510 -0.003058 0.007509 -0.002158 0.004654 -0.000458
# 4 -0.010267 -0.010031 -0.002158 0.036760 -0.006093 -0.015659
# 5 0.001587 0.002374 0.004654 -0.006093 0.032715 0.011633
# 6 0.000191 0.003778 -0.000458 -0.015659 0.011633 0.047939
#
#
# Mechanical properties :
#
#
# Convention : Reuss Voigt Hill
#
# Bulk Modulus (GPa) = 19.73228 48.85292 34.29260
# Shear Modulus (GPa) = 29.00975 43.41332 36.21153
#
# Velocity S-wave (km/s) = 3.36647 4.11826 3.76119
# Velocity P-wave (km/s) = 4.77698 6.45744 5.67970
#
# Compressibility (1/GPa) = 0.05067837
#
# Stress axis : x y z
#
# Youngs Moduli (GPa) = 47.40219 63.45352 133.18165
#
# Poissons Ratio (x) = -0.55366 0.33428
# Poissons Ratio (y) = -0.41361 0.40732
# Poissons Ratio (z) = 0.11898 0.19406
#
# Static dielectric constant tensor:
#      x y z
#    x 2.066960 -0.111710 0.058860 
#    y -0.111710 2.054730 0.040900 
#    z 0.058860 0.040900 2.053230 
# 
# From -- ./inp_files/125389.got.cif
#   From: 2010.05.17/outbox.cif.g08.bks.cpg/sg2_63_cif.got.tgz:125389.got - 2010.06.03 11:33:40.
