data_PCOD9045347
_publ_section_title
;
Structure prediction by ZEFSAII (Michael W. Deem and Ramdas Pophale) SiO2 
 PCOD9045347
Probable space group: P -1
;
_chemical_formula_sum "Si O2"
_cell_formula_units_Z 11
_cell_length_a 9.082188
_cell_length_b 8.949671
_cell_length_c 14.589315
_cell_angle_alpha 46.840610
_cell_angle_beta 124.015691
_cell_angle_gamma 147.882023
_cell_volume 459.297285
_symmetry_space_group_name_H-M "P -1"
_symmetry_group_IT_number 2
_symmetry_cell_setting 'triclinic'
loop_
_space_group_symop_operation_xyz
x,y,z
-x,-y,-z
loop_
_atom_site_type_symbol
_atom_site_label
_atom_site_fract_x
_atom_site_fract_y
_atom_site_fract_z
Si Si1 0.000000 0.000000 0.000000
Si Si2 0.167119 0.605461 0.922209
Si Si3 0.902780 0.571841 0.514372
Si Si4 0.294013 0.690929 0.247145
Si Si5 0.577029 0.608747 0.863882
Si Si6 0.362568 0.292480 0.369812
O O1 0.239123 0.126309 0.104639
O O2 0.252163 0.321086 0.890609
O O3 0.933519 0.378246 0.858595
O O4 0.399093 0.969813 0.818807
O O5 0.319511 0.531851 0.028730
O O6 0.000000 0.500000 0.000000
O O7 0.762067 0.347783 0.648513
O O8 0.673709 0.523123 0.413947
O O9 0.000000 0.500000 0.500000
O O10 0.163072 0.936672 0.485500
O O11 0.265595 0.429514 0.312771
O O12 0.644236 0.730373 0.733001
#
# Coordination Sequence:
#
# PCOD9045347 Si02
#       6
#     1   2   2   2   2   2
#     4  10  24  40  60 100 142 184 230 272 350 432
#     4  12  25  43  73 107 145 178 238 290 356 420
#     4  12  28  48  72 104 142 189 245 297 358 417
#     4  12  26  46  75 106 145 191 236 297 356 421
#     4  11  24  43  70 103 142 186 230 288 359 420
#     4  12  25  46  76  99 144 184 245 292 356 422
#
# _framework density 23.949631
#
# number of rings (size 3 to 8) (size 9 to 14) (size 15 to 20)
#    0.000    0.364    1.818    6.545    2.545    8.727 
#    0.000    0.000    0.000    0.000    0.000    0.000 
#    0.000    0.000    0.000    0.000    0.000    0.000 
#
# Total GULP energy -61414.737149 kJ/mol
# GULP energy per Si atom -5583.157923 kJ/mol
# Density = 2.389512 g / cm^3
# Si number density = 23.949631 Si / 1000 Ang^3
#
#
#
# Elastic Constant Matrix: (Units=GPa)
#
#
# Indices 1 2 3 4 5 6 
#
# 1 100.7142 35.5771 32.6194 -29.2430 -40.9162 15.1347
# 2 35.5771 116.2856 19.4132 -22.8348 -12.1825 27.5919
# 3 32.6194 19.4132 111.2558 -5.5203 -50.0913 -1.5463
# 4 -29.2430 -22.8348 -5.5203 48.4171 -7.4967 -0.0938
# 5 -40.9162 -12.1825 -50.0913 -7.4967 31.6491 -0.3699
# 6 15.1347 27.5919 -1.5463 -0.0938 -0.3699 45.1022
#
#
#
# Elastic Compliance Matrix: (Units=1/GPa)
#
#
# Indices 1 2 3 4 5 6 
#
# 1 -0.012411 -0.003988 -0.023736 -0.021387 -0.060152 0.005253
# 2 -0.003988 0.011502 -0.003538 0.001672 -0.006001 -0.005865
# 3 -0.023736 -0.003538 -0.004698 -0.023479 -0.044934 0.009551
# 4 -0.021387 0.001672 -0.023479 -0.004224 -0.065111 0.004806
# 5 -0.060152 -0.006001 -0.044934 -0.065111 -0.134773 0.021075
# 6 0.005253 -0.005865 0.009551 0.004806 0.021075 0.024507
#
#
# Mechanical properties :
#
#
# Convention : Reuss Voigt Hill
#
# Bulk Modulus (GPa) = -14.67735 55.94164 20.63214
# Shear Modulus (GPa) = -62.27910 41.07673 -10.60119
#
# Velocity S-wave (km/s) = -5.10496 4.14591 -2.10620
# Velocity P-wave (km/s) = 6.39447 6.80638 1.64887
#
# Compressibility (1/GPa) = -0.06813219
#
# Stress axis : x y z
#
# Youngs Moduli (GPa) = -80.57238 86.94464 -212.84631
#
# Poissons Ratio (x) = 0.34674 -5.05214
# Poissons Ratio (y) = -0.32133 -0.75304
# Poissons Ratio (z) = -1.91248 0.30761
#
# Static dielectric constant tensor:
#      x y z
#    x 1.978120 -0.050310 -0.013050 
#    y -0.050310 1.879580 -0.009030 
#    z -0.013050 -0.009030 1.865830 
# 
# From -- ./inp_files/200033.got.cif
#   From: 2010.05.17/outbox.cif.g08.bks.cpg/sg2_101_cif.got.tgz:200033.got - 2010.06.03 11:33:40.
