data_PCOD9045153
_publ_section_title
;
Structure prediction by ZEFSAII (Michael W. Deem and Ramdas Pophale) SiO2 
 PCOD9045153
Probable space group: P -1
;
_chemical_formula_sum "Si O2"
_cell_formula_units_Z 12
_cell_length_a 9.236895
_cell_length_b 9.768687
_cell_length_c 8.183760
_cell_angle_alpha 110.747443
_cell_angle_beta 119.760152
_cell_angle_gamma 40.641572
_cell_volume 417.202642
_symmetry_space_group_name_H-M "P -1"
_symmetry_group_IT_number 2
_symmetry_cell_setting 'triclinic'
loop_
_space_group_symop_operation_xyz
x,y,z
-x,-y,-z
loop_
_atom_site_type_symbol
_atom_site_label
_atom_site_fract_x
_atom_site_fract_y
_atom_site_fract_z
Si Si1 0.583317 0.129323 0.486994
Si Si2 0.258235 0.306549 0.641462
Si Si3 0.716239 0.977286 0.072057
Si Si4 0.547270 0.416427 0.181238
Si Si5 0.187909 0.713745 0.404091
Si Si6 0.933515 0.618063 0.846081
O O1 0.312311 0.099565 0.564122
O O2 0.499100 0.219402 0.661722
O O3 0.750104 0.153293 0.527413
O O4 0.316206 0.293288 0.324490
O O5 0.000000 0.500000 0.500000
O O6 0.637810 0.192942 0.117610
O O7 0.183048 0.434315 0.817339
O O8 0.921338 0.835709 0.263608
O O9 0.849700 0.836242 0.924540
O O10 0.500000 0.000000 0.000000
O O11 0.746392 0.362098 0.400676
O O12 0.500000 0.500000 0.000000
O O13 0.336091 0.557432 0.262066
O O14 0.000000 0.500000 0.000000
#
# Coordination Sequence:
#
# PCOD9045153 Si02
#       6
#     2   2   2   2   2   2
#     4  10  23  49  82 119 168 226 285 356 434 524
#     4   9  22  46  78 122 171 218 288 353 435 518
#     4  12  30  53  87 126 175 234 298 360 441 530
#     4  11  29  56  88 127 177 221 290 369 449 528
#     4  11  28  54  89 122 171 233 293 363 447 523
#     4  11  27  42  79 120 167 223 285 352 427 517
#
# _framework density 28.763003000000001
#
# number of rings (size 3 to 8) (size 9 to 14) (size 15 to 20)
#    0.000    1.333    0.000    1.500   11.667    8.667 
#    0.000    0.833    0.000    4.000    0.000    0.000 
#    0.000    0.000    0.000    0.000    0.000    0.000 
#
# Total GULP energy -67039.143899 kJ/mol
# GULP energy per Si atom -5586.595325 kJ/mol
# Density = 2.869754 g / cm^3
# Si number density = 28.763003 Si / 1000 Ang^3
#
#
#
# Elastic Constant Matrix: (Units=GPa)
#
#
# Indices 1 2 3 4 5 6 
#
# 1 147.7436 73.4120 67.6865 12.9574 -4.1913 -11.3276
# 2 73.4120 229.6514 99.1986 22.6510 -8.4978 -3.2406
# 3 67.6865 99.1986 203.8860 -12.1723 -9.8640 -14.5051
# 4 12.9574 22.6510 -12.1723 95.7069 -21.5175 -0.8828
# 5 -4.1913 -8.4978 -9.8640 -21.5175 74.7454 6.7799
# 6 -11.3276 -3.2406 -14.5051 -0.8828 6.7799 46.9406
#
#
#
# Elastic Compliance Matrix: (Units=1/GPa)
#
#
# Indices 1 2 3 4 5 6 
#
# 1 0.008792 -0.001828 -0.002015 -0.001096 -0.000425 0.001414
# 2 -0.001828 0.006184 -0.002560 -0.001575 -0.000117 -0.000818
# 3 -0.002015 -0.002560 0.007088 0.002014 0.000982 0.001423
# 4 -0.001096 -0.001575 0.002014 0.012009 0.003485 -0.000028
# 5 -0.000425 -0.000117 0.000982 0.003485 0.014643 -0.001856
# 6 0.001414 -0.000818 0.001423 -0.000028 -0.001856 0.022296
#
#
# Mechanical properties :
#
#
# Convention : Reuss Voigt Hill
#
# Bulk Modulus (GPa) = 108.00204 117.98611 112.99407
# Shear Modulus (GPa) = 57.53470 66.21084 61.87277
#
# Velocity S-wave (km/s) = 4.47733 4.80306 4.64305
# Velocity P-wave (km/s) = 8.02241 8.47752 8.25310
#
# Compressibility (1/GPa) = 0.00925908
#
# Stress axis : x y z
#
# Youngs Moduli (GPa) = 113.73493 161.70800 141.08097
#
# Poissons Ratio (x) = 0.29558 0.28428
# Poissons Ratio (y) = 0.20789 0.36114
# Poissons Ratio (z) = 0.22918 0.41394
#
# Static dielectric constant tensor:
#      x y z
#    x 2.665420 -0.123860 -0.676390 
#    y -0.123860 2.377330 0.229130 
#    z -0.676390 0.229130 3.424420 
# 
# From -- ./inp_files/263234.got.cif
#   From: 2010.05.17/outbox.cif.g08.bks.cpg/sg2_132_cif.got.tgz:263234.got - 2010.06.03 11:33:40.
