data_PCOD9045700
_publ_section_title
;
Structure prediction by ZEFSAII (Michael W. Deem and Ramdas Pophale) SiO2 
 PCOD9045700
Probable space group: P -1
;
_chemical_formula_sum "Si O2"
_cell_formula_units_Z 14
_cell_length_a 10.663210
_cell_length_b 6.551204
_cell_length_c 12.934226
_cell_angle_alpha 134.755785
_cell_angle_beta 67.921331
_cell_angle_gamma 107.686541
_cell_volume 593.515349
_symmetry_space_group_name_H-M "P -1"
_symmetry_group_IT_number 2
_symmetry_cell_setting 'triclinic'
loop_
_space_group_symop_operation_xyz
x,y,z
-x,-y,-z
loop_
_atom_site_type_symbol
_atom_site_label
_atom_site_fract_x
_atom_site_fract_y
_atom_site_fract_z
Si Si1 0.132137 0.973670 0.020702
Si Si2 0.263007 0.397535 0.782464
Si Si3 0.225425 0.811302 0.327804
Si Si4 0.289257 0.480625 0.581547
Si Si5 0.343111 0.411309 0.996159
Si Si6 0.357217 0.830307 0.496559
Si Si7 0.005658 0.425180 0.350449
O O1 0.263791 0.140397 0.983744
O O2 0.094086 0.155484 0.199011
O O3 0.153926 0.638126 0.914630
O O4 0.000000 0.000000 0.000000
O O5 0.338807 0.510719 0.694408
O O6 0.241274 0.060240 0.637681
O O7 0.331402 0.378401 0.865292
O O8 0.263847 0.676948 0.159919
O O9 0.314264 0.685040 0.349908
O O10 0.075768 0.696420 0.363928
O O11 0.260437 0.148376 0.441965
O O12 0.373360 0.633605 0.520030
O O13 0.143613 0.617157 0.665686
O O14 0.500000 0.500000 0.000000
O O15 0.500000 0.000000 0.500000
O O16 0.000000 0.500000 0.500000
#
# Coordination Sequence:
#
# PCOD9045700 Si02
#       7
#     2   2   2   2   2   2   2
#     4  11  25  46  68 104 141 186 232 284 351 423
#     4  11  25  43  71 101 136 189 228 285 355 418
#     4  10  24  41  67 101 130 185 226 285 353 404
#     4  11  23  43  67  99 137 180 232 283 343 415
#     4  11  26  46  68 104 144 178 234 295 348 419
#     4  11  24  44  68  98 137 183 238 287 339 418
#     4  11  22  42  69  97 140 174 228 293 341 407
#
# _framework density 23.588270000000001
#
# number of rings (size 3 to 8) (size 9 to 14) (size 15 to 20)
#    0.000    1.143    2.857    2.143    2.000    4.571 
#    0.000    0.000    0.000    0.000    0.000    0.000 
#    0.000    0.000    0.000    0.000    0.000    0.000 
#
# Total GULP energy -78166.108579 kJ/mol
# GULP energy per Si atom -5583.293470 kJ/mol
# Density = 2.353458 g / cm^3
# Si number density = 23.588270 Si / 1000 Ang^3
#
#
#
# Elastic Constant Matrix: (Units=GPa)
#
#
# Indices 1 2 3 4 5 6 
#
# 1 61.0640 12.0836 2.2408 -17.9259 -1.0762 17.7013
# 2 12.0836 110.6846 39.7774 -19.9390 -13.7833 12.8529
# 3 2.2408 39.7774 121.5851 0.4391 -8.3196 -2.0766
# 4 -17.9259 -19.9390 0.4391 47.4613 -12.2127 -4.9642
# 5 -1.0762 -13.7833 -8.3196 -12.2127 34.1962 -1.5705
# 6 17.7013 12.8529 -2.0766 -4.9642 -1.5705 40.9039
#
#
#
# Elastic Compliance Matrix: (Units=1/GPa)
#
#
# Indices 1 2 3 4 5 6 
#
# 1 0.021155 0.000797 -0.000587 0.008350 0.003446 -0.008289
# 2 0.000797 0.012829 -0.003843 0.007070 0.006627 -0.003459
# 3 -0.000587 -0.003843 0.009545 -0.001681 0.000235 0.001751
# 4 0.008350 0.007070 -0.001681 0.030511 0.013522 -0.001698
# 5 0.003446 0.006627 0.000235 0.013522 0.036886 -0.000504
# 6 -0.008289 -0.003459 0.001751 -0.001698 -0.000504 0.028985
#
#
# Mechanical properties :
#
#
# Convention : Reuss Voigt Hill
#
# Bulk Modulus (GPa) = 27.57548 44.61527 36.09538
# Shear Modulus (GPa) = 31.39439 40.46108 35.92774
#
# Velocity S-wave (km/s) = 3.65215 4.14612 3.90695
# Velocity P-wave (km/s) = 5.43139 6.47114 5.97393
#
# Compressibility (1/GPa) = 0.03626410
#
# Stress axis : x y z
#
# Youngs Moduli (GPa) = 47.27020 77.94704 104.76891
#
# Poissons Ratio (x) = -0.06214 0.06146
# Poissons Ratio (y) = -0.03768 0.40263
# Poissons Ratio (z) = 0.02773 0.29955
#
# Static dielectric constant tensor:
#      x y z
#    x 1.942610 0.002940 -0.039080 
#    y 0.002940 1.925670 0.011300 
#    z -0.039080 0.011300 1.929900 
# 
# From -- ./inp_files/368004.got.cif
#   From: 2010.05.17/outbox.cif.g08.bks.cpg/sg2_185_cif.got.tgz:368004.got - 2010.06.03 11:33:40.
