data_PCOD9045438
_publ_section_title
;
Structure prediction by ZEFSAII (Michael W. Deem and Ramdas Pophale) SiO2 
 PCOD9045438
Probable space group: P -1
;
_chemical_formula_sum "Si O2"
_cell_formula_units_Z 16
_cell_length_a 8.673318
_cell_length_b 10.926976
_cell_length_c 18.090116
_cell_angle_alpha 84.559778
_cell_angle_beta 50.685768
_cell_angle_gamma 122.992880
_cell_volume 818.033478
_symmetry_space_group_name_H-M "P -1"
_symmetry_group_IT_number 2
_symmetry_cell_setting 'triclinic'
loop_
_space_group_symop_operation_xyz
x,y,z
-x,-y,-z
loop_
_atom_site_type_symbol
_atom_site_label
_atom_site_fract_x
_atom_site_fract_y
_atom_site_fract_z
Si Si1 0.416379 0.941807 0.217322
Si Si2 0.804901 0.791259 0.858947
Si Si3 0.517478 0.879157 0.960422
Si Si4 0.735374 0.174001 0.358923
Si Si5 0.148546 0.238315 0.993538
Si Si6 0.743443 0.364833 0.806130
Si Si7 0.305405 0.080717 0.366471
Si Si8 0.681218 0.423162 0.116102
O O1 0.210056 0.733957 0.252688
O O2 0.499443 0.083564 0.121036
O O3 0.259509 0.940814 0.333106
O O4 0.762610 0.050863 0.127335
O O5 0.840434 0.951551 0.863794
O O6 0.525075 0.672231 0.890887
O O7 0.081933 0.852856 0.730861
O O8 0.740549 0.687143 0.959596
O O9 0.273952 0.681731 0.098294
O O10 0.500000 0.000000 0.000000
O O11 0.531369 0.143561 0.359971
O O12 0.000059 0.401210 0.294440
O O13 0.500000 0.000000 0.500000
O O14 0.384819 0.241273 0.901308
O O15 0.231856 0.392998 0.907254
O O16 0.485944 0.267569 0.250058
O O17 0.000000 0.000000 0.500000
O O18 0.000000 0.500000 0.000000
#
# Coordination Sequence:
#
# PCOD9045438 Si02
#       8
#     2   2   2   2   2   2   2   2
#     4  11  21  42  65  98 137 168 208 268 339 397
#     4  11  20  37  63  95 129 164 211 275 320 383
#     4   9  20  35  62  96 132 161 198 260 339 387
#     4  12  26  44  66  90 124 177 230 271 320 385
#     4  11  21  34  66 100 130 162 208 271 334 386
#     4  10  24  40  66  97 136 165 211 272 337 396
#     4  12  27  43  67  94 129 175 229 274 323 394
#     4  12  21  35  65  99 128 164 220 273 323 377
#
# _framework density 19.559101999999999
#
# number of rings (size 3 to 8) (size 9 to 14) (size 15 to 20)
#    0.000    1.000    5.000    1.500    7.000    0.000 
#    0.000    1.250    0.000    0.000    0.000    0.000 
#    0.000    0.000    0.000    0.000    0.000    0.000 
#
# Total GULP energy -89090.098116 kJ/mol
# GULP energy per Si atom -5568.131132 kJ/mol
# Density = 1.951458 g / cm^3
# Si number density = 19.559102 Si / 1000 Ang^3
#
#
#
# Elastic Constant Matrix: (Units=GPa)
#
#
# Indices 1 2 3 4 5 6 
#
# 1 128.9820 31.8425 57.5753 7.8596 -4.4922 -8.9828
# 2 31.8425 101.0167 66.7789 21.9809 -6.6214 -19.7265
# 3 57.5753 66.7789 127.0166 15.1548 -0.0685 -14.9000
# 4 7.8596 21.9809 15.1548 25.2132 -10.7048 -1.2310
# 5 -4.4922 -6.6214 -0.0685 -10.7048 39.4355 3.4746
# 6 -8.9828 -19.7265 -14.9000 -1.2310 3.4746 29.2860
#
#
#
# Elastic Compliance Matrix: (Units=1/GPa)
#
#
# Indices 1 2 3 4 5 6 
#
# 1 0.009780 -0.000026 -0.004352 0.000074 0.001065 0.000645
# 2 -0.000026 0.019220 -0.007637 -0.012089 -0.000832 0.008643
# 3 -0.004352 -0.007637 0.014130 -0.001371 -0.002206 0.000914
# 4 0.000074 -0.012089 -0.001371 0.056569 0.014046 -0.008106
# 5 0.001065 -0.000832 -0.002206 0.014046 0.029525 -0.004269
# 6 0.000645 0.008643 0.000914 -0.008106 -0.004269 0.040796
#
#
# Mechanical properties :
#
#
# Convention : Reuss Voigt Hill
#
# Bulk Modulus (GPa) = 52.35715 74.37875 63.36795
# Shear Modulus (GPa) = 24.94790 32.17486 28.56138
#
# Velocity S-wave (km/s) = 3.57531 4.06027 3.82548
# Velocity P-wave (km/s) = 6.62349 7.75186 7.20978
#
# Compressibility (1/GPa) = 0.01909959
#
# Stress axis : x y z
#
# Youngs Moduli (GPa) = 102.25404 52.02873 70.76898
#
# Poissons Ratio (x) = 0.00136 0.30797
# Poissons Ratio (y) = 0.00268 0.54048
# Poissons Ratio (z) = 0.44499 0.39736
#
# Static dielectric constant tensor:
#      x y z
#    x 1.714570 -0.002700 -0.002340 
#    y -0.002700 1.829960 0.013370 
#    z -0.002340 0.013370 1.662520 
# 
# From -- ./inp_files/559131.got.cif
#   From: 2010.05.17/outbox.cif.g08.bks.cpg/sg2_280_cif.got.tgz:559131.got - 2010.06.03 11:33:40.
