data_PCOD9045533
_publ_section_title
;
Structure prediction by ZEFSAII (Michael W. Deem and Ramdas Pophale) SiO2 
 PCOD9045533
Probable space group: P -1
;
_chemical_formula_sum "Si O2"
_cell_formula_units_Z 16
_cell_length_a 20.673723
_cell_length_b 17.592583
_cell_length_c 9.129510
_cell_angle_alpha 43.066570
_cell_angle_beta 126.549038
_cell_angle_gamma 160.228168
_cell_volume 703.557426
_symmetry_space_group_name_H-M "P -1"
_symmetry_group_IT_number 2
_symmetry_cell_setting 'triclinic'
loop_
_space_group_symop_operation_xyz
x,y,z
-x,-y,-z
loop_
_atom_site_type_symbol
_atom_site_label
_atom_site_fract_x
_atom_site_fract_y
_atom_site_fract_z
Si Si1 0.636541 0.290925 0.798442
Si Si2 0.240942 0.541150 0.720656
Si Si3 0.022561 0.428597 0.246977
Si Si4 0.593179 0.371278 0.929439
Si Si5 0.208675 0.736146 0.369302
Si Si6 0.536585 0.487713 0.886669
Si Si7 0.549584 0.818662 0.562159
Si Si8 0.131877 0.052208 0.094803
O O1 0.560117 0.291171 0.584759
O O2 0.865957 0.534677 0.730080
O O3 0.626579 0.344599 0.863406
O O4 0.500000 0.000000 0.000000
O O5 0.231369 0.446349 0.977424
O O6 0.260914 0.690767 0.588848
O O7 0.450293 0.792411 0.556269
O O8 0.041154 0.258590 0.748880
O O9 0.165993 0.649144 0.265793
O O10 0.792266 0.121496 0.434024
O O11 0.000000 0.500000 0.000000
O O12 0.571044 0.474365 0.793910
O O13 0.375467 0.045238 0.156256
O O14 0.000000 0.500000 0.500000
O O15 0.512109 0.360554 0.159588
O O16 0.746947 0.811710 0.778679
O O17 0.322408 0.284268 0.905527
O O18 0.000000 0.000000 0.000000
#
# Coordination Sequence:
#
# PCOD9045533 Si02
#       8
#     2   2   2   2   2   2   2   2
#     4  12  23  42  58  85 133 179 212 246 304 382
#     4  11  22  39  65  92 122 162 208 264 313 370
#     4  12  24  37  56  83 124 178 212 242 306 368
#     4  11  22  39  59  93 131 164 205 255 312 374
#     4  12  23  35  57  93 131 159 206 261 309 374
#     4  10  24  40  70  99 121 159 213 267 313 377
#     4  11  21  40  60  90 120 159 217 256 305 367
#     4  11  20  43  69  99 123 156 208 270 330 364
#
# _framework density 22.741571
#
# number of rings (size 3 to 8) (size 9 to 14) (size 15 to 20)
#    0.000    0.750    6.250    3.375    1.750    1.000 
#    2.250    0.000    0.000    6.000    0.000    0.000 
#    0.000    0.000    0.000    0.000    0.000    0.000 
#
# Total GULP energy -89142.504099 kJ/mol
# GULP energy per Si atom -5571.406506 kJ/mol
# Density = 2.268981 g / cm^3
# Si number density = 22.741571 Si / 1000 Ang^3
#
#
#
# Elastic Constant Matrix: (Units=GPa)
#
#
# Indices 1 2 3 4 5 6 
#
# 1 156.1385 60.5521 3.2231 -12.8095 -28.8651 -1.4141
# 2 60.5521 116.5412 20.3875 -17.3797 -10.0118 5.7821
# 3 3.2231 20.3875 42.3014 -1.6237 -6.5953 -5.4651
# 4 -12.8095 -17.3797 -1.6237 31.6471 0.4939 -3.0185
# 5 -28.8651 -10.0118 -6.5953 0.4939 40.0107 2.0335
# 6 -1.4141 5.7821 -5.4651 -3.0185 2.0335 51.7548
#
#
#
# Elastic Compliance Matrix: (Units=1/GPa)
#
#
# Indices 1 2 3 4 5 6 
#
# 1 0.009383 -0.004664 0.002633 0.001364 0.005974 0.000900
# 2 -0.004664 0.012747 -0.006028 0.004642 -0.001131 -0.001873
# 3 0.002633 -0.006028 0.027507 -0.000581 0.004758 0.003429
# 4 0.001364 0.004642 -0.000581 0.034782 0.001548 0.001425
# 5 0.005974 -0.001131 0.004758 0.001548 0.029800 -0.000289
# 6 0.000900 -0.001873 0.003429 0.001425 -0.000289 0.020012
#
#
# Mechanical properties :
#
#
# Convention : Reuss Voigt Hill
#
# Bulk Modulus (GPa) = 29.83386 53.70072 41.76729
# Shear Modulus (GPa) = 30.95547 40.07042 35.51295
#
# Velocity S-wave (km/s) = 3.69343 4.20216 3.95598
# Velocity P-wave (km/s) = 5.59783 6.87088 6.26676
#
# Compressibility (1/GPa) = 0.03351896
#
# Stress axis : x y z
#
# Youngs Moduli (GPa) = 106.57066 78.45281 36.35420
#
# Poissons Ratio (x) = 0.36591 -0.09572
# Poissons Ratio (y) = 0.49705 0.21914
# Poissons Ratio (z) = -0.28060 0.47292
#
# Static dielectric constant tensor:
#      x y z
#    x 1.943320 -0.014030 0.011290 
#    y -0.014030 1.910560 0.013220 
#    z 0.011290 0.013220 1.943710 
# 
# From -- ./inp_files/348356.got.cif
#   From: 2010.05.17/outbox.cif.g08.bks.cpg/sg2_175_cif.got.tgz:348356.got - 2010.06.03 11:33:40.
