data_PCOD9045298
_publ_section_title
;
Structure prediction by ZEFSAII (Michael W. Deem and Ramdas Pophale) SiO2 
 PCOD9045298
Probable space group: P -1
;
_chemical_formula_sum "Si O2"
_cell_formula_units_Z 14
_cell_length_a 26.047829
_cell_length_b 16.411035
_cell_length_c 7.972766
_cell_angle_alpha 33.733597
_cell_angle_beta 137.160976
_cell_angle_gamma 158.752948
_cell_volume 670.894257
_symmetry_space_group_name_H-M "P -1"
_symmetry_group_IT_number 2
_symmetry_cell_setting 'triclinic'
loop_
_space_group_symop_operation_xyz
x,y,z
-x,-y,-z
loop_
_atom_site_type_symbol
_atom_site_label
_atom_site_fract_x
_atom_site_fract_y
_atom_site_fract_z
Si Si1 0.649969 0.172032 0.123393
Si Si2 0.780469 0.689835 0.129768
Si Si3 0.150358 0.969598 0.545610
Si Si4 0.674779 0.485089 0.867684
Si Si5 0.493514 0.335255 0.171730
Si Si6 0.622778 0.901870 0.073983
Si Si7 0.840708 0.476722 0.732007
O O1 0.710208 0.398909 0.999983
O O2 0.608694 0.953510 0.490522
O O3 0.760235 0.325829 0.973925
O O4 0.500000 0.000000 0.000000
O O5 0.693292 0.484026 0.111496
O O6 0.656728 0.540899 0.211775
O O7 0.865479 0.691887 0.397437
O O8 0.865941 0.967447 0.776474
O O9 0.274188 0.053317 0.681181
O O10 0.216056 0.199194 0.438560
O O11 0.996609 0.661886 0.769060
O O12 0.511190 0.275582 0.823584
O O13 0.500000 0.500000 0.000000
O O14 0.440811 0.256495 0.985954
O O15 0.727907 0.217126 0.775440
#
# Coordination Sequence:
#
# PCOD9045298 Si02
#       7
#     2   2   2   2   2   2   2
#     4  12  23  38  64  95 125 161 208 263 305 367
#     4   9  21  40  65  88 122 165 208 252 302 373
#     4  10  24  39  66  94 126 170 206 251 312 376
#     4   9  21  39  65  91 124 159 218 244 309 361
#     4  11  25  40  65  96 122 161 214 265 311 363
#     4  11  22  41  66  89 126 167 212 258 303 371
#     4  12  23  40  65  95 131 164 205 256 316 369
#
# _framework density 20.867671000000001
#
# number of rings (size 3 to 8) (size 9 to 14) (size 15 to 20)
#    0.857    0.571    2.857    2.143    4.000    2.857 
#    0.000    0.714    0.000    0.000    0.000    0.000 
#    0.000    0.000    0.000    0.000    0.000    0.000 
#
# Total GULP energy -78085.977304 kJ/mol
# GULP energy per Si atom -5577.569807 kJ/mol
# Density = 2.082017 g / cm^3
# Si number density = 20.867671 Si / 1000 Ang^3
#
#
#
# Elastic Constant Matrix: (Units=GPa)
#
#
# Indices 1 2 3 4 5 6 
#
# 1 110.4279 28.2217 33.7571 -9.3063 14.4761 6.1860
# 2 28.2217 66.8646 5.8805 -20.9553 -0.3637 20.6382
# 3 33.7571 5.8805 67.6895 -7.7991 5.5486 13.5536
# 4 -9.3063 -20.9553 -7.7991 25.0396 3.9663 -1.4507
# 5 14.4761 -0.3637 5.5486 3.9663 32.8385 -8.5498
# 6 6.1860 20.6382 13.5536 -1.4507 -8.5498 27.7762
#
#
#
# Elastic Compliance Matrix: (Units=1/GPa)
#
#
# Indices 1 2 3 4 5 6 
#
# 1 0.012860 -0.007019 -0.006738 -0.002434 -0.003130 0.004549
# 2 -0.007019 0.037125 0.011525 0.031856 -0.010975 -0.033359
# 3 -0.006738 0.011525 0.023498 0.014539 -0.007887 -0.020197
# 4 -0.002434 0.031856 0.014539 0.071211 -0.017972 -0.032035
# 5 -0.003130 -0.010975 -0.007887 -0.017972 0.041610 0.024570
# 6 0.004549 -0.033359 -0.020197 -0.032035 0.024570 0.075521
#
#
# Mechanical properties :
#
#
# Convention : Reuss Voigt Hill
#
# Bulk Modulus (GPa) = 14.48886 42.30007 28.39447
# Shear Modulus (GPa) = 17.28337 28.93903 23.11120
#
# Velocity S-wave (km/s) = 2.88103 3.72800 3.33154
# Velocity P-wave (km/s) = 4.24563 6.23260 5.33248
#
# Compressibility (1/GPa) = 0.06901852
#
# Stress axis : x y z
#
# Youngs Moduli (GPa) = 77.76274 26.93598 42.55660
#
# Poissons Ratio (x) = 0.18906 0.28675
# Poissons Ratio (y) = 0.54581 -0.49046
# Poissons Ratio (z) = 0.52397 -0.31043
#
# Static dielectric constant tensor:
#      x y z
#    x 1.746820 -0.018570 0.007780 
#    y -0.018570 1.765970 0.013580 
#    z 0.007780 0.013580 1.779550 
# 
# From -- ./inp_files/357584.got.cif
#   From: 2010.05.17/outbox.cif.g08.bks.cpg/sg2_179_cif.got.tgz:357584.got - 2010.06.03 11:33:40.
