data_PCOD9045548
_publ_section_title
;
Structure prediction by ZEFSAII (Michael W. Deem and Ramdas Pophale) SiO2 
 PCOD9045548
Probable space group: P -1
;
_chemical_formula_sum "Si O2"
_cell_formula_units_Z 15
_cell_length_a 7.689800
_cell_length_b 9.858282
_cell_length_c 11.018217
_cell_angle_alpha 96.771504
_cell_angle_beta 123.431386
_cell_angle_gamma 60.643051
_cell_volume 594.109195
_symmetry_space_group_name_H-M "P -1"
_symmetry_group_IT_number 2
_symmetry_cell_setting 'triclinic'
loop_
_space_group_symop_operation_xyz
x,y,z
-x,-y,-z
loop_
_atom_site_type_symbol
_atom_site_label
_atom_site_fract_x
_atom_site_fract_y
_atom_site_fract_z
Si Si1 0.500000 0.500000 0.000000
Si Si2 0.701223 0.612378 0.655347
Si Si3 0.179295 0.324715 0.892315
Si Si4 0.933609 0.233815 0.971477
Si Si5 0.670921 0.939154 0.711517
Si Si6 0.234370 0.048658 0.728508
Si Si7 0.733873 0.189087 0.636308
Si Si8 0.572260 0.315776 0.189216
O O1 0.294259 0.653569 0.024181
O O2 0.688397 0.410564 0.190826
O O3 0.954380 0.449752 0.739896
O O4 0.739345 0.762366 0.685284
O O5 0.509928 0.652644 0.478750
O O6 0.561226 0.624988 0.728889
O O7 0.080912 0.317159 0.986788
O O8 0.288002 0.152751 0.855215
O O9 0.379250 0.373532 0.002787
O O10 0.843203 0.202556 0.806525
O O11 0.136459 0.086301 0.110856
O O12 0.404758 0.022294 0.678049
O O13 0.686796 0.045279 0.624423
O O14 0.943748 0.142335 0.612080
O O15 0.302738 0.873660 0.783146
#
# Coordination Sequence:
#
# PCOD9045548 Si02
#       8
#     1   2   2   2   2   2   2   2
#     4  12  24  38  66 106 132 170 228 296 328 400
#     4  11  23  44  70  94 146 184 219 277 350 409
#     4  11  21  42  69  97 129 187 225 278 338 408
#     4  11  23  41  70 101 134 176 230 290 336 394
#     4  11  23  45  71 102 134 186 230 281 336 405
#     4  10  24  40  71  99 135 174 229 282 341 395
#     4  11  26  43  68 105 141 178 227 284 342 412
#     4  11  22  40  68  98 132 177 230 280 338 400
#
# _framework density 25.247883000000002
#
# number of rings (size 3 to 8) (size 9 to 14) (size 15 to 20)
#    0.000    1.067    4.000    3.200    3.733    4.267 
#    0.000    3.333    0.000    0.000    0.000    0.000 
#    0.000    0.000    0.000    0.000    0.000    0.000 
#
# Total GULP energy -83801.209629 kJ/mol
# GULP energy per Si atom -5586.747309 kJ/mol
# Density = 2.519042 g / cm^3
# Si number density = 25.247883 Si / 1000 Ang^3
#
#
#
# Elastic Constant Matrix: (Units=GPa)
#
#
# Indices 1 2 3 4 5 6 
#
# 1 140.2401 39.5205 27.6998 -0.2696 3.4024 -10.8801
# 2 39.5205 76.8838 18.2068 -19.0594 -5.8182 -2.8711
# 3 27.6998 18.2068 126.7554 -16.2209 0.2867 1.5090
# 4 -0.2696 -19.0594 -16.2209 24.6905 -3.5223 -0.2194
# 5 3.4024 -5.8182 0.2867 -3.5223 26.9406 -9.9295
# 6 -10.8801 -2.8711 1.5090 -0.2194 -9.9295 41.7937
#
#
#
# Elastic Compliance Matrix: (Units=1/GPa)
#
#
# Indices 1 2 3 4 5 6 
#
# 1 0.009402 -0.006075 -0.001996 -0.006283 -0.002780 0.001409
# 2 -0.006075 0.021120 0.000529 0.017795 0.008361 0.001930
# 3 -0.001996 0.000529 0.009083 0.006479 0.000910 -0.000561
# 4 -0.006283 0.017795 0.006479 0.060381 0.013524 0.002883
# 5 -0.002780 0.008361 0.000910 0.013524 0.044927 0.010563
# 6 0.001409 0.001930 -0.000561 0.002883 0.010563 0.026971
#
#
# Mechanical properties :
#
#
# Convention : Reuss Voigt Hill
#
# Bulk Modulus (GPa) = 40.78254 57.19264 48.98759
# Shear Modulus (GPa) = 25.62235 35.91511 30.76873
#
# Velocity S-wave (km/s) = 3.18910 3.77570 3.49473
# Velocity P-wave (km/s) = 5.45421 6.45829 5.97737
#
# Compressibility (1/GPa) = 0.02452030
#
# Stress axis : x y z
#
# Youngs Moduli (GPa) = 106.36427 47.34808 110.09344
#
# Poissons Ratio (x) = 0.28765 0.21979
# Poissons Ratio (y) = 0.64619 -0.05827
# Poissons Ratio (z) = 0.21234 -0.02506
#
# Static dielectric constant tensor:
#      x y z
#    x 2.100960 0.082140 0.068530 
#    y 0.082140 2.007420 0.009070 
#    z 0.068530 0.009070 2.091650 
# 
# From -- ./inp_files/390513.got.cif
#   From: 2010.05.17/outbox.cif.g08.bks.cpg/sg2_196_cif.got.tgz:390513.got - 2010.06.03 11:33:40.
