data_PCOD9045981
_publ_section_title
;
Structure prediction by ZEFSAII (Michael W. Deem and Ramdas Pophale) SiO2 
 PCOD9045981
Probable space group: P -1
;
_chemical_formula_sum "Si O2"
_cell_formula_units_Z 16
_cell_length_a 9.379072
_cell_length_b 14.760630
_cell_length_c 9.026240
_cell_angle_alpha 77.367033
_cell_angle_beta 143.639281
_cell_angle_gamma 97.628445
_cell_volume 720.877718
_symmetry_space_group_name_H-M "P -1"
_symmetry_group_IT_number 2
_symmetry_cell_setting 'triclinic'
loop_
_space_group_symop_operation_xyz
x,y,z
-x,-y,-z
loop_
_atom_site_type_symbol
_atom_site_label
_atom_site_fract_x
_atom_site_fract_y
_atom_site_fract_z
Si Si1 0.307291 0.950082 0.954956
Si Si2 0.188959 0.766221 0.750807
Si Si3 0.974088 0.863674 0.270493
Si Si4 0.354310 0.464539 0.746618
Si Si5 0.316691 0.297327 0.960642
Si Si6 0.724975 0.053617 0.732435
Si Si7 0.196924 0.605151 0.034919
Si Si8 0.035020 0.572715 0.217297
O O1 0.260697 0.858516 0.859761
O O2 0.095186 0.032045 0.768636
O O3 0.359343 0.921477 0.179846
O O4 0.500000 0.000000 0.000000
O O5 0.121200 0.696328 0.845059
O O6 0.995544 0.802051 0.457390
O O7 0.406291 0.720523 0.847928
O O8 0.772463 0.805638 0.045218
O O9 0.205099 0.868348 0.355338
O O10 0.234011 0.371474 0.732398
O O11 0.182027 0.545828 0.499383
O O12 0.500000 0.500000 0.000000
O O13 0.538590 0.430806 0.784536
O O14 0.205771 0.360437 0.979357
O O15 0.500000 0.000000 0.500000
O O16 0.000000 0.000000 0.000000
O O17 0.033183 0.525638 0.868631
O O18 0.181885 0.617515 0.193348
#
# Coordination Sequence:
#
# PCOD9045981 Si02
#       8
#     2   2   2   2   2   2   2   2
#     4  11  22  45  68  97 136 179 227 284 342 410
#     4  11  24  42  65  99 132 170 235 270 348 406
#     4  11  24  42  70  93 138 181 225 285 344 417
#     4  11  22  40  66  94 131 178 222 275 342 410
#     4  11  24  38  65  98 129 173 227 279 335 415
#     4  10  24  44  71 100 133 182 233 284 350 416
#     4  10  24  42  65  97 129 177 218 285 335 416
#     4  11  23  42  66  92 137 171 224 276 351 401
#
# _framework density 22.195166
#
# number of rings (size 3 to 8) (size 9 to 14) (size 15 to 20)
#    0.000    1.250    2.500    2.625    7.000    1.000 
#    0.000    1.250    0.000    0.000    0.000    0.000 
#    0.000    0.000    0.000    0.000    0.000    0.000 
#
# Total GULP energy -89109.606381 kJ/mol
# GULP energy per Si atom -5569.350399 kJ/mol
# Density = 2.214465 g / cm^3
# Si number density = 22.195166 Si / 1000 Ang^3
#
#
#
# Elastic Constant Matrix: (Units=GPa)
#
#
# Indices 1 2 3 4 5 6 
#
# 1 116.4070 22.5971 -1.3011 -1.3316 -3.6725 -1.6875
# 2 22.5971 94.7492 13.1010 -6.8769 -5.2311 -2.6894
# 3 -1.3011 13.1010 46.5164 -5.4188 -1.8697 -14.1475
# 4 -1.3316 -6.8769 -5.4188 28.9771 2.5201 4.1154
# 5 -3.6725 -5.2311 -1.8697 2.5201 8.4008 3.8727
# 6 -1.6875 -2.6894 -14.1475 4.1154 3.8727 31.3434
#
#
#
# Elastic Compliance Matrix: (Units=1/GPa)
#
#
# Indices 1 2 3 4 5 6 
#
# 1 0.009116 -0.002178 0.001104 -0.000197 0.002706 0.000494
# 2 -0.002178 0.011967 -0.003479 0.001805 0.005936 -0.001631
# 3 0.001104 -0.003479 0.026237 0.002668 -0.001943 0.011493
# 4 -0.000197 0.001805 0.002668 0.036486 -0.008193 -0.002430
# 5 0.002706 0.005936 -0.001943 -0.008193 0.133131 -0.015596
# 6 0.000494 -0.001631 0.011493 -0.002430 -0.015596 0.039225
#
#
# Mechanical properties :
#
#
# Convention : Reuss Voigt Hill
#
# Bulk Modulus (GPa) = 26.16714 36.27408 31.22061
# Shear Modulus (GPa) = 17.98535 28.62928 23.30731
#
# Velocity S-wave (km/s) = 2.84971 3.59540 3.24405
# Velocity P-wave (km/s) = 4.75846 5.79781 5.30366
#
# Compressibility (1/GPa) = 0.03821588
#
# Stress axis : x y z
#
# Youngs Moduli (GPa) = 109.69840 83.56348 38.11456
#
# Poissons Ratio (x) = 0.18197 -0.04209
# Poissons Ratio (y) = 0.23888 0.13258
# Poissons Ratio (z) = -0.12114 0.29068
#
# Static dielectric constant tensor:
#      x y z
#    x 1.887860 -0.088560 -0.017860 
#    y -0.088560 2.384450 0.100760 
#    z -0.017860 0.100760 1.955930 
# 
# From -- ./inp_files/37850.got.cif
#   From: 2010.05.17/outbox.cif.g08.bks.cpg/sg2_19_cif.got.tgz:37850.got - 2010.06.03 11:33:40.
