data_PCOD9045352
_publ_section_title
;
Structure prediction by ZEFSAII (Michael W. Deem and Ramdas Pophale) SiO2 
 PCOD9045352
Probable space group: P -1
;
_chemical_formula_sum "Si O2"
_cell_formula_units_Z 16
_cell_length_a 25.257046
_cell_length_b 14.615912
_cell_length_c 9.352545
_cell_angle_alpha 149.854742
_cell_angle_beta 134.944797
_cell_angle_gamma 23.823122
_cell_volume 636.427618
_symmetry_space_group_name_H-M "P -1"
_symmetry_group_IT_number 2
_symmetry_cell_setting 'triclinic'
loop_
_space_group_symop_operation_xyz
x,y,z
-x,-y,-z
loop_
_atom_site_type_symbol
_atom_site_label
_atom_site_fract_x
_atom_site_fract_y
_atom_site_fract_z
Si Si1 0.908270 0.719144 0.406221
Si Si2 0.862179 0.537175 0.631392
Si Si3 0.301192 0.013133 0.437643
Si Si4 0.484418 0.750075 0.195460
Si Si5 0.951695 0.902347 0.324790
Si Si6 0.417615 0.991229 0.877406
Si Si7 0.288794 0.815169 0.624885
Si Si8 0.350754 0.269058 0.419356
O O1 0.028596 0.626282 0.504491
O O2 0.829315 0.844851 0.574751
O O3 0.786813 0.001833 0.429313
O O4 0.995141 0.357216 0.038280
O O5 0.967813 0.312130 0.665119
O O6 0.789154 0.489727 0.429032
O O7 0.750018 0.928694 0.003095
O O8 0.332113 0.038583 0.377206
O O9 0.315124 0.135214 0.751106
O O10 0.442025 0.593356 0.155710
O O11 0.590847 0.648708 0.361610
O O12 0.472139 0.896110 0.227717
O O13 0.000000 0.000000 0.500000
O O14 0.788197 0.192544 0.448320
O O15 0.543089 0.583773 0.603251
O O16 0.500000 0.000000 0.000000
O O17 0.329905 0.224748 0.166311
#
# Coordination Sequence:
#
# PCOD9045352 Si02
#       8
#     2   2   2   2   2   2   2   2
#     4   9  19  37  57  83 117 166 201 238 298 365
#     4   9  19  37  57  83 117 166 201 238 298 365
#     4  11  22  41  61  87 126 152 207 245 302 362
#     4  10  24  40  60  88 122 174 180 246 324 360
#     4   9  18  29  54  87 123 154 190 251 313 340
#     4  12  23  34  62 100 116 148 211 259 286 347
#     4   9  19  33  52  85 130 154 188 247 318 351
#     4  11  22  41  61  87 126 152 207 245 302 362
#
# _framework density 25.140328
#
# number of rings (size 3 to 8) (size 9 to 14) (size 15 to 20)
#    0.000    2.000    1.250    4.500    3.500    1.500 
#    0.000    1.250    0.000    0.000    0.000    0.000 
#    0.000    0.000    0.000    0.000    0.000    0.000 
#
# Total GULP energy -89436.349673 kJ/mol
# GULP energy per Si atom -5589.771855 kJ/mol
# Density = 2.508311 g / cm^3
# Si number density = 25.140328 Si / 1000 Ang^3
#
#
#
# Elastic Constant Matrix: (Units=GPa)
#
#
# Indices 1 2 3 4 5 6 
#
# 1 160.7059 3.8519 29.1253 -1.4329 -11.4024 -32.1655
# 2 3.8519 39.6120 4.4242 5.5407 -4.0818 -15.6130
# 3 29.1253 4.4242 36.6642 -9.4025 -6.4959 3.7486
# 4 -1.4329 5.5407 -9.4025 28.7561 -2.2954 0.3401
# 5 -11.4024 -4.0818 -6.4959 -2.2954 34.3899 1.2691
# 6 -32.1655 -15.6130 3.7486 0.3401 1.2691 52.3504
#
#
#
# Elastic Compliance Matrix: (Units=1/GPa)
#
#
# Indices 1 2 3 4 5 6 
#
# 1 0.009381 0.003674 -0.009268 -0.003256 0.001301 0.007513
# 2 0.003674 0.032565 -0.010196 -0.009411 0.002060 0.012711
# 3 -0.009268 -0.010196 0.042060 0.015808 0.005159 -0.011975
# 4 -0.003256 -0.009411 0.015808 0.041975 0.003824 -0.006305
# 5 0.001301 0.002060 0.005159 0.003824 0.030974 0.000269
# 6 0.007513 0.012711 -0.011975 -0.006305 0.000269 0.028401
#
#
# Mechanical properties :
#
#
# Convention : Reuss Voigt Hill
#
# Bulk Modulus (GPa) = 19.07479 34.64278 26.85879
# Shear Modulus (GPa) = 21.33001 36.40465 28.86733
#
# Velocity S-wave (km/s) = 2.91596 3.80946 3.39226
# Velocity P-wave (km/s) = 4.35211 5.75839 5.10392
#
# Compressibility (1/GPa) = 0.05242522
#
# Stress axis : x y z
#
# Youngs Moduli (GPa) = 106.59619 30.70783 23.77577
#
# Poissons Ratio (x) = -0.11281 0.22036
# Poissons Ratio (y) = -0.39159 0.24241
# Poissons Ratio (z) = 0.98794 0.31309
#
# Static dielectric constant tensor:
#      x y z
#    x 2.032860 -0.002010 -0.010150 
#    y -0.002010 2.058920 0.001700 
#    z -0.010150 0.001700 1.914320 
# 
# From -- ./inp_files/185076.got.cif
#   From: 2010.05.17/outbox.cif.g08.bks.cpg/sg2_93_cif.got.tgz:185076.got - 2010.06.03 11:33:40.
