data_PCOD9045378
_publ_section_title
;
Structure prediction by ZEFSAII (Michael W. Deem and Ramdas Pophale) SiO2 
 PCOD9045378
Probable space group: P -1
;
_chemical_formula_sum "Si O2"
_cell_formula_units_Z 14
_cell_length_a 21.198007
_cell_length_b 17.185006
_cell_length_c 5.004962
_cell_angle_alpha 106.099561
_cell_angle_beta 66.362224
_cell_angle_gamma 158.714846
_cell_volume 580.350219
_symmetry_space_group_name_H-M "P -1"
_symmetry_group_IT_number 2
_symmetry_cell_setting 'triclinic'
loop_
_space_group_symop_operation_xyz
x,y,z
-x,-y,-z
loop_
_atom_site_type_symbol
_atom_site_label
_atom_site_fract_x
_atom_site_fract_y
_atom_site_fract_z
Si Si1 0.220348 0.768246 0.843400
Si Si2 0.171564 0.018351 0.659964
Si Si3 0.532679 0.349151 0.553029
Si Si4 0.485749 0.192366 0.966586
Si Si5 0.971525 0.875065 0.363298
Si Si6 0.053210 0.708985 0.723703
Si Si7 0.204572 0.581557 0.603466
O O1 0.312458 0.780778 0.705046
O O2 0.203897 0.805871 0.644225
O O3 0.324206 0.946489 0.026226
O O4 0.000000 0.500000 0.000000
O O5 0.095574 0.960614 0.446899
O O6 0.130520 0.877861 0.640020
O O7 0.396000 0.268860 0.586046
O O8 0.050469 0.937195 0.999106
O O9 0.436116 0.208868 0.855267
O O10 0.746744 0.609681 0.505077
O O11 0.542175 0.291818 0.247925
O O12 0.658879 0.337981 0.659417
O O13 0.000000 0.000000 0.500000
O O14 0.913060 0.522117 0.558403
O O15 0.932521 0.595470 0.090910
#
# Coordination Sequence:
#
# PCOD9045378 Si02
#       7
#     2   2   2   2   2   2   2
#     4  10  24  40  63  96 138 184 237 296 349 401
#     4  12  25  46  78 104 148 191 229 289 362 417
#     4  12  27  46  75 109 140 191 242 286 351 434
#     4  12  24  44  65 100 142 182 247 289 338 423
#     4  12  28  50  77 114 146 178 230 292 361 439
#     4  11  22  41  65  96 133 182 241 283 349 423
#     4  11  23  39  64  93 138 188 234 302 352 386
#
# _framework density 24.123363000000001
#
# number of rings (size 3 to 8) (size 9 to 14) (size 15 to 20)
#    0.000    0.571    1.429    7.286    4.000    3.429 
#    0.000    5.000    0.000    0.000    0.000    0.000 
#    0.000    0.000    0.000    0.000    0.000    0.000 
#
# Total GULP energy -78346.761708 kJ/mol
# GULP energy per Si atom -5596.197265 kJ/mol
# Density = 2.406846 g / cm^3
# Si number density = 24.123363 Si / 1000 Ang^3
#
#
#
# Elastic Constant Matrix: (Units=GPa)
#
#
# Indices 1 2 3 4 5 6 
#
# 1 86.8762 35.3445 4.9751 -3.5860 8.8799 -1.9900
# 2 35.3445 105.6074 10.6336 8.8521 7.9120 -18.8195
# 3 4.9751 10.6336 97.9199 8.4685 11.5511 -3.4841
# 4 -3.5860 8.8521 8.4685 30.5093 14.7657 -8.1072
# 5 8.8799 7.9120 11.5511 14.7657 33.8662 8.0755
# 6 -1.9900 -18.8195 -3.4841 -8.1072 8.0755 38.2647
#
#
#
# Elastic Compliance Matrix: (Units=1/GPa)
#
#
# Indices 1 2 3 4 5 6 
#
# 1 0.014237 -0.004708 -0.000059 0.005858 -0.005356 0.000791
# 2 -0.004708 0.012465 -0.000506 -0.001244 -0.002414 0.006086
# 3 -0.000059 -0.000506 0.010800 -0.000818 -0.003503 0.001298
# 4 0.005858 -0.001244 -0.000818 0.051646 -0.027380 0.016339
# 5 -0.005356 -0.002414 -0.003503 -0.027380 0.048899 -0.017906
# 6 0.000791 0.006086 0.001298 0.016339 -0.017906 0.036527
#
#
# Mechanical properties :
#
#
# Convention : Reuss Voigt Hill
#
# Bulk Modulus (GPa) = 37.09427 43.59000 40.34214
# Shear Modulus (GPa) = 25.75944 36.49138 31.12541
#
# Velocity S-wave (km/s) = 3.27130 3.89356 3.59592
# Velocity P-wave (km/s) = 5.44783 6.19047 5.83098
#
# Compressibility (1/GPa) = 0.02695834
#
# Stress axis : x y z
#
# Youngs Moduli (GPa) = 70.24175 80.22425 92.58854
#
# Poissons Ratio (x) = 0.37766 0.00544
# Poissons Ratio (y) = 0.33066 0.04681
# Poissons Ratio (z) = 0.00413 0.04056
#
# Static dielectric constant tensor:
#      x y z
#    x 1.995960 0.029010 -0.078830 
#    y 0.029010 1.956950 -0.047670 
#    z -0.078830 -0.047670 1.965170 
# 
# From -- ./inp_files/124784.got.cif
#   From: 2010.05.17/outbox.cif.g08.bks.cpg/sg2_63_cif.got.tgz:124784.got - 2010.06.03 11:33:40.
