data_PCOD9045399
_publ_section_title
;
Structure prediction by ZEFSAII (Michael W. Deem and Ramdas Pophale) SiO2 
 PCOD9045399
Probable space group: P -1
;
_chemical_formula_sum "Si O2"
_cell_formula_units_Z 12
_cell_length_a 16.624629
_cell_length_b 9.209339
_cell_length_c 5.290418
_cell_angle_alpha 122.087817
_cell_angle_beta 56.026045
_cell_angle_gamma 117.663442
_cell_volume 552.697591
_symmetry_space_group_name_H-M "P -1"
_symmetry_group_IT_number 2
_symmetry_cell_setting 'triclinic'
loop_
_space_group_symop_operation_xyz
x,y,z
-x,-y,-z
loop_
_atom_site_type_symbol
_atom_site_label
_atom_site_fract_x
_atom_site_fract_y
_atom_site_fract_z
Si Si1 0.828531 0.545889 0.184173
Si Si2 0.776861 0.848823 0.876328
Si Si3 0.891681 0.211186 0.761419
Si Si4 0.617772 0.060356 0.316697
Si Si5 0.937203 0.805194 0.875948
Si Si6 0.283582 0.754454 0.191989
O O1 0.781731 0.675769 0.551265
O O2 0.859717 0.377224 0.100566
O O3 0.925964 0.662998 0.983086
O O4 0.748994 0.449033 0.021782
O O5 0.825160 0.818264 0.028189
O O6 0.853977 0.025172 0.793706
O O7 0.671651 0.899097 0.107131
O O8 0.823057 0.193199 0.609142
O O9 0.005894 0.251470 0.515425
O O10 0.500000 0.000000 0.500000
O O11 0.665660 0.194732 0.582375
O O12 0.648750 0.143406 0.062665
O O13 0.000000 0.000000 0.000000
#
# Coordination Sequence:
#
# PCOD9045399 Si02
#       6
#     2   2   2   2   2   2
#     4  10  24  40  64  96 137 176 219 274 329 392
#     4  11  24  41  64  93 135 171 227 281 332 392
#     4   9  21  41  61  93 138 173 221 263 333 390
#     4  11  23  46  74  96 129 177 222 281 346 403
#     4  12  22  37  63  96 134 180 228 262 327 395
#     4   9  23  43  67  98 133 171 220 272 339 393
#
# _framework density 21.711690000000001
#
# number of rings (size 3 to 8) (size 9 to 14) (size 15 to 20)
#    1.000    0.667    1.667    2.500    4.667    0.667 
#    0.000    1.667    0.000    0.000    0.000    0.000 
#    0.000    0.000    0.000    0.000    0.000    0.000 
#
# Total GULP energy -66959.997115 kJ/mol
# GULP energy per Si atom -5579.999760 kJ/mol
# Density = 2.166227 g / cm^3
# Si number density = 21.711690 Si / 1000 Ang^3
#
#
#
# Elastic Constant Matrix: (Units=GPa)
#
#
# Indices 1 2 3 4 5 6 
#
# 1 81.0322 25.2128 39.9288 -0.1963 -12.0664 5.3072
# 2 25.2128 92.9338 42.2951 26.5712 -7.0141 -4.5003
# 3 39.9288 42.2951 114.2897 30.9764 -9.8302 3.8768
# 4 -0.1963 26.5712 30.9764 47.0367 4.5264 0.4010
# 5 -12.0664 -7.0141 -9.8302 4.5264 43.2326 -4.2799
# 6 5.3072 -4.5003 3.8768 0.4010 -4.2799 20.4596
#
#
#
# Elastic Compliance Matrix: (Units=1/GPa)
#
#
# Indices 1 2 3 4 5 6 
#
# 1 0.016888 -0.003635 -0.005852 0.005837 0.001805 -0.003808
# 2 -0.003635 0.015385 -0.002414 -0.007378 0.002239 0.005398
# 3 -0.005852 -0.002414 0.014090 -0.008115 0.001917 -0.001123
# 4 0.005837 -0.007378 -0.008115 0.031306 -0.005014 -0.003262
# 5 0.001805 0.002239 0.001917 -0.005014 0.025462 0.005086
# 6 -0.003808 0.005398 -0.001123 -0.003262 0.005086 0.052393
#
#
# Mechanical properties :
#
#
# Convention : Reuss Voigt Hill
#
# Bulk Modulus (GPa) = 44.32772 55.90321 50.11547
# Shear Modulus (GPa) = 26.75971 34.20038 30.48004
#
# Velocity S-wave (km/s) = 3.51451 3.97319 3.75087
# Velocity P-wave (km/s) = 6.07700 6.84487 6.47233
#
# Compressibility (1/GPa) = 0.02255925
#
# Stress axis : x y z
#
# Youngs Moduli (GPa) = 59.21383 64.99726 70.97179
#
# Poissons Ratio (x) = 0.23628 0.41535
# Poissons Ratio (y) = 0.21526 0.17135
# Poissons Ratio (z) = 0.34654 0.15693
#
# Static dielectric constant tensor:
#      x y z
#    x 1.811320 0.005030 0.039820 
#    y 0.005030 1.804810 0.007040 
#    z 0.039820 0.007040 1.861110 
# 
# From -- ./inp_files/100109.got.cif
#   From: 2010.05.17/outbox.cif.g08.bks.cpg/sg2_51_cif.got.tgz:100109.got - 2010.06.03 11:33:40.
