data_PCOD9045653
_publ_section_title
;
Structure prediction by ZEFSAII (Michael W. Deem and Ramdas Pophale) SiO2 
 PCOD9045653
Probable space group: P -1
;
_chemical_formula_sum "Si O2"
_cell_formula_units_Z 11
_cell_length_a 10.683525
_cell_length_b 6.826120
_cell_length_c 9.191840
_cell_angle_alpha 130.015728
_cell_angle_beta 64.830730
_cell_angle_gamma 112.402531
_cell_volume 459.006086
_symmetry_space_group_name_H-M "P -1"
_symmetry_group_IT_number 2
_symmetry_cell_setting 'triclinic'
loop_
_space_group_symop_operation_xyz
x,y,z
-x,-y,-z
loop_
_atom_site_type_symbol
_atom_site_label
_atom_site_fract_x
_atom_site_fract_y
_atom_site_fract_z
Si Si1 0.641559 0.510949 0.621878
Si Si2 0.815805 0.333311 0.019568
Si Si3 0.500000 0.500000 0.000000
Si Si4 0.551374 0.123854 0.232855
Si Si5 0.029495 0.515735 0.240995
Si Si6 0.055970 0.183043 0.327421
O O1 0.616254 0.260018 0.412678
O O2 0.583384 0.742660 0.674292
O O3 0.802894 0.613011 0.621561
O O4 0.561315 0.454481 0.784769
O O5 0.663576 0.224521 0.099016
O O6 0.900881 0.500778 0.184618
O O7 0.832303 0.480155 0.926490
O O8 0.899205 0.094647 0.836487
O O9 0.528334 0.818300 0.108738
O O10 0.001602 0.265619 0.238666
O O11 0.039113 0.758109 0.461867
#
# Coordination Sequence:
#
# PCOD9045653 Si02
#       6
#     2   2   1   2   2   2
#     4  11  25  43  67  99 133 173 219 279 328 392
#     4  11  22  42  66  95 129 172 216 272 327 391
#     4  12  24  44  68  96 128 180 220 266 334 392
#     4  11  25  44  67  99 137 168 223 273 335 391
#     4  10  24  41  65  95 130 172 217 270 325 388
#     4  11  22  42  66  94 132 167 222 268 326 390
#
# _framework density 23.964827
#
# number of rings (size 3 to 8) (size 9 to 14) (size 15 to 20)
#    0.000    1.091    3.636    2.182    2.545    0.000 
#    0.000    0.000    0.000    0.000    0.000    0.000 
#    0.000    0.000    0.000    0.000    0.000    0.000 
#
# Total GULP energy -61342.291574 kJ/mol
# GULP energy per Si atom -5576.571961 kJ/mol
# Density = 2.391028 g / cm^3
# Si number density = 23.964827 Si / 1000 Ang^3
#
#
#
# Elastic Constant Matrix: (Units=GPa)
#
#
# Indices 1 2 3 4 5 6 
#
# 1 51.7578 32.9035 13.5812 2.4098 6.7453 2.4971
# 2 32.9035 106.2391 46.3895 -19.9663 4.7803 13.8697
# 3 13.5812 46.3895 141.0833 -14.2715 14.0061 4.7381
# 4 2.4098 -19.9663 -14.2715 50.0949 -6.6023 3.0876
# 5 6.7453 4.7803 14.0061 -6.6023 25.5598 -2.9964
# 6 2.4971 13.8697 4.7381 3.0876 -2.9964 21.3541
#
#
#
# Elastic Compliance Matrix: (Units=1/GPa)
#
#
# Indices 1 2 3 4 5 6 
#
# 1 0.026278 -0.009607 0.000585 -0.005987 -0.006657 0.002969
# 2 -0.009607 0.016405 -0.003677 0.006815 0.002140 -0.009401
# 3 0.000585 -0.003677 0.008708 0.000456 -0.004151 -0.000261
# 4 -0.005987 0.006815 0.000456 0.024231 0.005546 -0.006553
# 5 -0.006657 0.002140 -0.004151 0.005546 0.044868 0.005803
# 6 0.002969 -0.009401 -0.000261 -0.006553 0.005803 0.054408
#
#
# Mechanical properties :
#
#
# Convention : Reuss Voigt Hill
#
# Bulk Modulus (GPa) = 38.47222 53.86985 46.17103
# Shear Modulus (GPa) = 23.92794 33.14883 28.53838
#
# Velocity S-wave (km/s) = 3.16327 3.72321 3.45461
# Velocity P-wave (km/s) = 5.42496 6.40395 5.93468
#
# Compressibility (1/GPa) = 0.02599278
#
# Stress axis : x y z
#
# Youngs Moduli (GPa) = 38.05493 60.95517 114.84118
#
# Poissons Ratio (x) = 0.58561 -0.06717
# Poissons Ratio (y) = 0.36560 0.42225
# Poissons Ratio (z) = -0.02226 0.22412
#
# Static dielectric constant tensor:
#      x y z
#    x 1.974300 -0.017130 0.000090 
#    y -0.017130 1.907490 -0.047190 
#    z 0.000090 -0.047190 1.882470 
# 
# From -- ./inp_files/21859.got.cif
#   From: 2010.05.17/outbox.cif.g08.bks.cpg/sg2_11_cif.got.tgz:21859.got - 2010.06.03 11:33:40.
