data_PCOD9045141
_publ_section_title
;
Structure prediction by ZEFSAII (Michael W. Deem and Ramdas Pophale) SiO2 
 PCOD9045141
Probable space group: P -1
;
_chemical_formula_sum "Si O2"
_cell_formula_units_Z 14
_cell_length_a 14.571454
_cell_length_b 11.203539
_cell_length_c 11.231690
_cell_angle_alpha 38.108056
_cell_angle_beta 150.614793
_cell_angle_gamma 142.204921
_cell_volume 521.077329
_symmetry_space_group_name_H-M "P -1"
_symmetry_group_IT_number 2
_symmetry_cell_setting 'triclinic'
loop_
_space_group_symop_operation_xyz
x,y,z
-x,-y,-z
loop_
_atom_site_type_symbol
_atom_site_label
_atom_site_fract_x
_atom_site_fract_y
_atom_site_fract_z
Si Si1 0.096829 0.215480 0.792411
Si Si2 0.128903 0.736100 0.924199
Si Si3 0.642796 0.682248 0.600363
Si Si4 0.680004 0.393785 0.552624
Si Si5 0.290223 0.187234 0.802217
Si Si6 0.008526 0.737215 0.114858
Si Si7 0.712843 0.139799 0.256879
O O1 0.895148 0.210549 0.500549
O O2 0.271446 0.270266 0.848641
O O3 0.082156 0.984405 0.995023
O O4 0.095397 0.331955 0.821819
O O5 0.207116 0.763216 0.856458
O O6 0.759973 0.640676 0.468138
O O7 0.121445 0.963800 0.767862
O O8 0.299590 0.744959 0.205890
O O9 0.500000 0.500000 0.500000
O O10 0.555415 0.668170 0.648887
O O11 0.857026 0.670474 0.884938
O O12 0.669396 0.894825 0.397414
O O13 0.000000 0.500000 0.000000
O O14 0.804066 0.337480 0.633756
O O15 0.509952 0.182576 0.026467
#
# Coordination Sequence:
#
# PCOD9045141 Si02
#       7
#     2   2   2   2   2   2   2
#     4  10  23  49  78 104 150 207 260 320 376 456
#     4  12  27  46  74 113 158 197 257 319 384 462
#     4  11  25  44  76 114 154 201 252 315 386 459
#     4  12  27  43  74 111 153 201 250 316 387 454
#     4  12  26  48  74 113 154 204 258 315 390 459
#     4  10  24  48  75 110 151 202 259 317 384 449
#     4  11  25  48  75 113 154 201 254 316 386 462
#
# _framework density 26.867412999999999
#
# number of rings (size 3 to 8) (size 9 to 14) (size 15 to 20)
#    0.000    0.857    2.857    2.143    4.000    5.143 
#    0.000    5.714    0.000    0.000    0.000    0.000 
#    0.000    0.000    0.000    0.000    0.000    0.000 
#
# Total GULP energy -78204.685969 kJ/mol
# GULP energy per Si atom -5586.048998 kJ/mol
# Density = 2.680626 g / cm^3
# Si number density = 26.867413 Si / 1000 Ang^3
#
#
#
# Elastic Constant Matrix: (Units=GPa)
#
#
# Indices 1 2 3 4 5 6 
#
# 1 206.6485 52.0071 63.8879 -27.5153 27.9142 4.4453
# 2 52.0071 114.7261 43.4414 -52.4410 -3.6139 16.4552
# 3 63.8879 43.4414 90.6431 -24.5740 9.8288 -19.3084
# 4 -27.5153 -52.4410 -24.5740 47.6738 6.1268 1.6868
# 5 27.9142 -3.6139 9.8288 6.1268 51.9471 -8.9867
# 6 4.4453 16.4552 -19.3084 1.6868 -8.9867 31.6301
#
#
#
# Elastic Compliance Matrix: (Units=1/GPa)
#
#
# Indices 1 2 3 4 5 6 
#
# 1 0.007580 0.001258 -0.005967 0.003496 -0.004447 -0.006812
# 2 0.001258 0.028879 -0.012185 0.027618 -0.003986 -0.025245
# 3 -0.005967 -0.012185 0.024217 -0.005483 0.002390 0.022932
# 4 0.003496 0.027618 -0.005483 0.052566 -0.009206 -0.023625
# 5 -0.004447 -0.003986 0.002390 -0.009206 0.023979 0.011462
# 6 -0.006812 -0.025245 0.022932 -0.023625 0.011462 0.064222
#
#
# Mechanical properties :
#
#
# Convention : Reuss Voigt Hill
#
# Bulk Modulus (GPa) = 37.19079 81.18784 59.18931
# Shear Modulus (GPa) = 20.47558 43.09563 31.78560
#
# Velocity S-wave (km/s) = 2.76361 4.00936 3.44329
# Velocity P-wave (km/s) = 4.90467 7.19144 6.15518
#
# Compressibility (1/GPa) = 0.02688838
#
# Stress axis : x y z
#
# Youngs Moduli (GPa) = 131.92730 34.62668 41.29357
#
# Poissons Ratio (x) = -0.04356 0.24638
# Poissons Ratio (y) = -0.16596 0.50317
# Poissons Ratio (z) = 0.78715 0.42194
#
# Static dielectric constant tensor:
#      x y z
#    x 2.263580 0.002600 0.207220 
#    y 0.002600 2.171920 0.103410 
#    z 0.207220 0.103410 2.405930 
# 
# From -- ./inp_files/437474.got.cif
#   From: 2010.05.17/outbox.cif.g08.bks.cpg/sg2_219_cif.got.tgz:437474.got - 2010.06.03 11:33:40.
