data_PCOD9045984
_publ_section_title
;
Structure prediction by ZEFSAII (Michael W. Deem and Ramdas Pophale) SiO2 
 PCOD9045984
Probable space group: P -1
;
_chemical_formula_sum "Si O2"
_cell_formula_units_Z 14
_cell_length_a 17.236342
_cell_length_b 19.350421
_cell_length_c 5.768168
_cell_angle_alpha 49.181268
_cell_angle_beta 122.341564
_cell_angle_gamma 156.458409
_cell_volume 568.215339
_symmetry_space_group_name_H-M "P -1"
_symmetry_group_IT_number 2
_symmetry_cell_setting 'triclinic'
loop_
_space_group_symop_operation_xyz
x,y,z
-x,-y,-z
loop_
_atom_site_type_symbol
_atom_site_label
_atom_site_fract_x
_atom_site_fract_y
_atom_site_fract_z
Si Si1 0.255712 0.047469 0.305125
Si Si2 0.890259 0.648073 0.819581
Si Si3 0.773480 0.082487 0.850954
Si Si4 0.721286 0.672712 0.685612
Si Si5 0.082823 0.473556 0.233224
Si Si6 0.521143 0.126669 0.805641
Si Si7 0.726527 0.733028 0.062967
O O1 0.393561 0.086652 0.538327
O O2 0.277934 0.058878 0.039470
O O3 0.301184 0.183100 0.196858
O O4 0.020890 0.823060 0.464907
O O5 0.733474 0.575719 0.850287
O O6 0.830539 0.505634 0.894563
O O7 0.060258 0.777279 0.994301
O O8 0.886189 0.245991 0.492573
O O9 0.576043 0.950445 0.926854
O O10 0.811745 0.798452 0.320295
O O11 0.493777 0.503891 0.729242
O O12 0.809978 0.767185 0.878148
O O13 0.254928 0.638458 0.337047
O O14 0.000000 0.500000 0.000000
O O15 0.500000 0.000000 0.000000
#
# Coordination Sequence:
#
# PCOD9045984 Si02
#       7
#     2   2   2   2   2   2   2
#     4  10  24  42  65  98 132 181 230 285 349 422
#     4  10  24  42  65  98 132 181 230 285 349 422
#     4  10  24  44  64  98 142 170 236 284 348 422
#     4  10  24  42  67 100 139 181 237 295 355 423
#     4  11  25  43  69 100 137 180 230 287 354 420
#     4  11  25  43  69 100 137 180 230 287 354 420
#     4  10  24  42  67 100 139 181 237 295 355 423
#
# _framework density 24.638546999999999
#
# number of rings (size 3 to 8) (size 9 to 14) (size 15 to 20)
#    0.000    1.714    0.000    2.571   12.000    6.857 
#    0.000    0.000    0.000    0.000    0.000    0.000 
#    0.000    0.000    0.000    0.000    0.000    0.000 
#
# Total GULP energy -78070.269666 kJ/mol
# GULP energy per Si atom -5576.447833 kJ/mol
# Density = 2.458247 g / cm^3
# Si number density = 24.638547 Si / 1000 Ang^3
#
#
#
# Elastic Constant Matrix: (Units=GPa)
#
#
# Indices 1 2 3 4 5 6 
#
# 1 179.2375 20.4878 49.1636 5.6972 -4.0505 -29.5677
# 2 20.4878 91.8286 8.3203 6.5353 0.6407 -10.9078
# 3 49.1636 8.3203 70.0438 19.1062 -8.0789 -16.6337
# 4 5.6972 6.5353 19.1062 22.6566 -1.0371 -4.3232
# 5 -4.0505 0.6407 -8.0789 -1.0371 38.3921 -0.7605
# 6 -29.5677 -10.9078 -16.6337 -4.3232 -0.7605 42.4852
#
#
#
# Elastic Compliance Matrix: (Units=1/GPa)
#
#
# Indices 1 2 3 4 5 6 
#
# 1 0.007614 -0.001074 -0.005445 0.003600 -0.000163 0.003255
# 2 -0.001074 0.011555 0.000783 -0.003315 -0.000188 0.002185
# 3 -0.005445 0.000783 0.024549 -0.018565 0.004160 0.004208
# 4 0.003600 -0.003315 -0.018565 0.059844 -0.001846 0.000443
# 5 -0.000163 -0.000188 0.004160 -0.001846 0.026893 0.001761
# 6 0.003255 0.002185 0.004208 0.000443 0.001761 0.028088
#
#
# Mechanical properties :
#
#
# Convention : Reuss Voigt Hill
#
# Bulk Modulus (GPa) = 31.01135 55.22816 43.11975
# Shear Modulus (GPa) = 27.66029 38.24933 32.95481
#
# Velocity S-wave (km/s) = 3.35422 3.94435 3.66119
# Velocity P-wave (km/s) = 5.25499 6.57327 5.95075
#
# Compressibility (1/GPa) = 0.03224626
#
# Stress axis : x y z
#
# Youngs Moduli (GPa) = 131.33267 86.54034 40.73534
#
# Poissons Ratio (x) = 0.09294 0.22179
# Poissons Ratio (y) = 0.14104 -0.03188
# Poissons Ratio (z) = 0.71506 -0.06772
#
# Static dielectric constant tensor:
#      x y z
#    x 1.996930 -0.043200 -0.020360 
#    y -0.043200 1.987320 -0.013530 
#    z -0.020360 -0.013530 2.213430 
# 
# From -- ./inp_files/34810.got.cif
#   From: 2010.05.17/outbox.cif.g08.bks.cpg/sg2_18_cif.got.tgz:34810.got - 2010.06.03 11:33:40.
