data_PCOD9045752
_publ_section_title
;
Structure prediction by ZEFSAII (Michael W. Deem and Ramdas Pophale) SiO2 
 PCOD9045752
Probable space group: P -1
;
_chemical_formula_sum "Si O2"
_cell_formula_units_Z 10
_cell_length_a 9.209130
_cell_length_b 5.021804
_cell_length_c 12.478361
_cell_angle_alpha 77.047482
_cell_angle_beta 62.243468
_cell_angle_gamma 118.473750
_cell_volume 367.721751
_symmetry_space_group_name_H-M "P -1"
_symmetry_group_IT_number 2
_symmetry_cell_setting 'triclinic'
loop_
_space_group_symop_operation_xyz
x,y,z
-x,-y,-z
loop_
_atom_site_type_symbol
_atom_site_label
_atom_site_fract_x
_atom_site_fract_y
_atom_site_fract_z
Si Si1 0.159663 0.420397 0.953845
Si Si2 0.206829 0.388380 0.184366
Si Si3 0.755225 0.586486 0.602618
Si Si4 0.430412 0.685662 0.635825
Si Si5 0.945600 0.590955 0.338578
O O1 0.359240 0.695071 0.777439
O O2 0.257723 0.486166 0.033500
O O3 0.000000 0.500000 0.000000
O O4 0.000000 0.000000 0.000000
O O5 0.340037 0.593174 0.231229
O O6 0.005468 0.379204 0.278468
O O7 0.162735 0.015306 0.243387
O O8 0.592876 0.614431 0.597028
O O9 0.816075 0.418569 0.511308
O O10 0.000000 0.000000 0.500000
O O11 0.194047 0.356784 0.691535
O O12 0.500000 0.000000 0.500000
#
# Coordination Sequence:
#
# PCOD9045752 Si02
#       5
#     2   2   2   2   2
#     4  12  25  47  75 102 143 187 236 297 353 421
#     4  11  22  45  70 101 139 190 228 291 355 416
#     4  10  24  41  68 105 148 182 231 296 355 414
#     4  12  25  44  75 109 142 188 244 287 354 427
#     4  11  22  43  70 102 141 183 235 284 351 422
#
# _framework density 27.194472000000001
#
# number of rings (size 3 to 8) (size 9 to 14) (size 15 to 20)
#    0.000    0.800    4.000    3.600    0.000    4.000 
#    0.000    0.000    0.000    9.600    0.000    0.000 
#    0.000    0.000    0.000    0.000    0.000    0.000 
#
# Total GULP energy -55879.517704 kJ/mol
# GULP energy per Si atom -5587.951770 kJ/mol
# Density = 2.713258 g / cm^3
# Si number density = 27.194472 Si / 1000 Ang^3
#
#
#
# Elastic Constant Matrix: (Units=GPa)
#
#
# Indices 1 2 3 4 5 6 
#
# 1 188.4726 23.8571 42.2338 15.6151 13.6963 -7.4537
# 2 23.8571 105.7964 43.5259 22.5717 6.6901 -20.1463
# 3 42.2338 43.5259 219.5046 31.8192 52.3538 -14.2203
# 4 15.6151 22.5717 31.8192 44.0571 11.0051 2.8637
# 5 13.6963 6.6901 52.3538 11.0051 65.9233 16.9193
# 6 -7.4537 -20.1463 -14.2203 2.8637 16.9193 45.6378
#
#
#
# Elastic Compliance Matrix: (Units=1/GPa)
#
#
# Indices 1 2 3 4 5 6 
#
# 1 0.005691 -0.000594 -0.000600 -0.001167 -0.000655 0.000796
# 2 -0.000594 0.012307 -0.000923 -0.005567 -0.000937 0.005745
# 3 -0.000600 -0.000923 0.006957 -0.003148 -0.005811 0.004014
# 4 -0.001167 -0.005567 -0.003148 0.028609 -0.000084 -0.005393
# 5 -0.000655 -0.000937 -0.005811 -0.000084 0.022795 -0.010777
# 6 0.000796 0.005745 0.004014 -0.005393 -0.010777 0.030162
#
#
# Mechanical properties :
#
#
# Convention : Reuss Voigt Hill
#
# Bulk Modulus (GPa) = 48.26456 81.44524 64.85490
# Shear Modulus (GPa) = 42.49428 58.06742 50.28085
#
# Velocity S-wave (km/s) = 3.95727 4.62591 4.30459
# Velocity P-wave (km/s) = 6.21824 7.65155 6.97182
#
# Compressibility (1/GPa) = 0.02071914
#
# Stress axis : x y z
#
# Youngs Moduli (GPa) = 175.70562 81.25489 143.74918
#
# Poissons Ratio (x) = 0.04830 0.08627
# Poissons Ratio (y) = 0.10444 0.13272
# Poissons Ratio (z) = 0.10545 0.07502
#
# Static dielectric constant tensor:
#      x y z
#    x 2.161790 0.176720 -0.009730 
#    y 0.176720 2.276880 -0.110630 
#    z -0.009730 -0.110630 2.209520 
# 
# From -- ./inp_files/16212.got.cif
#   From: 2010.05.17/outbox.cif.g08.bks.cpg/sg2_9_cif.got.tgz:16212.got - 2010.06.03 11:33:40.
