data_PCOD9045877
_publ_section_title
;
Structure prediction by ZEFSAII (Michael W. Deem and Ramdas Pophale) SiO2 
 PCOD9045877
Probable space group: P -1
;
_chemical_formula_sum "Si O2"
_cell_formula_units_Z 15
_cell_length_a 11.756166
_cell_length_b 9.719894
_cell_length_c 13.149059
_cell_angle_alpha 59.745347
_cell_angle_beta 33.534131
_cell_angle_gamma 59.123614
_cell_volume 703.179429
_symmetry_space_group_name_H-M "P -1"
_symmetry_group_IT_number 2
_symmetry_cell_setting 'triclinic'
loop_
_space_group_symop_operation_xyz
x,y,z
-x,-y,-z
loop_
_atom_site_type_symbol
_atom_site_label
_atom_site_fract_x
_atom_site_fract_y
_atom_site_fract_z
Si Si1 0.349199 0.415590 0.577529
Si Si2 0.848739 0.927253 0.528087
Si Si3 0.681455 0.097553 0.794130
Si Si4 0.911586 0.387178 0.902403
Si Si5 0.457724 0.515475 0.239956
Si Si6 0.000000 0.000000 0.000000
Si Si7 0.176564 0.434308 0.310112
Si Si8 0.532815 0.965986 0.370004
O O1 0.500000 0.500000 0.500000
O O2 0.349363 0.461424 0.441100
O O3 0.435062 0.225493 0.598760
O O4 0.106120 0.459105 0.773230
O O5 0.852736 0.744904 0.633104
O O6 0.084356 0.944594 0.313868
O O7 0.748947 0.051982 0.644162
O O8 0.682283 0.949700 0.553836
O O9 0.595206 0.289155 0.801507
O O10 0.500000 0.000000 0.000000
O O11 0.854408 0.452689 0.806967
O O12 0.702598 0.447521 0.098903
O O13 0.987477 0.194379 0.918400
O O14 0.384321 0.440280 0.218782
O O15 0.742926 0.024301 0.157996
O O16 0.000000 0.500000 0.500000
O O17 0.500000 0.000000 0.500000
#
# Coordination Sequence:
#
# PCOD9045877 Si02
#       8
#     2   2   2   2   2   1   2   2
#     4  11  24  43  65  91 133 180 222 269 321 393
#     4  11  24  44  65  98 132 170 222 268 328 396
#     4  11  25  42  66  95 133 172 212 271 334 393
#     4  11  24  42  69  99 137 170 223 276 333 394
#     4  12  24  44  68 101 130 174 225 274 336 393
#     4  10  24  42  62 100 134 168 218 270 328 392
#     4  12  22  42  71 100 130 171 216 281 334 387
#     4  11  24  41  67  93 129 174 217 270 326 386
#
# _framework density 21.331683000000002
#
# number of rings (size 3 to 8) (size 9 to 14) (size 15 to 20)
#    0.000    0.800    2.667    4.400    1.867    5.867 
#    0.000    0.000    0.000    0.000    0.000    0.000 
#    0.000    0.000    0.000    0.000    0.000    0.000 
#
# Total GULP energy -83581.901125 kJ/mol
# GULP energy per Si atom -5572.126742 kJ/mol
# Density = 2.128313 g / cm^3
# Si number density = 21.331683 Si / 1000 Ang^3
#
#
#
# Elastic Constant Matrix: (Units=GPa)
#
#
# Indices 1 2 3 4 5 6 
#
# 1 85.6342 9.2777 29.7395 -3.8477 -38.8308 -6.2697
# 2 9.2777 59.4939 23.0186 -12.6031 -14.2197 -2.6439
# 3 29.7395 23.0186 123.4916 -6.4805 -47.4551 -10.6771
# 4 -3.8477 -12.6031 -6.4805 34.2095 0.7487 -6.9772
# 5 -38.8308 -14.2197 -47.4551 0.7487 37.0206 2.5160
# 6 -6.2697 -2.6439 -10.6771 -6.9772 2.5160 35.4859
#
#
#
# Elastic Compliance Matrix: (Units=1/GPa)
#
#
# Indices 1 2 3 4 5 6 
#
# 1 0.028282 0.003831 0.010145 0.006908 0.043552 0.006605
# 2 0.003831 0.020918 0.000780 0.008677 0.012654 0.003279
# 3 0.010145 0.000780 0.020437 0.005836 0.036574 0.006554
# 4 0.006908 0.008677 0.005836 0.035882 0.016689 0.009495
# 5 0.043552 0.012654 0.036574 0.016689 0.123134 0.014193
# 6 0.006605 0.003279 0.006554 0.009495 0.014193 0.032424
#
#
# Mechanical properties :
#
#
# Convention : Reuss Voigt Hill
#
# Bulk Modulus (GPa) = 10.08604 43.63236 26.85920
# Shear Modulus (GPa) = 18.89544 35.11545 27.00545
#
# Velocity S-wave (km/s) = 2.97946 4.06170 3.56192
# Velocity P-wave (km/s) = 4.07120 6.51883 5.43460
#
# Compressibility (1/GPa) = 0.09914690
#
# Stress axis : x y z
#
# Youngs Moduli (GPa) = 35.35829 47.80677 48.93168
#
# Poissons Ratio (x) = -0.18314 -0.49639
# Poissons Ratio (y) = -0.13545 -0.03817
# Poissons Ratio (z) = -0.35869 -0.03729
#
# Static dielectric constant tensor:
#      x y z
#    x 1.717180 0.019850 0.185200 
#    y 0.019850 1.732860 -0.073760 
#    z 0.185200 -0.073760 1.015370 
# 
# From -- ./inp_files/432218.got.cif
#   From: 2010.05.17/outbox.cif.g08.bks.cpg/sg2_217_cif.got.tgz:432218.got - 2010.06.03 11:33:40.
