data_PCOD9045876
_publ_section_title
;
Structure prediction by ZEFSAII (Michael W. Deem and Ramdas Pophale) SiO2 
 PCOD9045876
Probable space group: P -1
;
_chemical_formula_sum "Si O2"
_cell_formula_units_Z 14
_cell_length_a 10.291415
_cell_length_b 13.086284
_cell_length_c 9.202544
_cell_angle_alpha 60.626721
_cell_angle_beta 102.772604
_cell_angle_gamma 53.898716
_cell_volume 601.535576
_symmetry_space_group_name_H-M "P -1"
_symmetry_group_IT_number 2
_symmetry_cell_setting 'triclinic'
loop_
_space_group_symop_operation_xyz
x,y,z
-x,-y,-z
loop_
_atom_site_type_symbol
_atom_site_label
_atom_site_fract_x
_atom_site_fract_y
_atom_site_fract_z
Si Si1 0.684603 0.793955 0.094250
Si Si2 0.066940 0.921343 0.808907
Si Si3 0.919197 0.248555 0.347791
Si Si4 0.450214 0.473014 0.720118
Si Si5 0.411727 0.963631 0.611619
Si Si6 0.800639 0.507742 0.548410
Si Si7 0.565878 0.239886 0.484390
O O1 0.753966 0.629082 0.318313
O O2 0.929125 0.685337 0.209257
O O3 0.564111 0.853311 0.870624
O O4 0.500000 0.000000 0.000000
O O5 0.124432 0.786635 0.789041
O O6 0.003376 0.087647 0.595111
O O7 0.299220 0.767785 0.065193
O O8 0.833754 0.042580 0.743538
O O9 0.686618 0.466592 0.209974
O O10 0.137607 0.176943 0.433222
O O11 0.288708 0.552794 0.490023
O O12 0.486945 0.584803 0.663925
O O13 0.429813 0.829237 0.620034
O O14 0.500000 0.000000 0.500000
O O15 0.630470 0.670148 0.522700
#
# Coordination Sequence:
#
# PCOD9045876 Si02
#       7
#     2   2   2   2   2   2   2
#     4  11  25  46  68  92 130 174 216 264 317 379
#     4   9  19  36  60  89 126 165 201 257 321 373
#     4   9  19  36  57  91 126 158 210 259 310 379
#     4  11  21  37  65  93 127 168 208 259 320 380
#     4  11  23  43  70  94 126 172 217 269 321 372
#     4  11  25  42  65  98 131 172 216 257 319 387
#     4  10  24  42  61  98 132 159 214 266 315 383
#
# _framework density 23.273768
#
# number of rings (size 3 to 8) (size 9 to 14) (size 15 to 20)
#    0.000    1.714    0.000    4.286    0.000    8.000 
#    0.000    1.429    0.000    0.000    0.000    0.000 
#    0.000    0.000    0.000    0.000    0.000    0.000 
#
# Total GULP energy -78351.882531 kJ/mol
# GULP energy per Si atom -5596.563038 kJ/mol
# Density = 2.322080 g / cm^3
# Si number density = 23.273768 Si / 1000 Ang^3
#
#
#
# Elastic Constant Matrix: (Units=GPa)
#
#
# Indices 1 2 3 4 5 6 
#
# 1 95.6007 29.3607 50.6477 -1.6311 25.1007 -19.6245
# 2 29.3607 104.2204 37.1360 -2.9559 19.4440 -23.1084
# 3 50.6477 37.1360 84.7509 -2.3739 32.3622 -14.8647
# 4 -1.6311 -2.9559 -2.3739 28.9514 -5.7582 8.4177
# 5 25.1007 19.4440 32.3622 -5.7582 36.7315 -10.3842
# 6 -19.6245 -23.1084 -14.8647 8.4177 -10.3842 50.0659
#
#
#
# Elastic Compliance Matrix: (Units=1/GPa)
#
#
# Indices 1 2 3 4 5 6 
#
# 1 0.016211 -0.000511 -0.007630 -0.001418 -0.003347 0.003397
# 2 -0.000511 0.012284 -0.003663 -0.000639 -0.001867 0.004102
# 3 -0.007630 -0.003663 0.022986 -0.001477 -0.013443 -0.000396
# 4 -0.001418 -0.000639 -0.001477 0.037410 0.006725 -0.006184
# 5 -0.003347 -0.001867 -0.013443 0.006725 0.043910 0.001812
# 6 0.003397 0.004102 -0.000396 -0.006184 0.001812 0.024497
#
#
# Mechanical properties :
#
#
# Convention : Reuss Voigt Hill
#
# Bulk Modulus (GPa) = 35.87524 57.65121 46.76322
# Shear Modulus (GPa) = 26.28860 34.31159 30.30010
#
# Velocity S-wave (km/s) = 3.36451 3.84378 3.61210
# Velocity P-wave (km/s) = 5.52640 6.67264 6.12639
#
# Compressibility (1/GPa) = 0.02787438
#
# Stress axis : x y z
#
# Youngs Moduli (GPa) = 61.68546 81.40796 43.50467
#
# Poissons Ratio (x) = 0.04158 0.33193
# Poissons Ratio (y) = 0.03151 0.15935
# Poissons Ratio (z) = 0.47065 0.29818
#
# Static dielectric constant tensor:
#      x y z
#    x 1.923320 -0.018910 0.009610 
#    y -0.018910 1.879230 -0.008490 
#    z 0.009610 -0.008490 1.842250 
# 
# From -- ./inp_files/272576.got.cif
#   From: 2010.05.17/outbox.cif.g08.bks.cpg/sg2_137_cif.got.tgz:272576.got - 2010.06.03 11:33:40.
