data_PCOD9045340
_publ_section_title
;
Structure prediction by ZEFSAII (Michael W. Deem and Ramdas Pophale) SiO2 
 PCOD9045340
Probable space group: P -1
;
_chemical_formula_sum "Si O2"
_cell_formula_units_Z 15
_cell_length_a 24.710667
_cell_length_b 24.706334
_cell_length_c 8.551400
_cell_angle_alpha 136.718406
_cell_angle_beta 44.016338
_cell_angle_gamma 168.439956
_cell_volume 716.595966
_symmetry_space_group_name_H-M "P -1"
_symmetry_group_IT_number 2
_symmetry_cell_setting 'triclinic'
loop_
_space_group_symop_operation_xyz
x,y,z
-x,-y,-z
loop_
_atom_site_type_symbol
_atom_site_label
_atom_site_fract_x
_atom_site_fract_y
_atom_site_fract_z
Si Si1 0.942546 0.131705 0.322307
Si Si2 0.832978 0.495709 0.187252
Si Si3 0.345853 0.932450 0.170631
Si Si4 0.000000 0.000000 0.500000
Si Si5 0.209091 0.893051 0.668692
Si Si6 0.298759 0.591009 0.071981
Si Si7 0.542123 0.448470 0.777505
Si Si8 0.547638 0.438892 0.376194
O O1 0.044835 0.302718 0.579750
O O2 0.209830 0.338685 0.181767
O O3 0.826159 0.060473 0.260541
O O4 0.715826 0.855404 0.284929
O O5 0.575107 0.218485 0.243048
O O6 0.737105 0.412084 0.034337
O O7 0.087354 0.683630 0.070037
O O8 0.216449 0.832727 0.394819
O O9 0.500000 0.000000 0.000000
O O10 0.765525 0.706957 0.406555
O O11 0.755822 0.826263 0.586000
O O12 0.974029 0.665553 0.804133
O O13 0.482006 0.151357 0.739851
O O14 0.400699 0.600016 0.867433
O O15 0.601861 0.495074 0.568442
O O16 0.500000 0.500000 0.000000
#
# Coordination Sequence:
#
# PCOD9045340 Si02
#       8
#     2   2   2   1   2   2   2   2
#     4  11  23  43  65  90 131 172 232 266 332 395
#     4  11  23  43  74  99 131 188 224 267 338 412
#     4  11  24  47  72 102 141 177 217 271 337 412
#     4  10  24  40  58  86 124 178 210 272 352 406
#     4  11  25  41  68 102 130 173 223 279 325 402
#     4  12  24  41  68  99 135 169 232 281 328 392
#     4  12  25  39  63  92 124 172 230 283 324 396
#     4  11  24  41  61  86 130 172 224 276 342 390
#
# _framework density 20.932296000000001
#
# number of rings (size 3 to 8) (size 9 to 14) (size 15 to 20)
#    0.000    0.800    1.333    7.200    1.867    6.400 
#    0.000    4.000    0.000    0.000    0.000    0.000 
#    0.000    0.000    0.000    0.000    0.000    0.000 
#
# Total GULP energy -83642.908469 kJ/mol
# GULP energy per Si atom -5576.193898 kJ/mol
# Density = 2.088465 g / cm^3
# Si number density = 20.932296 Si / 1000 Ang^3
#
#
#
# Elastic Constant Matrix: (Units=GPa)
#
#
# Indices 1 2 3 4 5 6 
#
# 1 87.0148 20.8551 37.2751 -8.8420 -0.7283 30.3887
# 2 20.8551 292.2847 -3.6886 22.8211 64.0946 -36.5469
# 3 37.2751 -3.6886 58.4668 -17.2463 3.6902 -1.9717
# 4 -8.8420 22.8211 -17.2463 36.0493 21.4096 -14.9412
# 5 -0.7283 64.0946 3.6902 21.4096 45.9340 -18.1689
# 6 30.3887 -36.5469 -1.9717 -14.9412 -18.1689 59.1230
#
#
#
# Elastic Compliance Matrix: (Units=1/GPa)
#
#
# Indices 1 2 3 4 5 6 
#
# 1 0.029041 -0.005841 -0.024602 -0.015023 0.009597 -0.020205
# 2 -0.005841 0.006376 0.006765 0.006129 -0.010179 0.005590
# 3 -0.024602 0.006765 0.044291 0.030998 -0.019918 0.020017
# 4 -0.015023 0.006129 0.030998 0.062157 -0.033101 0.018080
# 5 0.009597 -0.010179 -0.019918 -0.033101 0.051389 -0.004462
# 6 -0.020205 0.005590 0.020017 0.018080 -0.004462 0.034620
#
#
# Mechanical properties :
#
#
# Convention : Reuss Voigt Hill
#
# Bulk Modulus (GPa) = 30.90928 60.73884 45.82406
# Shear Modulus (GPa) = 17.48166 53.77623 35.62895
#
# Velocity S-wave (km/s) = 2.89304 5.07408 4.13013
# Velocity P-wave (km/s) = 5.09489 7.96293 6.68454
#
# Compressibility (1/GPa) = 0.03235275
#
# Stress axis : x y z
#
# Youngs Moduli (GPa) = 34.43386 156.84231 22.57771
#
# Poissons Ratio (x) = 0.91604 0.55546
# Poissons Ratio (y) = 0.20111 -0.15273
# Poissons Ratio (z) = 0.84715 -1.06101
#
# Static dielectric constant tensor:
#      x y z
#    x 1.774370 0.017720 -0.021940 
#    y 0.017720 1.723340 0.015360 
#    z -0.021940 0.015360 1.804560 
# 
# From -- ./inp_files/355490.got.cif
#   From: 2010.05.17/outbox.cif.g08.bks.cpg/sg2_178_cif.got.tgz:355490.got - 2010.06.03 11:33:40.
