data_PCOD9045651
_publ_section_title
;
Structure prediction by ZEFSAII (Michael W. Deem and Ramdas Pophale) SiO2 
 PCOD9045651
Probable space group: P -1
;
_chemical_formula_sum "Si O2"
_cell_formula_units_Z 15
_cell_length_a 20.236980
_cell_length_b 13.659758
_cell_length_c 8.924988
_cell_angle_alpha 130.121998
_cell_angle_beta 126.685240
_cell_angle_gamma 20.224569
_cell_volume 651.941559
_symmetry_space_group_name_H-M "P -1"
_symmetry_group_IT_number 2
_symmetry_cell_setting 'triclinic'
loop_
_space_group_symop_operation_xyz
x,y,z
-x,-y,-z
loop_
_atom_site_type_symbol
_atom_site_label
_atom_site_fract_x
_atom_site_fract_y
_atom_site_fract_z
Si Si1 0.500000 0.000000 0.500000
Si Si2 0.719635 0.319413 0.518319
Si Si3 0.826692 0.638449 0.378539
Si Si4 0.962457 0.916546 0.948322
Si Si5 0.914742 0.290282 0.747049
Si Si6 0.235492 0.247652 0.143511
Si Si7 0.822955 0.799325 0.260840
Si Si8 0.649059 0.282805 0.680321
O O1 0.350525 0.116978 0.508501
O O2 0.413970 0.054811 0.282344
O O3 0.738453 0.442036 0.633009
O O4 0.664904 0.373964 0.670471
O O5 0.564939 0.466530 0.352198
O O6 0.925112 0.971713 0.416156
O O7 0.909350 0.378148 0.236430
O O8 0.759181 0.773323 0.255374
O O9 0.000000 0.500000 0.500000
O O10 0.001792 0.857560 0.120759
O O11 0.749142 0.177160 0.865950
O O12 0.000000 0.000000 0.000000
O O13 0.849915 0.522693 0.854051
O O14 0.052115 0.475450 0.225160
O O15 0.268908 0.083627 0.913345
O O16 0.760147 0.013570 0.476422
#
# Coordination Sequence:
#
# PCOD9045651 Si02
#       8
#     1   2   2   2   2   2   2   2
#     4  12  28  44  74 112 142 182 246 296 354 430
#     4  10  24  41  65  94 135 184 226 283 350 420
#     4  12  25  47  73 104 145 189 234 299 362 420
#     4  12  25  45  71 101 141 187 237 294 356 415
#     4  11  23  43  68  96 134 182 228 288 355 416
#     4  11  24  43  70 105 137 182 238 292 353 429
#     4  11  23  45  71  97 142 188 227 294 365 419
#     4  11  22  43  66  96 136 181 231 286 345 422
#
# _framework density 23.008199000000001
#
# number of rings (size 3 to 8) (size 9 to 14) (size 15 to 20)
#    0.000    0.800    6.667    0.000    1.867    2.133 
#    0.000    0.000    0.000    0.000    0.000    0.000 
#    0.000    0.000    0.000    0.000    0.000    0.000 
#
# Total GULP energy -83533.988658 kJ/mol
# GULP energy per Si atom -5568.932577 kJ/mol
# Density = 2.295583 g / cm^3
# Si number density = 23.008199 Si / 1000 Ang^3
#
#
#
# Elastic Constant Matrix: (Units=GPa)
#
#
# Indices 1 2 3 4 5 6 
#
# 1 142.1980 30.4121 28.4385 3.1065 -0.4331 -16.6355
# 2 30.4121 48.2179 20.3064 -19.9037 4.3620 -16.8917
# 3 28.4385 20.3064 79.3017 -25.0327 3.3640 -12.6443
# 4 3.1065 -19.9037 -25.0327 49.0982 3.3059 13.3674
# 5 -0.4331 4.3620 3.3640 3.3059 32.2259 -0.2241
# 6 -16.6355 -16.8917 -12.6443 13.3674 -0.2241 27.4075
#
#
#
# Elastic Compliance Matrix: (Units=1/GPa)
#
#
# Indices 1 2 3 4 5 6 
#
# 1 0.009477 -0.005960 -0.003211 -0.005703 0.001878 0.003395
# 2 -0.005960 0.033953 -0.001064 0.010850 -0.005598 0.011480
# 3 -0.003211 -0.001064 0.016932 0.008258 -0.002506 0.001158
# 4 -0.005703 0.010850 0.008258 0.032082 -0.005759 -0.008660
# 5 0.001878 -0.005598 -0.002506 -0.005759 0.032664 -0.000391
# 6 0.003395 0.011480 0.001158 -0.008660 -0.000391 0.050377
#
#
# Mechanical properties :
#
#
# Convention : Reuss Voigt Hill
#
# Bulk Modulus (GPa) = 25.06801 47.55908 36.31354
# Shear Modulus (GPa) = 23.89468 34.45037 29.17253
#
# Velocity S-wave (km/s) = 3.22612 3.87370 3.56465
# Velocity P-wave (km/s) = 4.97956 6.38144 5.72358
#
# Compressibility (1/GPa) = 0.03989148
#
# Stress axis : x y z
#
# Youngs Moduli (GPa) = 105.52150 29.45232 59.06055
#
# Poissons Ratio (x) = 0.17553 0.18965
# Poissons Ratio (y) = 0.62890 0.06285
# Poissons Ratio (z) = 0.33884 0.03134
#
# Static dielectric constant tensor:
#      x y z
#    x 1.890480 0.046170 0.052160 
#    y 0.046170 1.903130 -0.009530 
#    z 0.052160 -0.009530 1.925940 
# 
# From -- ./inp_files/347690.got.cif
#   From: 2010.05.17/outbox.cif.g08.bks.cpg/sg2_174_cif.got.tgz:347690.got - 2010.06.03 11:33:40.
