data_PCOD9045593
_publ_section_title
;
Structure prediction by ZEFSAII (Michael W. Deem and Ramdas Pophale) SiO2 
 PCOD9045593
Probable space group: P -1
;
_chemical_formula_sum "Si O2"
_cell_formula_units_Z 16
_cell_length_a 10.748064
_cell_length_b 9.260862
_cell_length_c 8.821971
_cell_angle_alpha 50.533810
_cell_angle_beta 91.862814
_cell_angle_gamma 90.426646
_cell_volume 677.440539
_symmetry_space_group_name_H-M "P -1"
_symmetry_group_IT_number 2
_symmetry_cell_setting 'triclinic'
loop_
_space_group_symop_operation_xyz
x,y,z
-x,-y,-z
loop_
_atom_site_type_symbol
_atom_site_label
_atom_site_fract_x
_atom_site_fract_y
_atom_site_fract_z
Si Si1 0.368916 0.530946 0.891624
Si Si2 0.633612 0.255981 0.717058
Si Si3 0.010071 0.313024 0.349156
Si Si4 0.188861 0.048744 0.954340
Si Si5 0.220190 0.454489 0.680098
Si Si6 0.508894 0.813416 0.530723
Si Si7 0.995176 0.077522 0.203827
Si Si8 0.723674 0.530590 0.767658
O O1 0.320872 0.392505 0.854675
O O2 0.392820 0.709873 0.672636
O O3 0.500000 0.500000 0.000000
O O4 0.269676 0.541218 0.012678
O O5 0.726590 0.389416 0.534484
O O6 0.518764 0.209494 0.634043
O O7 0.628942 0.390420 0.772505
O O8 0.690813 0.061925 0.907531
O O9 0.004853 0.237942 0.224775
O O10 0.137552 0.424852 0.307376
O O11 0.897403 0.449699 0.305205
O O12 0.002754 0.121984 0.575228
O O13 0.194699 0.253190 0.742769
O O14 0.104482 0.075636 0.083951
O O15 0.125730 0.916724 0.913638
O O16 0.642951 0.722278 0.631953
O O17 0.500000 0.000000 0.500000
#
# Coordination Sequence:
#
# PCOD9045593 Si02
#       8
#     2   2   2   2   2   2   2   2
#     4   9  22  42  67  92 128 167 224 274 325 393
#     4  11  25  45  68  98 138 174 222 277 331 395
#     4  11  24  41  69  97 141 177 223 270 334 396
#     4  11  24  41  66  96 137 176 226 267 331 389
#     4  11  24  43  67  95 137 184 217 271 335 389
#     4  10  24  46  73  94 129 174 221 279 342 390
#     4  10  24  41  60  98 139 174 224 271 322 398
#     4  11  24  43  68  99 131 175 221 273 337 396
#
# _framework density 23.618307999999999
#
# number of rings (size 3 to 8) (size 9 to 14) (size 15 to 20)
#    0.000    1.500    1.250    1.875   10.500    3.000 
#    2.250    0.625    0.000    0.000    0.000    0.000 
#    0.000    0.000    0.000    0.000    0.000    0.000 
#
# Total GULP energy -89272.052523 kJ/mol
# GULP energy per Si atom -5579.503283 kJ/mol
# Density = 2.356455 g / cm^3
# Si number density = 23.618308 Si / 1000 Ang^3
#
#
#
# Elastic Constant Matrix: (Units=GPa)
#
#
# Indices 1 2 3 4 5 6 
#
# 1 56.5137 -3.6324 10.5445 -2.8568 6.7851 2.3825
# 2 -3.6324 100.8597 12.2493 4.3494 8.4170 10.5828
# 3 10.5445 12.2493 69.1453 11.5908 2.5125 -1.7955
# 4 -2.8568 4.3494 11.5908 38.4682 0.2561 7.7250
# 5 6.7851 8.4170 2.5125 0.2561 26.0951 -0.8741
# 6 2.3825 10.5828 -1.7955 7.7250 -0.8741 29.1570
#
#
#
# Elastic Compliance Matrix: (Units=1/GPa)
#
#
# Indices 1 2 3 4 5 6 
#
# 1 0.019459 0.001835 -0.003702 0.003085 -0.005441 -0.003464
# 2 0.001835 0.011048 -0.002298 0.000522 -0.003977 -0.004559
# 3 -0.003702 -0.002298 0.016477 -0.005720 0.000297 0.003676
# 4 0.003085 0.000522 -0.005720 0.029638 -0.001001 -0.008676
# 5 -0.005441 -0.003977 0.000297 -0.001001 0.041114 0.003404
# 6 -0.003464 -0.004559 0.003676 -0.008676 0.003404 0.038862
#
#
# Mechanical properties :
#
#
# Convention : Reuss Voigt Hill
#
# Bulk Modulus (GPa) = 25.87078 29.42681 27.64880
# Shear Modulus (GPa) = 28.11943 32.56789 30.34366
#
# Velocity S-wave (km/s) = 3.45422 3.71742 3.58823
# Velocity P-wave (km/s) = 5.18520 5.55985 5.37579
#
# Compressibility (1/GPa) = 0.03865365
#
# Stress axis : x y z
#
# Youngs Moduli (GPa) = 51.39073 90.51656 60.68893
#
# Poissons Ratio (x) = -0.16609 0.22466
# Poissons Ratio (y) = -0.09430 0.13948
# Poissons Ratio (z) = 0.19024 0.20803
#
# Static dielectric constant tensor:
#      x y z
#    x 2.108930 0.236620 -0.001800 
#    y 0.236620 2.213410 0.082240 
#    z -0.001800 0.082240 1.976090 
# 
# From -- ./inp_files/242183.got.cif
#   From: 2010.05.17/outbox.cif.g08.bks.cpg/sg2_122_cif.got.tgz:242183.got - 2010.06.03 11:33:40.
