data_PCOD9045192
_publ_section_title
;
Structure prediction by ZEFSAII (Michael W. Deem and Ramdas Pophale) SiO2 
 PCOD9045192
Probable space group: P -1
;
_chemical_formula_sum "Si O2"
_cell_formula_units_Z 14
_cell_length_a 14.743673
_cell_length_b 7.645038
_cell_length_c 4.716346
_cell_angle_alpha 89.303641
_cell_angle_beta 104.407517
_cell_angle_gamma 93.611039
_cell_volume 513.862946
_symmetry_space_group_name_H-M "P -1"
_symmetry_group_IT_number 2
_symmetry_cell_setting 'triclinic'
loop_
_space_group_symop_operation_xyz
x,y,z
-x,-y,-z
loop_
_atom_site_type_symbol
_atom_site_label
_atom_site_fract_x
_atom_site_fract_y
_atom_site_fract_z
Si Si1 0.527480 0.854640 0.259412
Si Si2 0.215988 0.761833 0.952941
Si Si3 0.901194 0.941431 0.051721
Si Si4 0.364543 0.665834 0.481318
Si Si5 0.378077 0.423922 0.996855
Si Si6 0.703354 0.909882 0.817890
Si Si7 0.931806 0.548004 0.203096
O O1 0.447851 0.802502 0.436740
O O2 0.622383 0.889879 0.519921
O O3 0.540364 0.678172 0.087194
O O4 0.500000 0.000000 0.000000
O O5 0.165123 0.572612 0.855227
O O6 0.130485 0.886050 0.814454
O O7 0.262357 0.721741 0.303221
O O8 0.297747 0.922463 0.970214
O O9 0.808780 0.919948 0.776486
O O10 0.911614 0.752087 0.194983
O O11 0.000000 0.000000 0.000000
O O12 0.352953 0.591846 0.789845
O O13 0.388817 0.497170 0.319100
O O14 0.304336 0.260418 0.986527
O O15 0.000000 0.500000 0.500000
O O16 0.000000 0.500000 0.000000
#
# Coordination Sequence:
#
# PCOD9045192 Si02
#       7
#     2   2   2   2   2   2   2
#     4  12  28  49  79 119 167 216 280 329 416 482
#     4  10  26  51  77 123 151 218 270 329 414 481
#     4  10  23  54  81 117 163 209 270 337 406 484
#     4  12  28  48  79 116 165 209 278 339 397 489
#     4  12  26  51  76 117 161 215 272 336 406 476
#     4  10  25  51  77 116 160 217 267 336 407 477
#     4  12  26  51  80 117 155 208 260 334 403 476
#
# _framework density 27.244617000000002
#
# number of rings (size 3 to 8) (size 9 to 14) (size 15 to 20)
#    0.857    0.000    2.857    2.571    4.000    4.000 
#    7.714    0.000    0.000    0.000    0.000    0.000 
#    0.000    0.000    0.000    0.000    0.000    0.000 
#
# Total GULP energy -77989.253857 kJ/mol
# GULP energy per Si atom -5570.660990 kJ/mol
# Density = 2.718261 g / cm^3
# Si number density = 27.244617 Si / 1000 Ang^3
#
#
#
# Elastic Constant Matrix: (Units=GPa)
#
#
# Indices 1 2 3 4 5 6 
#
# 1 126.3996 46.5045 48.4231 -5.2189 28.8110 32.2937
# 2 46.5045 231.4193 70.9081 -27.2711 35.6283 11.1253
# 3 48.4231 70.9081 140.6036 -16.0169 28.9577 24.1539
# 4 -5.2189 -27.2711 -16.0169 48.5138 -0.9253 11.8185
# 5 28.8110 35.6283 28.9577 -0.9253 52.0730 4.2563
# 6 32.2937 11.1253 24.1539 11.8185 4.2563 69.0625
#
#
#
# Elastic Compliance Matrix: (Units=1/GPa)
#
#
# Indices 1 2 3 4 5 6 
#
# 1 0.010940 -0.000676 -0.001650 0.001237 -0.004293 -0.004377
# 2 -0.000676 0.005700 -0.001801 0.002553 -0.002459 -0.000258
# 3 -0.001650 -0.001801 0.010013 0.002716 -0.003154 -0.002711
# 4 0.001237 0.002553 0.002716 0.024467 -0.003021 -0.005940
# 5 -0.004293 -0.002459 -0.003154 -0.003021 0.024757 0.002498
# 6 -0.004377 -0.000258 -0.002711 -0.005940 0.002498 0.018378
#
#
# Mechanical properties :
#
#
# Convention : Reuss Voigt Hill
#
# Bulk Modulus (GPa) = 54.34477 92.23264 73.28871
# Shear Modulus (GPa) = 46.02239 56.10231 51.06235
#
# Velocity S-wave (km/s) = 4.11448 4.54277 4.33392
# Velocity P-wave (km/s) = 6.52397 7.83854 7.21127
#
# Compressibility (1/GPa) = 0.01840103
#
# Stress axis : x y z
#
# Youngs Moduli (GPa) = 91.40787 175.42461 99.86915
#
# Poissons Ratio (x) = 0.11855 0.16478
# Poissons Ratio (y) = 0.06177 0.17982
# Poissons Ratio (z) = 0.15082 0.31586
#
# Static dielectric constant tensor:
#      x y z
#    x 2.293730 -0.080840 -0.017670 
#    y -0.080840 2.243640 0.028050 
#    z -0.017670 0.028050 2.082430 
# 
# From -- ./inp_files/87491.got.cif
#   From: 2010.05.17/outbox.cif.g08.bks.cpg/sg2_44_cif.got.tgz:87491.got - 2010.06.03 11:33:40.
