data_PCOD9045618
_publ_section_title
;
Structure prediction by ZEFSAII (Michael W. Deem and Ramdas Pophale) SiO2 
 PCOD9045618
Probable space group: P -1
;
_chemical_formula_sum "Si O2"
_cell_formula_units_Z 16
_cell_length_a 14.938516
_cell_length_b 10.756037
_cell_length_c 8.998391
_cell_angle_alpha 118.716093
_cell_angle_beta 97.338937
_cell_angle_gamma 40.318908
_cell_volume 744.418331
_symmetry_space_group_name_H-M "P -1"
_symmetry_group_IT_number 2
_symmetry_cell_setting 'triclinic'
loop_
_space_group_symop_operation_xyz
x,y,z
-x,-y,-z
loop_
_atom_site_type_symbol
_atom_site_label
_atom_site_fract_x
_atom_site_fract_y
_atom_site_fract_z
Si Si1 0.730109 0.492020 0.520997
Si Si2 0.820651 0.217987 0.637572
Si Si3 0.651457 0.400171 0.012699
Si Si4 0.883107 0.059574 0.109237
Si Si5 0.775023 0.964888 0.422063
Si Si6 0.494799 0.174795 0.589770
Si Si7 0.883838 0.747895 0.026838
Si Si8 0.076874 0.485102 0.372766
O O1 0.731105 0.458338 0.676428
O O2 0.827916 0.239712 0.325653
O O3 0.578552 0.689958 0.506467
O O4 0.813623 0.535957 0.547946
O O5 0.773105 0.268103 0.828983
O O6 0.748907 0.164012 0.529262
O O7 0.000000 0.000000 0.500000
O O8 0.500000 0.500000 0.000000
O O9 0.739487 0.212014 0.058465
O O10 0.601502 0.618087 0.188624
O O11 0.942431 0.833653 0.052917
O O12 0.000000 0.000000 0.000000
O O13 0.757911 0.930087 0.231178
O O14 0.943856 0.730923 0.390988
O O15 0.663256 0.024566 0.541101
O O16 0.500000 0.000000 0.500000
O O17 0.847487 0.716952 0.846827
O O18 0.000000 0.500000 0.000000
O O19 0.000000 0.500000 0.500000
#
# Coordination Sequence:
#
# PCOD9045618 Si02
#       8
#     2   2   2   2   2   2   2   2
#     4  11  24  41  66  98 129 179 226 279 339 409
#     4  12  23  43  73 103 136 171 240 287 336 400
#     4  11  26  43  70 101 135 185 230 281 341 411
#     4  11  23  40  68  99 133 176 234 281 335 411
#     4  11  23  43  69  92 138 181 219 286 343 399
#     4  11  26  47  66  98 142 182 223 282 350 418
#     4  10  24  41  64 100 137 175 226 284 355 397
#     4  11  23  40  65  99 135 176 229 282 341 407
#
# _framework density 21.493293999999999
#
# number of rings (size 3 to 8) (size 9 to 14) (size 15 to 20)
#    0.000    1.000    3.750    2.250    1.750    6.500 
#    0.000    1.250    0.000    0.000    0.000    0.000 
#    0.000    0.000    0.000    0.000    0.000    0.000 
#
# Total GULP energy -89294.546427 kJ/mol
# GULP energy per Si atom -5580.909152 kJ/mol
# Density = 2.144437 g / cm^3
# Si number density = 21.493294 Si / 1000 Ang^3
#
#
#
# Elastic Constant Matrix: (Units=GPa)
#
#
# Indices 1 2 3 4 5 6 
#
# 1 107.8291 18.1244 33.5173 14.9393 9.7650 14.7302
# 2 18.1244 58.7612 18.3629 -4.5277 7.5870 5.1591
# 3 33.5173 18.3629 124.3884 -7.1985 0.2428 6.2189
# 4 14.9393 -4.5277 -7.1985 30.5253 3.2955 3.2688
# 5 9.7650 7.5870 0.2428 3.2955 32.5613 0.2337
# 6 14.7302 5.1591 6.2189 3.2688 0.2337 45.4831
#
#
#
# Elastic Compliance Matrix: (Units=1/GPa)
#
#
# Indices 1 2 3 4 5 6 
#
# 1 0.012199 -0.002757 -0.003120 -0.006574 -0.002308 -0.002727
# 2 -0.002757 0.019419 -0.001793 0.004397 -0.004120 -0.001359
# 3 -0.003120 -0.001793 0.009355 0.003399 0.000942 -0.000314
# 4 -0.006574 0.004397 0.003399 0.037910 -0.002904 -0.001544
# 5 -0.002308 -0.004120 0.000942 -0.002904 0.032642 0.001127
# 6 -0.002727 -0.001359 -0.000314 -0.001544 0.001127 0.023172
#
#
# Mechanical properties :
#
#
# Convention : Reuss Voigt Hill
#
# Bulk Modulus (GPa) = 39.01163 47.88755 43.44959
# Shear Modulus (GPa) = 31.52939 36.44554 33.98746
#
# Velocity S-wave (km/s) = 3.83422 4.12232 3.98088
# Velocity P-wave (km/s) = 6.14749 6.70721 6.43344
#
# Compressibility (1/GPa) = 0.02563338
#
# Stress axis : x y z
#
# Youngs Moduli (GPa) = 81.97082 51.49622 106.89097
#
# Poissons Ratio (x) = 0.14197 0.33348
# Poissons Ratio (y) = 0.22599 0.19170
# Poissons Ratio (z) = 0.25573 0.09235
#
# Static dielectric constant tensor:
#      x y z
#    x 1.618580 -0.079700 -0.046530 
#    y -0.079700 1.766390 -0.056030 
#    z -0.046530 -0.056030 1.836840 
# 
# From -- ./inp_files/305743.got.cif
#   From: 2010.05.17/outbox.cif.g08.bks.cpg/sg2_153_cif.got.tgz:305743.got - 2010.06.03 11:33:40.
