data_PCOD9045137
_publ_section_title
;
Structure prediction by ZEFSAII (Michael W. Deem and Ramdas Pophale) SiO2 
 PCOD9045137
Probable space group: P -1
;
_chemical_formula_sum "Si O2"
_cell_formula_units_Z 14
_cell_length_a 16.313105
_cell_length_b 5.562372
_cell_length_c 13.999087
_cell_angle_alpha 76.674699
_cell_angle_beta 153.115484
_cell_angle_gamma 104.125532
_cell_volume 556.802650
_symmetry_space_group_name_H-M "P -1"
_symmetry_group_IT_number 2
_symmetry_cell_setting 'triclinic'
loop_
_space_group_symop_operation_xyz
x,y,z
-x,-y,-z
loop_
_atom_site_type_symbol
_atom_site_label
_atom_site_fract_x
_atom_site_fract_y
_atom_site_fract_z
Si Si1 0.820084 0.030429 0.406383
Si Si2 0.329731 0.671235 0.425364
Si Si3 0.165548 0.026816 0.896814
Si Si4 0.946684 0.773153 0.036249
Si Si5 0.357614 0.642779 0.247865
Si Si6 0.564491 0.189844 0.278689
Si Si7 0.703634 0.535186 0.248550
O O1 0.652044 0.010540 0.310399
O O2 0.812905 0.315855 0.337664
O O3 0.005617 0.995813 0.657533
O O4 0.782870 0.817091 0.309346
O O5 0.115869 0.606452 0.222100
O O6 0.360380 0.777900 0.340528
O O7 0.450202 0.439619 0.577199
O O8 0.395277 0.849929 0.564865
O O9 0.079261 0.135393 0.891924
O O10 0.348397 0.195289 0.041358
O O11 0.253808 0.780223 0.046106
O O12 0.763479 0.613695 0.832670
O O13 0.000000 0.000000 0.000000
O O14 0.677009 0.445205 0.339786
O O15 0.500000 0.500000 0.000000
#
# Coordination Sequence:
#
# PCOD9045137 Si02
#       7
#     2   2   2   2   2   2   2
#     4  10  25  43  75 102 142 181 226 289 352 425
#     4  11  23  43  58  94 129 185 235 288 348 390
#     4  12  25  42  64 100 137 183 237 287 349 414
#     4  12  24  40  59  89 129 183 242 293 345 399
#     4  11  27  38  63  88 143 183 241 293 343 407
#     4  10  25  40  69 100 138 180 234 291 344 418
#     4  10  23  49  77 105 139 181 225 284 363 434
#
# _framework density 25.143560000000001
#
# number of rings (size 3 to 8) (size 9 to 14) (size 15 to 20)
#    0.857    0.286    4.286    0.857    6.000    3.429 
#    0.000    1.429    0.000    0.000    0.000    0.000 
#    0.000    0.000    0.000    0.000    0.000    0.000 
#
# Total GULP energy -78305.915157 kJ/mol
# GULP energy per Si atom -5593.279654 kJ/mol
# Density = 2.508633 g / cm^3
# Si number density = 25.143560 Si / 1000 Ang^3
#
#
#
# Elastic Constant Matrix: (Units=GPa)
#
#
# Indices 1 2 3 4 5 6 
#
# 1 106.9551 29.4126 18.8499 -1.3830 16.4083 -8.1044
# 2 29.4126 124.6703 34.2859 -5.2910 0.3465 -19.7447
# 3 18.8499 34.2859 141.4066 -19.5173 4.2382 -23.7169
# 4 -1.3830 -5.2910 -19.5173 43.3624 -12.9686 0.7029
# 5 16.4083 0.3465 4.2382 -12.9686 43.8820 -0.5605
# 6 -8.1044 -19.7447 -23.7169 0.7029 -0.5605 26.1031
#
#
#
# Elastic Compliance Matrix: (Units=1/GPa)
#
#
# Indices 1 2 3 4 5 6 
#
# 1 0.010840 -0.002247 -0.000855 -0.001652 -0.004431 0.000838
# 2 -0.002247 0.009781 -0.001009 0.000936 0.001211 0.005785
# 3 -0.000855 -0.001009 0.009184 0.004088 0.000741 0.007221
# 4 -0.001652 0.000936 0.004088 0.027408 0.008358 0.003351
# 5 -0.004431 0.001211 0.000741 0.008358 0.026841 0.000565
# 6 0.000838 0.005785 0.007221 0.003351 0.000565 0.049429
#
#
# Mechanical properties :
#
#
# Convention : Reuss Voigt Hill
#
# Bulk Modulus (GPa) = 46.33210 59.79208 53.06209
# Shear Modulus (GPa) = 33.57956 42.03509 37.80733
#
# Velocity S-wave (km/s) = 3.65843 4.09321 3.88191
# Velocity P-wave (km/s) = 6.02599 6.79493 6.42198
#
# Compressibility (1/GPa) = 0.02158331
#
# Stress axis : x y z
#
# Youngs Moduli (GPa) = 92.24873 102.23481 108.89089
#
# Poissons Ratio (x) = 0.22976 0.09307
# Poissons Ratio (y) = 0.20732 0.10985
# Poissons Ratio (z) = 0.07884 0.10314
#
# Static dielectric constant tensor:
#      x y z
#    x 1.984530 0.047160 -0.022810 
#    y 0.047160 2.064670 -0.024210 
#    z -0.022810 -0.024210 1.959180 
# 
# From -- ./inp_files/576794.got.cif
#   From: 2010.05.17/outbox.cif.g08.bks.cpg/sg2_289_cif.got.tgz:576794.got - 2010.06.03 11:33:40.
