data_PCOD9045328
_publ_section_title
;
Structure prediction by ZEFSAII (Michael W. Deem and Ramdas Pophale) SiO2 
 PCOD9045328
Probable space group: P -1
;
_chemical_formula_sum "Si O2"
_cell_formula_units_Z 16
_cell_length_a 7.137292
_cell_length_b 16.801090
_cell_length_c 12.098276
_cell_angle_alpha 30.494481
_cell_angle_beta 65.548681
_cell_angle_gamma 60.350091
_cell_volume 639.548955
_symmetry_space_group_name_H-M "P -1"
_symmetry_group_IT_number 2
_symmetry_cell_setting 'triclinic'
loop_
_space_group_symop_operation_xyz
x,y,z
-x,-y,-z
loop_
_atom_site_type_symbol
_atom_site_label
_atom_site_fract_x
_atom_site_fract_y
_atom_site_fract_z
Si Si1 0.106380 0.410118 0.451605
Si Si2 0.194897 0.981577 0.386471
Si Si3 0.476804 0.640914 0.432313
Si Si4 0.225249 0.258410 0.191058
Si Si5 0.594734 0.308242 0.187732
Si Si6 0.064025 0.620885 0.692700
Si Si7 0.067439 0.771738 0.993020
Si Si8 0.171633 0.830488 0.127323
O O1 0.318892 0.376899 0.516174
O O2 0.000368 0.608929 0.234874
O O3 0.120205 0.361495 0.376743
O O4 0.950372 0.307806 0.654212
O O5 0.292542 0.116280 0.255637
O O6 0.349797 0.800271 0.585806
O O7 0.000000 0.000000 0.500000
O O8 0.113218 0.058429 0.195897
O O9 0.500000 0.500000 0.500000
O O10 0.275755 0.642907 0.557987
O O11 0.384002 0.800281 0.186387
O O12 0.427586 0.249603 0.227029
O O13 0.037934 0.258950 0.325200
O O14 0.138320 0.435471 0.942504
O O15 0.500000 0.500000 0.000000
O O16 0.799369 0.278796 0.091901
O O17 0.209375 0.809956 0.011816
O O18 0.000000 0.000000 0.000000
#
# Coordination Sequence:
#
# PCOD9045328 Si02
#       8
#     2   2   2   2   2   2   2   2
#     4  11  22  45  75 100 135 187 240 288 362 419
#     4  10  24  42  67 100 144 187 228 288 360 420
#     4  11  24  43  74 103 135 186 246 290 360 425
#     4  11  22  43  67 100 147 183 233 290 358 423
#     4  11  25  43  70 107 141 187 245 285 354 441
#     4  10  24  39  71 107 139 182 239 299 355 425
#     4  11  22  47  70 100 145 186 233 300 358 423
#     4  11  27  48  71 106 145 184 240 302 358 426
#
# _framework density 25.017631000000002
#
# number of rings (size 3 to 8) (size 9 to 14) (size 15 to 20)
#    0.000    1.250    2.500    2.250    7.000    4.500 
#    4.500    1.875    0.000    0.000    0.000    0.000 
#    0.000    0.000    0.000    0.000    0.000    0.000 
#
# Total GULP energy -89445.505510 kJ/mol
# GULP energy per Si atom -5590.344094 kJ/mol
# Density = 2.496069 g / cm^3
# Si number density = 25.017631 Si / 1000 Ang^3
#
#
#
# Elastic Constant Matrix: (Units=GPa)
#
#
# Indices 1 2 3 4 5 6 
#
# 1 139.5060 -7.1411 54.2479 10.0075 31.0074 14.7114
# 2 -7.1411 70.7494 34.1420 4.2498 6.2651 6.6322
# 3 54.2479 34.1420 145.7066 -10.7353 40.4423 5.2308
# 4 10.0075 4.2498 -10.7353 36.9612 -1.8804 10.3494
# 5 31.0074 6.2651 40.4423 -1.8804 45.5613 11.8245
# 6 14.7114 6.6322 5.2308 10.3494 11.8245 32.0316
#
#
#
# Elastic Compliance Matrix: (Units=1/GPa)
#
#
# Indices 1 2 3 4 5 6 
#
# 1 0.010154 0.003635 -0.003841 -0.003842 -0.003582 -0.002225
# 2 0.003635 0.017860 -0.006014 -0.003707 0.001197 -0.003630
# 3 -0.003841 -0.006014 0.012071 0.004121 -0.007772 0.002576
# 4 -0.003842 -0.003707 0.004121 0.032679 0.003399 -0.009954
# 5 -0.003582 0.001197 -0.007772 0.003399 0.034122 -0.011028
# 6 -0.002225 -0.003630 0.002576 -0.009954 -0.011028 0.039859
#
#
# Mechanical properties :
#
#
# Convention : Reuss Voigt Hill
#
# Bulk Modulus (GPa) = 36.17160 57.60663 46.88912
# Shear Modulus (GPa) = 29.69113 41.22505 35.45809
#
# Velocity S-wave (km/s) = 3.44875 4.06376 3.76882
# Velocity P-wave (km/s) = 5.50893 6.71530 6.14181
#
# Compressibility (1/GPa) = 0.02764600
#
# Stress axis : x y z
#
# Youngs Moduli (GPa) = 98.47937 55.99023 82.84581
#
# Poissons Ratio (x) = -0.20354 0.31825
# Poissons Ratio (y) = -0.35800 0.49820
# Poissons Ratio (z) = 0.37830 0.33670
#
# Static dielectric constant tensor:
#      x y z
#    x 2.040630 -0.062820 0.003880 
#    y -0.062820 2.146250 0.040180 
#    z 0.003880 0.040180 2.054860 
# 
# From -- ./inp_files/401651.got.cif
#   From: 2010.05.17/outbox.cif.g08.bks.cpg/sg2_201_cif.got.tgz:401651.got - 2010.06.03 11:33:40.
