data_PCOD9045242
_publ_section_title
;
Structure prediction by ZEFSAII (Michael W. Deem and Ramdas Pophale) SiO2 
 PCOD9045242
Probable space group: P -1
;
_chemical_formula_sum "Si O2"
_cell_formula_units_Z 16
_cell_length_a 8.374281
_cell_length_b 25.506553
_cell_length_c 9.328629
_cell_angle_alpha 155.077452
_cell_angle_beta 67.994059
_cell_angle_gamma 123.876075
_cell_volume 646.579717
_symmetry_space_group_name_H-M "P -1"
_symmetry_group_IT_number 2
_symmetry_cell_setting 'triclinic'
loop_
_space_group_symop_operation_xyz
x,y,z
-x,-y,-z
loop_
_atom_site_type_symbol
_atom_site_label
_atom_site_fract_x
_atom_site_fract_y
_atom_site_fract_z
Si Si1 0.287952 0.389193 0.659443
Si Si2 0.296755 0.843101 0.129664
Si Si3 0.408102 0.569630 0.802519
Si Si4 0.436049 0.192887 0.241712
Si Si5 0.706255 0.841072 0.507577
Si Si6 0.096727 0.834623 0.452247
Si Si7 0.967404 0.418066 0.963382
Si Si8 0.959199 0.103176 0.874503
O O1 0.435244 0.525539 0.844311
O O2 0.361576 0.298817 0.492066
O O3 0.196956 0.448207 0.954053
O O4 0.136444 0.264557 0.279293
O O5 0.149294 0.772893 0.141291
O O6 0.184208 0.872379 0.116155
O O7 0.500000 0.000000 0.500000
O O8 0.380007 0.757207 0.806977
O O9 0.500000 0.500000 0.500000
O O10 0.579124 0.746383 0.176875
O O11 0.177453 0.538547 0.796642
O O12 0.465927 0.191695 0.398250
O O13 0.255083 0.015537 0.842663
O O14 0.873492 0.809674 0.437103
O O15 0.846503 0.008912 0.820689
O O16 0.132096 0.755037 0.376840
O O17 0.000000 0.500000 0.000000
O O18 0.000000 0.000000 0.500000
#
# Coordination Sequence:
#
# PCOD9045242 Si02
#       8
#     2   2   2   2   2   2   2   2
#     4  11  23  46  69  94 144 181 224 283 343 410
#     4  10  24  38  63 105 141 173 218 291 338 401
#     4  11  28  45  66  97 136 183 232 286 340 409
#     4  11  23  42  69 107 139 174 225 290 345 403
#     4  12  24  41  71 102 133 184 228 282 346 406
#     4  11  21  44  69 104 138 178 223 283 351 405
#     4  10  24  46  69  93 134 184 225 277 344 412
#     4  12  22  40  70 101 137 180 233 275 348 409
#
# _framework density 24.745595999999999
#
# number of rings (size 3 to 8) (size 9 to 14) (size 15 to 20)
#    0.000    1.000    3.750    2.625    7.000    1.000 
#    0.000    0.625    0.000    0.000    0.000    0.000 
#    0.000    0.000    0.000    0.000    0.000    0.000 
#
# Total GULP energy -89070.948409 kJ/mol
# GULP energy per Si atom -5566.934276 kJ/mol
# Density = 2.468927 g / cm^3
# Si number density = 24.745596 Si / 1000 Ang^3
#
#
#
# Elastic Constant Matrix: (Units=GPa)
#
#
# Indices 1 2 3 4 5 6 
#
# 1 93.8036 31.8465 39.9702 -8.5263 -11.8275 -2.8798
# 2 31.8465 107.5332 26.0657 -1.9637 -28.5639 7.1543
# 3 39.9702 26.0657 101.9169 -20.4864 -7.6968 16.0260
# 4 -8.5263 -1.9637 -20.4864 45.7294 1.4352 -19.5711
# 5 -11.8275 -28.5639 -7.6968 1.4352 38.0256 -6.0218
# 6 -2.8798 7.1543 16.0260 -19.5711 -6.0218 40.6316
#
#
#
# Elastic Compliance Matrix: (Units=1/GPa)
#
#
# Indices 1 2 3 4 5 6 
#
# 1 0.014393 -0.002767 -0.005089 0.002337 0.002063 0.004946
# 2 -0.002767 0.012771 -0.001660 -0.001528 0.008248 -0.001304
# 3 -0.005089 -0.001660 0.013456 0.003376 -0.000847 -0.003875
# 4 0.002337 -0.001528 0.003376 0.029486 0.001287 0.013496
# 5 0.002063 0.008248 -0.000847 0.001287 0.033649 0.004635
# 6 0.004946 -0.001304 -0.003875 0.013496 0.004635 0.033908
#
#
# Mechanical properties :
#
#
# Convention : Reuss Voigt Hill
#
# Bulk Modulus (GPa) = 46.32405 55.44649 50.88527
# Shear Modulus (GPa) = 30.50775 38.56874 34.53824
#
# Velocity S-wave (km/s) = 3.51501 3.95221 3.74000
# Velocity P-wave (km/s) = 5.93587 6.57889 6.26563
#
# Compressibility (1/GPa) = 0.02158706
#
# Stress axis : x y z
#
# Youngs Moduli (GPa) = 69.47841 78.30153 74.31382
#
# Poissons Ratio (x) = 0.21669 0.37819
# Poissons Ratio (y) = 0.19227 0.12338
# Poissons Ratio (z) = 0.35358 0.13000
#
# Static dielectric constant tensor:
#      x y z
#    x 2.126540 0.012540 0.046680 
#    y 0.012540 1.957300 -0.059650 
#    z 0.046680 -0.059650 2.068080 
# 
# From -- ./inp_files/225733.got.cif
#   From: 2010.05.17/outbox.cif.g08.bks.cpg/sg2_113_cif.got.tgz:225733.got - 2010.06.03 11:33:40.
