data_PCOD9045878
_publ_section_title
;
Structure prediction by ZEFSAII (Michael W. Deem and Ramdas Pophale) SiO2 
 PCOD9045878
Probable space group: P -1
;
_chemical_formula_sum "Si O2"
_cell_formula_units_Z 16
_cell_length_a 5.521890
_cell_length_b 9.440381
_cell_length_c 14.175346
_cell_angle_alpha 106.854164
_cell_angle_beta 80.933466
_cell_angle_gamma 103.844937
_cell_volume 683.555772
_symmetry_space_group_name_H-M "P -1"
_symmetry_group_IT_number 2
_symmetry_cell_setting 'triclinic'
loop_
_space_group_symop_operation_xyz
x,y,z
-x,-y,-z
loop_
_atom_site_type_symbol
_atom_site_label
_atom_site_fract_x
_atom_site_fract_y
_atom_site_fract_z
Si Si1 0.258111 0.286776 0.408147
Si Si2 0.401285 0.560114 0.112254
Si Si3 0.796568 0.072254 0.080635
Si Si4 0.954068 0.640943 0.765382
Si Si5 0.682638 0.149325 0.898521
Si Si6 0.710805 0.535506 0.386773
Si Si7 0.576661 0.762028 0.306736
Si Si8 0.861675 0.059977 0.686714
O O1 0.149594 0.322791 0.321787
O O2 0.546008 0.378592 0.405105
O O3 0.148470 0.364543 0.517787
O O4 0.215507 0.107388 0.383201
O O5 0.255478 0.424330 0.157864
O O6 0.240693 0.679970 0.108558
O O7 0.592433 0.665345 0.191737
O O8 0.500000 0.500000 0.000000
O O9 0.886064 0.205904 0.173107
O O10 0.602993 0.938647 0.116731
O O11 0.689688 0.145593 0.010186
O O12 0.000000 0.000000 0.000000
O O13 0.109444 0.511210 0.711476
O O14 0.830551 0.056189 0.802729
O O15 0.535767 0.637666 0.368421
O O16 0.342409 0.844852 0.321155
O O17 0.845870 0.868091 0.333610
#
# Coordination Sequence:
#
# PCOD9045878 Si02
#       8
#     2   2   2   2   2   2   2   2
#     4  11  26  46  75 105 140 197 246 312 374 440
#     4  11  25  43  69 102 144 193 237 294 367 440
#     4  11  24  40  68  99 143 188 244 297 361 445
#     4  12  25  44  72 107 145 193 246 309 366 439
#     4  10  24  42  62 101 138 189 238 291 362 435
#     4  11  25  48  73 103 148 189 252 307 378 438
#     4  11  26  49  72 108 151 191 247 307 368 442
#     4  11  26  46  75 106 148 193 244 307 368 443
#
# _framework density 23.407014
#
# number of rings (size 3 to 8) (size 9 to 14) (size 15 to 20)
#    0.000    1.000    1.250    4.125   12.250    3.500 
#    0.000    0.000    0.000    0.000    0.000    0.000 
#    0.000    0.000    0.000    0.000    0.000    0.000 
#
# Total GULP energy -89424.274544 kJ/mol
# GULP energy per Si atom -5589.017159 kJ/mol
# Density = 2.335374 g / cm^3
# Si number density = 23.407014 Si / 1000 Ang^3
#
#
#
# Elastic Constant Matrix: (Units=GPa)
#
#
# Indices 1 2 3 4 5 6 
#
# 1 80.4900 37.4175 25.9515 8.4425 3.5828 1.6990
# 2 37.4175 94.0237 38.4010 11.4650 12.0379 -0.9203
# 3 25.9515 38.4010 125.1737 20.6343 24.6141 -4.0414
# 4 8.4425 11.4650 20.6343 44.7489 2.5450 4.2221
# 5 3.5828 12.0379 24.6141 2.5450 25.6595 0.5200
# 6 1.6990 -0.9203 -4.0414 4.2221 0.5200 29.7725
#
#
#
# Elastic Compliance Matrix: (Units=1/GPa)
#
#
# Indices 1 2 3 4 5 6 
#
# 1 0.015677 -0.005702 -0.001912 -0.000631 0.002409 -0.001283
# 2 -0.005702 0.014490 -0.002275 -0.001447 -0.003691 0.000734
# 3 -0.001912 -0.002275 0.011720 -0.004143 -0.009546 0.002384
# 4 -0.000631 -0.001447 -0.004143 0.025006 0.002345 -0.004158
# 5 0.002409 -0.003691 -0.009546 0.002345 0.049347 -0.002742
# 6 -0.001283 0.000734 0.002384 -0.004158 -0.002742 0.034645
#
#
# Mechanical properties :
#
#
# Convention : Reuss Voigt Hill
#
# Bulk Modulus (GPa) = 45.23018 55.91415 50.57217
# Shear Modulus (GPa) = 28.08462 33.23069 30.65765
#
# Velocity S-wave (km/s) = 3.46763 3.77196 3.62299
# Velocity P-wave (km/s) = 5.94961 6.55057 6.25731
#
# Compressibility (1/GPa) = 0.02210913
#
# Stress axis : x y z
#
# Youngs Moduli (GPa) = 63.78734 69.01256 85.32228
#
# Poissons Ratio (x) = 0.39350 0.16314
# Poissons Ratio (y) = 0.36371 0.19413
# Poissons Ratio (z) = 0.12196 0.15702
#
# Static dielectric constant tensor:
#      x y z
#    x 1.999390 -0.081230 0.038570 
#    y -0.081230 1.916200 -0.044200 
#    z 0.038570 -0.044200 2.058580 
# 
# From -- ./inp_files/39190.got.cif
#   From: 2010.05.17/outbox.cif.g08.bks.cpg/sg2_20_cif.got.tgz:39190.got - 2010.06.03 11:33:40.
