data_PCOD9045698
_publ_section_title
;
Structure prediction by ZEFSAII (Michael W. Deem and Ramdas Pophale) SiO2 
 PCOD9045698
Probable space group: P -1
;
_chemical_formula_sum "Si O2"
_cell_formula_units_Z 16
_cell_length_a 10.872391
_cell_length_b 10.332594
_cell_length_c 14.432987
_cell_angle_alpha 101.750959
_cell_angle_beta 121.285738
_cell_angle_gamma 35.678284
_cell_volume 726.608115
_symmetry_space_group_name_H-M "P -1"
_symmetry_group_IT_number 2
_symmetry_cell_setting 'triclinic'
loop_
_space_group_symop_operation_xyz
x,y,z
-x,-y,-z
loop_
_atom_site_type_symbol
_atom_site_label
_atom_site_fract_x
_atom_site_fract_y
_atom_site_fract_z
Si Si1 0.277671 0.990007 0.874136
Si Si2 0.892174 0.597188 0.078298
Si Si3 0.787192 0.782452 0.460654
Si Si4 0.558449 0.356774 0.240027
Si Si5 0.059834 0.124704 0.333448
Si Si6 0.773954 0.889932 0.782343
Si Si7 0.029204 0.111175 0.973884
Si Si8 0.254126 0.886945 0.549302
O O1 0.107785 0.255255 0.858925
O O2 0.290375 0.892147 0.773626
O O3 0.167945 0.982945 0.911411
O O4 0.584044 0.792128 0.983650
O O5 0.053199 0.376390 0.176768
O O6 0.000000 0.500000 0.000000
O O7 0.000000 0.500000 0.500000
O O8 0.841391 0.805925 0.585844
O O9 0.512638 0.927484 0.343199
O O10 0.794916 0.916778 0.426256
O O11 0.762514 0.316772 0.283323
O O12 0.520951 0.354750 0.334239
O O13 0.269558 0.598323 0.115318
O O14 0.093861 0.105410 0.234651
O O15 0.258087 0.878501 0.437263
O O16 0.782369 0.942012 0.896955
O O17 0.000000 0.000000 0.000000
O O18 0.000000 0.000000 0.500000
#
# Coordination Sequence:
#
# PCOD9045698 Si02
#       8
#     2   2   2   2   2   2   2   2
#     4  11  24  41  68 103 140 186 232 274 365 429
#     4  11  24  44  65 101 146 180 229 285 354 431
#     4  10  24  41  67 100 133 180 245 287 361 411
#     4  11  22  46  71  98 146 184 238 289 353 435
#     4   9  23  43  67  96 130 188 232 290 354 399
#     4  12  24  42  72  96 148 178 234 298 355 428
#     4  12  28  41  68 110 145 188 230 292 363 430
#     4   8  20  42  69  92 132 187 231 290 349 409
#
# _framework density 22.020123999999999
#
# number of rings (size 3 to 8) (size 9 to 14) (size 15 to 20)
#    0.750    0.750    2.500    1.125    7.000    2.000 
#    0.000    1.250    0.000    5.250    0.000    0.000 
#    0.000    0.000    0.000    0.000    0.000    0.000 
#
# Total GULP energy -89111.808578 kJ/mol
# GULP energy per Si atom -5569.488036 kJ/mol
# Density = 2.197001 g / cm^3
# Si number density = 22.020124 Si / 1000 Ang^3
#
#
#
# Elastic Constant Matrix: (Units=GPa)
#
#
# Indices 1 2 3 4 5 6 
#
# 1 120.7421 22.2955 39.5328 -21.6155 -11.3216 -0.5442
# 2 22.2955 51.2386 32.4339 -11.4984 -3.8665 2.6526
# 3 39.5328 32.4339 94.9587 -6.6166 6.7912 -3.0847
# 4 -21.6155 -11.4984 -6.6166 14.8933 -3.3033 -2.6885
# 5 -11.3216 -3.8665 6.7912 -3.3033 51.3438 4.4963
# 6 -0.5442 2.6526 -3.0847 -2.6885 4.4963 27.9708
#
#
#
# Elastic Compliance Matrix: (Units=1/GPa)
#
#
# Indices 1 2 3 4 5 6 
#
# 1 0.013865 0.002528 -0.005539 0.020889 0.005274 0.000579
# 2 0.002528 0.031003 -0.010506 0.023786 0.006052 -0.002736
# 3 -0.005539 -0.010506 0.016197 -0.009601 -0.004996 0.002555
# 4 0.020889 0.023786 -0.009601 0.115862 0.014607 0.005880
# 5 0.005274 0.006052 -0.004996 0.014607 0.022986 -0.003313
# 6 0.000579 -0.002736 0.002555 0.005880 -0.003313 0.037402
#
#
# Mechanical properties :
#
#
# Convention : Reuss Voigt Hill
#
# Bulk Modulus (GPa) = 29.38428 50.60708 39.99568
# Shear Modulus (GPa) = 18.13622 30.35343 24.24483
#
# Velocity S-wave (km/s) = 2.87299 3.71676 3.32178
# Velocity P-wave (km/s) = 4.93748 6.43826 5.73715
#
# Compressibility (1/GPa) = 0.03403180
#
# Stress axis : x y z
#
# Youngs Moduli (GPa) = 72.12155 32.25507 61.74143
#
# Poissons Ratio (x) = -0.08156 0.34198
# Poissons Ratio (y) = -0.18236 0.64867
# Poissons Ratio (z) = 0.39947 0.33888
#
# Static dielectric constant tensor:
#      x y z
#    x 1.823370 0.017050 0.003860 
#    y 0.017050 1.901780 0.047810 
#    z 0.003860 0.047810 1.853150 
# 
# From -- ./inp_files/519772.got.cif
#   From: 2010.05.17/outbox.cif.g08.bks.cpg/sg2_260_cif.got.tgz:519772.got - 2010.06.03 11:33:40.
