data_PCOD9045902
_publ_section_title
;
Structure prediction by ZEFSAII (Michael W. Deem and Ramdas Pophale) SiO2 
 PCOD9045902
Probable space group: P -1
;
_chemical_formula_sum "Si O2"
_cell_formula_units_Z 14
_cell_length_a 9.613162
_cell_length_b 18.023587
_cell_length_c 9.102366
_cell_angle_alpha 63.533796
_cell_angle_beta 31.522439
_cell_angle_gamma 80.344603
_cell_volume 657.936749
_symmetry_space_group_name_H-M "P -1"
_symmetry_group_IT_number 2
_symmetry_cell_setting 'triclinic'
loop_
_space_group_symop_operation_xyz
x,y,z
-x,-y,-z
loop_
_atom_site_type_symbol
_atom_site_label
_atom_site_fract_x
_atom_site_fract_y
_atom_site_fract_z
Si Si1 0.247022 0.593615 0.614241
Si Si2 0.898828 0.525355 0.415354
Si Si3 0.453171 0.358292 0.402482
Si Si4 0.641118 0.761928 0.682343
Si Si5 0.794906 0.255035 0.670693
Si Si6 0.333296 0.040054 0.220165
Si Si7 0.732173 0.969153 0.382768
O O1 0.315267 0.554036 0.436312
O O2 0.513506 0.644622 0.448095
O O3 0.141623 0.668877 0.582323
O O4 0.000000 0.500000 0.000000
O O5 0.749216 0.593289 0.504499
O O6 0.000000 0.500000 0.500000
O O7 0.211610 0.577533 0.006253
O O8 0.360164 0.271337 0.454171
O O9 0.657631 0.862560 0.565180
O O10 0.916770 0.756174 0.523703
O O11 0.345191 0.712836 0.093801
O O12 0.539460 0.152396 0.942322
O O13 0.264080 0.998552 0.482578
O O14 0.000000 0.000000 0.500000
O O15 0.500000 0.000000 0.000000
O O16 0.500000 0.000000 0.500000
O O17 0.000000 0.000000 0.000000
#
# Coordination Sequence:
#
# PCOD9045902 Si02
#       7
#     2   2   2   2   2   2   2
#     4  10  24  42  63  96 133 171 222 282 333 383
#     4  11  22  39  61  86 121 167 211 259 322 389
#     4  11  23  38  60  90 122 159 212 271 319 376
#     4  11  23  43  65  93 127 173 224 266 329 413
#     4  11  24  44  67  92 133 179 220 272 332 406
#     4  11  23  43  68  99 133 175 224 273 339 413
#     4  11  23  41  66  96 132 170 215 279 341 400
#
# _framework density 21.278642000000001
#
# number of rings (size 3 to 8) (size 9 to 14) (size 15 to 20)
#    0.000    1.143    0.000    7.714    0.000    8.000 
#    0.000    1.429    0.000    0.000    0.000    0.000 
#    0.000    0.000    0.000    0.000    0.000    0.000 
#
# Total GULP energy -77983.969330 kJ/mol
# GULP energy per Si atom -5570.283524 kJ/mol
# Density = 2.123021 g / cm^3
# Si number density = 21.278642 Si / 1000 Ang^3
#
#
#
# Elastic Constant Matrix: (Units=GPa)
#
#
# Indices 1 2 3 4 5 6 
#
# 1 211.2332 70.6410 48.7168 18.4163 5.7693 -12.1233
# 2 70.6410 118.6267 45.5561 29.1160 -0.3719 -6.5973
# 3 48.7168 45.5561 100.8112 24.0129 2.5391 -15.7417
# 4 18.4163 29.1160 24.0129 45.9944 -7.2158 2.8049
# 5 5.7693 -0.3719 2.5391 -7.2158 43.7756 6.5850
# 6 -12.1233 -6.5973 -15.7417 2.8049 6.5850 50.6620
#
#
#
# Elastic Compliance Matrix: (Units=1/GPa)
#
#
# Indices 1 2 3 4 5 6 
#
# 1 0.006163 -0.003088 -0.001466 0.000075 -0.000850 0.000723
# 2 -0.003088 0.012723 -0.002924 -0.005351 -0.000248 0.000338
# 3 -0.001466 -0.002924 0.013954 -0.005443 -0.002168 0.004187
# 4 0.000075 -0.005351 -0.005443 0.029135 0.005775 -0.004734
# 5 -0.000850 -0.000248 -0.002168 0.005775 0.024699 -0.004439
# 6 0.000723 0.000338 0.004187 -0.004734 -0.004439 0.022096
#
#
# Mechanical properties :
#
#
# Convention : Reuss Voigt Hill
#
# Bulk Modulus (GPa) = 55.91500 84.49988 70.20744
# Shear Modulus (GPa) = 38.55424 45.80354 42.17889
#
# Velocity S-wave (km/s) = 4.26123 4.64460 4.45704
# Velocity P-wave (km/s) = 7.10953 8.28012 7.71705
#
# Compressibility (1/GPa) = 0.01788429
#
# Stress axis : x y z
#
# Youngs Moduli (GPa) = 162.25540 78.60044 71.66243
#
# Poissons Ratio (x) = 0.24270 0.10509
# Poissons Ratio (y) = 0.50101 0.20951
# Poissons Ratio (z) = 0.23795 0.22980
#
# Static dielectric constant tensor:
#      x y z
#    x 1.812500 0.070660 0.032660 
#    y 0.070660 1.788020 -0.039220 
#    z 0.032660 -0.039220 1.809770 
# 
# From -- ./inp_files/216929.got.cif
#   From: 2010.05.17/outbox.cif.g08.bks.cpg/sg2_109_cif.got.tgz:216929.got - 2010.06.03 11:33:40.
