data_PCOD9045950
_publ_section_title
;
Structure prediction by ZEFSAII (Michael W. Deem and Ramdas Pophale) SiO2 
 PCOD9045950
Probable space group: P -1
;
_chemical_formula_sum "Si O2"
_cell_formula_units_Z 16
_cell_length_a 17.814594
_cell_length_b 13.724317
_cell_length_c 5.903833
_cell_angle_alpha 140.557828
_cell_angle_beta 53.826916
_cell_angle_gamma 138.729593
_cell_volume 604.714052
_symmetry_space_group_name_H-M "P -1"
_symmetry_group_IT_number 2
_symmetry_cell_setting 'triclinic'
loop_
_space_group_symop_operation_xyz
x,y,z
-x,-y,-z
loop_
_atom_site_type_symbol
_atom_site_label
_atom_site_fract_x
_atom_site_fract_y
_atom_site_fract_z
Si Si1 0.778356 0.338167 0.394713
Si Si2 0.513864 0.090578 0.387592
Si Si3 0.897867 0.675562 0.065733
Si Si4 0.473594 0.352090 0.481668
Si Si5 0.312913 0.036961 0.877342
Si Si6 0.719403 0.452283 0.335961
Si Si7 0.273998 0.223232 0.928542
Si Si8 0.937544 0.025917 0.366841
O O1 0.643654 0.275740 0.519593
O O2 0.766429 0.174610 0.273836
O O3 0.775437 0.348249 0.144065
O O4 0.888416 0.536495 0.641565
O O5 0.500000 0.000000 0.500000
O O6 0.399355 0.082081 0.596947
O O7 0.500000 0.000000 0.000000
O O8 0.775391 0.529325 0.131662
O O9 0.992425 0.774899 0.273537
O O10 0.908178 0.855878 0.276278
O O11 0.500000 0.500000 0.500000
O O12 0.587439 0.372913 0.392376
O O13 0.395710 0.345926 0.808652
O O14 0.392573 0.150674 0.149940
O O15 0.263090 0.146789 0.065207
O O16 0.765036 0.637476 0.738240
O O17 0.184926 0.036583 0.614133
O O18 0.000000 0.000000 0.000000
#
# Coordination Sequence:
#
# PCOD9045950 Si02
#       8
#     2   2   2   2   2   2   2   2
#     4  11  25  40  65  99 138 185 235 285 349 422
#     4  10  24  42  64  98 144 199 240 280 346 435
#     4  11  23  42  73 101 135 173 241 295 353 417
#     4  12  26  41  66 102 149 183 226 283 362 421
#     4  11  27  42  63  99 145 187 231 287 356 423
#     4  12  24  40  70 102 140 182 232 281 353 434
#     4  12  25  43  68 104 137 184 229 294 358 424
#     4  11  23  45  72 103 131 176 240 299 355 421
#
# _framework density 26.458786
#
# number of rings (size 3 to 8) (size 9 to 14) (size 15 to 20)
#    0.000    0.750    3.750    2.625   12.250    0.000 
#    0.000    0.625    0.000    3.750    0.000    0.000 
#    0.000    0.000    0.000    0.000    0.000    0.000 
#
# Total GULP energy -89183.653128 kJ/mol
# GULP energy per Si atom -5573.978320 kJ/mol
# Density = 2.639857 g / cm^3
# Si number density = 26.458786 Si / 1000 Ang^3
#
#
#
# Elastic Constant Matrix: (Units=GPa)
#
#
# Indices 1 2 3 4 5 6 
#
# 1 78.8222 39.1472 23.7022 10.8761 35.2831 -7.8326
# 2 39.1472 81.3719 24.2953 7.2734 6.7958 -10.1019
# 3 23.7022 24.2953 88.3282 17.0435 34.5425 7.3445
# 4 10.8761 7.2734 17.0435 51.4632 15.6495 5.3445
# 5 35.2831 6.7958 34.5425 15.6495 47.1543 16.4702
# 6 -7.8326 -10.1019 7.3445 5.3445 16.4702 52.0904
#
#
#
# Elastic Compliance Matrix: (Units=1/GPa)
#
#
# Indices 1 2 3 4 5 6 
#
# 1 0.032374 -0.013516 0.005952 0.001361 -0.030948 0.011053
# 2 -0.013516 0.019614 -0.006424 -0.001599 0.012963 -0.001257
# 3 0.005952 -0.006424 0.018367 -0.001404 -0.017468 0.002727
# 4 0.001361 -0.001599 -0.001404 0.021980 -0.007080 0.000076
# 5 -0.030948 0.012963 -0.017468 -0.007080 0.064385 -0.019308
# 6 0.011053 -0.001257 0.002727 0.000076 -0.019308 0.026328
#
#
# Mechanical properties :
#
#
# Convention : Reuss Voigt Hill
#
# Bulk Modulus (GPa) = 23.59786 46.97906 35.28846
# Shear Modulus (GPa) = 22.20722 40.90008 31.55365
#
# Velocity S-wave (km/s) = 2.90023 3.93594 3.45709
# Velocity P-wave (km/s) = 4.48923 6.20077 5.41308
#
# Compressibility (1/GPa) = 0.04237672
#
# Stress axis : x y z
#
# Youngs Moduli (GPa) = 30.88926 50.98337 54.44582
#
# Poissons Ratio (x) = 0.68911 -0.32404
# Poissons Ratio (y) = 0.41751 0.34977
# Poissons Ratio (z) = -0.18384 0.32753
#
# Static dielectric constant tensor:
#      x y z
#    x 2.280610 -0.089610 -0.011390 
#    y -0.089610 2.785580 -0.315560 
#    z -0.011390 -0.315560 2.536100 
# 
# From -- ./inp_files/119514.got.cif
#   From: 2010.05.17/outbox.cif.g08.bks.cpg/sg2_60_cif.got.tgz:119514.got - 2010.06.03 11:33:40.
