data_PCOD9045425
_publ_section_title
;
Structure prediction by ZEFSAII (Michael W. Deem and Ramdas Pophale) SiO2 
 PCOD9045425
Probable space group: P -1
;
_chemical_formula_sum "Si O2"
_cell_formula_units_Z 15
_cell_length_a 9.056278
_cell_length_b 14.322726
_cell_length_c 5.038308
_cell_angle_alpha 98.137842
_cell_angle_beta 106.817507
_cell_angle_gamma 96.130258
_cell_volume 611.698768
_symmetry_space_group_name_H-M "P -1"
_symmetry_group_IT_number 2
_symmetry_cell_setting 'triclinic'
loop_
_space_group_symop_operation_xyz
x,y,z
-x,-y,-z
loop_
_atom_site_type_symbol
_atom_site_label
_atom_site_fract_x
_atom_site_fract_y
_atom_site_fract_z
Si Si1 0.607873 0.985055 0.298122
Si Si2 0.500000 0.500000 0.000000
Si Si3 0.124050 0.849238 0.657143
Si Si4 0.725071 0.627646 0.960448
Si Si5 0.506254 0.669307 0.498249
Si Si6 0.767872 0.805685 0.430299
Si Si7 0.208537 0.746245 0.161157
Si Si8 0.991867 0.565972 0.772724
O O1 0.766856 0.060812 0.380803
O O2 0.500000 0.000000 0.500000
O O3 0.667313 0.883388 0.300721
O O4 0.500000 0.000000 0.000000
O O5 0.305387 0.464627 0.908297
O O6 0.494552 0.579833 0.266570
O O7 0.118093 0.770521 0.387961
O O8 0.941967 0.853405 0.623555
O O9 0.208947 0.826411 0.966045
O O10 0.537479 0.624767 0.785726
O O11 0.832382 0.609319 0.764029
O O12 0.778212 0.723716 0.184836
O O13 0.661330 0.748297 0.579513
O O14 0.368058 0.724842 0.365786
O O15 0.126170 0.655705 0.916880
O O16 0.000000 0.500000 0.500000
O O17 0.000000 0.500000 0.000000
#
# Coordination Sequence:
#
# PCOD9045425 Si02
#       8
#     2   1   2   2   2   2   2   2
#     4  12  28  50  79 115 149 192 249 311 382 456
#     4  10  24  40  66 102 144 196 254 306 370 448
#     4  12  26  50  75 110 148 195 248 306 379 452
#     4  11  25  46  72 108 148 204 252 313 379 448
#     4  11  25  43  70 103 148 194 250 308 375 438
#     4  11  26  47  75 108 150 195 246 309 377 451
#     4  12  27  46  75 109 148 198 248 312 376 440
#     4  12  27  47  74 107 153 201 256 316 373 448
#
# _framework density 24.521875000000001
#
# number of rings (size 3 to 8) (size 9 to 14) (size 15 to 20)
#    0.000    0.533    1.333    5.600   13.067    0.000 
#    0.000    2.667    0.000    0.000    0.000    0.000 
#    0.000    0.000    0.000    0.000    0.000    0.000 
#
# Total GULP energy -83663.226619 kJ/mol
# GULP energy per Si atom -5577.548441 kJ/mol
# Density = 2.446606 g / cm^3
# Si number density = 24.521875 Si / 1000 Ang^3
#
#
#
# Elastic Constant Matrix: (Units=GPa)
#
#
# Indices 1 2 3 4 5 6 
#
# 1 124.6329 29.5987 12.2453 11.6459 15.6450 3.1747
# 2 29.5987 72.7622 -3.9756 1.1505 17.7171 5.8470
# 3 12.2453 -3.9756 95.6012 -1.4290 -9.1690 0.8291
# 4 11.6459 1.1505 -1.4290 33.3604 2.9637 8.5245
# 5 15.6450 17.7171 -9.1690 2.9637 38.5254 6.8007
# 6 3.1747 5.8470 0.8291 8.5245 6.8007 15.3108
#
#
#
# Elastic Compliance Matrix: (Units=1/GPa)
#
#
# Indices 1 2 3 4 5 6 
#
# 1 0.009675 -0.003480 -0.001749 -0.003797 -0.002955 0.002844
# 2 -0.003480 0.016882 0.000690 0.002329 -0.005555 -0.004592
# 3 -0.001749 0.000690 0.011088 0.001485 0.003420 -0.002847
# 4 -0.003797 0.002329 0.001485 0.036579 0.001777 -0.021338
# 5 -0.002955 -0.005555 0.003420 0.001777 0.032675 -0.012954
# 6 0.002844 -0.004592 -0.002847 -0.021338 -0.012954 0.084266
#
#
# Mechanical properties :
#
#
# Convention : Reuss Voigt Hill
#
# Bulk Modulus (GPa) = 35.00716 40.97036 37.98876
# Shear Modulus (GPa) = 23.83616 34.44784 29.14200
#
# Velocity S-wave (km/s) = 3.12113 3.75211 3.45107
# Velocity P-wave (km/s) = 5.22451 5.95945 5.60404
#
# Compressibility (1/GPa) = 0.02856558
#
# Stress axis : x y z
#
# Youngs Moduli (GPa) = 103.35775 59.23640 90.18988
#
# Poissons Ratio (x) = 0.20616 0.15772
# Poissons Ratio (y) = 0.35972 -0.06221
# Poissons Ratio (z) = 0.18075 -0.04086
#
# Static dielectric constant tensor:
#      x y z
#    x 2.069030 -0.098800 0.084560 
#    y -0.098800 1.685010 0.066300 
#    z 0.084560 0.066300 1.872440 
# 
# From -- ./inp_files/39521.got.cif
#   From: 2010.05.17/outbox.cif.g08.bks.cpg/sg2_20_cif.got.tgz:39521.got - 2010.06.03 11:33:40.
