data_PCOD9045584
_publ_section_title
;
Structure prediction by ZEFSAII (Michael W. Deem and Ramdas Pophale) SiO2 
 PCOD9045584
Probable space group: P -1
;
_chemical_formula_sum "Si O2"
_cell_formula_units_Z 13
_cell_length_a 9.355973
_cell_length_b 20.765380
_cell_length_c 17.462741
_cell_angle_alpha 17.200361
_cell_angle_beta 145.531058
_cell_angle_gamma 144.731076
_cell_volume 559.280959
_symmetry_space_group_name_H-M "P -1"
_symmetry_group_IT_number 2
_symmetry_cell_setting 'triclinic'
loop_
_space_group_symop_operation_xyz
x,y,z
-x,-y,-z
loop_
_atom_site_type_symbol
_atom_site_label
_atom_site_fract_x
_atom_site_fract_y
_atom_site_fract_z
Si Si1 0.766947 0.132363 0.760452
Si Si2 0.903225 0.473199 0.299322
Si Si3 0.000000 0.500000 0.000000
Si Si4 0.616275 0.233900 0.747778
Si Si5 0.298209 0.123882 0.311370
Si Si6 0.717491 0.044762 0.345164
Si Si7 0.062450 0.294367 0.417408
O O1 0.813610 0.340308 0.487458
O O2 0.747786 0.196199 0.767744
O O3 0.490975 0.996537 0.766571
O O4 0.000000 0.000000 0.000000
O O5 0.178416 0.619937 0.273993
O O6 0.947658 0.320607 0.420304
O O7 0.723963 0.643521 0.998972
O O8 0.975905 0.454529 0.134081
O O9 0.763357 0.291641 0.117174
O O10 0.368819 0.345725 0.496894
O O11 0.500000 0.000000 0.000000
O O12 0.500000 0.000000 0.500000
O O13 0.365077 0.124824 0.429118
O O14 0.029979 0.954248 0.372716
O O15 0.000000 0.000000 0.500000
#
# Coordination Sequence:
#
# PCOD9045584 Si02
#       7
#     2   2   1   2   2   2   2
#     4  12  29  48  77 115 157 202 254 318 388 460
#     4  12  27  48  76 108 157 203 243 317 394 438
#     4  10  24  40  76 106 142 184 246 310 366 422
#     4  12  26  47  76 106 150 199 260 307 373 461
#     4  11  25  44  73 105 149 190 252 310 372 455
#     4  11  25  47  72 107 145 192 254 308 369 449
#     4  11  24  46  73 111 141 202 255 309 371 456
#
# _framework density 23.244130999999999
#
# number of rings (size 3 to 8) (size 9 to 14) (size 15 to 20)
#    0.000    0.615    1.538    5.538    6.462    7.385 
#    0.000    0.000    0.000    0.000    0.000    0.000 
#    0.000    0.000    0.000    0.000    0.000    0.000 
#
# Total GULP energy -72531.519347 kJ/mol
# GULP energy per Si atom -5579.347642 kJ/mol
# Density = 2.319123 g / cm^3
# Si number density = 23.244131 Si / 1000 Ang^3
#
#
#
# Elastic Constant Matrix: (Units=GPa)
#
#
# Indices 1 2 3 4 5 6 
#
# 1 117.6683 -9.0587 21.7787 15.8170 -8.0129 -14.1136
# 2 -9.0587 116.3613 -0.8594 2.1523 2.8577 1.9637
# 3 21.7787 -0.8594 79.7371 -0.5736 -18.5622 -6.4231
# 4 15.8170 2.1523 -0.5736 28.1776 10.2993 -3.9271
# 5 -8.0129 2.8577 -18.5622 10.2993 49.4466 10.9776
# 6 -14.1136 1.9637 -6.4231 -3.9271 10.9776 42.7622
#
#
#
# Elastic Compliance Matrix: (Units=1/GPa)
#
#
# Indices 1 2 3 4 5 6 
#
# 1 0.010151 0.000814 -0.002281 -0.006099 0.001566 0.002008
# 2 0.000814 0.008684 -0.000193 -0.001093 -0.000166 -0.000217
# 3 -0.002281 -0.000193 0.014345 -0.000249 0.005059 0.000089
# 4 -0.006099 -0.001093 -0.000249 0.043777 -0.011226 0.004902
# 5 0.001566 -0.000166 0.005059 -0.011226 0.026159 -0.006462
# 6 0.002008 -0.000217 0.000089 0.004902 -0.006462 0.026180
#
#
# Mechanical properties :
#
#
# Convention : Reuss Voigt Hill
#
# Bulk Modulus (GPa) = 33.49026 37.49865 35.49445
# Shear Modulus (GPa) = 35.07048 44.20436 39.63742
#
# Velocity S-wave (km/s) = 3.88853 4.36563 4.13397
# Velocity P-wave (km/s) = 5.88219 6.44819 6.17168
#
# Compressibility (1/GPa) = 0.02985943
#
# Stress axis : x y z
#
# Youngs Moduli (GPa) = 98.51562 115.15655 69.70944
#
# Poissons Ratio (x) = -0.09372 0.15902
# Poissons Ratio (y) = -0.08018 0.01344
# Poissons Ratio (z) = 0.22474 0.02220
#
# Static dielectric constant tensor:
#      x y z
#    x 1.870700 0.057850 0.015780 
#    y 0.057850 1.914140 0.011900 
#    z 0.015780 0.011900 1.925390 
# 
# From -- ./inp_files/187172.got.cif
#   From: 2010.05.17/outbox.cif.g08.bks.cpg/sg2_94_cif.got.tgz:187172.got - 2010.06.03 11:33:40.
