data_PCOD9045417
_publ_section_title
;
Structure prediction by ZEFSAII (Michael W. Deem and Ramdas Pophale) SiO2 
 PCOD9045417
Probable space group: P -1
;
_chemical_formula_sum "Si O2"
_cell_formula_units_Z 14
_cell_length_a 5.926092
_cell_length_b 5.052498
_cell_length_c 18.095366
_cell_angle_alpha 93.689345
_cell_angle_beta 97.144947
_cell_angle_gamma 93.236972
_cell_volume 535.343914
_symmetry_space_group_name_H-M "P -1"
_symmetry_group_IT_number 2
_symmetry_cell_setting 'triclinic'
loop_
_space_group_symop_operation_xyz
x,y,z
-x,-y,-z
loop_
_atom_site_type_symbol
_atom_site_label
_atom_site_fract_x
_atom_site_fract_y
_atom_site_fract_z
Si Si1 0.150249 0.625354 0.319503
Si Si2 0.170266 0.518001 0.575263
Si Si3 0.462897 0.242955 0.231456
Si Si4 0.701926 0.865530 0.045849
Si Si5 0.833843 0.635635 0.184035
Si Si6 0.455553 0.031462 0.623702
Si Si7 0.122456 0.295779 0.090655
O O1 0.326228 0.449727 0.279717
O O2 0.292628 0.838465 0.379691
O O3 0.988652 0.433382 0.359790
O O4 0.989685 0.767316 0.257099
O O5 0.283424 0.244905 0.594168
O O6 0.000000 0.500000 0.500000
O O7 0.368997 0.750767 0.580926
O O8 0.691097 0.390460 0.211191
O O9 0.299005 0.182398 0.154131
O O10 0.527225 0.016893 0.287491
O O11 0.658679 0.772624 0.126181
O O12 0.765498 0.646993 0.983527
O O13 0.914161 0.079732 0.066874
O O14 0.500000 0.000000 0.000000
O O15 0.016922 0.540481 0.130849
#
# Coordination Sequence:
#
# PCOD9045417 Si02
#       7
#     2   2   2   2   2   2   2
#     4  11  25  46  77 105 150 191 252 304 375 434
#     4  12  29  50  78 114 155 195 244 302 371 448
#     4  11  24  45  71 107 137 195 251 309 364 444
#     4  11  24  41  61  98 140 192 243 307 367 439
#     4  11  23  44  69  99 140 191 243 309 366 440
#     4  12  25  50  74 114 148 197 248 300 369 444
#     4  10  24  40  65  97 138 188 246 302 378 425
#
# _framework density 26.151416000000001
#
# number of rings (size 3 to 8) (size 9 to 14) (size 15 to 20)
#    0.000    0.857    2.857    2.571    2.000   12.571 
#    0.000    0.000    0.000    0.000    0.000    0.000 
#    0.000    0.000    0.000    0.000    0.000    0.000 
#
# Total GULP energy -78452.715297 kJ/mol
# GULP energy per Si atom -5603.765378 kJ/mol
# Density = 2.609189 g / cm^3
# Si number density = 26.151416 Si / 1000 Ang^3
#
#
#
# Elastic Constant Matrix: (Units=GPa)
#
#
# Indices 1 2 3 4 5 6 
#
# 1 86.0547 25.7503 49.8210 -6.7505 42.0021 -7.7892
# 2 25.7503 93.4745 30.7836 -13.1156 26.9584 -5.5604
# 3 49.8210 30.7836 166.0910 -13.5075 63.2912 -5.8972
# 4 -6.7505 -13.1156 -13.5075 37.8296 -3.2856 14.1622
# 5 42.0021 26.9584 63.2912 -3.2856 65.0982 2.5732
# 6 -7.7892 -5.5604 -5.8972 14.1622 2.5732 41.5579
#
#
#
# Elastic Compliance Matrix: (Units=1/GPa)
#
#
# Indices 1 2 3 4 5 6 
#
# 1 0.017930 -0.001456 -0.001182 0.000063 -0.009955 0.003593
# 2 -0.001456 0.012857 -0.000041 0.003649 -0.004179 0.000457
# 3 -0.001182 -0.000041 0.009963 0.002196 -0.008835 0.000985
# 4 0.000063 0.003649 0.002196 0.032103 -0.001670 -0.010025
# 5 -0.009955 -0.004179 -0.008835 -0.001670 0.032222 -0.005105
# 6 0.003593 0.000457 0.000985 -0.010025 -0.005105 0.028670
#
#
# Mechanical properties :
#
#
# Convention : Reuss Voigt Hill
#
# Bulk Modulus (GPa) = 28.25526 62.03668 45.14597
# Shear Modulus (GPa) = 33.13433 44.84815 38.99124
#
# Velocity S-wave (km/s) = 3.56338 4.14568 3.86551
# Velocity P-wave (km/s) = 5.26860 6.83295 6.10112
#
# Compressibility (1/GPa) = 0.03539164
#
# Stress axis : x y z
#
# Youngs Moduli (GPa) = 55.77354 77.77770 100.36789
#
# Poissons Ratio (x) = 0.11328 0.11866
# Poissons Ratio (y) = 0.08123 0.00408
# Poissons Ratio (z) = 0.06594 0.00316
#
# Static dielectric constant tensor:
#      x y z
#    x 2.071430 -0.058920 -0.007310 
#    y -0.058920 2.086930 -0.000200 
#    z -0.007310 -0.000200 2.045870 
# 
# From -- ./inp_files/102912.got.cif
#   From: 2010.05.17/outbox.cif.g08.bks.cpg/sg2_52_cif.got.tgz:102912.got - 2010.06.03 11:33:40.
