data_PCOD9045563
_publ_section_title
;
Structure prediction by ZEFSAII (Michael W. Deem and Ramdas Pophale) SiO2 
 PCOD9045563
Probable space group: P -1
;
_chemical_formula_sum "Si O2"
_cell_formula_units_Z 12
_cell_length_a 8.093671
_cell_length_b 15.801621
_cell_length_c 10.620671
_cell_angle_alpha 155.841209
_cell_angle_beta 59.168160
_cell_angle_gamma 123.085315
_cell_volume 465.361956
_symmetry_space_group_name_H-M "P -1"
_symmetry_group_IT_number 2
_symmetry_cell_setting 'triclinic'
loop_
_space_group_symop_operation_xyz
x,y,z
-x,-y,-z
loop_
_atom_site_type_symbol
_atom_site_label
_atom_site_fract_x
_atom_site_fract_y
_atom_site_fract_z
Si Si1 0.811561 0.736133 0.341263
Si Si2 0.759701 0.366681 0.673537
Si Si3 0.240432 0.919310 0.363110
Si Si4 0.859367 0.549898 0.510358
Si Si5 0.518096 0.248528 0.348689
Si Si6 0.337152 0.109804 0.836422
O O1 0.700628 0.718345 0.493513
O O2 0.045627 0.762791 0.278552
O O3 0.787618 0.959167 0.589370
O O4 0.718960 0.540720 0.022191
O O5 0.634487 0.336536 0.551646
O O6 0.992234 0.430841 0.636674
O O7 0.708834 0.134025 0.436184
O O8 0.427943 0.815586 0.142016
O O9 0.285051 0.106297 0.704813
O O10 0.655902 0.373418 0.355520
O O11 0.000000 0.500000 0.500000
O O12 0.790553 0.763833 0.861700
O O13 0.500000 0.000000 0.000000
#
# Coordination Sequence:
#
# PCOD9045563 Si02
#       6
#     2   2   2   2   2   2
#     4  11  24  45  72 101 138 184 234 271 342 417
#     4  11  24  43  73 101 137 183 228 281 345 403
#     4  10  24  40  72  99 142 177 231 280 341 399
#     4  10  24  43  68  95 138 179 225 277 344 401
#     4  11  25  43  71 102 137 183 233 277 340 410
#     4  11  23  44  69 105 140 176 230 289 344 396
#
# _framework density 25.786377999999999
#
# number of rings (size 3 to 8) (size 9 to 14) (size 15 to 20)
#    0.000    1.333    1.667    3.000   14.000    0.667 
#    0.000    1.667    0.000    0.000    0.000    0.000 
#    0.000    0.000    0.000    0.000    0.000    0.000 
#
# Total GULP energy -67238.180641 kJ/mol
# GULP energy per Si atom -5603.181720 kJ/mol
# Density = 2.572769 g / cm^3
# Si number density = 25.786378 Si / 1000 Ang^3
#
#
#
# Elastic Constant Matrix: (Units=GPa)
#
#
# Indices 1 2 3 4 5 6 
#
# 1 87.7486 25.8764 15.6493 -10.7783 2.0113 27.1437
# 2 25.8764 154.5227 29.7008 -8.3646 -8.9275 54.5602
# 3 15.6493 29.7008 131.9843 -21.9423 4.8561 28.4354
# 4 -10.7783 -8.3646 -21.9423 48.9335 4.6815 -7.3406
# 5 2.0113 -8.9275 4.8561 4.6815 27.2084 -6.9796
# 6 27.1437 54.5602 28.4354 -7.3406 -6.9796 44.7182
#
#
#
# Elastic Compliance Matrix: (Units=1/GPa)
#
#
# Indices 1 2 3 4 5 6 
#
# 1 0.014782 0.001237 0.001006 0.002620 -0.004229 -0.011351
# 2 0.001237 0.011501 0.000591 0.000262 -0.000360 -0.015172
# 3 0.001006 0.000591 0.009769 0.003976 -0.004246 -0.007553
# 4 0.002620 0.000262 0.003976 0.023118 -0.005167 -0.001450
# 5 -0.004229 -0.000360 -0.004246 -0.005167 0.041502 0.011336
# 6 -0.011351 -0.015172 -0.007553 -0.001450 0.011336 0.054098
#
#
# Mechanical properties :
#
#
# Convention : Reuss Voigt Hill
#
# Bulk Modulus (GPa) = 23.96992 57.41209 40.69101
# Shear Modulus (GPa) = 30.67282 44.37397 37.52339
#
# Velocity S-wave (km/s) = 3.45265 4.15279 3.81880
# Velocity P-wave (km/s) = 5.02097 6.73105 5.93789
#
# Compressibility (1/GPa) = 0.04171895
#
# Stress axis : x y z
#
# Youngs Moduli (GPa) = 67.64894 86.94562 102.36456
#
# Poissons Ratio (x) = -0.10753 -0.10295
# Poissons Ratio (y) = -0.08366 -0.06047
# Poissons Ratio (z) = -0.06804 -0.05136
#
# Static dielectric constant tensor:
#      x y z
#    x 2.094460 0.002930 0.026950 
#    y 0.002930 2.034420 0.011560 
#    z 0.026950 0.011560 1.931900 
# 
# From -- ./inp_files/148834.got.cif
#   From: 2010.05.17/outbox.cif.g08.bks.cpg/sg2_75_cif.got.tgz:148834.got - 2010.06.03 11:33:40.
