data_PCOD9045588
_publ_section_title
;
Structure prediction by ZEFSAII (Michael W. Deem and Ramdas Pophale) SiO2 
 PCOD9045588
Probable space group: P -1
;
_chemical_formula_sum "Si O2"
_cell_formula_units_Z 16
_cell_length_a 9.729582
_cell_length_b 23.746766
_cell_length_c 11.517400
_cell_angle_alpha 149.359814
_cell_angle_beta 70.960895
_cell_angle_gamma 130.044343
_cell_volume 843.760784
_symmetry_space_group_name_H-M "P -1"
_symmetry_group_IT_number 2
_symmetry_cell_setting 'triclinic'
loop_
_space_group_symop_operation_xyz
x,y,z
-x,-y,-z
loop_
_atom_site_type_symbol
_atom_site_label
_atom_site_fract_x
_atom_site_fract_y
_atom_site_fract_z
Si Si1 0.846771 0.991462 0.338113
Si Si2 0.394954 0.819756 0.211828
Si Si3 0.130164 0.151124 0.321270
Si Si4 0.561117 0.408884 0.787110
Si Si5 0.766322 0.404902 0.944320
Si Si6 0.296652 0.428117 0.589205
Si Si7 0.809981 0.718561 0.895274
Si Si8 0.019914 0.305278 0.982575
O O1 0.954566 0.081391 0.344619
O O2 0.938216 0.140110 0.659678
O O3 0.580118 0.846624 0.153283
O O4 0.903745 0.897646 0.189684
O O5 0.356786 0.765242 0.259477
O O6 0.163657 0.705953 0.008676
O O7 0.500000 0.000000 0.500000
O O8 0.346062 0.230777 0.471483
O O9 0.226117 0.305457 0.492919
O O10 0.000000 0.000000 0.000000
O O11 0.634330 0.386901 0.844142
O O12 0.500000 0.500000 0.000000
O O13 0.762610 0.533592 0.862254
O O14 0.788011 0.502935 0.219390
O O15 0.000000 0.500000 0.000000
O O16 0.560902 0.582461 0.773866
O O17 0.202070 0.329880 0.319605
O O18 0.932678 0.699132 0.905980
#
# Coordination Sequence:
#
# PCOD9045588 Si02
#       8
#     2   2   2   2   2   2   2   2
#     4  11  22  38  66  95 129 173 212 273 332 379
#     4  10  24  41  59  96 133 167 209 272 330 380
#     4  12  24  41  64  97 137 167 214 277 338 385
#     4  12  22  39  70 100 124 170 225 276 318 390
#     4  12  23  42  70  96 129 172 223 271 325 392
#     4  11  23  40  63  94 132 171 212 267 333 388
#     4  11  22  39  66  94 129 167 218 271 324 388
#     4  11  21  40  64  97 129 166 222 270 319 388
#
# _framework density 18.962720000000001
#
# number of rings (size 3 to 8) (size 9 to 14) (size 15 to 20)
#    0.000    0.750    7.500    0.375    1.750    2.000 
#    0.000    1.875    0.000    1.500    0.000    0.000 
#    0.000    0.000    0.000    0.000    0.000    0.000 
#
# Total GULP energy -89297.541773 kJ/mol
# GULP energy per Si atom -5581.096361 kJ/mol
# Density = 1.891956 g / cm^3
# Si number density = 18.962720 Si / 1000 Ang^3
#
#
#
# Elastic Constant Matrix: (Units=GPa)
#
#
# Indices 1 2 3 4 5 6 
#
# 1 115.3011 54.0377 19.6725 3.9591 16.8165 -17.9557
# 2 54.0377 141.1488 18.2462 18.2532 10.2057 -12.8360
# 3 19.6725 18.2462 65.0666 6.4888 8.8284 -4.5988
# 4 3.9591 18.2532 6.4888 25.8588 -5.7714 -1.2469
# 5 16.8165 10.2057 8.8284 -5.7714 27.4773 8.9106
# 6 -17.9557 -12.8360 -4.5988 -1.2469 8.9106 41.7702
#
#
#
# Elastic Compliance Matrix: (Units=1/GPa)
#
#
# Indices 1 2 3 4 5 6 
#
# 1 0.012644 -0.003458 -0.001260 -0.000705 -0.008125 0.005946
# 2 -0.003458 0.009800 -0.000385 -0.006980 -0.003523 0.002026
# 3 -0.001260 -0.000385 0.017460 -0.005272 -0.006619 0.002517
# 4 -0.000705 -0.006980 -0.005272 0.048479 0.016559 -0.005114
# 5 -0.008125 -0.003523 -0.006619 0.016559 0.053544 -0.016232
# 6 0.005946 0.002026 0.002517 -0.005114 -0.016232 0.030706
#
#
# Mechanical properties :
#
#
# Convention : Reuss Voigt Hill
#
# Bulk Modulus (GPa) = 33.67414 56.15880 44.91647
# Shear Modulus (GPa) = 25.94191 34.32527 30.13359
#
# Velocity S-wave (km/s) = 3.70273 4.25920 3.99067
# Velocity P-wave (km/s) = 6.00640 7.33944 6.70612
#
# Compressibility (1/GPa) = 0.02969638
#
# Stress axis : x y z
#
# Youngs Moduli (GPa) = 79.08896 102.03984 57.27502
#
# Poissons Ratio (x) = 0.35289 0.07217
# Poissons Ratio (y) = 0.27352 0.02207
# Poissons Ratio (z) = 0.09965 0.03932
#
# Static dielectric constant tensor:
#      x y z
#    x 1.700270 -0.004300 -0.004200 
#    y -0.004300 1.685050 0.023410 
#    z -0.004200 0.023410 1.714530 
# 
# From -- ./inp_files/216463.got.cif
#   From: 2010.05.17/outbox.cif.g08.bks.cpg/sg2_109_cif.got.tgz:216463.got - 2010.06.03 11:33:40.
