data_PCOD9045690
_publ_section_title
;
Structure prediction by ZEFSAII (Michael W. Deem and Ramdas Pophale) SiO2 
 PCOD9045690
Probable space group: P -1
;
_chemical_formula_sum "Si O2"
_cell_formula_units_Z 14
_cell_length_a 14.728920
_cell_length_b 12.459670
_cell_length_c 12.133971
_cell_angle_alpha 134.117491
_cell_angle_beta 134.679956
_cell_angle_gamma 20.236729
_cell_volume 541.653528
_symmetry_space_group_name_H-M "P -1"
_symmetry_group_IT_number 2
_symmetry_cell_setting 'triclinic'
loop_
_space_group_symop_operation_xyz
x,y,z
-x,-y,-z
loop_
_atom_site_type_symbol
_atom_site_label
_atom_site_fract_x
_atom_site_fract_y
_atom_site_fract_z
Si Si1 0.123553 0.532170 0.101819
Si Si2 0.223851 0.911811 0.100194
Si Si3 0.589289 0.737284 0.412259
Si Si4 0.671552 0.139360 0.289978
Si Si5 0.795001 0.566471 0.146907
Si Si6 0.481123 0.614454 0.889243
Si Si7 0.791897 0.915087 0.461393
O O1 0.437520 0.251847 0.178314
O O2 0.070083 0.596084 0.972653
O O3 0.953734 0.809418 0.237073
O O4 0.000000 0.500000 0.000000
O O5 0.487781 0.740803 0.228173
O O6 0.260347 0.740091 0.096224
O O7 0.259218 0.812903 0.935286
O O8 0.994282 0.269480 0.182616
O O9 0.901856 0.395582 0.458588
O O10 0.500000 0.000000 0.500000
O O11 0.421485 0.854134 0.458287
O O12 0.561999 0.365617 0.263629
O O13 0.739935 0.085026 0.438535
O O14 0.762461 0.772380 0.292401
O O15 0.528667 0.743824 0.031861
#
# Coordination Sequence:
#
# PCOD9045690 Si02
#       7
#     2   2   2   2   2   2   2
#     4  11  21  34  60  98 131 166 202 268 335 380
#     4  11  23  43  66  92 133 169 231 262 328 384
#     4  12  26  45  66  98 131 176 217 267 319 389
#     4  11  23  41  62  96 134 165 217 265 329 385
#     4  11  22  36  67  95 135 160 216 273 332 384
#     4  10  24  41  66  98 125 178 211 282 324 385
#     4  12  26  41  69  98 133 173 214 264 330 387
#
# _framework density 25.846779999999999
#
# number of rings (size 3 to 8) (size 9 to 14) (size 15 to 20)
#    0.000    0.857    4.286    3.000    4.000    0.000 
#    0.000    1.429    0.000    0.000    0.000    0.000 
#    0.000    0.000    0.000    0.000    0.000    0.000 
#
# Total GULP energy -78174.665556 kJ/mol
# GULP energy per Si atom -5583.904683 kJ/mol
# Density = 2.578795 g / cm^3
# Si number density = 25.846780 Si / 1000 Ang^3
#
#
#
# Elastic Constant Matrix: (Units=GPa)
#
#
# Indices 1 2 3 4 5 6 
#
# 1 139.3555 48.2499 37.8942 -3.0604 -46.5125 -10.5104
# 2 48.2499 91.1626 14.4509 -14.7869 -18.7378 -1.9968
# 3 37.8942 14.4509 67.4771 6.8317 -25.6330 2.7370
# 4 -3.0604 -14.7869 6.8317 25.4455 -1.7535 -9.6536
# 5 -46.5125 -18.7378 -25.6330 -1.7535 60.9475 -7.4343
# 6 -10.5104 -1.9968 2.7370 -9.6536 -7.4343 53.9021
#
#
#
# Elastic Compliance Matrix: (Units=1/GPa)
#
#
# Indices 1 2 3 4 5 6 
#
# 1 0.012276 -0.004040 -0.003695 0.002042 0.007092 0.003775
# 2 -0.004040 0.015226 -0.001470 0.009526 0.001468 0.001759
# 3 -0.003695 -0.001470 0.019762 -0.007220 0.004534 -0.002446
# 4 0.002042 0.009526 -0.007220 0.051456 0.004263 0.010921
# 5 0.007092 0.001468 0.004534 0.004263 0.024961 0.005413
# 6 0.003775 0.001759 -0.002446 0.010921 0.005413 0.022180
#
#
# Mechanical properties :
#
#
# Convention : Reuss Voigt Hill
#
# Bulk Modulus (GPa) = 34.65636 55.46503 45.06070
# Shear Modulus (GPa) = 28.75396 41.21902 34.98649
#
# Velocity S-wave (km/s) = 3.33900 3.99776 3.68314
# Velocity P-wave (km/s) = 5.32003 6.54333 5.96313
#
# Compressibility (1/GPa) = 0.02885473
#
# Stress axis : x y z
#
# Youngs Moduli (GPa) = 81.45977 65.67623 50.60225
#
# Poissons Ratio (x) = 0.26534 0.18696
# Poissons Ratio (y) = 0.32911 0.07438
# Poissons Ratio (z) = 0.30096 0.09654
#
# Static dielectric constant tensor:
#      x y z
#    x 0.881170 0.021500 0.132620 
#    y 0.021500 2.110060 -0.037480 
#    z 0.132620 -0.037480 2.048560 
# 
# From -- ./inp_files/70184.got.cif
#   From: 2010.05.17/outbox.cif.g08.bks.cpg/sg2_36_cif.got.tgz:70184.got - 2010.06.03 11:33:40.
