data_PCOD9045427
_publ_section_title
;
Structure prediction by ZEFSAII (Michael W. Deem and Ramdas Pophale) SiO2 
 PCOD9045427
Probable space group: P -1
;
_chemical_formula_sum "Si O2"
_cell_formula_units_Z 16
_cell_length_a 22.364349
_cell_length_b 11.944785
_cell_length_c 19.246923
_cell_angle_alpha 152.313990
_cell_angle_beta 162.157971
_cell_angle_gamma 28.781859
_cell_volume 711.340561
_symmetry_space_group_name_H-M "P -1"
_symmetry_group_IT_number 2
_symmetry_cell_setting 'triclinic'
loop_
_space_group_symop_operation_xyz
x,y,z
-x,-y,-z
loop_
_atom_site_type_symbol
_atom_site_label
_atom_site_fract_x
_atom_site_fract_y
_atom_site_fract_z
Si Si1 0.066241 0.366771 0.151028
Si Si2 0.397741 0.579084 0.857720
Si Si3 0.457176 0.988993 0.327731
Si Si4 0.012189 0.486505 0.422139
Si Si5 0.405836 0.230234 0.932016
Si Si6 0.156258 0.153033 0.275368
Si Si7 0.656186 0.285814 0.372664
Si Si8 0.602408 0.366030 0.609286
O O1 0.232390 0.127398 0.174250
O O2 0.105098 0.364517 0.276302
O O3 0.144945 0.606443 0.345086
O O4 0.843099 0.348311 0.871256
O O5 0.161608 0.652720 0.652377
O O6 0.481031 0.311566 0.764773
O O7 0.500000 0.500000 0.000000
O O8 0.471688 0.789820 0.015107
O O9 0.522847 0.116009 0.400218
O O10 0.625471 0.031244 0.591196
O O11 0.115940 0.239097 0.358255
O O12 0.000000 0.500000 0.500000
O O13 0.793623 0.563241 0.190495
O O14 0.327772 0.991127 0.735399
O O15 0.554681 0.292691 0.188619
O O16 0.000000 0.000000 0.000000
O O17 0.495160 0.458945 0.339166
O O18 0.500000 0.500000 0.500000
#
# Coordination Sequence:
#
# PCOD9045427 Si02
#       8
#     2   2   2   2   2   2   2   2
#     4  11  23  45  70 101 136 180 231 281 352 405
#     4  11  24  42  66 102 136 177 223 287 345 410
#     4  10  24  40  66 104 132 175 228 279 351 404
#     4  11  24  41  65 100 139 182 223 277 353 410
#     4  11  24  45  68  96 141 177 237 276 338 412
#     4  11  22  39  71 102 136 176 223 291 344 410
#     4  10  25  44  69  98 131 189 229 282 328 414
#     4  11  25  44  67  97 141 176 230 283 339 412
#
# _framework density 22.492743000000001
#
# number of rings (size 3 to 8) (size 9 to 14) (size 15 to 20)
#    0.000    1.250    2.500    2.625    5.250    3.000 
#    2.250    3.125    0.000    0.000    0.000    0.000 
#    0.000    0.000    0.000    0.000    0.000    0.000 
#
# Total GULP energy -89154.265476 kJ/mol
# GULP energy per Si atom -5572.141592 kJ/mol
# Density = 2.244155 g / cm^3
# Si number density = 22.492743 Si / 1000 Ang^3
#
#
#
# Elastic Constant Matrix: (Units=GPa)
#
#
# Indices 1 2 3 4 5 6 
#
# 1 132.1757 38.7055 48.4915 -10.8108 8.9018 9.8847
# 2 38.7055 55.7018 24.6944 -12.6822 0.4107 5.8836
# 3 48.4915 24.6944 91.5894 -24.6698 22.4191 3.1476
# 4 -10.8108 -12.6822 -24.6698 32.9142 -3.5796 0.9989
# 5 8.9018 0.4107 22.4191 -3.5796 35.5762 -1.6410
# 6 9.8847 5.8836 3.1476 0.9989 -1.6410 36.0205
#
#
#
# Elastic Compliance Matrix: (Units=1/GPa)
#
#
# Indices 1 2 3 4 5 6 
#
# 1 0.010961 -0.005829 -0.004772 -0.002170 0.000041 -0.001577
# 2 -0.005829 0.024796 -0.002730 0.006030 0.003397 -0.002225
# 3 -0.004772 -0.002730 0.019643 0.011030 -0.010077 -0.000726
# 4 -0.002170 0.006030 0.011030 0.040059 -0.002566 -0.002581
# 5 0.000041 0.003397 -0.010077 -0.002566 0.034241 0.001946
# 6 -0.001577 -0.002225 -0.000726 -0.002581 0.001946 0.028782
#
#
# Mechanical properties :
#
#
# Convention : Reuss Voigt Hill
#
# Bulk Modulus (GPa) = 34.79647 55.91661 45.35654
# Shear Modulus (GPa) = 25.67736 32.07387 28.87561
#
# Velocity S-wave (km/s) = 3.38240 3.78029 3.58687
# Velocity P-wave (km/s) = 5.54597 6.63083 6.11252
#
# Compressibility (1/GPa) = 0.02873854
#
# Stress axis : x y z
#
# Youngs Moduli (GPa) = 91.23342 40.32859 50.90769
#
# Poissons Ratio (x) = 0.23506 0.24293
# Poissons Ratio (y) = 0.53177 0.13900
# Poissons Ratio (z) = 0.43536 0.11011
#
# Static dielectric constant tensor:
#      x y z
#    x 1.944360 0.033600 0.011090 
#    y 0.033600 1.851380 0.009140 
#    z 0.011090 0.009140 1.926950 
# 
# From -- ./inp_files/578052.got.cif
#   From: 2010.05.17/outbox.cif.g08.bks.cpg/sg2_290_cif.got.tgz:578052.got - 2010.06.03 11:33:40.
