data_PCOD9045793
_publ_section_title
;
Structure prediction by ZEFSAII (Michael W. Deem and Ramdas Pophale) SiO2 
 PCOD9045793
Probable space group: P -1
;
_chemical_formula_sum "Si O2"
_cell_formula_units_Z 12
_cell_length_a 5.013622
_cell_length_b 15.118792
_cell_length_c 6.637583
_cell_angle_alpha 103.150775
_cell_angle_beta 102.960404
_cell_angle_gamma 86.102460
_cell_volume 477.376463
_symmetry_space_group_name_H-M "P -1"
_symmetry_group_IT_number 2
_symmetry_cell_setting 'triclinic'
loop_
_space_group_symop_operation_xyz
x,y,z
-x,-y,-z
loop_
_atom_site_type_symbol
_atom_site_label
_atom_site_fract_x
_atom_site_fract_y
_atom_site_fract_z
Si Si1 0.302440 0.644320 0.212554
Si Si2 0.640629 0.809351 0.225544
Si Si3 0.485477 0.006112 0.261350
Si Si4 0.007821 0.872393 0.695749
Si Si5 0.149959 0.413402 0.575049
Si Si6 0.938020 0.704738 0.859168
O O1 0.426945 0.745940 0.274170
O O2 0.562926 0.578093 0.256571
O O3 0.074395 0.630509 0.337592
O O4 0.152606 0.636694 0.968376
O O5 0.507500 0.900539 0.156547
O O6 0.866163 0.839571 0.445066
O O7 0.768186 0.749880 0.035679
O O8 0.500000 0.000000 0.500000
O O9 0.215551 0.063758 0.196234
O O10 0.258265 0.935776 0.727157
O O11 0.074753 0.785390 0.798475
O O12 0.226453 0.348799 0.364770
O O13 0.000000 0.500000 0.500000
#
# Coordination Sequence:
#
# PCOD9045793 Si02
#       6
#     2   2   2   2   2   2
#     4  12  27  50  77 111 148 189 242 303 371 442
#     4  11  25  46  73 107 151 194 251 299 357 424
#     4  10  24  41  70 101 149 203 245 299 350 413
#     4  11  25  44  70 102 153 199 246 295 361 417
#     4  12  30  54  79 109 147 188 239 305 380 452
#     4  12  28  45  81 107 151 192 247 300 372 430
#
# _framework density 25.137391000000001
#
# number of rings (size 3 to 8) (size 9 to 14) (size 15 to 20)
#    0.000    0.667    3.333    2.500   16.333    2.667 
#    0.000    0.000    0.000    0.000    0.000    0.000 
#    0.000    0.000    0.000    0.000    0.000    0.000 
#
# Total GULP energy -67251.550657 kJ/mol
# GULP energy per Si atom -5604.295888 kJ/mol
# Density = 2.508018 g / cm^3
# Si number density = 25.137391 Si / 1000 Ang^3
#
#
#
# Elastic Constant Matrix: (Units=GPa)
#
#
# Indices 1 2 3 4 5 6 
#
# 1 110.1672 -1.4311 30.3666 -12.3930 -18.0006 -4.9136
# 2 -1.4311 66.8306 32.7737 -24.5770 -24.1899 -9.9808
# 3 30.3666 32.7737 123.2491 -20.7043 -10.8529 1.0309
# 4 -12.3930 -24.5770 -20.7043 37.5560 -3.1452 -0.6154
# 5 -18.0006 -24.1899 -10.8529 -3.1452 31.4973 -8.9542
# 6 -4.9136 -9.9808 1.0309 -0.6154 -8.9542 36.0492
#
#
#
# Elastic Compliance Matrix: (Units=1/GPa)
#
#
# Indices 1 2 3 4 5 6 
#
# 1 0.030180 0.052334 -0.007705 0.046422 0.069936 0.036987
# 2 0.052334 0.144565 -0.016933 0.118571 0.173296 0.092711
# 3 -0.007705 -0.016933 0.011593 -0.008852 -0.017287 -0.010515
# 4 0.046422 0.118571 -0.008852 0.128494 0.149776 0.078805
# 5 0.069936 0.173296 -0.017287 0.149776 0.248578 0.122307
# 6 0.036987 0.092711 -0.010515 0.078805 0.122307 0.090475
#
#
# Mechanical properties :
#
#
# Convention : Reuss Voigt Hill
#
# Bulk Modulus (GPa) = 4.13685 47.07395 25.60540
# Shear Modulus (GPa) = 7.36301 36.92299 22.14300
#
# Velocity S-wave (km/s) = 1.71332 3.83671 2.97118
# Velocity P-wave (km/s) = 2.35865 6.19633 4.68816
#
# Compressibility (1/GPa) = 0.24172954
#
# Stress axis : x y z
#
# Youngs Moduli (GPa) = 33.13503 6.91732 86.25530
#
# Poissons Ratio (x) = -0.36201 0.66459
# Poissons Ratio (y) = -1.73410 1.46059
# Poissons Ratio (z) = 0.25530 0.11713
#
# Static dielectric constant tensor:
#      x y z
#    x 1.960100 -0.041640 0.010520 
#    y -0.041640 2.003520 0.010880 
#    z 0.010520 0.010880 2.016860 
# 
# From -- ./inp_files/5287.got.cif
#   From: 2010.05.17/outbox.cif.g08.bks.cpg/sg2_3_cif.got.tgz:5287.got - 2010.06.03 11:33:40.
