data_PCOD9045959
_publ_section_title
;
Structure prediction by ZEFSAII (Michael W. Deem and Ramdas Pophale) SiO2 
 PCOD9045959
Probable space group: P -1
;
_chemical_formula_sum "Si O2"
_cell_formula_units_Z 16
_cell_length_a 8.760220
_cell_length_b 21.106668
_cell_length_c 18.291866
_cell_angle_alpha 18.964808
_cell_angle_beta 145.135200
_cell_angle_gamma 144.650479
_cell_volume 613.829032
_symmetry_space_group_name_H-M "P -1"
_symmetry_group_IT_number 2
_symmetry_cell_setting 'triclinic'
loop_
_space_group_symop_operation_xyz
x,y,z
-x,-y,-z
loop_
_atom_site_type_symbol
_atom_site_label
_atom_site_fract_x
_atom_site_fract_y
_atom_site_fract_z
Si Si1 0.265430 0.690323 0.753584
Si Si2 0.381777 0.039809 0.523335
Si Si3 0.314721 0.460077 0.287966
Si Si4 0.602705 0.623632 0.746128
Si Si5 0.644800 0.784224 0.148653
Si Si6 0.923490 0.936349 0.891501
Si Si7 0.673661 0.951812 0.190018
Si Si8 0.012120 0.506019 0.587302
O O1 0.452664 0.793085 0.649694
O O2 0.971512 0.553282 0.768687
O O3 0.215999 0.867398 0.595287
O O4 0.419144 0.551906 0.012581
O O5 0.247723 0.168976 0.385691
O O6 0.611274 0.951082 0.752850
O O7 0.257726 0.433204 0.209666
O O8 0.530621 0.667226 0.157904
O O9 0.414762 0.263953 0.571594
O O10 0.300383 0.638053 0.583872
O O11 0.774017 0.597576 0.432401
O O12 0.898016 0.961842 0.079624
O O13 0.384231 0.874187 0.970730
O O14 0.042043 0.040284 0.748136
O O15 0.976566 0.716405 0.144287
O O16 0.500000 0.000000 0.000000
O O17 0.000000 0.500000 0.500000
#
# Coordination Sequence:
#
# PCOD9045959 Si02
#       8
#     2   2   2   2   2   2   2   2
#     4  11  26  49  71  97 141 184 242 286 339 419
#     4  11  24  48  74  99 132 188 238 289 342 402
#     4  12  26  46  69 108 145 181 231 287 353 420
#     4  12  26  44  71 105 139 182 234 290 350 412
#     4  11  24  42  70 103 140 184 219 287 352 411
#     4  11  23  44  70 101 138 182 235 287 338 417
#     4  10  24  42  65 102 142 181 229 280 342 417
#     4  12  25  43  68 104 143 178 230 283 348 423
#
# _framework density 26.065891000000001
#
# number of rings (size 3 to 8) (size 9 to 14) (size 15 to 20)
#    0.000    0.750    5.000    2.250    0.000    9.500 
#    0.000    0.000    0.000    0.000    0.000    0.000 
#    0.000    0.000    0.000    0.000    0.000    0.000 
#
# Total GULP energy -89315.638937 kJ/mol
# GULP energy per Si atom -5582.227434 kJ/mol
# Density = 2.600656 g / cm^3
# Si number density = 26.065891 Si / 1000 Ang^3
#
#
#
# Elastic Constant Matrix: (Units=GPa)
#
#
# Indices 1 2 3 4 5 6 
#
# 1 49.3254 8.6185 21.1219 -5.4144 -5.4272 -12.4825
# 2 8.6185 104.5190 18.4458 -13.4871 -1.0297 -14.7772
# 3 21.1219 18.4458 96.7401 2.2136 -7.8587 -16.4330
# 4 -5.4144 -13.4871 2.2136 42.7805 -9.9058 12.2975
# 5 -5.4272 -1.0297 -7.8587 -9.9058 35.0165 -10.9738
# 6 -12.4825 -14.7772 -16.4330 12.2975 -10.9738 35.0785
#
#
#
# Elastic Compliance Matrix: (Units=1/GPa)
#
#
# Indices 1 2 3 4 5 6 
#
# 1 0.024866 0.000142 -0.003573 0.002446 0.006372 0.008370
# 2 0.000142 0.010688 -0.001384 0.002905 0.001942 0.003494
# 3 -0.003573 -0.001384 0.012752 -0.002493 0.003467 0.006078
# 4 0.002446 0.002905 -0.002493 0.028087 0.005605 -0.007167
# 5 0.006372 0.001942 0.003467 0.005605 0.036394 0.014130
# 6 0.008370 0.003494 0.006078 -0.007167 0.014130 0.042738
#
#
# Mechanical properties :
#
#
# Convention : Reuss Voigt Hill
#
# Bulk Modulus (GPa) = 25.85537 38.55075 32.20306
# Shear Modulus (GPa) = 28.08217 36.06834 32.07526
#
# Velocity S-wave (km/s) = 3.28587 3.72390 3.51172
# Velocity P-wave (km/s) = 4.93322 5.77163 5.36882
#
# Compressibility (1/GPa) = 0.03867669
#
# Stress axis : x y z
#
# Youngs Moduli (GPa) = 40.21484 93.56174 78.41845
#
# Poissons Ratio (x) = -0.01328 0.28018
# Poissons Ratio (y) = -0.00571 0.10854
# Poissons Ratio (z) = 0.14368 0.12950
#
# Static dielectric constant tensor:
#      x y z
#    x 2.168630 0.040520 0.063130 
#    y 0.040520 2.069610 0.028290 
#    z 0.063130 0.028290 2.035270 
# 
# From -- ./inp_files/562895.got.cif
#   From: 2010.05.17/outbox.cif.g08.bks.cpg/sg2_282_cif.got.tgz:562895.got - 2010.06.03 11:33:40.
