data_PCOD9045145
_publ_section_title
;
Structure prediction by ZEFSAII (Michael W. Deem and Ramdas Pophale) SiO2 
 PCOD9045145
Probable space group: P -1
;
_chemical_formula_sum "Si O2"
_cell_formula_units_Z 16
_cell_length_a 7.222007
_cell_length_b 9.264407
_cell_length_c 16.958071
_cell_angle_alpha 134.123643
_cell_angle_beta 106.605889
_cell_angle_gamma 52.504451
_cell_volume 626.951599
_symmetry_space_group_name_H-M "P -1"
_symmetry_group_IT_number 2
_symmetry_cell_setting 'triclinic'
loop_
_space_group_symop_operation_xyz
x,y,z
-x,-y,-z
loop_
_atom_site_type_symbol
_atom_site_label
_atom_site_fract_x
_atom_site_fract_y
_atom_site_fract_z
Si Si1 0.625521 0.551097 0.344209
Si Si2 0.910725 0.991287 0.183551
Si Si3 0.930209 0.114073 0.622078
Si Si4 0.277278 0.261557 0.712336
Si Si5 0.834467 0.431312 0.490502
Si Si6 0.557476 0.422783 0.887155
Si Si7 0.610674 0.844281 0.032262
Si Si8 0.531158 0.871710 0.722770
O O1 0.805401 0.256842 0.231650
O O2 0.705845 0.702648 0.364996
O O3 0.636743 0.543839 0.438176
O O4 0.356133 0.684404 0.332107
O O5 0.720384 0.071237 0.260846
O O6 0.860523 0.812497 0.063166
O O7 0.184896 0.847456 0.185068
O O8 0.022795 0.861849 0.586532
O O9 0.050827 0.260180 0.703420
O O10 0.000000 0.000000 0.500000
O O11 0.334749 0.442439 0.828380
O O12 0.488072 0.008870 0.686821
O O13 0.725325 0.584879 0.616864
O O14 0.000000 0.500000 0.500000
O O15 0.500000 0.500000 0.000000
O O16 0.619061 0.603313 0.930040
O O17 0.444691 0.000705 0.148977
O O18 0.500000 0.000000 0.000000
#
# Coordination Sequence:
#
# PCOD9045145 Si02
#       8
#     2   2   2   2   2   2   2   2
#     4  12  28  50  78 121 168 211 275 330 409 495
#     4  10  25  48  78 116 158 218 271 339 413 487
#     4  12  28  52  80 114 167 217 269 336 407 488
#     4  12  27  49  82 118 159 218 269 336 411 491
#     4  12  27  50  84 122 169 218 271 337 408 494
#     4  12  25  51  81 117 161 212 278 346 414 484
#     4  10  23  49  79 113 158 208 275 339 408 483
#     4  10  24  47  79 115 155 215 277 322 418 483
#
# _framework density 25.520313000000002
#
# number of rings (size 3 to 8) (size 9 to 14) (size 15 to 20)
#    0.750    0.000    1.250    4.875    5.250    3.000 
#    6.750    1.250    0.000    0.000    0.000    0.000 
#    0.000    0.000    0.000    0.000    0.000    0.000 
#
# Total GULP energy -89357.342308 kJ/mol
# GULP energy per Si atom -5584.833894 kJ/mol
# Density = 2.546223 g / cm^3
# Si number density = 25.520313 Si / 1000 Ang^3
#
#
#
# Elastic Constant Matrix: (Units=GPa)
#
#
# Indices 1 2 3 4 5 6 
#
# 1 166.9231 57.2382 38.6221 19.3900 12.2758 -4.5905
# 2 57.2382 176.9598 47.9936 14.6047 1.6203 15.5407
# 3 38.6221 47.9936 109.7950 6.9047 -3.0175 -8.6053
# 4 19.3900 14.6047 6.9047 34.5379 -1.7610 0.3436
# 5 12.2758 1.6203 -3.0175 -1.7610 42.1510 -4.2224
# 6 -4.5905 15.5407 -8.6053 0.3436 -4.2224 42.6650
#
#
#
# Elastic Compliance Matrix: (Units=1/GPa)
#
#
# Indices 1 2 3 4 5 6 
#
# 1 0.007564 -0.001784 -0.001665 -0.003286 -0.002298 0.000927
# 2 -0.001784 0.007428 -0.002805 -0.001563 -0.000381 -0.003488
# 3 -0.001665 -0.002805 0.011228 -0.000069 0.001722 0.003278
# 4 -0.003286 -0.001563 -0.000069 0.031591 0.002350 0.000180
# 5 -0.002298 -0.000381 0.001722 0.002350 0.024898 0.002684
# 6 0.000927 -0.003488 0.003278 0.000180 0.002684 0.025734
#
#
# Mechanical properties :
#
#
# Convention : Reuss Voigt Hill
#
# Bulk Modulus (GPa) = 72.92728 82.37617 77.65173
# Shear Modulus (GPa) = 39.83386 44.52571 42.17979
#
# Velocity S-wave (km/s) = 3.95507 4.18151 4.06987
# Velocity P-wave (km/s) = 7.03527 7.46071 7.25111
#
# Compressibility (1/GPa) = 0.01371229
#
# Stress axis : x y z
#
# Youngs Moduli (GPa) = 132.20655 134.63182 89.06288
#
# Poissons Ratio (x) = 0.24023 0.14826
# Poissons Ratio (y) = 0.23590 0.24980
# Poissons Ratio (z) = 0.22008 0.37760
#
# Static dielectric constant tensor:
#      x y z
#    x 2.070440 0.014940 0.080260 
#    y 0.014940 2.086530 -0.034130 
#    z 0.080260 -0.034130 2.115830 
# 
# From -- ./inp_files/556402.got.cif
#   From: 2010.05.17/outbox.cif.g08.bks.cpg/sg2_279_cif.got.tgz:556402.got - 2010.06.03 11:33:40.
