data_PCOD9045286
_publ_section_title
;
Structure prediction by ZEFSAII (Michael W. Deem and Ramdas Pophale) SiO2 
 PCOD9045286
Probable space group: P -1
;
_chemical_formula_sum "Si O2"
_cell_formula_units_Z 15
_cell_length_a 16.794781
_cell_length_b 16.184956
_cell_length_c 8.923465
_cell_angle_alpha 133.517034
_cell_angle_beta 134.697827
_cell_angle_gamma 17.698295
_cell_volume 522.236272
_symmetry_space_group_name_H-M "P -1"
_symmetry_group_IT_number 2
_symmetry_cell_setting 'triclinic'
loop_
_space_group_symop_operation_xyz
x,y,z
-x,-y,-z
loop_
_atom_site_type_symbol
_atom_site_label
_atom_site_fract_x
_atom_site_fract_y
_atom_site_fract_z
Si Si1 0.604618 0.158514 0.312341
Si Si2 0.853739 0.313869 0.426136
Si Si3 0.483197 0.859961 0.339427
Si Si4 0.000000 0.000000 0.500000
Si Si5 0.974497 0.415756 0.204823
Si Si6 0.329195 0.754422 0.917735
Si Si7 0.234175 0.617577 0.187684
Si Si8 0.228705 0.166065 0.671069
O O1 0.668460 0.968159 0.196634
O O2 0.890410 0.960304 0.466274
O O3 0.390350 0.400496 0.453506
O O4 0.494238 0.291435 0.173130
O O5 0.756263 0.290017 0.185255
O O6 0.003305 0.274693 0.483340
O O7 0.464236 0.923241 0.562177
O O8 0.266493 0.140579 0.319933
O O9 0.757501 0.606154 0.291277
O O10 0.359027 0.845172 0.158723
O O11 0.083769 0.993786 0.766632
O O12 0.260467 0.683412 0.441942
O O13 0.893656 0.598091 0.225658
O O14 0.963246 0.308591 0.967386
O O15 0.626342 0.464797 0.881109
#
# Coordination Sequence:
#
# PCOD9045286 Si02
#       8
#     2   2   2   1   2   2   2   2
#     4  10  24  40  61  98 126 178 207 259 332 379
#     4  10  24  39  64  95 130 174 211 255 337 377
#     4  11  25  43  70  98 124 170 223 270 324 374
#     4  12  20  38  66  92 136 162 210 274 312 386
#     4  11  25  43  70  98 124 172 220 272 321 375
#     4  11  23  39  66  98 127 168 215 269 320 381
#     4  11  24  39  67  99 132 166 223 264 326 382
#     4  10  26  45  67  92 137 170 219 264 323 388
#
# _framework density 28.722632000000001
#
# number of rings (size 3 to 8) (size 9 to 14) (size 15 to 20)
#    0.800    0.533    2.667    2.000    5.600    1.067 
#    0.000    1.333    0.000    0.000    0.000    0.000 
#    0.000    0.000    0.000    0.000    0.000    0.000 
#
# Total GULP energy -83717.668708 kJ/mol
# GULP energy per Si atom -5581.177914 kJ/mol
# Density = 2.865726 g / cm^3
# Si number density = 28.722632 Si / 1000 Ang^3
#
#
#
# Elastic Constant Matrix: (Units=GPa)
#
#
# Indices 1 2 3 4 5 6 
#
# 1 103.0255 39.9801 21.5278 5.7383 34.5763 -2.8899
# 2 39.9801 145.3456 13.9272 12.3942 -1.9014 -20.8414
# 3 21.5278 13.9272 104.2429 27.3427 35.7928 2.3003
# 4 5.7383 12.3942 27.3427 49.6731 7.1142 6.7171
# 5 34.5763 -1.9014 35.7928 7.1142 49.2777 5.5688
# 6 -2.8899 -20.8414 2.3003 6.7171 5.5688 65.9541
#
#
#
# Elastic Compliance Matrix: (Units=1/GPa)
#
#
# Indices 1 2 3 4 5 6 
#
# 1 0.015112 -0.004449 0.001506 0.000217 -0.011922 0.000188
# 2 -0.004449 0.008805 -0.001328 -0.001918 0.004425 0.002455
# 3 0.001506 -0.001328 0.014997 -0.006603 -0.011131 0.000735
# 4 0.000217 -0.001918 -0.006603 0.024424 0.001379 -0.002970
# 5 -0.011922 0.004425 -0.011131 0.001379 0.036940 -0.001995
# 6 0.000188 0.002455 0.000735 -0.002970 -0.001995 0.016391
#
#
# Mechanical properties :
#
#
# Convention : Reuss Voigt Hill
#
# Bulk Modulus (GPa) = 32.92574 55.94269 44.43421
# Shear Modulus (GPa) = 36.94520 51.45958 44.20239
#
# Velocity S-wave (km/s) = 3.59036 4.23733 3.92719
# Velocity P-wave (km/s) = 5.35498 6.59235 6.00562
#
# Compressibility (1/GPa) = 0.03037138
#
# Stress axis : x y z
#
# Youngs Moduli (GPa) = 66.17125 113.57677 66.67987
#
# Poissons Ratio (x) = 0.50527 -0.10040
# Poissons Ratio (y) = 0.29438 0.08857
# Poissons Ratio (z) = -0.09963 0.15086
#
# Static dielectric constant tensor:
#      x y z
#    x 2.054630 0.127520 -0.062630 
#    y 0.127520 2.449180 -0.077870 
#    z -0.062630 -0.077870 2.295610 
# 
# From -- ./inp_files/466385.got.cif
#   From: 2010.05.17/outbox.cif.g08.bks.cpg/sg2_234_cif.got.tgz:466385.got - 2010.06.03 11:33:40.
