data_PCOD9045490
_publ_section_title
;
Structure prediction by ZEFSAII (Michael W. Deem and Ramdas Pophale) SiO2 
 PCOD9045490
Probable space group: P -1
;
_chemical_formula_sum "Si O2"
_cell_formula_units_Z 16
_cell_length_a 14.450771
_cell_length_b 22.543958
_cell_length_c 19.344749
_cell_angle_alpha 18.552640
_cell_angle_beta 148.560402
_cell_angle_gamma 158.941460
_cell_volume 692.567038
_symmetry_space_group_name_H-M "P -1"
_symmetry_group_IT_number 2
_symmetry_cell_setting 'triclinic'
loop_
_space_group_symop_operation_xyz
x,y,z
-x,-y,-z
loop_
_atom_site_type_symbol
_atom_site_label
_atom_site_fract_x
_atom_site_fract_y
_atom_site_fract_z
Si Si1 0.554585 0.119841 0.295018
Si Si2 0.259005 0.133687 0.974828
Si Si3 0.243989 0.744977 0.336307
Si Si4 0.175851 0.688737 0.208673
Si Si5 0.151722 0.788308 0.739916
Si Si6 0.414439 0.697510 0.240477
Si Si7 0.660353 0.626755 0.580879
Si Si8 0.372446 0.599586 0.827704
O O1 0.406893 0.124186 0.137140
O O2 0.814789 0.259253 0.264349
O O3 0.558553 0.259888 0.208520
O O4 0.435717 0.825158 0.568131
O O5 0.207082 0.940375 0.094807
O O6 0.457659 0.431575 0.731669
O O7 0.000000 0.000000 0.000000
O O8 0.176460 0.595959 0.385619
O O9 0.000000 0.500000 0.500000
O O10 0.548462 0.941826 0.336960
O O11 0.151480 0.530454 0.303789
O O12 0.947603 0.663882 0.086839
O O13 0.458320 0.013759 0.025191
O O14 0.959658 0.816685 0.587516
O O15 0.000000 0.500000 0.000000
O O16 0.606056 0.768795 0.345239
O O17 0.389036 0.554648 0.314297
O O18 0.500000 0.500000 0.000000
#
# Coordination Sequence:
#
# PCOD9045490 Si02
#       8
#     2   2   2   2   2   2   2   2
#     4  10  24  46  67 102 135 185 230 295 348 412
#     4  11  24  43  71  96 136 182 233 284 352 426
#     4  11  24  42  68  98 136 183 224 289 357 413
#     4  11  22  45  62  95 136 179 222 290 356 409
#     4  11  20  43  73  97 134 179 233 284 350 417
#     4  10  24  40  68  96 136 173 231 290 349 418
#     4  11  22  43  69 103 124 183 238 285 342 430
#     4  11  26  43  71  99 140 183 236 288 350 427
#
# _framework density 23.102456
#
# number of rings (size 3 to 8) (size 9 to 14) (size 15 to 20)
#    0.000    1.250    3.750    2.250    7.000    1.000 
#    0.000    0.625    0.000    0.000    0.000    0.000 
#    0.000    0.000    0.000    0.000    0.000    0.000 
#
# Total GULP energy -89143.199418 kJ/mol
# GULP energy per Si atom -5571.449964 kJ/mol
# Density = 2.304987 g / cm^3
# Si number density = 23.102456 Si / 1000 Ang^3
#
#
#
# Elastic Constant Matrix: (Units=GPa)
#
#
# Indices 1 2 3 4 5 6 
#
# 1 168.4768 55.2204 55.5302 8.9312 -15.8427 14.5940
# 2 55.2204 114.1922 28.8747 15.5244 -3.8955 18.8879
# 3 55.5302 28.8747 78.1603 6.3639 -5.8142 3.5706
# 4 8.9312 15.5244 6.3639 29.5484 7.6963 2.4569
# 5 -15.8427 -3.8955 -5.8142 7.6963 50.1744 6.3802
# 6 14.5940 18.8879 3.5706 2.4569 6.3802 41.1006
#
#
#
# Elastic Compliance Matrix: (Units=1/GPa)
#
#
# Indices 1 2 3 4 5 6 
#
# 1 0.008841 -0.002514 -0.005032 -0.000728 0.002363 -0.001870
# 2 -0.002514 0.011893 -0.001910 -0.005040 0.001228 -0.004296
# 3 -0.005032 -0.001910 0.017152 -0.001349 0.000304 0.001208
# 4 -0.000728 -0.005040 -0.001349 0.038676 -0.006894 0.001450
# 5 0.002363 0.001228 0.000304 -0.006894 0.022437 -0.004500
# 6 -0.001870 -0.004296 0.001208 0.001450 -0.004500 0.027476
#
#
# Mechanical properties :
#
#
# Convention : Reuss Voigt Hill
#
# Bulk Modulus (GPa) = 52.70091 71.12001 61.91046
# Shear Modulus (GPa) = 32.95725 38.91162 35.93443
#
# Velocity S-wave (km/s) = 3.78109 4.10848 3.94818
# Velocity P-wave (km/s) = 6.47484 7.30463 6.90222
#
# Compressibility (1/GPa) = 0.01897500
#
# Stress axis : x y z
#
# Youngs Moduli (GPa) = 113.11229 84.07961 58.30219
#
# Poissons Ratio (x) = 0.21138 0.29337
# Poissons Ratio (y) = 0.28436 0.11134
# Poissons Ratio (z) = 0.56917 0.16057
#
# Static dielectric constant tensor:
#      x y z
#    x 2.005080 0.032720 0.006880 
#    y 0.032720 1.945550 -0.014530 
#    z 0.006880 -0.014530 1.937680 
# 
# From -- ./inp_files/598518.got.cif
#   From: 2010.05.17/outbox.cif.g08.bks.cpg/sg2_300_cif.got.tgz:598518.got - 2010.06.03 11:33:40.
