data_PCOD9045508
_publ_section_title
;
Structure prediction by ZEFSAII (Michael W. Deem and Ramdas Pophale) SiO2 
 PCOD9045508
Probable space group: P -1
;
_chemical_formula_sum "Si O2"
_cell_formula_units_Z 14
_cell_length_a 9.377900
_cell_length_b 12.491211
_cell_length_c 10.222209
_cell_angle_alpha 75.080396
_cell_angle_beta 117.874482
_cell_angle_gamma 58.844113
_cell_volume 680.436184
_symmetry_space_group_name_H-M "P -1"
_symmetry_group_IT_number 2
_symmetry_cell_setting 'triclinic'
loop_
_space_group_symop_operation_xyz
x,y,z
-x,-y,-z
loop_
_atom_site_type_symbol
_atom_site_label
_atom_site_fract_x
_atom_site_fract_y
_atom_site_fract_z
Si Si1 0.214495 0.949482 0.689788
Si Si2 0.440168 0.628615 0.033400
Si Si3 0.042471 0.157160 0.072122
Si Si4 0.085770 0.773341 0.305425
Si Si5 0.590364 0.858230 0.681633
Si Si6 0.450093 0.769367 0.444371
Si Si7 0.789977 0.524171 0.441605
O O1 0.381697 0.937616 0.671363
O O2 0.375605 0.771005 0.878941
O O3 0.000000 0.000000 0.500000
O O4 0.096629 0.082001 0.712603
O O5 0.659500 0.541845 0.252528
O O6 0.500000 0.500000 0.000000
O O7 0.204755 0.720894 0.990841
O O8 0.174702 0.207648 0.131938
O O9 0.220864 0.969090 0.261605
O O10 0.994500 0.162016 0.897370
O O11 0.340934 0.706426 0.455166
O O12 0.111979 0.630194 0.385964
O O13 0.613675 0.737805 0.638887
O O14 0.500000 0.000000 0.500000
O O15 0.594785 0.685710 0.398309
O O16 0.000000 0.500000 0.500000
#
# Coordination Sequence:
#
# PCOD9045508 Si02
#       7
#     2   2   2   2   2   2   2
#     4  12  23  44  74 106 132 183 234 282 345 413
#     4  12  27  46  72 102 145 177 228 290 346 413
#     4  11  24  45  71 106 132 184 231 284 348 405
#     4  12  24  44  73  96 140 183 235 276 343 417
#     4  10  24  40  70 102 136 173 227 286 339 403
#     4  11  22  47  71  97 140 182 230 281 346 413
#     4  12  30  44  66 105 143 184 229 290 346 402
#
# _framework density 20.575036000000001
#
# number of rings (size 3 to 8) (size 9 to 14) (size 15 to 20)
#    0.000    0.571    4.286    3.429    8.000    0.571 
#    0.000    1.429    0.000    0.000    0.000    0.000 
#    0.000    0.000    0.000    0.000    0.000    0.000 
#
# Total GULP energy -78355.321387 kJ/mol
# GULP energy per Si atom -5596.808670 kJ/mol
# Density = 2.052821 g / cm^3
# Si number density = 20.575036 Si / 1000 Ang^3
#
#
#
# Elastic Constant Matrix: (Units=GPa)
#
#
# Indices 1 2 3 4 5 6 
#
# 1 188.6912 52.2945 30.7027 14.5005 -0.8834 -3.3012
# 2 52.2945 111.6682 31.6905 30.4967 12.6393 -16.9539
# 3 30.7027 31.6905 44.9717 11.9768 -5.2157 -11.4713
# 4 14.5005 30.4967 11.9768 39.5625 3.7238 -2.0716
# 5 -0.8834 12.6393 -5.2157 3.7238 30.0231 10.0496
# 6 -3.3012 -16.9539 -11.4713 -2.0716 10.0496 34.0954
#
#
#
# Elastic Compliance Matrix: (Units=1/GPa)
#
#
# Indices 1 2 3 4 5 6 
#
# 1 0.006500 -0.002842 -0.002931 0.000433 0.001562 -0.002204
# 2 -0.002842 0.016971 -0.006775 -0.008599 -0.010133 0.008349
# 3 -0.002931 -0.006775 0.032094 -0.003848 0.007217 0.004784
# 4 0.000433 -0.008599 -0.003848 0.032714 0.000102 -0.003571
# 5 0.001562 -0.010133 0.007217 0.000102 0.044026 -0.015430
# 6 -0.002204 0.008349 0.004784 -0.003571 -0.015430 0.039208
#
#
# Mechanical properties :
#
#
# Convention : Reuss Voigt Hill
#
# Bulk Modulus (GPa) = 32.82028 63.85627 48.33827
# Shear Modulus (GPa) = 24.18205 36.11243 30.14724
#
# Velocity S-wave (km/s) = 3.43200 4.19400 3.83199
# Velocity P-wave (km/s) = 5.62947 7.38621 6.56685
#
# Compressibility (1/GPa) = 0.03046897
#
# Stress axis : x y z
#
# Youngs Moduli (GPa) = 153.85438 58.92246 31.15877
#
# Poissons Ratio (x) = 0.16744 0.09134
# Poissons Ratio (y) = 0.43721 0.21110
# Poissons Ratio (z) = 0.45099 0.39919
#
# Static dielectric constant tensor:
#      x y z
#    x 1.721520 0.013560 0.007080 
#    y 0.013560 1.740850 0.019160 
#    z 0.007080 0.019160 1.744240 
# 
# From -- ./inp_files/157532.got.cif
#   From: 2010.05.17/outbox.cif.g08.bks.cpg/sg2_79_cif.got.tgz:157532.got - 2010.06.03 11:33:40.
