data_PCOD9045556
_publ_section_title
;
Structure prediction by ZEFSAII (Michael W. Deem and Ramdas Pophale) SiO2 
 PCOD9045556
Probable space group: P -1
;
_chemical_formula_sum "Si O2"
_cell_formula_units_Z 14
_cell_length_a 9.195308
_cell_length_b 17.188743
_cell_length_c 17.202351
_cell_angle_alpha 152.198184
_cell_angle_beta 145.497412
_cell_angle_gamma 35.528401
_cell_volume 680.275235
_symmetry_space_group_name_H-M "P -1"
_symmetry_group_IT_number 2
_symmetry_cell_setting 'triclinic'
loop_
_space_group_symop_operation_xyz
x,y,z
-x,-y,-z
loop_
_atom_site_type_symbol
_atom_site_label
_atom_site_fract_x
_atom_site_fract_y
_atom_site_fract_z
Si Si1 0.316869 0.370389 0.969768
Si Si2 0.915309 0.695555 0.029841
Si Si3 0.486656 0.040638 0.653683
Si Si4 0.503239 0.736179 0.750437
Si Si5 0.072778 0.013834 0.333883
Si Si6 0.209051 0.465031 0.439959
Si Si7 0.376271 0.360310 0.597836
O O1 0.182003 0.302320 0.922548
O O2 0.498230 0.194110 0.852327
O O3 0.457098 0.508936 0.187892
O O4 0.094063 0.490959 0.918336
O O5 0.665556 0.763165 0.920918
O O6 0.092033 0.821495 0.203366
O O7 0.204512 0.104137 0.537376
O O8 0.735216 0.005427 0.672660
O O9 0.502645 0.850768 0.527657
O O10 0.378988 0.588078 0.594982
O O11 0.717231 0.679926 0.723895
O O12 0.236875 0.885287 0.734478
O O13 0.305910 0.393505 0.505112
O O14 0.894433 0.574531 0.410428
#
# Coordination Sequence:
#
# PCOD9045556 Si02
#       7
#     2   2   2   2   2   2   2
#     4  11  26  44  71  99 132 179 222 273 335 389
#     4  11  25  45  65 101 137 170 227 276 322 406
#     4  11  26  44  71  99 132 179 222 273 335 389
#     4  11  23  42  65 100 133 179 218 274 332 399
#     4  11  25  45  65 101 137 170 227 276 322 406
#     4  10  24  40  72  93 135 179 221 268 339 387
#     4  11  22  50  66 101 134 172 226 279 316 408
#
# _framework density 20.579905
#
# number of rings (size 3 to 8) (size 9 to 14) (size 15 to 20)
#    0.000    1.143    4.286    0.429    8.000    1.143 
#    0.000    3.571    0.000    0.000    0.000    0.000 
#    0.000    0.000    0.000    0.000    0.000    0.000 
#
# Total GULP energy -78097.125387 kJ/mol
# GULP energy per Si atom -5578.366099 kJ/mol
# Density = 2.053306 g / cm^3
# Si number density = 20.579905 Si / 1000 Ang^3
#
#
#
# Elastic Constant Matrix: (Units=GPa)
#
#
# Indices 1 2 3 4 5 6 
#
# 1 69.4465 17.1049 9.6845 11.2037 0.0201 14.7041
# 2 17.1049 106.0134 24.2642 8.6519 -16.4112 3.1192
# 3 9.6845 24.2642 57.8412 17.5620 -0.1207 10.5796
# 4 11.2037 8.6519 17.5620 30.1602 -1.9147 8.3828
# 5 0.0201 -16.4112 -0.1207 -1.9147 20.7079 2.7936
# 6 14.7041 3.1192 10.5796 8.3828 2.7936 23.7346
#
#
#
# Elastic Compliance Matrix: (Units=1/GPa)
#
#
# Indices 1 2 3 4 5 6 
#
# 1 0.017535 -0.002670 0.001077 -0.003808 -0.001197 -0.009506
# 2 -0.002670 0.012475 -0.005170 0.000802 0.009814 0.000881
# 3 0.001077 -0.005170 0.023836 -0.011365 -0.004187 -0.006106
# 4 -0.003808 0.000802 -0.011365 0.043781 0.005812 -0.008827
# 5 -0.001197 0.009814 -0.004187 0.005812 0.057596 -0.007514
# 6 -0.009506 0.000881 -0.006106 -0.008827 -0.007514 0.054630
#
#
# Mechanical properties :
#
#
# Convention : Reuss Voigt Hill
#
# Bulk Modulus (GPa) = 24.80276 37.26762 31.03519
# Shear Modulus (GPa) = 21.11309 27.07038 24.09174
#
# Velocity S-wave (km/s) = 3.20645 3.63075 3.42518
# Velocity P-wave (km/s) = 5.07805 5.97700 5.54577
#
# Compressibility (1/GPa) = 0.04031810
#
# Stress axis : x y z
#
# Youngs Moduli (GPa) = 57.02991 80.16114 41.95318
#
# Poissons Ratio (x) = 0.21406 -0.04518
# Poissons Ratio (y) = 0.15229 0.21691
# Poissons Ratio (z) = -0.06142 0.41446
#
# Static dielectric constant tensor:
#      x y z
#    x 1.695960 -0.028080 -0.009850 
#    y -0.028080 1.761900 -0.001810 
#    z -0.009850 -0.001810 1.770710 
# 
# From -- ./inp_files/222461.got.cif
#   From: 2010.05.17/outbox.cif.g08.bks.cpg/sg2_112_cif.got.tgz:222461.got - 2010.06.03 11:33:40.
