data_PCOD9045858
_publ_section_title
;
Structure prediction by ZEFSAII (Michael W. Deem and Ramdas Pophale) SiO2 
 PCOD9045858
Probable space group: P -1
;
_chemical_formula_sum "Si O2"
_cell_formula_units_Z 10
_cell_length_a 10.515909
_cell_length_b 6.917178
_cell_length_c 7.376539
_cell_angle_alpha 102.174459
_cell_angle_beta 91.120812
_cell_angle_gamma 136.640920
_cell_volume 347.954308
_symmetry_space_group_name_H-M "P -1"
_symmetry_group_IT_number 2
_symmetry_cell_setting 'triclinic'
loop_
_space_group_symop_operation_xyz
x,y,z
-x,-y,-z
loop_
_atom_site_type_symbol
_atom_site_label
_atom_site_fract_x
_atom_site_fract_y
_atom_site_fract_z
Si Si1 0.381097 0.229558 0.662423
Si Si2 0.207939 0.278150 0.366370
Si Si3 0.075358 0.801852 0.831639
Si Si4 0.678101 0.403656 0.227033
Si Si5 0.743001 0.188681 0.856320
O O1 0.281271 0.166503 0.452852
O O2 0.600346 0.429047 0.675909
O O3 0.381678 0.443936 0.804428
O O4 0.240348 0.936245 0.720307
O O5 0.178507 0.387769 0.563205
O O6 0.019104 0.101586 0.212804
O O7 0.895207 0.443599 0.767181
O O8 0.175857 0.907496 0.051448
O O9 0.480511 0.089561 0.243278
O O10 0.747248 0.358363 0.052173
#
# Coordination Sequence:
#
# PCOD9045858 Si02
#       5
#     2   2   2   2   2
#     4   9  21  44  68  90 119 166 215 255 297 369
#     4   9  21  44  68  90 119 166 215 255 297 369
#     4  11  23  42  64  94 127 161 212 254 306 371
#     4   9  21  45  64  86 132 165 204 253 312 368
#     4  10  24  42  57 100 131 158 202 256 321 367
#
# _framework density 28.739404
#
# number of rings (size 3 to 8) (size 9 to 14) (size 15 to 20)
#    1.200    1.200    0.000    0.600    5.600    3.200 
#   14.400    0.000    0.000    0.000    0.000    0.000 
#    0.000    0.000    0.000    0.000    0.000    0.000 
#
# Total GULP energy -55986.339578 kJ/mol
# GULP energy per Si atom -5598.633958 kJ/mol
# Density = 2.867399 g / cm^3
# Si number density = 28.739404 Si / 1000 Ang^3
#
#
#
# Elastic Constant Matrix: (Units=GPa)
#
#
# Indices 1 2 3 4 5 6 
#
# 1 118.8884 9.5531 9.2050 -0.2897 11.2544 21.8680
# 2 9.5531 175.0610 15.3438 -35.0989 4.6453 40.3938
# 3 9.2050 15.3438 66.8406 -13.6056 15.2059 1.9007
# 4 -0.2897 -35.0989 -13.6056 44.0376 2.7977 0.9588
# 5 11.2544 4.6453 15.2059 2.7977 44.6972 4.8480
# 6 21.8680 40.3938 1.9007 0.9588 4.8480 45.7119
#
#
#
# Elastic Compliance Matrix: (Units=1/GPa)
#
#
# Indices 1 2 3 4 5 6 
#
# 1 0.009518 0.000957 -0.000836 0.000788 -0.001697 -0.005201
# 2 0.000957 0.009202 -0.000340 0.007463 -0.000609 -0.008667
# 3 -0.000836 -0.000340 0.017677 0.005566 -0.006171 0.000503
# 4 0.000788 0.007463 0.005566 0.030796 -0.003990 -0.007426
# 5 -0.001697 -0.000609 -0.006171 -0.003990 0.025320 -0.000996
# 6 -0.005201 -0.008667 0.000503 -0.007426 -0.000996 0.032263
#
#
# Mechanical properties :
#
#
# Convention : Reuss Voigt Hill
#
# Bulk Modulus (GPa) = 27.81004 47.66596 37.73800
# Shear Modulus (GPa) = 36.44272 48.66854 42.55563
#
# Velocity S-wave (km/s) = 3.56482 4.11961 3.85222
# Velocity P-wave (km/s) = 5.16154 6.26497 5.73983
#
# Compressibility (1/GPa) = 0.03595824
#
# Stress axis : x y z
#
# Youngs Moduli (GPa) = 105.06108 108.66939 56.57194
#
# Poissons Ratio (x) = -0.10399 0.04730
# Poissons Ratio (y) = -0.10054 0.01925
# Poissons Ratio (z) = 0.08785 0.03697
#
# Static dielectric constant tensor:
#      x y z
#    x 2.254150 -0.134980 -0.024760 
#    y -0.134980 2.200460 -0.013810 
#    z -0.024760 -0.013810 2.208730 
# 
# From -- ./inp_files/160489.got.cif
#   From: 2010.05.17/outbox.cif.g08.bks.cpg/sg2_81_cif.got.tgz:160489.got - 2010.06.03 11:33:40.
