data_PCOD9045676
_publ_section_title
;
Structure prediction by ZEFSAII (Michael W. Deem and Ramdas Pophale) SiO2 
 PCOD9045676
Probable space group: P -1
;
_chemical_formula_sum "Si O2"
_cell_formula_units_Z 13
_cell_length_a 8.034973
_cell_length_b 7.549905
_cell_length_c 15.406121
_cell_angle_alpha 60.046143
_cell_angle_beta 143.381370
_cell_angle_gamma 122.579398
_cell_volume 465.540954
_symmetry_space_group_name_H-M "P -1"
_symmetry_group_IT_number 2
_symmetry_cell_setting 'triclinic'
loop_
_space_group_symop_operation_xyz
x,y,z
-x,-y,-z
loop_
_atom_site_type_symbol
_atom_site_label
_atom_site_fract_x
_atom_site_fract_y
_atom_site_fract_z
Si Si1 0.845096 0.934629 0.814283
Si Si2 0.050141 0.405416 0.636023
Si Si3 0.772672 0.690201 0.540013
Si Si4 0.169688 0.806018 0.824142
Si Si5 0.500000 0.000000 0.500000
Si Si6 0.466262 0.214220 0.764866
Si Si7 0.904014 0.662853 0.062222
O O1 0.074511 0.868290 0.862850
O O2 0.556448 0.914091 0.643101
O O3 0.994296 0.167703 0.859056
O O4 0.771494 0.776096 0.903900
O O5 0.030229 0.583581 0.652275
O O6 0.777258 0.205487 0.584568
O O7 0.000000 0.500000 0.500000
O O8 0.329629 0.324945 0.756163
O O9 0.500000 0.500000 0.500000
O O10 0.697929 0.795001 0.395077
O O11 0.880272 0.818689 0.641702
O O12 0.235946 0.579416 0.912459
O O13 0.420341 0.978848 0.839184
O O14 0.786821 0.345629 0.847021
#
# Coordination Sequence:
#
# PCOD9045676 Si02
#       7
#     2   2   2   2   1   2   2
#     4  11  27  48  79 104 147 197 241 301 368 434
#     4  10  24  41  66 107 145 190 231 303 362 415
#     4  11  22  41  70 106 152 191 241 306 359 423
#     4  12  24  45  74 105 143 197 244 292 369 431
#     4  12  22  44  74 102 138 186 242 294 354 430
#     4  11  25  42  72 110 144 194 248 301 358 442
#     4  11  27  52  70 108 152 192 240 302 369 433
#
# _framework density 27.924503999999999
#
# number of rings (size 3 to 8) (size 9 to 14) (size 15 to 20)
#    0.000    0.923    3.077    2.769    4.308    3.077 
#    0.000    3.077    0.000    0.000    0.000    0.000 
#    0.000    0.000    0.000    0.000    0.000    0.000 
#
# Total GULP energy -72751.045898 kJ/mol
# GULP energy per Si atom -5596.234300 kJ/mol
# Density = 2.786095 g / cm^3
# Si number density = 27.924504 Si / 1000 Ang^3
#
#
#
# Elastic Constant Matrix: (Units=GPa)
#
#
# Indices 1 2 3 4 5 6 
#
# 1 120.4268 32.7884 25.7784 -8.0955 -17.3847 -17.4272
# 2 32.7884 154.4078 36.7717 -35.4307 -22.8629 -1.3441
# 3 25.7784 36.7717 190.4387 -10.7895 -40.5623 -9.1192
# 4 -8.0955 -35.4307 -10.7895 41.5511 6.5149 1.4324
# 5 -17.3847 -22.8629 -40.5623 6.5149 48.8141 0.0374
# 6 -17.4272 -1.3441 -9.1192 1.4324 0.0374 39.3922
#
#
#
# Elastic Compliance Matrix: (Units=1/GPa)
#
#
# Indices 1 2 3 4 5 6 
#
# 1 0.009768 -0.001622 -0.000282 -0.000089 0.002494 0.004202
# 2 -0.001622 0.008834 -0.000701 0.006738 0.002079 -0.000825
# 3 -0.000282 -0.000701 0.006567 0.000222 0.004997 0.001359
# 4 -0.000089 0.006738 0.000222 0.029990 -0.000694 -0.000848
# 5 0.002494 0.002079 0.004997 -0.000694 0.026591 0.002331
# 6 0.004202 -0.000825 0.001359 -0.000848 0.002331 0.027560
#
#
# Mechanical properties :
#
#
# Convention : Reuss Voigt Hill
#
# Bulk Modulus (GPa) = 50.10226 72.88335 61.49281
# Shear Modulus (GPa) = 41.26386 50.61379 45.93883
#
# Velocity S-wave (km/s) = 3.84825 4.26199 4.06039
# Velocity P-wave (km/s) = 6.14218 7.09762 6.63711
#
# Compressibility (1/GPa) = 0.01995918
#
# Stress axis : x y z
#
# Youngs Moduli (GPa) = 102.37870 113.19451 152.28657
#
# Poissons Ratio (x) = 0.18356 0.04291
# Poissons Ratio (y) = 0.16602 0.10680
# Poissons Ratio (z) = 0.02885 0.07939
#
# Static dielectric constant tensor:
#      x y z
#    x 4.845920 -1.351340 2.681430 
#    y -1.351340 2.805980 -1.320810 
#    z 2.681430 -1.320810 4.692460 
# 
# From -- ./inp_files/492384.got.cif
#   From: 2010.05.17/outbox.cif.g08.bks.cpg/sg2_247_cif.got.tgz:492384.got - 2010.06.03 11:33:40.
