data_PCOD9045784
_publ_section_title
;
Structure prediction by ZEFSAII (Michael W. Deem and Ramdas Pophale) SiO2 
 PCOD9045784
Probable space group: P -1
;
_chemical_formula_sum "Si O2"
_cell_formula_units_Z 14
_cell_length_a 8.138610
_cell_length_b 21.073894
_cell_length_c 14.253884
_cell_angle_alpha 146.410980
_cell_angle_beta 30.757379
_cell_angle_gamma 145.013082
_cell_volume 643.795935
_symmetry_space_group_name_H-M "P -1"
_symmetry_group_IT_number 2
_symmetry_cell_setting 'triclinic'
loop_
_space_group_symop_operation_xyz
x,y,z
-x,-y,-z
loop_
_atom_site_type_symbol
_atom_site_label
_atom_site_fract_x
_atom_site_fract_y
_atom_site_fract_z
Si Si1 0.883758 0.507504 0.850431
Si Si2 0.141305 0.753849 0.146878
Si Si3 0.066390 0.590478 0.666353
Si Si4 0.712997 0.952835 0.409793
Si Si5 0.604417 0.822437 0.609325
Si Si6 0.512727 0.292172 0.888719
Si Si7 0.634594 0.013001 0.185200
O O1 0.831772 0.388740 0.793262
O O2 0.070474 0.521124 0.675946
O O3 0.500000 0.500000 0.000000
O O4 0.058104 0.630188 0.976953
O O5 0.352093 0.749108 0.132867
O O6 0.791144 0.769896 0.373237
O O7 0.359108 0.875655 0.131336
O O8 0.411884 0.710359 0.633440
O O9 0.000000 0.500000 0.500000
O O10 0.749668 0.638982 0.878501
O O11 0.681304 0.821076 0.224430
O O12 0.529786 0.949602 0.595480
O O13 0.500000 0.000000 0.500000
O O14 0.090935 0.057357 0.353715
O O15 0.338919 0.880297 0.769560
O O16 0.000000 0.000000 0.000000
#
# Coordination Sequence:
#
# PCOD9045784 Si02
#       7
#     2   2   2   2   2   2   2
#     4  10  24  41  69  93 129 180 226 272 333 399
#     4  11  22  46  66 102 131 181 224 275 344 399
#     4  11  26  45  65 100 134 178 234 282 333 395
#     4  11  23  43  68 102 136 177 224 272 346 399
#     4  11  24  41  71  96 141 176 222 278 339 402
#     4  11  23  45  70  95 140 178 225 281 331 408
#     4  11  25  42  68 101 140 173 221 282 335 408
#
# _framework density 21.746022
#
# number of rings (size 3 to 8) (size 9 to 14) (size 15 to 20)
#    0.000    1.143    2.857    4.714   10.000    1.714 
#    0.000    1.429    0.000    0.000    0.000    0.000 
#    0.000    0.000    0.000    0.000    0.000    0.000 
#
# Total GULP energy -78280.020009 kJ/mol
# GULP energy per Si atom -5591.430001 kJ/mol
# Density = 2.169653 g / cm^3
# Si number density = 21.746022 Si / 1000 Ang^3
#
#
#
# Elastic Constant Matrix: (Units=GPa)
#
#
# Indices 1 2 3 4 5 6 
#
# 1 54.7873 19.6891 24.7393 7.8905 15.5559 9.5336
# 2 19.6891 126.4393 43.3895 2.0956 34.5749 -7.6278
# 3 24.7393 43.3895 100.2918 19.5491 11.9711 15.2705
# 4 7.8905 2.0956 19.5491 36.9498 16.0068 3.0764
# 5 15.5559 34.5749 11.9711 16.0068 42.2402 10.4170
# 6 9.5336 -7.6278 15.2705 3.0764 10.4170 28.5826
#
#
#
# Elastic Compliance Matrix: (Units=1/GPa)
#
#
# Indices 1 2 3 4 5 6 
#
# 1 0.022571 -0.000782 -0.004038 0.000127 -0.005710 -0.003513
# 2 -0.000782 0.017488 -0.009709 0.011454 -0.019565 0.016012
# 3 -0.004038 -0.009709 0.018274 -0.012483 0.012491 -0.014216
# 4 0.000127 0.011454 -0.012483 0.042928 -0.025711 0.014434
# 5 -0.005710 -0.019565 0.012491 -0.025711 0.054691 -0.027155
# 6 -0.003513 0.016012 -0.014216 0.014434 -0.027155 0.056369
#
#
# Mechanical properties :
#
#
# Convention : Reuss Voigt Hill
#
# Bulk Modulus (GPa) = 34.15661 50.79492 42.47577
# Shear Modulus (GPa) = 19.90945 34.46787 27.18866
#
# Velocity S-wave (km/s) = 3.02908 3.98555 3.53977
# Velocity P-wave (km/s) = 5.28913 6.67746 6.02343
#
# Compressibility (1/GPa) = 0.02927691
#
# Stress axis : x y z
#
# Youngs Moduli (GPa) = 44.30514 57.18049 54.72278
#
# Poissons Ratio (x) = 0.04470 0.22095
# Poissons Ratio (y) = 0.03464 0.53128
# Poissons Ratio (z) = 0.17889 0.55514
#
# Static dielectric constant tensor:
#      x y z
#    x 1.804220 -0.017710 0.020030 
#    y -0.017710 1.760530 0.012690 
#    z 0.020030 0.012690 1.776460 
# 
# From -- ./inp_files/244966.got.cif
#   From: 2010.05.17/outbox.cif.g08.bks.cpg/sg2_123_cif.got.tgz:244966.got - 2010.06.03 11:33:40.
