data_PCOD9045308
_publ_section_title
;
Structure prediction by ZEFSAII (Michael W. Deem and Ramdas Pophale) SiO2 
 PCOD9045308
Probable space group: P -1
;
_chemical_formula_sum "Si O2"
_cell_formula_units_Z 12
_cell_length_a 17.972880
_cell_length_b 5.734769
_cell_length_c 5.319805
_cell_angle_alpha 95.585405
_cell_angle_beta 81.880357
_cell_angle_gamma 57.768248
_cell_volume 449.302202
_symmetry_space_group_name_H-M "P -1"
_symmetry_group_IT_number 2
_symmetry_cell_setting 'triclinic'
loop_
_space_group_symop_operation_xyz
x,y,z
-x,-y,-z
loop_
_atom_site_type_symbol
_atom_site_label
_atom_site_fract_x
_atom_site_fract_y
_atom_site_fract_z
Si Si1 0.880738 0.452552 0.154672
Si Si2 0.420848 0.328368 0.071148
Si Si3 0.708692 0.839743 0.984672
Si Si4 0.219426 0.022977 0.445331
Si Si5 0.622328 0.342489 0.381517
Si Si6 0.946751 0.936604 0.728684
O O1 0.815750 0.656896 0.426546
O O2 0.978958 0.359693 0.205740
O O3 0.814928 0.658268 0.986679
O O4 0.904845 0.156923 0.003360
O O5 0.327475 0.340358 0.121089
O O6 0.429293 0.475507 0.329944
O O7 0.418449 0.458403 0.817211
O O8 0.500000 0.000000 0.000000
O O9 0.704711 0.050914 0.803320
O O10 0.641467 0.038015 0.262762
O O11 0.134761 0.036192 0.378234
O O12 0.270732 0.792329 0.616647
O O13 0.000000 0.000000 0.500000
#
# Coordination Sequence:
#
# PCOD9045308 Si02
#       6
#     2   2   2   2   2   2
#     4  10  24  39  67  95 139 185 236 285 354 402
#     4  12  28  48  76 108 144 185 236 295 362 430
#     4  11  26  45  74 103 143 190 240 292 357 425
#     4  11  24  44  68 102 142 186 239 289 350 421
#     4  11  26  48  74 107 145 188 235 291 359 428
#     4  11  24  39  63 101 141 184 240 293 346 413
#
# _framework density 26.708079999999999
#
# number of rings (size 3 to 8) (size 9 to 14) (size 15 to 20)
#    0.000    1.000    1.667    3.000    7.000    6.667 
#    0.000    0.000    0.000    0.000    0.000    0.000 
#    0.000    0.000    0.000    0.000    0.000    0.000 
#
# Total GULP energy -66942.124101 kJ/mol
# GULP energy per Si atom -5578.510342 kJ/mol
# Density = 2.664729 g / cm^3
# Si number density = 26.708080 Si / 1000 Ang^3
#
#
#
# Elastic Constant Matrix: (Units=GPa)
#
#
# Indices 1 2 3 4 5 6 
#
# 1 103.1362 19.8885 46.9258 -8.1862 -5.5624 10.0592
# 2 19.8885 149.1876 64.8530 5.0720 -0.5362 -45.1426
# 3 46.9258 64.8530 170.4199 5.2076 19.5797 -8.4686
# 4 -8.1862 5.0720 5.2076 49.7385 1.7745 -1.1193
# 5 -5.5624 -0.5362 19.5797 1.7745 23.0843 4.9976
# 6 10.0592 -45.1426 -8.4686 -1.1193 4.9976 38.3697
#
#
#
# Elastic Compliance Matrix: (Units=1/GPa)
#
#
# Indices 1 2 3 4 5 6 
#
# 1 0.013627 -0.002655 -0.004223 0.002458 0.008490 -0.008663
# 2 -0.002655 0.013337 -0.003450 -0.001057 -0.000719 0.015689
# 3 -0.004223 -0.003450 0.009432 -0.001000 -0.009082 0.000284
# 4 0.002458 -0.001057 -0.001000 0.020682 0.000157 -0.001526
# 5 0.008490 -0.000719 -0.009082 0.000157 0.055709 -0.012328
# 6 -0.008663 0.015689 0.000284 -0.001526 -0.012328 0.048415
#
#
# Mechanical properties :
#
#
# Convention : Reuss Voigt Hill
#
# Bulk Modulus (GPa) = 63.53137 76.23093 69.88115
# Shear Modulus (GPa) = 26.72299 41.64360 34.18329
#
# Velocity S-wave (km/s) = 3.16659 3.95297 3.58143
# Velocity P-wave (km/s) = 6.09989 7.03128 6.58208
#
# Compressibility (1/GPa) = 0.01574026
#
# Stress axis : x y z
#
# Youngs Moduli (GPa) = 73.38280 74.97761 106.02704
#
# Poissons Ratio (x) = 0.19908 0.44774
# Poissons Ratio (y) = 0.19485 0.36577
# Poissons Ratio (z) = 0.30989 0.25866
#
# Static dielectric constant tensor:
#      x y z
#    x 2.107200 -0.016020 0.029590 
#    y -0.016020 2.080860 -0.025950 
#    z 0.029590 -0.025950 2.247060 
# 
# From -- ./inp_files/7534.got.cif
#   From: 2010.05.17/outbox.cif.g08.bks.cpg/sg2_4_cif.got.tgz:7534.got - 2010.06.03 11:33:40.
