data_PCOD9045856
_publ_section_title
;
Structure prediction by ZEFSAII (Michael W. Deem and Ramdas Pophale) SiO2 
 PCOD9045856
Probable space group: P -1
;
_chemical_formula_sum "Si O2"
_cell_formula_units_Z 13
_cell_length_a 19.236229
_cell_length_b 9.331779
_cell_length_c 18.633260
_cell_angle_alpha 43.406098
_cell_angle_beta 164.981539
_cell_angle_gamma 137.266514
_cell_volume 585.384910
_symmetry_space_group_name_H-M "P -1"
_symmetry_group_IT_number 2
_symmetry_cell_setting 'triclinic'
loop_
_space_group_symop_operation_xyz
x,y,z
-x,-y,-z
loop_
_atom_site_type_symbol
_atom_site_label
_atom_site_fract_x
_atom_site_fract_y
_atom_site_fract_z
Si Si1 0.214881 0.844398 0.765974
Si Si2 0.000000 0.500000 0.000000
Si Si3 0.673804 0.508365 0.097863
Si Si4 0.436853 0.221103 0.550862
Si Si5 0.465546 0.758012 0.528812
Si Si6 0.064157 0.424720 0.859648
Si Si7 0.226042 0.739379 0.514834
O O1 0.137037 0.662343 0.815379
O O2 0.246292 0.705950 0.776138
O O3 0.000000 0.000000 0.500000
O O4 0.500000 0.000000 0.000000
O O5 0.185222 0.332850 0.275550
O O6 0.279016 0.644583 0.188892
O O7 0.459230 0.594046 0.799290
O O8 0.500000 0.500000 0.000000
O O9 0.968611 0.661716 0.338665
O O10 0.465228 0.227955 0.490326
O O11 0.372953 0.974111 0.596278
O O12 0.160449 0.628437 0.282573
O O13 0.500000 0.000000 0.500000
O O14 0.668937 0.649476 0.818044
O O15 0.920483 0.282808 0.701153
#
# Coordination Sequence:
#
# PCOD9045856 Si02
#       7
#     2   1   2   2   2   2   2
#     4  11  23  43  67  92 134 179 214 273 350 404
#     4  10  24  42  56  82 128 182 210 252 306 404
#     4  11  24  43  67  99 129 167 236 289 330 392
#     4  11  23  41  64  89 131 173 220 253 334 380
#     4  12  23  37  66 101 131 156 213 281 321 374
#     4  11  23  39  62 103 131 166 216 269 335 394
#     4  11  22  40  69  93 129 172 221 278 330 400
#
# _framework density 22.207609999999999
#
# number of rings (size 3 to 8) (size 9 to 14) (size 15 to 20)
#    0.000    0.923    1.538    7.385    2.154    0.000 
#    0.000   15.385    0.000    0.000    0.000    0.000 
#    0.000    0.000    0.000    0.000    0.000    0.000 
#
# Total GULP energy -72427.306104 kJ/mol
# GULP energy per Si atom -5571.331239 kJ/mol
# Density = 2.215706 g / cm^3
# Si number density = 22.207610 Si / 1000 Ang^3
#
#
#
# Elastic Constant Matrix: (Units=GPa)
#
#
# Indices 1 2 3 4 5 6 
#
# 1 70.9273 35.6890 22.3219 -7.1696 20.6144 0.6748
# 2 35.6890 144.3189 40.6338 -3.0268 38.9805 8.7318
# 3 22.3219 40.6338 153.6001 -16.0522 58.8704 9.5219
# 4 -7.1696 -3.0268 -16.0522 32.0608 2.6372 7.1933
# 5 20.6144 38.9805 58.8704 2.6372 12.8153 -9.7470
# 6 0.6748 8.7318 9.5219 7.1933 -9.7470 22.9402
#
#
#
# Elastic Compliance Matrix: (Units=1/GPa)
#
#
# Indices 1 2 3 4 5 6 
#
# 1 0.016106 -0.004494 -0.002905 0.000489 0.004059 0.004014
# 2 -0.004494 0.007394 -0.004016 -0.003349 0.005763 0.002483
# 3 -0.002905 -0.004016 0.002077 -0.002749 0.013502 0.007350
# 4 0.000489 -0.003349 -0.002749 0.028055 0.016825 0.000753
# 5 0.004059 0.005763 0.013502 0.016825 -0.031835 -0.026720
# 6 0.004014 0.002483 0.007350 0.000753 -0.026720 0.027888
#
#
# Mechanical properties :
#
#
# Convention : Reuss Voigt Hill
#
# Bulk Modulus (GPa) = 363.90094 62.90399 213.40246
# Shear Modulus (GPa) = 68.09212 31.57672 49.83442
#
# Velocity S-wave (km/s) = 5.54330 3.77488 4.74225
# Velocity P-wave (km/s) = 14.32445 6.88379 11.23780
#
# Compressibility (1/GPa) = 0.00274800
#
# Stress axis : x y z
#
# Youngs Moduli (GPa) = 62.08872 135.24590 481.43919
#
# Poissons Ratio (x) = 0.60776 1.39863
# Poissons Ratio (y) = 0.27901 1.93329
# Poissons Ratio (z) = 0.18037 0.54310
#
# Static dielectric constant tensor:
#      x y z
#    x 2.007350 -0.030920 -0.008570 
#    y -0.030920 1.858270 0.037790 
#    z -0.008570 0.037790 1.854110 
# 
# From -- ./inp_files/614121.got.cif
#   From: 2010.05.17/outbox.cif.g08.bks.cpg/sg2_308_cif.got.tgz:614121.got - 2010.06.03 11:33:40.
