data_PCOD9045371
_publ_section_title
;
Structure prediction by ZEFSAII (Michael W. Deem and Ramdas Pophale) SiO2 
 PCOD9045371
Probable space group: P -1
;
_chemical_formula_sum "Si O2"
_cell_formula_units_Z 16
_cell_length_a 14.174564
_cell_length_b 14.991473
_cell_length_c 15.141698
_cell_angle_alpha 150.092026
_cell_angle_beta 142.490826
_cell_angle_gamma 29.335394
_cell_volume 776.626160
_symmetry_space_group_name_H-M "P -1"
_symmetry_group_IT_number 2
_symmetry_cell_setting 'triclinic'
loop_
_space_group_symop_operation_xyz
x,y,z
-x,-y,-z
loop_
_atom_site_type_symbol
_atom_site_label
_atom_site_fract_x
_atom_site_fract_y
_atom_site_fract_z
Si Si1 0.042725 0.004305 0.432845
Si Si2 0.337847 0.252656 0.061558
Si Si3 0.181596 0.688589 0.624178
Si Si4 0.023523 0.381926 0.803060
Si Si5 0.601753 0.466259 0.776466
Si Si6 0.549181 0.614314 0.061736
Si Si7 0.134289 0.985128 0.010211
Si Si8 0.048179 0.517491 0.760274
O O1 0.201778 0.758423 0.305366
O O2 0.116989 0.155142 0.622359
O O3 0.000000 0.000000 0.500000
O O4 0.867092 0.152142 0.360395
O O5 0.421533 0.326207 0.112171
O O6 0.209808 0.459480 0.214455
O O7 0.153595 0.287170 0.906227
O O8 0.500000 0.000000 0.000000
O O9 0.411239 0.488513 0.626260
O O10 0.136228 0.841318 0.807499
O O11 0.061089 0.587174 0.442177
O O12 0.046461 0.524371 0.872498
O O13 0.606167 0.478516 0.895433
O O14 0.351235 0.853467 0.096165
O O15 0.500000 0.500000 0.000000
O O16 0.729047 0.616328 0.221033
O O17 0.000000 0.000000 0.000000
O O18 0.058592 0.229883 0.134194
#
# Coordination Sequence:
#
# PCOD9045371 Si02
#       8
#     2   2   2   2   2   2   2   2
#     4  11  23  42  65  93 139 178 224 280 337 398
#     4  11  24  38  64  96 134 180 232 276 338 408
#     4  10  27  42  66 104 134 178 230 283 342 410
#     4  10  24  40  62  96 129 182 225 276 342 401
#     4  11  24  44  68  97 137 180 233 284 336 413
#     4  11  23  44  72 101 129 179 228 278 348 411
#     4  11  24  44  74  98 131 180 225 287 349 403
#     4  11  23  45  66  95 140 171 226 282 341 412
#
# _framework density 20.601932000000001
#
# number of rings (size 3 to 8) (size 9 to 14) (size 15 to 20)
#    0.000    1.250    3.750    0.750    5.250    5.000 
#    0.000    0.625    0.000    0.000    0.000    0.000 
#    0.000    0.000    0.000    0.000    0.000    0.000 
#
# Total GULP energy -89195.923205 kJ/mol
# GULP energy per Si atom -5574.745200 kJ/mol
# Density = 2.055504 g / cm^3
# Si number density = 20.601932 Si / 1000 Ang^3
#
#
#
# Elastic Constant Matrix: (Units=GPa)
#
#
# Indices 1 2 3 4 5 6 
#
# 1 123.5714 43.4992 21.6854 3.4222 3.9531 15.4043
# 2 43.4992 139.0483 47.5489 9.6079 10.2606 9.9758
# 3 21.6854 47.5489 66.3905 3.8085 12.0078 0.8545
# 4 3.4222 9.6079 3.8085 31.4557 -4.9128 9.1860
# 5 3.9531 10.2606 12.0078 -4.9128 28.6369 -3.2644
# 6 15.4043 9.9758 0.8545 9.1860 -3.2644 40.1966
#
#
#
# Elastic Compliance Matrix: (Units=1/GPa)
#
#
# Indices 1 2 3 4 5 6 
#
# 1 0.009544 -0.002302 -0.001449 0.000767 -0.000123 -0.003241
# 2 -0.002302 0.010395 -0.006341 -0.001996 -0.001228 -0.001207
# 3 -0.001449 -0.006341 0.021374 -0.001997 -0.006652 0.001591
# 4 0.000767 -0.001996 -0.001997 0.035768 0.006741 -0.007383
# 5 -0.000123 -0.001228 -0.006652 0.006741 0.039570 0.002166
# 6 -0.003241 -0.001207 0.001591 -0.007383 0.002166 0.028248
#
#
# Mechanical properties :
#
#
# Convention : Reuss Voigt Hill
#
# Bulk Modulus (GPa) = 47.32630 61.60856 54.46743
# Shear Modulus (GPa) = 29.04858 34.47628 31.76243
#
# Velocity S-wave (km/s) = 3.75906 4.09522 3.93074
# Velocity P-wave (km/s) = 6.47011 7.23397 6.86268
#
# Compressibility (1/GPa) = 0.02112990
#
# Stress axis : x y z
#
# Youngs Moduli (GPa) = 104.78213 96.19724 46.78498
#
# Poissons Ratio (x) = 0.22140 0.06779
# Poissons Ratio (y) = 0.24116 0.29667
# Poissons Ratio (z) = 0.15183 0.61001
#
# Static dielectric constant tensor:
#      x y z
#    x 1.713730 -0.295010 0.263370 
#    y -0.295010 0.502970 1.025110 
#    z 0.263370 1.025110 0.933350 
# 
# From -- ./inp_files/534602.got.cif
#   From: 2010.05.17/outbox.cif.g08.bks.cpg/sg2_268_cif.got.tgz:534602.got - 2010.06.03 11:33:40.
