data_PCOD9045294
_publ_section_title
;
Structure prediction by ZEFSAII (Michael W. Deem and Ramdas Pophale) SiO2 
 PCOD9045294
Probable space group: P -1
;
_chemical_formula_sum "Si O2"
_cell_formula_units_Z 16
_cell_length_a 21.192455
_cell_length_b 6.817423
_cell_length_c 7.090986
_cell_angle_alpha 99.563739
_cell_angle_beta 66.413889
_cell_angle_gamma 136.091644
_cell_volume 639.003018
_symmetry_space_group_name_H-M "P -1"
_symmetry_group_IT_number 2
_symmetry_cell_setting 'triclinic'
loop_
_space_group_symop_operation_xyz
x,y,z
-x,-y,-z
loop_
_atom_site_type_symbol
_atom_site_label
_atom_site_fract_x
_atom_site_fract_y
_atom_site_fract_z
Si Si1 0.935315 0.045524 0.509274
Si Si2 0.729247 0.610465 0.532225
Si Si3 0.602733 0.183075 0.294380
Si Si4 0.768640 0.157135 0.517866
Si Si5 0.616857 0.962291 0.947261
Si Si6 0.389940 0.233688 0.673373
Si Si7 0.596709 0.433463 0.000640
Si Si8 0.988989 0.504103 0.236421
O O1 0.831016 0.739972 0.514263
O O2 0.018065 0.720512 0.677774
O O3 0.000000 0.000000 0.500000
O O4 0.925701 0.185633 0.714564
O O5 0.692102 0.432311 0.357348
O O6 0.757088 0.896482 0.514467
O O7 0.639530 0.422733 0.754476
O O8 0.500000 0.000000 0.500000
O O9 0.604559 0.941900 0.210813
O O10 0.609646 0.219466 0.068261
O O11 0.725562 0.189631 0.750890
O O12 0.886167 0.411677 0.377865
O O13 0.690750 0.021033 0.416016
O O14 0.524682 0.805156 0.890178
O O15 0.611683 0.704198 0.938145
O O16 0.500000 0.500000 0.500000
O O17 0.361937 0.389198 0.811904
O O18 0.000000 0.500000 0.000000
#
# Coordination Sequence:
#
# PCOD9045294 Si02
#       8
#     2   2   2   2   2   2   2   2
#     4  10  25  46  69 104 133 175 222 280 343 403
#     4  11  24  42  69  97 135 175 217 277 332 389
#     4  10  25  40  62  98 128 180 223 268 323 387
#     4  11  23  44  69  95 134 174 218 270 332 399
#     4  10  25  42  63  98 132 178 222 267 328 389
#     4  10  24  39  65  95 130 177 220 267 327 389
#     4  12  23  45  64  94 138 174 222 274 323 393
#     4  10  25  46  73 100 135 175 222 280 342 403
#
# _framework density 25.039003000000001
#
# number of rings (size 3 to 8) (size 9 to 14) (size 15 to 20)
#    0.750    0.750    2.500    0.750    5.250    3.500 
#    2.250    0.000    0.000    0.000    0.000    0.000 
#    0.000    0.000    0.000    0.000    0.000    0.000 
#
# Total GULP energy -89159.481273 kJ/mol
# GULP energy per Si atom -5572.467580 kJ/mol
# Density = 2.498201 g / cm^3
# Si number density = 25.039003 Si / 1000 Ang^3
#
#
#
# Elastic Constant Matrix: (Units=GPa)
#
#
# Indices 1 2 3 4 5 6 
#
# 1 177.1024 39.8461 67.4049 6.6884 4.8907 0.8464
# 2 39.8461 111.8775 48.5747 21.4448 3.0607 14.8361
# 3 67.4049 48.5747 134.0348 23.2642 2.6677 2.8760
# 4 6.6884 21.4448 23.2642 36.8292 3.9496 -1.5996
# 5 4.8907 3.0607 2.6677 3.9496 42.8511 3.5446
# 6 0.8464 14.8361 2.8760 -1.5996 3.5446 47.4893
#
#
#
# Elastic Compliance Matrix: (Units=1/GPa)
#
#
# Indices 1 2 3 4 5 6 
#
# 1 0.007231 -0.001516 -0.003404 0.001827 -0.000729 0.000667
# 2 -0.001516 0.012141 -0.002637 -0.005323 0.000275 -0.003806
# 3 -0.003404 -0.002637 0.010954 -0.004800 0.000334 0.000035
# 4 0.001827 -0.005323 -0.004800 0.033402 -0.002878 0.003261
# 5 -0.000729 0.000275 0.000334 -0.002878 0.023807 -0.001967
# 6 0.000667 -0.003806 0.000035 0.003261 -0.001967 0.022489
#
#
# Mechanical properties :
#
#
# Convention : Reuss Voigt Hill
#
# Bulk Modulus (GPa) = 65.74116 81.62958 73.68537
# Shear Modulus (GPa) = 38.39957 43.24651 40.82304
#
# Velocity S-wave (km/s) = 3.92036 4.16043 4.04217
# Velocity P-wave (km/s) = 6.84140 7.46663 7.16084
#
# Compressibility (1/GPa) = 0.01521117
#
# Stress axis : x y z
#
# Youngs Moduli (GPa) = 138.29316 82.36618 91.29070
#
# Poissons Ratio (x) = 0.12488 0.31074
# Poissons Ratio (y) = 0.20968 0.24077
# Poissons Ratio (z) = 0.47073 0.21723
#
# Static dielectric constant tensor:
#      x y z
#    x 1.925520 -0.014720 -0.455500 
#    y -0.014720 1.984430 0.173880 
#    z -0.455500 0.173880 1.609600 
# 
# From -- ./inp_files/220552.got.cif
#   From: 2010.05.17/outbox.cif.g08.bks.cpg/sg2_111_cif.got.tgz:220552.got - 2010.06.03 11:33:40.
