data_PCOD9045381
_publ_section_title
;
Structure prediction by ZEFSAII (Michael W. Deem and Ramdas Pophale) SiO2 
 PCOD9045381
Probable space group: P -1
;
_chemical_formula_sum "Si O2"
_cell_formula_units_Z 16
_cell_length_a 7.866844
_cell_length_b 6.881262
_cell_length_c 15.719843
_cell_angle_alpha 89.537278
_cell_angle_beta 77.450612
_cell_angle_gamma 122.417112
_cell_volume 693.146077
_symmetry_space_group_name_H-M "P -1"
_symmetry_group_IT_number 2
_symmetry_cell_setting 'triclinic'
loop_
_space_group_symop_operation_xyz
x,y,z
-x,-y,-z
loop_
_atom_site_type_symbol
_atom_site_label
_atom_site_fract_x
_atom_site_fract_y
_atom_site_fract_z
Si Si1 0.557761 0.392839 0.881922
Si Si2 0.785272 0.008997 0.309775
Si Si3 0.185289 0.776699 0.220423
Si Si4 0.404964 0.506423 0.599247
Si Si5 0.875867 0.801046 0.156964
Si Si6 0.697497 0.879093 0.937806
Si Si7 0.379516 0.022165 0.363374
Si Si8 0.152729 0.701702 0.547333
O O1 0.716653 0.372192 0.806059
O O2 0.354806 0.346626 0.853848
O O3 0.669654 0.638924 0.915118
O O4 0.460327 0.194096 0.966940
O O5 0.693179 0.746056 0.351148
O O6 0.895934 0.009219 0.211437
O O7 0.585707 0.025376 0.316152
O O8 0.914074 0.187077 0.372209
O O9 0.206794 0.858444 0.313966
O O10 0.954134 0.669564 0.208018
O O11 0.325825 0.009251 0.146118
O O12 0.500000 0.500000 0.500000
O O13 0.254927 0.589922 0.589063
O O14 0.571718 0.719116 0.639952
O O15 0.062123 0.922184 0.067545
O O16 0.307593 0.911772 0.465693
O O17 0.000000 0.500000 0.500000
#
# Coordination Sequence:
#
# PCOD9045381 Si02
#       8
#     2   2   2   2   2   2   2   2
#     4  11  20  48  68  89 137 169 202 279 318 376
#     4  11  22  43  60  88 127 169 212 266 322 371
#     4  10  24  40  63  99 127 163 215 262 317 389
#     4  11  21  40  65  81 116 170 219 254 313 380
#     4  10  24  41  65 100 127 167 219 259 322 390
#     4   9  24  42  67  99 125 170 219 250 334 395
#     4  11  22  41  61  89 126 169 210 264 326 372
#     4  11  25  38  59  91 123 167 214 264 317 379
#
# _framework density 23.083158000000001
#
# number of rings (size 3 to 8) (size 9 to 14) (size 15 to 20)
#    0.750    0.750    3.750    1.500    3.500    2.500 
#    4.500    1.250    0.000    0.000    0.000    0.000 
#    0.000    0.000    0.000    0.000    0.000    0.000 
#
# Total GULP energy -89277.135297 kJ/mol
# GULP energy per Si atom -5579.820956 kJ/mol
# Density = 2.303062 g / cm^3
# Si number density = 23.083158 Si / 1000 Ang^3
#
#
#
# Elastic Constant Matrix: (Units=GPa)
#
#
# Indices 1 2 3 4 5 6 
#
# 1 62.9395 17.5174 -9.4064 4.0870 11.1695 2.0939
# 2 17.5174 72.0531 2.3424 0.5488 -5.2015 -12.5130
# 3 -9.4064 2.3424 56.0940 -6.9859 2.0455 -0.8371
# 4 4.0870 0.5488 -6.9859 32.4307 -1.5797 -1.3039
# 5 11.1695 -5.2015 2.0455 -1.5797 39.0258 3.6630
# 6 2.0939 -12.5130 -0.8371 -1.3039 3.6630 22.3587
#
#
#
# Elastic Compliance Matrix: (Units=1/GPa)
#
#
# Indices 1 2 3 4 5 6 
#
# 1 0.019448 -0.005994 0.003418 -0.002084 -0.006239 -0.004147
# 2 -0.005994 0.017299 -0.001618 0.000661 0.003223 0.009693
# 3 0.003418 -0.001618 0.018990 0.003589 -0.002047 0.000030
# 4 -0.002084 0.000661 0.003589 0.032029 0.001576 0.002309
# 5 -0.006239 0.003223 -0.002047 0.001576 0.028219 -0.002220
# 6 -0.004147 0.009693 0.000030 0.002309 -0.002220 0.051038
#
#
# Mechanical properties :
#
#
# Convention : Reuss Voigt Hill
#
# Bulk Modulus (GPa) = 21.12016 23.55483 22.33749
# Shear Modulus (GPa) = 26.15141 30.80527 28.47834
#
# Velocity S-wave (km/s) = 3.36954 3.65709 3.51626
# Velocity P-wave (km/s) = 4.93030 5.29707 5.11697
#
# Compressibility (1/GPa) = 0.04734814
#
# Stress axis : x y z
#
# Youngs Moduli (GPa) = 51.41972 57.80542 52.65958
#
# Poissons Ratio (x) = 0.34648 -0.17997
# Poissons Ratio (y) = 0.30821 0.08521
# Poissons Ratio (z) = -0.17573 0.09354
#
# Static dielectric constant tensor:
#      x y z
#    x 1.926960 0.049800 0.007530 
#    y 0.049800 1.878070 -0.022940 
#    z 0.007530 -0.022940 1.917750 
# 
# From -- ./inp_files/552798.got.cif
#   From: 2010.05.17/outbox.cif.g08.bks.cpg/sg2_277_cif.got.tgz:552798.got - 2010.06.03 11:33:40.
