data_PCOD9045735
_publ_section_title
;
Structure prediction by ZEFSAII (Michael W. Deem and Ramdas Pophale) SiO2 
 PCOD9045735
Probable space group: P -1
;
_chemical_formula_sum "Si O2"
_cell_formula_units_Z 14
_cell_length_a 15.320756
_cell_length_b 11.081877
_cell_length_c 11.720059
_cell_angle_alpha 27.389682
_cell_angle_beta 140.084783
_cell_angle_gamma 133.397400
_cell_volume 587.257155
_symmetry_space_group_name_H-M "P -1"
_symmetry_group_IT_number 2
_symmetry_cell_setting 'triclinic'
loop_
_space_group_symop_operation_xyz
x,y,z
-x,-y,-z
loop_
_atom_site_type_symbol
_atom_site_label
_atom_site_fract_x
_atom_site_fract_y
_atom_site_fract_z
Si Si1 0.818402 0.952120 0.249741
Si Si2 0.707859 0.201884 0.287301
Si Si3 0.572155 0.639210 0.186637
Si Si4 0.915115 0.328740 0.200812
Si Si5 0.877659 0.300889 0.569560
Si Si6 0.970817 0.153770 0.019058
Si Si7 0.480525 0.950076 0.389450
O O1 0.674592 0.801687 0.233415
O O2 0.932818 0.778941 0.570356
O O3 0.827667 0.233209 0.085385
O O4 0.875889 0.992808 0.145784
O O5 0.839015 0.192473 0.346956
O O6 0.750615 0.364743 0.307710
O O7 0.626960 0.952678 0.468779
O O8 0.589484 0.326137 0.987538
O O9 0.591565 0.329807 0.466605
O O10 0.588534 0.797376 0.949806
O O11 0.941116 0.629028 0.006997
O O12 0.074231 0.976356 0.200773
O O13 0.000000 0.500000 0.500000
O O14 0.875233 0.282255 0.718620
O O15 0.500000 0.000000 0.500000
#
# Coordination Sequence:
#
# PCOD9045735 Si02
#       7
#     2   2   2   2   2   2   2
#     4  11  25  44  67  97 135 189 227 292 332 414
#     4  10  24  41  67  99 136 176 226 286 344 413
#     4  10  26  43  69  98 140 178 236 277 348 411
#     4  11  24  45  67  97 138 175 242 279 346 398
#     4  11  22  39  64 101 136 169 217 286 347 412
#     4  11  23  39  68  99 135 175 227 282 347 414
#     4  10  24  45  67  99 140 186 221 284 347 425
#
# _framework density 23.839642000000001
#
# number of rings (size 3 to 8) (size 9 to 14) (size 15 to 20)
#    0.857    0.571    2.857    0.857    6.000    1.714 
#    0.000    0.714    0.000    0.000    0.000    0.000 
#    0.000    0.000    0.000    0.000    0.000    0.000 
#
# Total GULP energy -78119.496546 kJ/mol
# GULP energy per Si atom -5579.964039 kJ/mol
# Density = 2.378538 g / cm^3
# Si number density = 23.839642 Si / 1000 Ang^3
#
#
#
# Elastic Constant Matrix: (Units=GPa)
#
#
# Indices 1 2 3 4 5 6 
#
# 1 50.1679 24.0088 13.6337 -0.2247 4.2212 13.1805
# 2 24.0088 171.3915 22.6820 -8.7851 17.3823 23.9968
# 3 13.6337 22.6820 31.5603 -14.2332 -5.9459 17.9093
# 4 -0.2247 -8.7851 -14.2332 41.6607 2.9133 4.7130
# 5 4.2212 17.3823 -5.9459 2.9133 26.7518 4.8501
# 6 13.1805 23.9968 17.9093 4.7130 4.8501 32.5777
#
#
#
# Elastic Compliance Matrix: (Units=1/GPa)
#
#
# Indices 1 2 3 4 5 6 
#
# 1 0.024421 -0.001435 -0.011128 -0.003472 -0.004745 -0.001497
# 2 -0.001435 0.007446 -0.004499 0.000595 -0.005365 -0.001718
# 3 -0.011128 -0.004499 0.088570 0.032827 0.029868 -0.050071
# 4 -0.003472 0.000595 0.032827 0.037464 0.007664 -0.023641
# 5 -0.004745 -0.005365 0.029868 0.007664 0.050907 -0.019236
# 6 -0.001497 -0.001718 -0.050071 -0.023641 -0.019236 0.066377
#
#
# Mechanical properties :
#
#
# Convention : Reuss Voigt Hill
#
# Bulk Modulus (GPa) = 11.58571 41.52984 26.55777
# Shear Modulus (GPa) = 14.78936 33.05106 23.92021
#
# Velocity S-wave (km/s) = 2.49342 3.72747 3.17105
# Velocity P-wave (km/s) = 3.62766 5.99864 4.95699
#
# Compressibility (1/GPa) = 0.08631325
#
# Stress axis : x y z
#
# Youngs Moduli (GPa) = 40.94810 134.29625 11.29046
#
# Poissons Ratio (x) = 0.19277 0.12564
# Poissons Ratio (y) = 0.05878 0.05079
# Poissons Ratio (z) = 0.45568 0.60415
#
# Static dielectric constant tensor:
#      x y z
#    x 1.941360 -0.004660 0.052730 
#    y -0.004660 1.920030 0.045800 
#    z 0.052730 0.045800 2.056130 
# 
# From -- ./inp_files/463429.got.cif
#   From: 2010.05.17/outbox.cif.g08.bks.cpg/sg2_232_cif.got.tgz:463429.got - 2010.06.03 11:33:40.
