data_PCOD9045158
_publ_section_title
;
Structure prediction by ZEFSAII (Michael W. Deem and Ramdas Pophale) SiO2 
 PCOD9045158
Probable space group: P -1
;
_chemical_formula_sum "Si O2"
_cell_formula_units_Z 12
_cell_length_a 9.432167
_cell_length_b 10.509060
_cell_length_c 8.821524
_cell_angle_alpha 85.536447
_cell_angle_beta 93.428496
_cell_angle_gamma 154.023687
_cell_volume 381.729604
_symmetry_space_group_name_H-M "P -1"
_symmetry_group_IT_number 2
_symmetry_cell_setting 'triclinic'
loop_
_space_group_symop_operation_xyz
x,y,z
-x,-y,-z
loop_
_atom_site_type_symbol
_atom_site_label
_atom_site_fract_x
_atom_site_fract_y
_atom_site_fract_z
Si Si1 0.400568 0.571593 0.199868
Si Si2 0.103109 0.682576 0.121037
Si Si3 0.239307 0.085127 0.076313
Si Si4 0.705662 0.047609 0.302975
Si Si5 0.257515 0.604067 0.570212
Si Si6 0.871620 0.794083 0.385561
O O1 0.535565 0.557580 0.295622
O O2 0.434966 0.604159 0.017642
O O3 0.577155 0.916746 0.477772
O O4 0.076932 0.378041 0.258654
O O5 0.194405 0.898907 0.053563
O O6 0.569419 0.095069 0.788089
O O7 0.000000 0.500000 0.000000
O O8 0.308567 0.102130 0.759647
O O9 0.000000 0.000000 0.000000
O O10 0.817722 0.453330 0.250297
O O11 0.851241 0.987428 0.745775
O O12 0.000000 0.500000 0.500000
O O13 0.789731 0.583576 0.453758
O O14 0.000000 0.000000 0.500000
#
# Coordination Sequence:
#
# PCOD9045158 Si02
#       6
#     2   2   2   2   2   2
#     4  11  27  50  83 123 173 224 281 357 435 511
#     4  10  23  49  90 126 163 226 290 352 427 516
#     4   9  22  49  85 122 173 221 285 353 433 510
#     4  11  27  50  83 123 173 224 281 357 435 511
#     4   9  22  49  85 122 173 221 285 353 433 510
#     4  10  23  49  90 126 163 226 290 352 427 516
#
# _framework density 31.435866000000001
#
# number of rings (size 3 to 8) (size 9 to 14) (size 15 to 20)
#    0.000    2.000    0.000    0.000    4.667    6.667 
#    0.000   18.333    0.000    0.000    0.000    0.000 
#    0.000    0.000    0.000    0.000    0.000    0.000 
#
# Total GULP energy -67274.355098 kJ/mol
# GULP energy per Si atom -5606.196258 kJ/mol
# Density = 3.136432 g / cm^3
# Si number density = 31.435866 Si / 1000 Ang^3
#
#
#
# Elastic Constant Matrix: (Units=GPa)
#
#
# Indices 1 2 3 4 5 6 
#
# 1 226.0270 101.9784 116.6885 -38.9581 -17.7750 21.9224
# 2 101.9784 193.7333 88.8994 -33.9000 5.5237 -20.1353
# 3 116.6885 88.8994 283.7022 -48.8056 -14.5810 9.0008
# 4 -38.9581 -33.9000 -48.8056 49.8646 -7.5394 -3.6767
# 5 -17.7750 5.5237 -14.5810 -7.5394 85.1615 -9.2967
# 6 21.9224 -20.1353 9.0008 -3.6767 -9.2967 89.2998
#
#
#
# Elastic Compliance Matrix: (Units=1/GPa)
#
#
# Indices 1 2 3 4 5 6 
#
# 1 0.007251 -0.002984 -0.001531 0.002200 0.001415 -0.002061
# 2 -0.002984 0.007851 -0.000998 0.002096 -0.000833 0.002603
# 3 -0.001531 -0.000998 0.005069 0.003210 0.000882 -0.000136
# 4 0.002200 0.002096 0.003210 0.026929 0.003374 0.001069
# 5 0.001415 -0.000833 0.000882 0.003374 0.012632 0.000830
# 6 -0.002061 0.002603 -0.000136 0.001069 0.000830 0.012435
#
#
# Mechanical properties :
#
#
# Convention : Reuss Voigt Hill
#
# Bulk Modulus (GPa) = 109.33256 146.51056 127.92156
# Shear Modulus (GPa) = 57.97624 71.25826 64.61725
#
# Velocity S-wave (km/s) = 4.29916 4.76624 4.53871
# Velocity P-wave (km/s) = 7.71354 8.77478 8.26122
#
# Compressibility (1/GPa) = 0.00914641
#
# Stress axis : x y z
#
# Youngs Moduli (GPa) = 137.90750 127.36693 197.27346
#
# Poissons Ratio (x) = 0.38006 0.30199
# Poissons Ratio (y) = 0.41152 0.19684
# Poissons Ratio (z) = 0.21111 0.12709
#
# Static dielectric constant tensor:
#      x y z
#    x 2.501570 0.008870 0.067200 
#    y 0.008870 2.377020 0.089640 
#    z 0.067200 0.089640 2.610390 
# 
# From -- ./inp_files/232843.got.cif
#   From: 2010.05.17/outbox.cif.g08.bks.cpg/sg2_117_cif.got.tgz:232843.got - 2010.06.03 11:33:40.
