data_PCOD9045040
_publ_section_title
;
Structure prediction by ZEFSAII (Michael W. Deem and Ramdas Pophale) SiO2 
 PCOD9045040
Probable space group: P -1
;
_chemical_formula_sum "Si O2"
_cell_formula_units_Z 14
_cell_length_a 23.594516
_cell_length_b 8.809404
_cell_length_c 4.970424
_cell_angle_alpha 120.820697
_cell_angle_beta 115.505847
_cell_angle_gamma 40.392291
_cell_volume 573.417095
_symmetry_space_group_name_H-M "P -1"
_symmetry_group_IT_number 2
_symmetry_cell_setting 'triclinic'
loop_
_space_group_symop_operation_xyz
x,y,z
-x,-y,-z
loop_
_atom_site_type_symbol
_atom_site_label
_atom_site_fract_x
_atom_site_fract_y
_atom_site_fract_z
Si Si1 0.757314 0.363358 0.219420
Si Si2 0.753155 0.705940 0.843285
Si Si3 0.833287 0.902010 0.226532
Si Si4 0.400817 0.576630 0.070628
Si Si5 0.077599 0.391526 0.349749
Si Si6 0.595142 0.183821 0.209613
Si Si7 0.904746 0.260521 0.121941
O O1 0.728898 0.611109 0.486563
O O2 0.843135 0.232531 0.098230
O O3 0.793402 0.171925 0.362547
O O4 0.675363 0.410577 0.995440
O O5 0.775106 0.861099 0.937237
O O6 0.843211 0.460551 0.942387
O O7 0.671492 0.894401 0.044715
O O8 0.844231 0.828218 0.491175
O O9 0.915227 0.724104 0.024167
O O10 0.497607 0.305042 0.062660
O O11 0.398558 0.749277 0.420504
O O12 0.394665 0.668180 0.839993
O O13 0.081101 0.597444 0.525359
O O14 0.000000 0.500000 0.500000
O O15 0.000000 0.000000 0.000000
#
# Coordination Sequence:
#
# PCOD9045040 Si02
#       7
#     2   2   2   2   2   2   2
#     4  12  26  43  75 107 141 195 241 305 359 427
#     4  11  26  45  72 104 146 193 238 303 359 435
#     4  11  25  43  68  97 138 182 237 289 364 419
#     4  10  24  44  80 109 143 191 234 297 362 441
#     4  11  24  46  67  94 132 192 236 301 357 418
#     4  10  23  48  75 110 147 187 238 290 368 441
#     4  11  27  45  67 103 147 190 251 306 353 423
#
# _framework density 24.415037000000002
#
# number of rings (size 3 to 8) (size 9 to 14) (size 15 to 20)
#    0.000    1.143    2.857    1.286   12.000    2.286 
#    0.000    0.714    0.000    0.000    0.000    0.000 
#    0.000    0.000    0.000    0.000    0.000    0.000 
#
# Total GULP energy -78261.913047 kJ/mol
# GULP energy per Si atom -5590.136646 kJ/mol
# Density = 2.435947 g / cm^3
# Si number density = 24.415037 Si / 1000 Ang^3
#
#
#
# Elastic Constant Matrix: (Units=GPa)
#
#
# Indices 1 2 3 4 5 6 
#
# 1 140.2827 47.2211 17.5090 3.5387 11.1169 -19.6374
# 2 47.2211 95.9191 22.4049 7.2477 -9.6719 -21.3628
# 3 17.5090 22.4049 71.9574 9.9621 -7.7267 -1.1482
# 4 3.5387 7.2477 9.9621 28.7820 3.0599 -8.5541
# 5 11.1169 -9.6719 -7.7267 3.0599 45.1178 1.6789
# 6 -19.6374 -21.3628 -1.1482 -8.5541 1.6789 51.2440
#
#
#
# Elastic Compliance Matrix: (Units=1/GPa)
#
#
# Indices 1 2 3 4 5 6 
#
# 1 0.009286 -0.004223 -0.001502 0.001460 -0.003629 0.002127
# 2 -0.004223 0.014537 -0.002862 -0.001334 0.003607 0.004037
# 3 -0.001502 -0.002862 0.016237 -0.005769 0.003020 -0.002467
# 4 0.001460 -0.001334 -0.005769 0.039339 -0.004547 0.006590
# 5 -0.003629 0.003607 0.003020 -0.004547 0.024709 -0.001388
# 6 0.002127 0.004037 -0.002467 0.006590 -0.001388 0.023103
#
#
# Mechanical properties :
#
#
# Convention : Reuss Voigt Hill
#
# Bulk Modulus (GPa) = 43.69698 53.60324 48.65011
# Shear Modulus (GPa) = 32.89168 39.76371 36.32770
#
# Velocity S-wave (km/s) = 3.67439 4.04004 3.86155
# Velocity P-wave (km/s) = 5.99483 6.61553 6.31281
#
# Compressibility (1/GPa) = 0.02288488
#
# Stress axis : x y z
#
# Youngs Moduli (GPa) = 107.68899 68.79196 61.58584
#
# Poissons Ratio (x) = 0.29051 0.09253
# Poissons Ratio (y) = 0.45478 0.17627
# Poissons Ratio (z) = 0.16179 0.19689
#
# Static dielectric constant tensor:
#      x y z
#    x 2.019020 -0.084530 -0.038630 
#    y -0.084530 2.055420 -0.030230 
#    z -0.038630 -0.030230 1.949610 
# 
# From -- ./inp_files/107576.got.cif
#   From: 2010.05.17/outbox.cif.g08.bks.cpg/sg2_54_cif.got.tgz:107576.got - 2010.06.03 11:33:40.
