data_PCOD9045056
_publ_section_title
;
Structure prediction by ZEFSAII (Michael W. Deem and Ramdas Pophale) SiO2 
 PCOD9045056
Probable space group: P -1
;
_chemical_formula_sum "Si O2"
_cell_formula_units_Z 10
_cell_length_a 8.360552
_cell_length_b 9.739349
_cell_length_c 5.288963
_cell_angle_alpha 63.185939
_cell_angle_beta 97.983090
_cell_angle_gamma 97.017921
_cell_volume 379.764970
_symmetry_space_group_name_H-M "P -1"
_symmetry_group_IT_number 2
_symmetry_cell_setting 'triclinic'
loop_
_space_group_symop_operation_xyz
x,y,z
-x,-y,-z
loop_
_atom_site_type_symbol
_atom_site_label
_atom_site_fract_x
_atom_site_fract_y
_atom_site_fract_z
Si Si1 0.588347 0.138138 0.742679
Si Si2 0.121468 0.339592 0.774910
Si Si3 0.384311 0.350454 0.170618
Si Si4 0.796500 0.408538 0.770279
Si Si5 0.058924 0.915736 0.333977
O O1 0.661769 0.269225 0.844868
O O2 0.748128 0.098283 0.648050
O O3 0.530988 0.774382 0.540506
O O4 0.500000 0.000000 0.000000
O O5 0.178210 0.514386 0.565993
O O6 0.043781 0.245482 0.600445
O O7 0.967749 0.344183 0.923505
O O8 0.280160 0.273530 0.982453
O O9 0.255894 0.446322 0.212191
O O10 0.500000 0.500000 0.000000
O O11 0.000000 0.000000 0.500000
O O12 0.000000 0.000000 0.000000
#
# Coordination Sequence:
#
# PCOD9045056 Si02
#       5
#     2   2   2   2   2
#     4  11  27  51  81 124 169 210 276 355 422 483
#     4  10  24  47  81 112 152 216 276 328 397 512
#     4  12  25  45  82 119 159 212 272 341 414 496
#     4  10  23  48  77 114 158 207 273 327 414 489
#     4  11  29  54  80 119 167 227 280 339 424 509
#
# _framework density 26.332076000000001
#
# number of rings (size 3 to 8) (size 9 to 14) (size 15 to 20)
#    0.000    1.200    2.000    1.200    5.600    3.200 
#    0.000    7.000    0.000    0.000    0.000    0.000 
#    0.000    0.000    0.000    0.000    0.000    0.000 
#
# Total GULP energy -55962.212144 kJ/mol
# GULP energy per Si atom -5596.221214 kJ/mol
# Density = 2.627214 g / cm^3
# Si number density = 26.332076 Si / 1000 Ang^3
#
#
#
# Elastic Constant Matrix: (Units=GPa)
#
#
# Indices 1 2 3 4 5 6 
#
# 1 197.6270 95.3486 93.2950 6.6995 14.0234 19.7419
# 2 95.3486 173.1679 81.5208 -17.7089 -6.3997 14.0934
# 3 93.2950 81.5208 134.7497 -12.3024 12.1846 7.2093
# 4 6.6995 -17.7089 -12.3024 54.7557 -4.0691 -20.4803
# 5 14.0234 -6.3997 12.1846 -4.0691 50.7353 0.1304
# 6 19.7419 14.0934 7.2093 -20.4803 0.1304 49.9427
#
#
#
# Elastic Compliance Matrix: (Units=1/GPa)
#
#
# Indices 1 2 3 4 5 6 
#
# 1 0.009665 -0.003388 -0.004665 -0.005103 -0.002377 -0.004278
# 2 -0.003388 0.009733 -0.003572 0.003149 0.003273 0.000391
# 3 -0.004665 -0.003572 0.013160 0.003042 -0.002083 0.002205
# 4 -0.005103 0.003149 0.003042 0.024888 0.003045 0.010887
# 5 -0.002377 0.003273 -0.002083 0.003045 0.021521 0.001509
# 6 -0.004278 0.000391 0.002205 0.010887 0.001509 0.025746
#
#
# Mechanical properties :
#
#
# Convention : Reuss Voigt Hill
#
# Bulk Modulus (GPa) = 107.41639 116.20816 111.81227
# Shear Modulus (GPa) = 38.14917 46.77875 42.46396
#
# Velocity S-wave (km/s) = 3.81040 4.21942 4.02012
# Velocity P-wave (km/s) = 7.76147 8.24412 8.00644
#
# Compressibility (1/GPa) = 0.00930957
#
# Stress axis : x y z
#
# Youngs Moduli (GPa) = 103.46139 102.74539 75.98772
#
# Poissons Ratio (x) = 0.34805 0.35446
# Poissons Ratio (y) = 0.35048 0.27144
# Poissons Ratio (z) = 0.48261 0.36702
#
# Static dielectric constant tensor:
#      x y z
#    x 2.104260 -0.054240 -0.091100 
#    y -0.054240 2.200710 0.016120 
#    z -0.091100 0.016120 2.318000 
# 
# From -- ./inp_files/15809.got.cif
#   From: 2010.05.17/outbox.cif.g08.bks.cpg/sg2_8_cif.got.tgz:15809.got - 2010.06.03 11:33:40.
