data_PCOD9045486
_publ_section_title
;
Structure prediction by ZEFSAII (Michael W. Deem and Ramdas Pophale) SiO2 
 PCOD9045486
Probable space group: P -1
;
_chemical_formula_sum "Si O2"
_cell_formula_units_Z 16
_cell_length_a 5.235763
_cell_length_b 8.352013
_cell_length_c 17.953525
_cell_angle_alpha 115.729972
_cell_angle_beta 58.470651
_cell_angle_gamma 113.097537
_cell_volume 588.710856
_symmetry_space_group_name_H-M "P -1"
_symmetry_group_IT_number 2
_symmetry_cell_setting 'triclinic'
loop_
_space_group_symop_operation_xyz
x,y,z
-x,-y,-z
loop_
_atom_site_type_symbol
_atom_site_label
_atom_site_fract_x
_atom_site_fract_y
_atom_site_fract_z
Si Si1 0.705399 0.371193 0.480409
Si Si2 0.139391 0.752009 0.183330
Si Si3 0.688569 0.590399 0.091359
Si Si4 0.177025 0.267733 0.058546
Si Si5 0.404358 0.917528 0.684431
Si Si6 0.451474 0.664970 0.758681
Si Si7 0.181878 0.051399 0.137210
Si Si8 0.435623 0.240802 0.646513
O O1 0.500000 0.500000 0.500000
O O2 0.763532 0.233807 0.379628
O O3 0.525198 0.244567 0.547714
O O4 0.000000 0.500000 0.500000
O O5 0.915610 0.623270 0.132745
O O6 0.924604 0.817109 0.289921
O O7 0.387943 0.667527 0.169401
O O8 0.321376 0.908507 0.133395
O O9 0.514966 0.393650 0.049230
O O10 0.860651 0.696676 0.015482
O O11 0.192547 0.073976 0.052539
O O12 0.895041 0.319788 0.160246
O O13 0.542533 0.792553 0.697198
O O14 0.164766 0.992188 0.788262
O O15 0.568642 0.093099 0.645423
O O16 0.659718 0.755836 0.812890
O O17 0.497657 0.459783 0.698596
#
# Coordination Sequence:
#
# PCOD9045486 Si02
#       8
#     2   2   2   2   2   2   2   2
#     4  12  26  48  76 110 146 186 233 292 356 425
#     4  11  26  43  69 100 139 182 242 290 356 426
#     4  11  25  44  66 102 135 184 243 294 355 428
#     4  10  24  40  68  94 139 184 238 298 355 419
#     4  10  24  44  68 110 139 188 237 292 348 432
#     4  11  21  45  70 100 143 186 245 289 365 416
#     4  10  24  42  67  98 141 185 235 296 352 425
#     4  11  23  46  75 101 143 190 233 293 354 423
#
# _framework density 27.17803
#
# number of rings (size 3 to 8) (size 9 to 14) (size 15 to 20)
#    0.000    1.250    2.500    1.875    7.000    4.000 
#    2.250    1.250    0.000    0.000    0.000    0.000 
#    0.000    0.000    0.000    0.000    0.000    0.000 
#
# Total GULP energy -89468.759918 kJ/mol
# GULP energy per Si atom -5591.797495 kJ/mol
# Density = 2.711617 g / cm^3
# Si number density = 27.178030 Si / 1000 Ang^3
#
#
#
# Elastic Constant Matrix: (Units=GPa)
#
#
# Indices 1 2 3 4 5 6 
#
# 1 143.0678 46.4312 39.9602 -3.8490 25.3266 2.5337
# 2 46.4312 147.9254 25.9851 -29.1356 19.4044 -26.5201
# 3 39.9602 25.9851 129.9520 -36.8787 16.7055 -0.0139
# 4 -3.8490 -29.1356 -36.8787 57.8159 -11.0761 20.8144
# 5 25.3266 19.4044 16.7055 -11.0761 39.6976 -2.6969
# 6 2.5337 -26.5201 -0.0139 20.8144 -2.6969 48.2695
#
#
#
# Elastic Compliance Matrix: (Units=1/GPa)
#
#
# Indices 1 2 3 4 5 6 
#
# 1 0.009277 -0.002610 -0.002570 -0.002844 -0.004419 -0.000942
# 2 -0.002610 0.009023 -0.000032 0.002629 -0.001736 0.003864
# 3 -0.002570 -0.000032 0.010796 0.007683 -0.000965 -0.003246
# 4 -0.002844 0.002629 0.007683 0.027827 0.004370 -0.010159
# 5 -0.004419 -0.001736 -0.000965 0.004370 0.030422 -0.000907
# 6 -0.000942 0.003864 -0.003246 -0.010159 -0.000907 0.027218
#
#
# Mechanical properties :
#
#
# Convention : Reuss Voigt Hill
#
# Bulk Modulus (GPa) = 53.55518 71.74426 62.64972
# Shear Modulus (GPa) = 38.10641 49.72786 43.91713
#
# Velocity S-wave (km/s) = 3.74853 4.28215 4.02419
# Velocity P-wave (km/s) = 6.20350 7.13472 6.68534
#
# Compressibility (1/GPa) = 0.01867233
#
# Stress axis : x y z
#
# Youngs Moduli (GPa) = 107.79396 110.82458 92.62830
#
# Poissons Ratio (x) = 0.28924 0.23806
# Poissons Ratio (y) = 0.28133 0.00296
# Poissons Ratio (z) = 0.27703 0.00354
#
# Static dielectric constant tensor:
#      x y z
#    x 2.112780 -0.059780 -0.036950 
#    y -0.059780 2.279790 0.014560 
#    z -0.036950 0.014560 2.114990 
# 
# From -- ./inp_files/143389.got.cif
#   From: 2010.05.17/outbox.cif.g08.bks.cpg/sg2_72_cif.got.tgz:143389.got - 2010.06.03 11:33:40.
