data_PCOD9045852
_publ_section_title
;
Structure prediction by ZEFSAII (Michael W. Deem and Ramdas Pophale) SiO2 
 PCOD9045852
Probable space group: P -1
;
_chemical_formula_sum "Si O2"
_cell_formula_units_Z 13
_cell_length_a 4.904112
_cell_length_b 22.057135
_cell_length_c 14.033814
_cell_angle_alpha 23.714602
_cell_angle_beta 94.779354
_cell_angle_gamma 83.280514
_cell_volume 532.972965
_symmetry_space_group_name_H-M "P -1"
_symmetry_group_IT_number 2
_symmetry_cell_setting 'triclinic'
loop_
_space_group_symop_operation_xyz
x,y,z
-x,-y,-z
loop_
_atom_site_type_symbol
_atom_site_label
_atom_site_fract_x
_atom_site_fract_y
_atom_site_fract_z
Si Si1 0.433091 0.174761 0.349428
Si Si2 0.177555 0.742598 0.894174
Si Si3 0.661037 0.103805 0.146162
Si Si4 0.000000 0.500000 0.000000
Si Si5 0.668568 0.828572 0.149029
Si Si6 0.377031 0.368299 0.393917
Si Si7 0.987947 0.046235 0.801245
O O1 0.285072 0.331578 0.194503
O O2 0.171208 0.216857 0.199125
O O3 0.728777 0.161081 0.322322
O O4 0.037969 0.035778 0.704373
O O5 0.247357 0.792187 0.927408
O O6 0.526928 0.994350 0.353393
O O7 0.390647 0.540666 0.171062
O O8 0.421106 0.215813 0.893991
O O9 0.146658 0.412770 0.233721
O O10 0.731661 0.690302 0.430370
O O11 0.920842 0.891291 0.050879
O O12 0.331037 0.997037 0.919043
O O13 0.710751 0.219148 0.583062
#
# Coordination Sequence:
#
# PCOD9045852 Si02
#       7
#     2   2   2   1   2   2   2
#     4  11  25  42  68  96 139 177 228 277 336 403
#     4  11  27  41  67 100 140 179 223 277 343 401
#     4  10  25  43  70  99 136 183 227 276 336 406
#     4  10  26  42  72 102 136 174 226 282 344 390
#     4  10  24  42  75 101 134 180 229 283 337 404
#     4  11  24  47  69 104 140 175 231 284 343 404
#     4  10  24  41  74  99 137 178 229 279 339 400
#
# _framework density 24.391479
#
# number of rings (size 3 to 8) (size 9 to 14) (size 15 to 20)
#    0.923    0.615    0.000    2.769    8.615    5.538 
#    0.000    0.769    0.000    0.000    0.000    0.000 
#    0.000    0.000    0.000    0.000    0.000    0.000 
#
# Total GULP energy -72560.777391 kJ/mol
# GULP energy per Si atom -5581.598261 kJ/mol
# Density = 2.433596 g / cm^3
# Si number density = 24.391479 Si / 1000 Ang^3
#
#
#
# Elastic Constant Matrix: (Units=GPa)
#
#
# Indices 1 2 3 4 5 6 
#
# 1 85.9729 21.4718 12.1444 0.9709 -9.3183 -4.5166
# 2 21.4718 165.6157 62.9385 26.5138 -2.7812 -10.5978
# 3 12.1444 62.9385 98.5662 29.5386 -6.7660 -1.0678
# 4 0.9709 26.5138 29.5386 35.7227 6.7025 3.8298
# 5 -9.3183 -2.7812 -6.7660 6.7025 23.6229 8.1780
# 6 -4.5166 -10.5978 -1.0678 3.8298 8.1780 31.5222
#
#
#
# Elastic Compliance Matrix: (Units=1/GPa)
#
#
# Indices 1 2 3 4 5 6 
#
# 1 0.012541 -0.001429 -0.000358 0.000143 0.004604 0.000093
# 2 -0.001429 0.008556 -0.004531 -0.002680 -0.001185 0.003151
# 3 -0.000358 -0.004531 0.017345 -0.012363 0.008375 -0.001658
# 4 0.000143 -0.002680 -0.012363 0.043332 -0.015186 -0.002624
# 5 0.004604 -0.001185 0.008375 -0.015186 0.054811 -0.011830
# 6 0.000093 0.003151 -0.001658 -0.002624 -0.011830 0.036128
#
#
# Mechanical properties :
#
#
# Convention : Reuss Voigt Hill
#
# Bulk Modulus (GPa) = 38.75261 60.36269 49.55765
# Shear Modulus (GPa) = 25.77928 35.08022 30.42975
#
# Velocity S-wave (km/s) = 3.25452 3.79650 3.53591
# Velocity P-wave (km/s) = 5.48131 6.63468 6.08539
#
# Compressibility (1/GPa) = 0.02580472
#
# Stress axis : x y z
#
# Youngs Moduli (GPa) = 79.73581 116.87285 57.65366
#
# Poissons Ratio (x) = 0.16706 0.02065
# Poissons Ratio (y) = 0.11398 0.26125
# Poissons Ratio (z) = 0.02856 0.52959
#
# Static dielectric constant tensor:
#      x y z
#    x 1.935780 0.012590 0.019000 
#    y 0.012590 1.987840 0.014150 
#    z 0.019000 0.014150 1.929810 
# 
# From -- ./inp_files/91436.got.cif
#   From: 2010.05.17/outbox.cif.g08.bks.cpg/sg2_46_cif.got.tgz:91436.got - 2010.06.03 11:33:40.
