data_PCOD9045305
_publ_section_title
;
Structure prediction by ZEFSAII (Michael W. Deem and Ramdas Pophale) SiO2 
 PCOD9045305
Probable space group: P -1
;
_chemical_formula_sum "Si O2"
_cell_formula_units_Z 14
_cell_length_a 28.601636
_cell_length_b 5.276361
_cell_length_c 5.208458
_cell_angle_alpha 59.861422
_cell_angle_beta 112.143395
_cell_angle_gamma 107.795651
_cell_volume 622.945586
_symmetry_space_group_name_H-M "P -1"
_symmetry_group_IT_number 2
_symmetry_cell_setting 'triclinic'
loop_
_space_group_symop_operation_xyz
x,y,z
-x,-y,-z
loop_
_atom_site_type_symbol
_atom_site_label
_atom_site_fract_x
_atom_site_fract_y
_atom_site_fract_z
Si Si1 0.979748 0.314587 0.801982
Si Si2 0.270922 0.200805 0.227345
Si Si3 0.358776 0.252093 0.064045
Si Si4 0.821392 0.871000 0.285559
Si Si5 0.140651 0.760675 0.327817
Si Si6 0.300727 0.659471 0.405096
Si Si7 0.479861 0.314632 0.302396
O O1 0.000000 0.500000 0.500000
O O2 0.918606 0.263991 0.709770
O O3 0.000000 0.500000 0.000000
O O4 0.000000 0.000000 0.000000
O O5 0.330165 0.327720 0.226078
O O6 0.236276 0.199516 0.905786
O O7 0.258011 0.428833 0.294859
O O8 0.274269 0.856636 0.457060
O O9 0.341204 0.479032 0.710653
O O10 0.418515 0.265895 0.198863
O O11 0.329703 0.915991 0.148768
O O12 0.828631 0.058536 0.467007
O O13 0.844395 0.565844 0.507731
O O14 0.848701 0.063484 0.006857
O O15 0.500000 0.500000 0.500000
O O16 0.500000 0.000000 0.500000
O O17 0.500000 0.500000 0.000000
#
# Coordination Sequence:
#
# PCOD9045305 Si02
#       7
#     2   2   2   2   2   2   2
#     4  12  24  44  72  99 135 178 233 278 334 396
#     4  10  26  40  68  93 129 175 218 267 325 396
#     4  10  26  42  70  92 133 165 226 263 329 392
#     4  12  26  43  69  96 144 173 226 270 345 396
#     4  12  26  45  67 103 137 181 220 285 334 396
#     4  10  24  39  67  92 128 162 226 261 326 376
#     4  12  28  47  71 101 135 175 219 278 341 396
#
# _framework density 22.473870999999999
#
# number of rings (size 3 to 8) (size 9 to 14) (size 15 to 20)
#    0.857    0.000    0.000    6.000   10.000    0.000 
#    0.000    0.000    0.000    0.000    0.000    0.000 
#    0.000    0.000    0.000    0.000    0.000    0.000 
#
# Total GULP energy -78266.622849 kJ/mol
# GULP energy per Si atom -5590.473061 kJ/mol
# Density = 2.242272 g / cm^3
# Si number density = 22.473871 Si / 1000 Ang^3
#
#
#
# Elastic Constant Matrix: (Units=GPa)
#
#
# Indices 1 2 3 4 5 6 
#
# 1 112.7250 37.5243 40.6363 -15.8893 10.8573 15.9680
# 2 37.5243 175.6944 74.9856 -6.6590 5.4226 -28.7067
# 3 40.6363 74.9856 131.3143 -30.0447 2.5902 -14.6798
# 4 -15.8893 -6.6590 -30.0447 51.5982 -5.5582 0.4660
# 5 10.8573 5.4226 2.5902 -5.5582 52.0389 -3.1538
# 6 15.9680 -28.7067 -14.6798 0.4660 -3.1538 39.7566
#
#
#
# Elastic Compliance Matrix: (Units=1/GPa)
#
#
# Indices 1 2 3 4 5 6 
#
# 1 0.012385 -0.002634 -0.002813 0.001642 -0.002487 -0.008131
# 2 -0.002634 0.008894 -0.004071 -0.002092 -0.000034 0.005998
# 3 -0.002813 -0.004071 0.012468 0.005972 0.001199 0.002819
# 4 0.001642 -0.002092 0.005972 0.023317 0.002064 -0.000074
# 5 -0.002487 -0.000034 0.001199 0.002064 0.020081 0.002986
# 6 -0.008131 0.005998 0.002819 -0.000074 0.002986 0.034029
#
#
# Mechanical properties :
#
#
# Convention : Reuss Voigt Hill
#
# Bulk Modulus (GPa) = 67.97501 80.66956 74.32229
# Shear Modulus (GPa) = 37.00642 46.45124 41.72883
#
# Velocity S-wave (km/s) = 4.06229 4.55125 4.31370
# Velocity P-wave (km/s) = 7.23290 7.97441 7.61269
#
# Compressibility (1/GPa) = 0.01471129
#
# Stress axis : x y z
#
# Youngs Moduli (GPa) = 80.74418 112.44116 80.20414
#
# Poissons Ratio (x) = 0.29620 0.22559
# Poissons Ratio (y) = 0.21271 0.32648
# Poissons Ratio (z) = 0.22711 0.45771
#
# Static dielectric constant tensor:
#      x y z
#    x 1.873490 -0.017250 -0.037690 
#    y -0.017250 1.876420 -0.003900 
#    z -0.037690 -0.003900 1.806260 
# 
# From -- ./inp_files/127872.got.cif
#   From: 2010.05.17/outbox.cif.g08.bks.cpg/sg2_64_cif.got.tgz:127872.got - 2010.06.03 11:33:40.
