data_PCOD9045883
_publ_section_title
;
Structure prediction by ZEFSAII (Michael W. Deem and Ramdas Pophale) SiO2 
 PCOD9045883
Probable space group: P -1
;
_chemical_formula_sum "Si O2"
_cell_formula_units_Z 14
_cell_length_a 13.892842
_cell_length_b 13.517807
_cell_length_c 13.699605
_cell_angle_alpha 144.714233
_cell_angle_beta 31.501093
_cell_angle_gamma 146.479951
_cell_volume 691.025294
_symmetry_space_group_name_H-M "P -1"
_symmetry_group_IT_number 2
_symmetry_cell_setting 'triclinic'
loop_
_space_group_symop_operation_xyz
x,y,z
-x,-y,-z
loop_
_atom_site_type_symbol
_atom_site_label
_atom_site_fract_x
_atom_site_fract_y
_atom_site_fract_z
Si Si1 0.144137 0.723334 0.562362
Si Si2 0.274353 0.923101 0.805548
Si Si3 0.572919 0.712595 0.147627
Si Si4 0.784421 0.684495 0.310574
Si Si5 0.454035 0.263994 0.263569
Si Si6 0.761750 0.123907 0.976988
Si Si7 0.286613 0.085869 0.614384
O O1 0.130015 0.790328 0.737605
O O2 0.373135 0.745319 0.367217
O O3 0.000000 0.500000 0.500000
O O4 0.132487 0.871457 0.613229
O O5 0.493080 0.913023 0.598588
O O6 0.307373 0.134237 0.916883
O O7 0.198978 0.867132 0.934660
O O8 0.688270 0.775489 0.202724
O O9 0.500000 0.500000 0.000000
O O10 0.621156 0.470529 0.244459
O O11 0.703557 0.706110 0.504195
O O12 0.776594 0.838881 0.366150
O O13 0.024234 0.735130 0.146872
O O14 0.328977 0.095631 0.159329
O O15 0.588582 0.190233 0.153600
#
# Coordination Sequence:
#
# PCOD9045883 Si02
#       7
#     2   2   2   2   2   2   2
#     4   9  19  37  56  84 120 158 195 235 300 357
#     4   9  19  38  56  81 122 158 190 246 297 353
#     4   9  19  33  58  80 118 155 186 240 297 348
#     4  11  22  41  64  90 118 161 205 245 311 360
#     4  10  24  42  62  86 128 154 200 266 298 354
#     4  11  22  41  64  90 118 161 205 245 311 360
#     4   9  19  38  56  81 122 158 190 246 297 353
#
# _framework density 20.259751000000001
#
# number of rings (size 3 to 8) (size 9 to 14) (size 15 to 20)
#    0.000    2.286    1.429    2.571    2.000    2.286 
#    5.143    4.286    0.000    0.000    0.000    0.000 
#    0.000    0.000    0.000    0.000    0.000    0.000 
#
# Total GULP energy -78132.887766 kJ/mol
# GULP energy per Si atom -5580.920555 kJ/mol
# Density = 2.021364 g / cm^3
# Si number density = 20.259751 Si / 1000 Ang^3
#
#
#
# Elastic Constant Matrix: (Units=GPa)
#
#
# Indices 1 2 3 4 5 6 
#
# 1 36.7916 23.7936 -1.5095 3.1649 11.8365 -13.0748
# 2 23.7936 128.0891 38.0229 13.9500 22.1194 4.1261
# 3 -1.5095 38.0229 74.6592 -4.6173 12.8480 2.6257
# 4 3.1649 13.9500 -4.6173 42.3615 4.6739 -4.1054
# 5 11.8365 22.1194 12.8480 4.6739 15.4328 -3.4281
# 6 -13.0748 4.1261 2.6257 -4.1054 -3.4281 19.6704
#
#
#
# Elastic Compliance Matrix: (Units=1/GPa)
#
#
# Indices 1 2 3 4 5 6 
#
# 1 0.055754 -0.009864 0.011007 0.007114 -0.032505 0.033479
# 2 -0.009864 0.013581 -0.005566 -0.004491 -0.008362 -0.011057
# 3 0.011007 -0.005566 0.019689 0.005484 -0.017645 0.003925
# 4 0.007114 -0.004491 0.005484 0.027096 -0.009817 0.008883
# 5 -0.032505 -0.008362 -0.017645 -0.009817 0.119666 0.001310
# 6 0.033479 -0.011057 0.003925 0.008883 0.001310 0.076969
#
#
# Mechanical properties :
#
#
# Convention : Reuss Voigt Hill
#
# Bulk Modulus (GPa) = 12.47219 40.01711 26.24465
# Shear Modulus (GPa) = 14.35431 27.44178 20.89805
#
# Velocity S-wave (km/s) = 2.66468 3.68434 3.21519
# Velocity P-wave (km/s) = 3.95435 6.15582 5.17354
#
# Compressibility (1/GPa) = 0.08017835
#
# Stress axis : x y z
#
# Youngs Moduli (GPa) = 17.93581 73.63240 50.78988
#
# Poissons Ratio (x) = 0.72633 -0.55906
# Poissons Ratio (y) = 0.17692 0.28269
# Poissons Ratio (z) = -0.19742 0.40983
#
# Static dielectric constant tensor:
#      x y z
#    x 1.710350 0.052460 -0.026480 
#    y 0.052460 1.819900 -0.003150 
#    z -0.026480 -0.003150 1.737840 
# 
# From -- ./inp_files/171711.got.cif
#   From: 2010.05.17/outbox.cif.g08.bks.cpg/sg2_86_cif.got.tgz:171711.got - 2010.06.03 11:33:40.
