data_PCOD9045227
_publ_section_title
;
Structure prediction by ZEFSAII (Michael W. Deem and Ramdas Pophale) SiO2 
 PCOD9045227
Probable space group: P -1
;
_chemical_formula_sum "Si O2"
_cell_formula_units_Z 16
_cell_length_a 8.890375
_cell_length_b 10.166539
_cell_length_c 9.723324
_cell_angle_alpha 84.134638
_cell_angle_beta 53.948679
_cell_angle_gamma 78.789172
_cell_volume 696.889615
_symmetry_space_group_name_H-M "P -1"
_symmetry_group_IT_number 2
_symmetry_cell_setting 'triclinic'
loop_
_space_group_symop_operation_xyz
x,y,z
-x,-y,-z
loop_
_atom_site_type_symbol
_atom_site_label
_atom_site_fract_x
_atom_site_fract_y
_atom_site_fract_z
Si Si1 0.725377 0.989439 0.244142
Si Si2 0.953999 0.657190 0.284513
Si Si3 0.213996 0.957564 0.338362
Si Si4 0.655135 0.507380 0.800632
Si Si5 0.874146 0.110340 0.893090
Si Si6 0.837558 0.750492 0.637445
Si Si7 0.460139 0.808646 0.467077
Si Si8 0.757106 0.411935 0.457530
O O1 0.664617 0.842352 0.308477
O O2 0.924953 0.988800 0.212541
O O3 0.579918 0.103436 0.384023
O O4 0.754137 0.040024 0.071057
O O5 0.876402 0.744423 0.452412
O O6 0.813357 0.548552 0.346873
O O7 0.141164 0.562545 0.248727
O O8 0.051334 0.752645 0.119119
O O9 0.254021 0.105324 0.272783
O O10 0.222517 0.872843 0.204262
O O11 0.336186 0.881294 0.400479
O O12 0.000000 0.000000 0.500000
O O13 0.680583 0.659447 0.753507
O O14 0.647728 0.448684 0.657198
O O15 0.500000 0.500000 0.000000
O O16 0.040551 0.685264 0.604557
O O17 0.380771 0.670314 0.542202
#
# Coordination Sequence:
#
# PCOD9045227 Si02
#       8
#     2   2   2   2   2   2   2   2
#     4  10  24  38  56  80 120 152 172 234 286 334
#     4   9  17  32  54  75 105 147 184 219 268 335
#     4  12  18  31  63  89 106 141 191 232 257 331
#     4   9  18  29  47  81 117 137 169 236 288 310
#     4  11  21  39  58  84 113 147 190 223 283 327
#     4   9  16  29  50  80 110 143 177 218 279 324
#     4  11  21  39  58  84 113 147 190 223 283 327
#     4   9  17  32  54  75 105 147 184 219 268 335
#
# _framework density 22.959160000000001
#
# number of rings (size 3 to 8) (size 9 to 14) (size 15 to 20)
#    0.000    2.000    3.750    2.250    0.000    2.500 
#    0.000    3.750    0.000    0.000    0.000    0.000 
#    0.000    0.000    0.000    0.000    0.000    0.000 
#
# Total GULP energy -89196.834162 kJ/mol
# GULP energy per Si atom -5574.802135 kJ/mol
# Density = 2.290690 g / cm^3
# Si number density = 22.959160 Si / 1000 Ang^3
#
#
#
# Elastic Constant Matrix: (Units=GPa)
#
#
# Indices 1 2 3 4 5 6 
#
# 1 58.5082 -5.4220 10.4461 3.3107 -3.4252 10.9537
# 2 -5.4220 115.6681 21.5999 -20.1834 -11.2843 39.1770
# 3 10.4461 21.5999 88.9683 -24.7469 -14.2002 20.1280
# 4 3.3107 -20.1834 -24.7469 25.7564 1.7713 -5.3513
# 5 -3.4252 -11.2843 -14.2002 1.7713 17.5489 -11.2235
# 6 10.9537 39.1770 20.1280 -5.3513 -11.2235 36.1844
#
#
#
# Elastic Compliance Matrix: (Units=1/GPa)
#
#
# Indices 1 2 3 4 5 6 
#
# 1 0.019866 0.003995 -0.002252 -0.003578 -0.001453 -0.010066
# 2 0.003995 0.016894 0.003162 0.011702 0.000662 -0.019323
# 3 -0.002252 0.003162 0.019451 0.019182 0.010651 -0.007421
# 4 -0.003578 0.011702 0.019182 0.064192 0.009613 -0.009782
# 5 -0.001453 0.000662 0.010651 0.009613 0.076990 0.019101
# 6 -0.010066 -0.019323 -0.007421 -0.009782 0.019101 0.060211
#
#
# Mechanical properties :
#
#
# Convention : Reuss Voigt Hill
#
# Bulk Modulus (GPa) = 15.14698 35.15473 25.15086
# Shear Modulus (GPa) = 18.53221 31.66597 25.09909
#
# Velocity S-wave (km/s) = 2.84418 3.71783 3.30995
# Velocity P-wave (km/s) = 4.17103 5.81161 5.05827
#
# Compressibility (1/GPa) = 0.06601976
#
# Stress axis : x y z
#
# Youngs Moduli (GPa) = 50.33717 59.19409 51.41105
#
# Poissons Ratio (x) = -0.23649 0.11580
# Poissons Ratio (y) = -0.20111 -0.16255
# Poissons Ratio (z) = 0.11338 -0.18716
#
# Static dielectric constant tensor:
#      x y z
#    x 1.921360 0.005080 -0.025710 
#    y 0.005080 2.050510 -0.088920 
#    z -0.025710 -0.088920 1.868710 
# 
# From -- ./inp_files/187373.got.cif
#   From: 2010.05.17/outbox.cif.g08.bks.cpg/sg2_94_cif.got.tgz:187373.got - 2010.06.03 11:33:40.
