data_PCOD9045345
_publ_section_title
;
Structure prediction by ZEFSAII (Michael W. Deem and Ramdas Pophale) SiO2 
 PCOD9045345
Probable space group: P -1
;
_chemical_formula_sum "Si O2"
_cell_formula_units_Z 16
_cell_length_a 9.633101
_cell_length_b 12.083098
_cell_length_c 7.261806
_cell_angle_alpha 92.845721
_cell_angle_beta 93.400581
_cell_angle_gamma 123.125651
_cell_volume 703.222314
_symmetry_space_group_name_H-M "P -1"
_symmetry_group_IT_number 2
_symmetry_cell_setting 'triclinic'
loop_
_space_group_symop_operation_xyz
x,y,z
-x,-y,-z
loop_
_atom_site_type_symbol
_atom_site_label
_atom_site_fract_x
_atom_site_fract_y
_atom_site_fract_z
Si Si1 0.760794 0.887933 0.379890
Si Si2 0.611432 0.381160 0.331636
Si Si3 0.791453 0.508508 0.999847
Si Si4 0.251814 0.284146 0.136503
Si Si5 0.908834 0.249157 0.801196
Si Si6 0.903888 0.996061 0.786195
Si Si7 0.388132 0.735947 0.304336
Si Si8 0.163077 0.324178 0.507502
O O1 0.788573 0.954416 0.588689
O O2 0.581763 0.832574 0.273951
O O3 0.769962 0.760854 0.410531
O O4 0.925977 0.980586 0.282011
O O5 0.723660 0.412344 0.163071
O O6 0.430842 0.336250 0.241848
O O7 0.609320 0.286104 0.478144
O O8 0.696296 0.523076 0.446555
O O9 0.987806 0.618516 0.053798
O O10 0.729018 0.611022 0.004326
O O11 0.707530 0.408883 0.814194
O O12 0.174674 0.128103 0.092235
O O13 0.139114 0.291463 0.287663
O O14 0.722855 0.208292 0.753674
O O15 0.005152 0.289657 0.614807
O O16 0.920685 0.129178 0.866294
#
# Coordination Sequence:
#
# PCOD9045345 Si02
#       8
#     2   2   2   2   2   2   2   2
#     4   9  18  35  66  94 116 166 212 263 301 371
#     4  11  21  37  63 100 122 164 210 262 318 370
#     4  11  25  39  62  98 128 163 213 262 313 377
#     4  11  19  38  66  95 125 163 208 272 312 362
#     4  10  24  40  59  96 130 171 207 252 312 389
#     4   9  19  38  63  95 126 159 220 253 313 377
#     4  12  22  42  67  91 132 167 206 261 320 367
#     4   9  17  35  60  88 124 154 209 253 311 359
#
# _framework density 22.752407000000002
#
# number of rings (size 3 to 8) (size 9 to 14) (size 15 to 20)
#    0.000    1.750    3.750    2.625    0.000    5.000 
#    2.250    0.000    0.000    1.500    0.000    0.000 
#    0.000    0.000    0.000    0.000    0.000    0.000 
#
# Total GULP energy -89356.103669 kJ/mol
# GULP energy per Si atom -5584.756479 kJ/mol
# Density = 2.270062 g / cm^3
# Si number density = 22.752407 Si / 1000 Ang^3
#
#
#
# Elastic Constant Matrix: (Units=GPa)
#
#
# Indices 1 2 3 4 5 6 
#
# 1 95.2109 30.9974 14.7453 11.7467 20.3340 19.5039
# 2 30.9974 90.1422 6.7520 2.3713 1.5113 8.2786
# 3 14.7453 6.7520 83.1384 9.5473 7.8044 2.1292
# 4 11.7467 2.3713 9.5473 24.3980 -0.2825 2.3302
# 5 20.3340 1.5113 7.8044 -0.2825 24.9405 7.7227
# 6 19.5039 8.2786 2.1292 2.3302 7.7227 28.1391
#
#
#
# Elastic Compliance Matrix: (Units=1/GPa)
#
#
# Indices 1 2 3 4 5 6 
#
# 1 0.016709 -0.004738 -0.000570 -0.006871 -0.011224 -0.006495
# 2 -0.004738 0.012819 -0.000690 0.001503 0.003817 -0.001607
# 3 -0.000570 -0.000690 0.013098 -0.004937 -0.003993 0.001111
# 4 -0.006871 0.001503 -0.004937 0.046301 0.007993 -0.001334
# 5 -0.011224 0.003817 -0.003993 0.007993 0.052901 -0.008221
# 6 -0.006495 -0.001607 0.001111 -0.001334 -0.008221 0.042795
#
#
# Mechanical properties :
#
#
# Convention : Reuss Voigt Hill
#
# Bulk Modulus (GPa) = 32.64745 41.49787 37.07266
# Shear Modulus (GPa) = 24.17464 29.89531 27.03497
#
# Velocity S-wave (km/s) = 3.26315 3.62876 3.45080
# Velocity P-wave (km/s) = 5.34581 5.98629 5.67510
#
# Compressibility (1/GPa) = 0.03063027
#
# Stress axis : x y z
#
# Youngs Moduli (GPa) = 59.84809 78.01210 76.34470
#
# Poissons Ratio (x) = 0.36959 0.04349
# Poissons Ratio (y) = 0.28354 0.05272
# Poissons Ratio (z) = 0.03410 0.05387
#
# Static dielectric constant tensor:
#      x y z
#    x 1.842530 0.026600 -0.012620 
#    y 0.026600 1.862220 0.017440 
#    z -0.012620 0.017440 1.920460 
# 
# From -- ./inp_files/179263.got.cif
#   From: 2010.05.17/outbox.cif.g08.bks.cpg/sg2_90_cif.got.tgz:179263.got - 2010.06.03 11:33:40.
