data_PCOD9045310
_publ_section_title
;
Structure prediction by ZEFSAII (Michael W. Deem and Ramdas Pophale) SiO2 
 PCOD9045310
Probable space group: P -1
;
_chemical_formula_sum "Si O2"
_cell_formula_units_Z 14
_cell_length_a 18.001806
_cell_length_b 8.117241
_cell_length_c 5.141815
_cell_angle_alpha 118.921843
_cell_angle_beta 124.484808
_cell_angle_gamma 73.757823
_cell_volume 542.058911
_symmetry_space_group_name_H-M "P -1"
_symmetry_group_IT_number 2
_symmetry_cell_setting 'triclinic'
loop_
_space_group_symop_operation_xyz
x,y,z
-x,-y,-z
loop_
_atom_site_type_symbol
_atom_site_label
_atom_site_fract_x
_atom_site_fract_y
_atom_site_fract_z
Si Si1 0.060571 0.464590 0.344535
Si Si2 0.181552 0.157547 0.150752
Si Si3 0.569694 0.725172 0.447161
Si Si4 0.366593 0.063750 0.749096
Si Si5 0.803621 0.231914 0.333129
Si Si6 0.626756 0.316111 0.778802
Si Si7 0.268679 0.482855 0.251709
O O1 0.104744 0.258620 0.244765
O O2 0.141516 0.613761 0.602146
O O3 0.000000 0.500000 0.500000
O O4 0.000000 0.500000 0.000000
O O5 0.265781 0.112245 0.476721
O O6 0.209491 0.308721 0.098483
O O7 0.154990 0.969797 0.800435
O O8 0.569335 0.844703 0.274773
O O9 0.473150 0.655299 0.293918
O O10 0.641572 0.555584 0.425400
O O11 0.610627 0.852775 0.860236
O O12 0.381377 0.840072 0.586958
O O13 0.791118 0.332029 0.663345
O O14 0.699373 0.216565 0.032071
O O15 0.681539 0.491101 0.902794
#
# Coordination Sequence:
#
# PCOD9045310 Si02
#       7
#     2   2   2   2   2   2   2
#     4  11  27  49  77 108 138 169 222 285 350 425
#     4   9  23  48  71 102 141 183 222 284 342 413
#     4  11  24  41  64  99 144 188 237 290 332 385
#     4  10  24  42  67  99 140 187 235 281 340 402
#     4  10  25  46  70 102 138 185 227 279 348 413
#     4  11  24  39  67  99 138 190 237 287 334 399
#     4  10  24  39  67  97 141 183 235 278 332 393
#
# _framework density 25.827449999999999
#
# number of rings (size 3 to 8) (size 9 to 14) (size 15 to 20)
#    0.000    1.714    0.000    1.286   18.000    2.857 
#    2.571    0.000    0.000    0.000    0.000    0.000 
#    0.000    0.000    0.000    0.000    0.000    0.000 
#
# Total GULP energy -78355.760018 kJ/mol
# GULP energy per Si atom -5596.840001 kJ/mol
# Density = 2.576867 g / cm^3
# Si number density = 25.827450 Si / 1000 Ang^3
#
#
#
# Elastic Constant Matrix: (Units=GPa)
#
#
# Indices 1 2 3 4 5 6 
#
# 1 172.5971 36.4309 24.1050 13.2228 -29.6777 -11.5575
# 2 36.4309 90.7193 20.9461 34.1880 -9.7632 -18.8119
# 3 24.1050 20.9461 113.3938 5.2991 -14.6891 -5.9424
# 4 13.2228 34.1880 5.2991 44.8507 -5.4768 -9.6624
# 5 -29.6777 -9.7632 -14.6891 -5.4768 41.7301 -3.9288
# 6 -11.5575 -18.8119 -5.9424 -9.6624 -3.9288 47.4765
#
#
#
# Elastic Compliance Matrix: (Units=1/GPa)
#
#
# Indices 1 2 3 4 5 6 
#
# 1 0.007162 -0.002167 -0.000479 0.000437 0.004597 0.001294
# 2 -0.002167 0.017613 -0.001950 -0.011626 0.000735 0.003902
# 3 -0.000479 -0.001950 0.009636 0.000992 0.002796 0.000750
# 4 0.000437 -0.011626 0.000992 0.031682 0.002311 0.002263
# 5 0.004597 0.000735 0.002796 0.002311 0.029129 0.004641
# 6 0.001294 0.003902 0.000750 0.002263 0.004641 0.023863
#
#
# Mechanical properties :
#
#
# Convention : Reuss Voigt Hill
#
# Bulk Modulus (GPa) = 39.65348 59.96381 49.80865
# Shear Modulus (GPa) = 36.58100 46.49334 41.53717
#
# Velocity S-wave (km/s) = 3.76754 4.24742 4.01466
# Velocity P-wave (km/s) = 5.85768 6.87907 6.38882
#
# Compressibility (1/GPa) = 0.02521847
#
# Stress axis : x y z
#
# Youngs Moduli (GPa) = 139.63043 56.77619 103.77771
#
# Poissons Ratio (x) = 0.12304 0.04974
# Poissons Ratio (y) = 0.30258 0.20235
# Poissons Ratio (z) = 0.06692 0.11070
#
# Static dielectric constant tensor:
#      x y z
#    x 1.982980 -0.028930 -0.024670 
#    y -0.028930 2.097180 0.025630 
#    z -0.024670 0.025630 2.157200 
# 
# From -- ./inp_files/105876.got.cif
#   From: 2010.05.17/outbox.cif.g08.bks.cpg/sg2_53_cif.got.tgz:105876.got - 2010.06.03 11:33:40.
