data_PCOD9045779
_publ_section_title
;
Structure prediction by ZEFSAII (Michael W. Deem and Ramdas Pophale) SiO2 
 PCOD9045779
Probable space group: P -1
;
_chemical_formula_sum "Si O2"
_cell_formula_units_Z 14
_cell_length_a 8.014240
_cell_length_b 11.921748
_cell_length_c 12.345176
_cell_angle_alpha 143.397236
_cell_angle_beta 54.500014
_cell_angle_gamma 125.662184
_cell_volume 555.735824
_symmetry_space_group_name_H-M "P -1"
_symmetry_group_IT_number 2
_symmetry_cell_setting 'triclinic'
loop_
_space_group_symop_operation_xyz
x,y,z
-x,-y,-z
loop_
_atom_site_type_symbol
_atom_site_label
_atom_site_fract_x
_atom_site_fract_y
_atom_site_fract_z
Si Si1 0.790451 0.839163 0.085681
Si Si2 0.781612 0.922416 0.584178
Si Si3 0.675487 0.312423 0.942450
Si Si4 0.264883 0.400939 0.481545
Si Si5 0.836653 0.580693 0.696425
Si Si6 0.403915 0.839774 0.504001
Si Si7 0.040775 0.572047 0.875993
O O1 0.551886 0.707920 0.044317
O O2 0.755401 0.049204 0.289499
O O3 0.901096 0.780394 0.891927
O O4 0.921580 0.749590 0.056994
O O5 0.813722 0.794166 0.572967
O O6 0.600125 0.819744 0.488976
O O7 0.686058 0.095396 0.795732
O O8 0.000000 0.000000 0.500000
O O9 0.853468 0.396412 0.851362
O O10 0.771763 0.417792 0.099253
O O11 0.500000 0.500000 0.500000
O O12 0.286723 0.365771 0.319333
O O13 0.125666 0.535311 0.696285
O O14 0.710312 0.382731 0.651666
O O15 0.000000 0.500000 0.500000
O O16 0.500000 0.000000 0.500000
#
# Coordination Sequence:
#
# PCOD9045779 Si02
#       7
#     2   2   2   2   2   2   2
#     4  11  26  46  71 107 147 186 243 302 365 432
#     4  11  24  44  70 104 140 184 243 300 356 427
#     4  10  24  41  69 108 135 186 241 300 363 423
#     4  12  24  46  69 100 146 187 238 293 359 436
#     4  12  27  47  71 104 147 197 235 291 371 432
#     4  11  29  46  74 111 141 186 248 305 358 434
#     4  11  23  42  71 102 143 188 235 300 368 422
#
# _framework density 25.191825999999999
#
# number of rings (size 3 to 8) (size 9 to 14) (size 15 to 20)
#    0.000    0.857    4.286    1.286   10.000    0.571 
#    2.571    2.143    0.000    0.000    0.000    0.000 
#    0.000    0.000    0.000    0.000    0.000    0.000 
#
# Total GULP energy -78078.700933 kJ/mol
# GULP energy per Si atom -5577.050067 kJ/mol
# Density = 2.513449 g / cm^3
# Si number density = 25.191826 Si / 1000 Ang^3
#
#
#
# Elastic Constant Matrix: (Units=GPa)
#
#
# Indices 1 2 3 4 5 6 
#
# 1 79.3404 10.6389 7.3145 5.2378 -9.4158 -5.5308
# 2 10.6389 103.1804 34.7166 6.0202 1.4168 -10.3889
# 3 7.3145 34.7166 119.0104 17.5192 -16.4353 -10.9188
# 4 5.2378 6.0202 17.5192 40.1816 -10.8105 -0.2116
# 5 -9.4158 1.4168 -16.4353 -10.8105 46.4499 -7.8205
# 6 -5.5308 -10.3889 -10.9188 -0.2116 -7.8205 34.9802
#
#
#
# Elastic Compliance Matrix: (Units=1/GPa)
#
#
# Indices 1 2 3 4 5 6 
#
# 1 0.013336 -0.001220 0.000319 -0.000853 0.003081 0.002530
# 2 -0.001220 0.011103 -0.003131 -0.000539 -0.001519 0.001785
# 3 0.000319 -0.003131 0.010571 -0.003167 0.003707 0.003230
# 4 -0.000853 -0.000539 -0.003167 0.027863 0.005216 0.000051
# 5 0.003081 -0.001519 0.003707 0.005216 0.025907 0.007017
# 6 0.002530 0.001785 0.003230 0.000051 0.007017 0.032095
#
#
# Mechanical properties :
#
#
# Convention : Reuss Voigt Hill
#
# Bulk Modulus (GPa) = 37.11000 45.20791 41.15896
# Shear Modulus (GPa) = 36.25285 40.91309 38.58297
#
# Velocity S-wave (km/s) = 3.79763 4.03434 3.91777
# Velocity P-wave (km/s) = 5.83029 6.29965 6.06951
#
# Compressibility (1/GPa) = 0.02694691
#
# Stress axis : x y z
#
# Youngs Moduli (GPa) = 74.98277 90.06676 94.60104
#
# Poissons Ratio (x) = 0.10992 -0.03022
# Poissons Ratio (y) = 0.09151 0.29615
# Poissons Ratio (z) = -0.02395 0.28196
#
# Static dielectric constant tensor:
#      x y z
#    x 2.731280 -0.533880 -0.079630 
#    y -0.533880 2.460400 -0.010280 
#    z -0.079630 -0.010280 2.081750 
# 
# From -- ./inp_files/206301.got.cif
#   From: 2010.05.17/outbox.cif.g08.bks.cpg/sg2_104_cif.got.tgz:206301.got - 2010.06.03 11:33:40.
