data_PCOD9045189
_publ_section_title
;
Structure prediction by ZEFSAII (Michael W. Deem and Ramdas Pophale) SiO2 
 PCOD9045189
Probable space group: P -1
;
_chemical_formula_sum "Si O2"
_cell_formula_units_Z 12
_cell_length_a 9.124428
_cell_length_b 11.742692
_cell_length_c 8.152763
_cell_angle_alpha 140.008542
_cell_angle_beta 106.250035
_cell_angle_gamma 51.544515
_cell_volume 404.677943
_symmetry_space_group_name_H-M "P -1"
_symmetry_group_IT_number 2
_symmetry_cell_setting 'triclinic'
loop_
_space_group_symop_operation_xyz
x,y,z
-x,-y,-z
loop_
_atom_site_type_symbol
_atom_site_label
_atom_site_fract_x
_atom_site_fract_y
_atom_site_fract_z
Si Si1 0.940975 0.823784 0.254632
Si Si2 0.306069 0.143978 0.381518
Si Si3 0.581886 0.595272 0.479851
Si Si4 0.633706 0.256484 0.871016
Si Si5 0.852835 0.007953 0.086741
Si Si6 0.150771 0.479562 0.209245
O O1 0.133825 0.620795 0.202197
O O2 0.808807 0.060084 0.581168
O O3 0.981089 0.853729 0.115694
O O4 0.809299 0.747330 0.093172
O O5 0.402798 0.255494 0.482730
O O6 0.087429 0.344906 0.618414
O O7 0.421929 0.898717 0.247075
O O8 0.235811 0.098285 0.143696
O O9 0.650420 0.249672 0.365866
O O10 0.717807 0.557109 0.635705
O O11 0.650068 0.360035 0.158048
O O12 0.500000 0.500000 0.000000
O O13 0.000000 0.000000 0.000000
#
# Coordination Sequence:
#
# PCOD9045189 Si02
#       6
#     2   2   2   2   2   2
#     4  10  23  52  86 133 186 230 298 380 459 535
#     4  11  27  50  88 130 181 234 300 374 459 548
#     4  12  26  53  94 133 177 244 305 369 467 550
#     4  11  26  52  86 137 185 230 302 383 456 545
#     4  12  28  52  86 126 184 240 302 374 450 544
#     4  10  24  50  92 133 177 236 300 377 456 547
#
# _framework density 29.653212
#
# number of rings (size 3 to 8) (size 9 to 14) (size 15 to 20)
#    0.000    1.000    3.333    1.000    2.333    3.333 
#    0.000   15.000    0.000    0.000    0.000    0.000 
#    0.000    0.000    0.000    0.000    0.000    0.000 
#
# Total GULP energy -67321.084635 kJ/mol
# GULP energy per Si atom -5610.090386 kJ/mol
# Density = 2.958572 g / cm^3
# Si number density = 29.653212 Si / 1000 Ang^3
#
#
#
# Elastic Constant Matrix: (Units=GPa)
#
#
# Indices 1 2 3 4 5 6 
#
# 1 164.8130 65.7925 42.2357 22.6297 -7.4270 49.9485
# 2 65.7925 218.6156 23.3526 9.8456 -7.1238 35.3378
# 3 42.2357 23.3526 175.5956 22.0459 11.6870 16.7823
# 4 22.6297 9.8456 22.0459 63.5780 3.4083 -0.0245
# 5 -7.4270 -7.1238 11.6870 3.4083 63.0086 2.2545
# 6 49.9485 35.3378 16.7823 -0.0245 2.2545 59.5560
#
#
#
# Elastic Compliance Matrix: (Units=1/GPa)
#
#
# Indices 1 2 3 4 5 6 
#
# 1 0.009471 -0.001444 -0.001185 -0.002823 0.001569 -0.006813
# 2 -0.001444 0.005374 -0.000182 -0.000286 0.000556 -0.001947
# 3 -0.001185 -0.000182 0.006359 -0.001690 -0.001225 -0.000644
# 4 -0.002823 -0.000286 -0.001690 0.017424 -0.001104 0.003062
# 5 0.001569 0.000556 -0.001225 -0.001104 0.016475 -0.001925
# 6 -0.006813 -0.001947 -0.000644 0.003062 -0.001925 0.023916
#
#
# Mechanical properties :
#
#
# Convention : Reuss Voigt Hill
#
# Bulk Modulus (GPa) = 64.17867 91.30953 77.74410
# Shear Modulus (GPa) = 55.65755 65.73807 60.69781
#
# Velocity S-wave (km/s) = 4.33708 4.71350 4.52920
# Velocity P-wave (km/s) = 6.83889 7.77702 7.32299
#
# Compressibility (1/GPa) = 0.01558150
#
# Stress axis : x y z
#
# Youngs Moduli (GPa) = 105.58987 186.07765 157.24677
#
# Poissons Ratio (x) = 0.26872 0.18630
# Poissons Ratio (y) = 0.15248 0.02868
# Poissons Ratio (z) = 0.12510 0.03394
#
# Static dielectric constant tensor:
#      x y z
#    x 2.410290 0.031860 -0.034800 
#    y 0.031860 2.485990 0.051740 
#    z -0.034800 0.051740 2.261050 
# 
# From -- ./inp_files/255530.got.cif
#   From: 2010.05.17/outbox.cif.g08.bks.cpg/sg2_128_cif.got.tgz:255530.got - 2010.06.03 11:33:40.
