data_PCOD9045972
_publ_section_title
;
Structure prediction by ZEFSAII (Michael W. Deem and Ramdas Pophale) SiO2 
 PCOD9045972
Probable space group: P -1
;
_chemical_formula_sum "Si O2"
_cell_formula_units_Z 16
_cell_length_a 20.376578
_cell_length_b 7.887288
_cell_length_c 6.558039
_cell_angle_alpha 57.632277
_cell_angle_beta 92.646147
_cell_angle_gamma 120.934786
_cell_volume 724.430253
_symmetry_space_group_name_H-M "P -1"
_symmetry_group_IT_number 2
_symmetry_cell_setting 'triclinic'
loop_
_space_group_symop_operation_xyz
x,y,z
-x,-y,-z
loop_
_atom_site_type_symbol
_atom_site_label
_atom_site_fract_x
_atom_site_fract_y
_atom_site_fract_z
Si Si1 0.904597 0.375867 0.599775
Si Si2 0.524910 0.843303 0.218947
Si Si3 0.410856 0.312147 0.024741
Si Si4 0.647515 0.104333 0.431937
Si Si5 0.824643 0.489634 0.176791
Si Si6 0.820533 0.885198 0.192815
Si Si7 0.907598 0.788480 0.590064
Si Si8 0.358256 0.504945 0.594932
O O1 0.862368 0.366431 0.384522
O O2 0.899448 0.574864 0.591982
O O3 0.000000 0.500000 0.500000
O O4 0.860436 0.126534 0.895501
O O5 0.578587 0.806401 0.098341
O O6 0.438131 0.592475 0.422910
O O7 0.574157 0.982263 0.341202
O O8 0.500000 0.000000 0.000000
O O9 0.373042 0.451197 0.859700
O O10 0.500000 0.500000 0.000000
O O11 0.357867 0.115346 0.313425
O O12 0.733914 0.280747 0.228733
O O13 0.642930 0.259284 0.515459
O O14 0.820574 0.676600 0.201800
O O15 0.872504 0.658033 0.884023
O O16 0.867917 0.908485 0.390709
O O17 0.725693 0.741924 0.325937
O O18 0.000000 0.000000 0.500000
#
# Coordination Sequence:
#
# PCOD9045972 Si02
#       8
#     2   2   2   2   2   2   2   2
#     4  11  23  43  69  95 131 168 208 261 318 383
#     4  12  24  40  66  90 125 173 214 262 318 371
#     4  12  24  42  62  89 125 167 219 264 314 371
#     4  11  24  43  63  91 129 166 212 264 318 373
#     4  10  24  42  65  95 130 168 208 264 318 378
#     4  10  24  43  64  95 131 166 209 265 320 376
#     4  11  24  43  67  98 128 166 214 257 318 387
#     4  11  23  43  63  92 128 166 213 265 315 377
#
# _framework density 22.086321999999999
#
# number of rings (size 3 to 8) (size 9 to 14) (size 15 to 20)
#    0.000    1.000    2.500    3.750    1.750    7.000 
#    0.000    0.000    0.000    0.000    0.000    0.000 
#    0.000    0.000    0.000    0.000    0.000    0.000 
#
# Total GULP energy -89348.997679 kJ/mol
# GULP energy per Si atom -5584.312355 kJ/mol
# Density = 2.203605 g / cm^3
# Si number density = 22.086322 Si / 1000 Ang^3
#
#
#
# Elastic Constant Matrix: (Units=GPa)
#
#
# Indices 1 2 3 4 5 6 
#
# 1 68.3175 25.8122 45.7212 -12.1738 3.2187 34.0240
# 2 25.8122 74.6408 43.9393 -20.1187 -4.6008 26.9375
# 3 45.7212 43.9393 172.2149 -32.8803 12.5636 35.4213
# 4 -12.1738 -20.1187 -32.8803 39.0486 -2.0427 -6.8959
# 5 3.2187 -4.6008 12.5636 -2.0427 46.9221 -5.0619
# 6 34.0240 26.9375 35.4213 -6.8959 -5.0619 48.2620
#
#
#
# Elastic Compliance Matrix: (Units=1/GPa)
#
#
# Indices 1 2 3 4 5 6 
#
# 1 0.024723 -0.001276 -0.002604 0.002110 -0.002626 -0.014780
# 2 -0.001276 0.019662 -0.001993 0.006851 0.002047 -0.007418
# 3 -0.002604 -0.001993 0.008737 0.004853 -0.002472 -0.003030
# 4 0.002110 0.006851 0.004853 0.033170 0.000228 -0.004111
# 5 -0.002626 0.002047 -0.002472 0.000228 0.022899 0.004957
# 6 -0.014780 -0.007418 -0.003030 -0.004111 0.004957 0.037437
#
#
# Mechanical properties :
#
#
# Convention : Reuss Voigt Hill
#
# Bulk Modulus (GPa) = 24.16866 60.67984 42.42425
# Shear Modulus (GPa) = 29.04183 40.15990 34.60087
#
# Velocity S-wave (km/s) = 3.63012 4.26880 3.96235
# Velocity P-wave (km/s) = 5.34200 7.19934 6.33906
#
# Compressibility (1/GPa) = 0.04137590
#
# Stress axis : x y z
#
# Youngs Moduli (GPa) = 40.44861 50.85868 114.45999
#
# Poissons Ratio (x) = 0.06489 0.29801
# Poissons Ratio (y) = 0.05161 0.22817
# Poissons Ratio (z) = 0.10531 0.10138
#
# Static dielectric constant tensor:
#      x y z
#    x 1.817370 0.007630 -0.000050 
#    y 0.007630 1.810090 0.002170 
#    z -0.000050 0.002170 1.841690 
# 
# From -- ./inp_files/104554.got.cif
#   From: 2010.05.17/outbox.cif.g08.bks.cpg/sg2_53_cif.got.tgz:104554.got - 2010.06.03 11:33:40.
