data_PCOD9045958
_publ_section_title
;
Structure prediction by ZEFSAII (Michael W. Deem and Ramdas Pophale) SiO2 
 PCOD9045958
Probable space group: P -1
;
_chemical_formula_sum "Si O2"
_cell_formula_units_Z 13
_cell_length_a 6.240722
_cell_length_b 24.003274
_cell_length_c 14.206157
_cell_angle_alpha 20.610277
_cell_angle_beta 58.064928
_cell_angle_gamma 58.257712
_cell_volume 632.285801
_symmetry_space_group_name_H-M "P -1"
_symmetry_group_IT_number 2
_symmetry_cell_setting 'triclinic'
loop_
_space_group_symop_operation_xyz
x,y,z
-x,-y,-z
loop_
_atom_site_type_symbol
_atom_site_label
_atom_site_fract_x
_atom_site_fract_y
_atom_site_fract_z
Si Si1 0.527130 0.436475 0.864111
Si Si2 0.075472 0.984816 0.115174
Si Si3 0.635436 0.846179 0.762443
Si Si4 0.806968 0.286392 0.216851
Si Si5 0.558900 0.788095 0.256311
Si Si6 0.485423 0.991830 0.761060
Si Si7 0.000000 0.500000 0.000000
O O1 0.589459 0.600177 0.544445
O O2 0.512327 0.301115 0.003148
O O3 0.714208 0.379383 0.996158
O O4 0.250016 0.464911 0.930622
O O5 0.814766 0.960257 0.266775
O O6 0.309536 0.847380 0.283618
O O7 0.194846 0.143073 0.867150
O O8 0.000000 0.000000 0.000000
O O9 0.616121 0.890189 0.806595
O O10 0.922400 0.809436 0.718843
O O11 0.500000 0.000000 0.500000
O O12 0.833495 0.404622 0.110430
O O13 0.612977 0.154037 0.490623
O O14 0.511238 0.879721 0.023923
#
# Coordination Sequence:
#
# PCOD9045958 Si02
#       7
#     2   2   2   2   2   2   1
#     4  11  25  43  68 100 136 174 217 283 329 396
#     4   9  22  41  65  97 135 178 216 266 327 404
#     4  11  25  45  70  96 133 175 232 274 328 399
#     4  11  25  44  69 100 131 177 223 281 331 397
#     4  10  24  42  65 101 138 171 220 274 332 394
#     4  11  24  42  72  97 131 182 223 269 331 398
#     4  10  26  42  66 100 138 168 222 270 346 382
#
# _framework density 20.560323
#
# number of rings (size 3 to 8) (size 9 to 14) (size 15 to 20)
#    0.000    1.538    1.538    0.923   10.769    5.538 
#    0.000    1.538    0.000    0.000    0.000    0.000 
#    0.000    0.000    0.000    0.000    0.000    0.000 
#
# Total GULP energy -72401.773774 kJ/mol
# GULP energy per Si atom -5569.367213 kJ/mol
# Density = 2.051353 g / cm^3
# Si number density = 20.560323 Si / 1000 Ang^3
#
#
#
# Elastic Constant Matrix: (Units=GPa)
#
#
# Indices 1 2 3 4 5 6 
#
# 1 109.0591 27.0249 65.0739 1.6944 -35.7438 5.9441
# 2 27.0249 67.3947 12.4627 -5.6057 -17.7541 13.1090
# 3 65.0739 12.4627 142.0962 -14.7201 -12.7639 10.1815
# 4 1.6944 -5.6057 -14.7201 19.9690 20.5252 -10.6340
# 5 -35.7438 -17.7541 -12.7639 20.5252 27.6091 -0.5075
# 6 5.9441 13.1090 10.1815 -10.6340 -0.5075 36.5163
#
#
#
# Elastic Compliance Matrix: (Units=1/GPa)
#
#
# Indices 1 2 3 4 5 6 
#
# 1 0.000692 -0.007001 0.000382 0.032079 -0.027071 0.011260
# 2 -0.007001 0.017662 0.002538 0.009276 -0.003490 -0.003255
# 3 0.000382 0.002538 0.007118 -0.012254 0.014411 -0.006326
# 4 0.032079 0.009276 -0.012254 -0.048148 0.077292 -0.018082
# 5 -0.027071 -0.003490 0.014411 0.077292 -0.051440 0.023435
# 6 0.011260 -0.003255 -0.006326 -0.018082 0.023435 0.023545
#
#
# Mechanical properties :
#
#
# Convention : Reuss Voigt Hill
#
# Bulk Modulus (GPa) = 57.77410 58.63033 58.20222
# Shear Modulus (GPa) = -136.46886 31.08478 -52.69204
#
# Velocity S-wave (km/s) = -8.15592 3.89251 -5.06790
# Velocity P-wave (km/s) = 7.78018 6.98429 2.42392
#
# Compressibility (1/GPa) = 0.01730879
#
# Stress axis : x y z
#
# Youngs Moduli (GPa) = 1445.40769 56.61992 140.48193
#
# Poissons Ratio (x) = 0.39642 -0.05365
# Poissons Ratio (y) = 10.12002 -0.35656
# Poissons Ratio (z) = -0.55197 -0.14371
#
# Static dielectric constant tensor:
#      x y z
#    x 1.782700 0.001300 0.020550 
#    y 0.001300 1.748060 0.020100 
#    z 0.020550 0.020100 1.743050 
# 
# From -- ./inp_files/28557.got.cif
#   From: 2010.05.17/outbox.cif.g08.bks.cpg/sg2_15_cif.got.tgz:28557.got - 2010.06.03 11:33:40.
