data_PCOD9045237
_publ_section_title
;
Structure prediction by ZEFSAII (Michael W. Deem and Ramdas Pophale) SiO2 
 PCOD9045237
Probable space group: P -1
;
_chemical_formula_sum "Si O2"
_cell_formula_units_Z 15
_cell_length_a 11.966530
_cell_length_b 11.472381
_cell_length_c 9.350348
_cell_angle_alpha 53.945686
_cell_angle_beta 92.546918
_cell_angle_gamma 50.469603
_cell_volume 592.742603
_symmetry_space_group_name_H-M "P -1"
_symmetry_group_IT_number 2
_symmetry_cell_setting 'triclinic'
loop_
_space_group_symop_operation_xyz
x,y,z
-x,-y,-z
loop_
_atom_site_type_symbol
_atom_site_label
_atom_site_fract_x
_atom_site_fract_y
_atom_site_fract_z
Si Si1 0.892592 0.039596 0.252241
Si Si2 0.761507 0.732421 0.156301
Si Si3 0.274464 0.035427 0.252548
Si Si4 0.177435 0.573301 0.065683
Si Si5 0.429696 0.300197 0.007786
Si Si6 0.500000 0.000000 0.500000
Si Si7 0.302220 0.716865 0.625793
Si Si8 0.822046 0.791597 0.420538
O O1 0.778986 0.149303 0.319818
O O2 0.872480 0.900239 0.289664
O O3 0.824320 0.256361 0.009423
O O4 0.119548 0.832980 0.452826
O O5 0.628936 0.741029 0.093158
O O6 0.783771 0.731918 0.325434
O O7 0.982847 0.465232 0.306390
O O8 0.681494 0.957303 0.909470
O O9 0.330609 0.107706 0.306135
O O10 0.364929 0.791189 0.490335
O O11 0.043284 0.246421 0.084094
O O12 0.332627 0.299479 0.338401
O O13 0.250371 0.507919 0.953286
O O14 0.467922 0.421254 0.871251
O O15 0.604436 0.039887 0.299287
#
# Coordination Sequence:
#
# PCOD9045237 Si02
#       8
#     2   2   2   2   2   1   2   2
#     4   9  19  39  63  92 125 168 211 258 317 384
#     4  11  25  45  61  94 129 173 219 263 305 373
#     4  11  25  41  63  97 137 161 204 267 328 378
#     4  10  24  38  62 101 133 159 204 268 331 374
#     4  11  22  41  67  92 128 165 216 265 312 382
#     4  12  24  36  64  98 132 166 198 256 336 388
#     4   9  20  38  65  95 127 159 203 274 331 364
#     4  11  25  41  70  86 126 180 224 250 306 382
#
# _framework density 25.306093000000001
#
# number of rings (size 3 to 8) (size 9 to 14) (size 15 to 20)
#    0.000    1.600    2.667    1.600    5.600    1.067 
#    0.000    3.333    0.000    0.000    0.000    0.000 
#    0.000    0.000    0.000    0.000    0.000    0.000 
#
# Total GULP energy -83714.962248 kJ/mol
# GULP energy per Si atom -5580.997483 kJ/mol
# Density = 2.524850 g / cm^3
# Si number density = 25.306093 Si / 1000 Ang^3
#
#
#
# Elastic Constant Matrix: (Units=GPa)
#
#
# Indices 1 2 3 4 5 6 
#
# 1 110.6176 7.6703 28.8881 -10.3014 -3.4511 17.0581
# 2 7.6703 29.2095 -0.2840 -2.5271 9.5556 -0.0030
# 3 28.8881 -0.2840 129.5251 -14.2857 -25.0464 3.2996
# 4 -10.3014 -2.5271 -14.2857 23.8612 3.3256 1.9802
# 5 -3.4511 9.5556 -25.0464 3.3256 56.5467 -3.2336
# 6 17.0581 -0.0030 3.2996 1.9802 -3.2336 35.4951
#
#
#
# Elastic Compliance Matrix: (Units=1/GPa)
#
#
# Indices 1 2 3 4 5 6 
#
# 1 0.010871 -0.002450 -0.001940 0.003753 -0.000305 -0.005281
# 2 -0.002450 0.037414 -0.000293 0.003644 -0.006794 0.000385
# 3 -0.001940 -0.000293 0.009351 0.004180 0.003838 0.000180
# 4 0.003753 0.003644 0.004180 0.047050 -0.001586 -0.004961
# 5 -0.000305 -0.006794 0.003838 -0.001586 0.020708 0.001764
# 6 -0.005281 0.000385 0.000180 -0.004961 0.001764 0.031132
#
#
# Mechanical properties :
#
#
# Convention : Reuss Voigt Hill
#
# Bulk Modulus (GPa) = 20.71717 37.98899 29.35308
# Shear Modulus (GPa) = 27.47510 38.71913 33.09711
#
# Velocity S-wave (km/s) = 3.29859 3.91581 3.62037
# Velocity P-wave (km/s) = 4.76571 5.95727 5.39449
#
# Compressibility (1/GPa) = 0.04826915
#
# Stress axis : x y z
#
# Youngs Moduli (GPa) = 91.98624 26.72815 106.93859
#
# Poissons Ratio (x) = 0.06548 0.20751
# Poissons Ratio (y) = 0.22534 0.03136
# Poissons Ratio (z) = 0.17850 0.00784
#
# Static dielectric constant tensor:
#      x y z
#    x 1.921330 0.017850 0.017590 
#    y 0.017850 1.946110 -0.079840 
#    z 0.017590 -0.079840 2.019990 
# 
# From -- ./inp_files/427599.got.cif
#   From: 2010.05.17/outbox.cif.g08.bks.cpg/sg2_214_cif.got.tgz:427599.got - 2010.06.03 11:33:40.
