data_PCOD9045626
_publ_section_title
;
Structure prediction by ZEFSAII (Michael W. Deem and Ramdas Pophale) SiO2 
 PCOD9045626
Probable space group: P -1
;
_chemical_formula_sum "Si O2"
_cell_formula_units_Z 12
_cell_length_a 5.413893
_cell_length_b 15.708917
_cell_length_c 15.308992
_cell_angle_alpha 151.738093
_cell_angle_beta 61.346124
_cell_angle_gamma 106.364056
_cell_volume 509.069015
_symmetry_space_group_name_H-M "P -1"
_symmetry_group_IT_number 2
_symmetry_cell_setting 'triclinic'
loop_
_space_group_symop_operation_xyz
x,y,z
-x,-y,-z
loop_
_atom_site_type_symbol
_atom_site_label
_atom_site_fract_x
_atom_site_fract_y
_atom_site_fract_z
Si Si1 0.930315 0.505970 0.337463
Si Si2 0.660269 0.002811 0.567812
Si Si3 0.859357 0.587737 0.229054
Si Si4 0.317274 0.070420 0.183661
Si Si5 0.907230 0.913354 0.024807
Si Si6 0.461139 0.416488 0.050352
O O1 0.790140 0.701950 0.588759
O O2 0.786057 0.533618 0.290253
O O3 0.932350 0.313668 0.208604
O O4 0.273316 0.470603 0.221243
O O5 0.495981 0.201899 0.824396
O O6 0.500000 0.000000 0.500000
O O7 0.000000 0.000000 0.500000
O O8 0.685376 0.807006 0.435214
O O9 0.762250 0.458441 0.058863
O O10 0.216934 0.549730 0.143670
O O11 0.549689 0.977991 0.137754
O O12 0.035662 0.998229 0.160925
O O13 0.500000 0.000000 0.000000
O O14 0.000000 0.000000 0.000000
#
# Coordination Sequence:
#
# PCOD9045626 Si02
#       6
#     2   2   2   2   2   2
#     4  10  26  40  70  92 136 170 222 266 320 388
#     4  12  26  44  70  98 134 168 214 268 320 392
#     4  10  25  43  66  97 131 174 216 260 331 377
#     4  10  24  41  64  93 128 170 218 272 324 375
#     4  10  24  41  64  93 128 170 218 272 324 375
#     4  10  25  43  66  97 131 174 216 260 331 377
#
# _framework density 23.572444999999998
#
# number of rings (size 3 to 8) (size 9 to 14) (size 15 to 20)
#    1.000    0.667    0.000    2.000    7.000    9.333 
#    0.000    0.000    0.000    0.000    0.000    0.000 
#    0.000    0.000    0.000    0.000    0.000    0.000 
#
# Total GULP energy -67028.740575 kJ/mol
# GULP energy per Si atom -5585.728381 kJ/mol
# Density = 2.351879 g / cm^3
# Si number density = 23.572445 Si / 1000 Ang^3
#
#
#
# Elastic Constant Matrix: (Units=GPa)
#
#
# Indices 1 2 3 4 5 6 
#
# 1 203.8245 31.1017 57.1397 16.6089 22.7618 -13.7125
# 2 31.1017 77.5311 56.9085 23.5306 -4.6456 -20.4546
# 3 57.1397 56.9085 175.7086 44.8136 2.1183 -17.3660
# 4 16.6089 23.5306 44.8136 48.1932 -1.2219 -11.4942
# 5 22.7618 -4.6456 2.1183 -1.2219 33.3429 8.2826
# 6 -13.7125 -20.4546 -17.3660 -11.4942 8.2826 16.4087
#
#
#
# Elastic Compliance Matrix: (Units=1/GPa)
#
#
# Indices 1 2 3 4 5 6 
#
# 1 0.006447 -0.000236 -0.001436 0.000794 -0.006105 0.007211
# 2 -0.000236 0.022901 -0.004672 -0.001147 -0.002295 0.023761
# 3 -0.001436 -0.004672 0.009048 -0.006031 -0.000058 -0.001644
# 4 0.000794 -0.001147 -0.006031 0.030294 -0.003092 0.015633
# 5 -0.006105 -0.002295 -0.000058 -0.003092 0.041459 -0.031118
# 6 0.007211 0.023761 -0.001644 0.015633 -0.031118 0.121507
#
#
# Mechanical properties :
#
#
# Convention : Reuss Voigt Hill
#
# Bulk Modulus (GPa) = 38.89948 83.04045 60.96996
# Shear Modulus (GPa) = 19.76949 40.38325 30.07637
#
# Velocity S-wave (km/s) = 2.89912 4.14352 3.57587
# Velocity P-wave (km/s) = 5.26730 7.62862 6.55516
#
# Compressibility (1/GPa) = 0.02570729
#
# Stress axis : x y z
#
# Youngs Moduli (GPa) = 155.10955 43.66540 110.52457
#
# Poissons Ratio (x) = 0.01033 0.15874
# Poissons Ratio (y) = 0.03668 0.51634
# Poissons Ratio (z) = 0.22277 0.20399
#
# Static dielectric constant tensor:
#      x y z
#    x 2.050080 0.027740 -0.004570 
#    y 0.027740 2.277130 -0.166570 
#    z -0.004570 -0.166570 1.902240 
# 
# From -- ./inp_files/550779.got.cif
#   From: 2010.05.17/outbox.cif.g08.bks.cpg/sg2_276_cif.got.tgz:550779.got - 2010.06.03 11:33:40.
