data_PCOD9045369
_publ_section_title
;
Structure prediction by ZEFSAII (Michael W. Deem and Ramdas Pophale) SiO2 
 PCOD9045369
Probable space group: P -1
;
_chemical_formula_sum "Si O2"
_cell_formula_units_Z 16
_cell_length_a 20.244472
_cell_length_b 9.223449
_cell_length_c 6.699357
_cell_angle_alpha 100.803822
_cell_angle_beta 59.404881
_cell_angle_gamma 134.815189
_cell_volume 733.184743
_symmetry_space_group_name_H-M "P -1"
_symmetry_group_IT_number 2
_symmetry_cell_setting 'triclinic'
loop_
_space_group_symop_operation_xyz
x,y,z
-x,-y,-z
loop_
_atom_site_type_symbol
_atom_site_label
_atom_site_fract_x
_atom_site_fract_y
_atom_site_fract_z
Si Si1 0.839660 0.284072 0.740140
Si Si2 0.754628 0.999793 0.434190
Si Si3 0.004377 0.263624 0.539420
Si Si4 0.612931 0.347458 0.502893
Si Si5 0.005275 0.998003 0.226208
Si Si6 0.645314 0.054126 0.292355
Si Si7 0.374205 0.380908 0.153106
Si Si8 0.753289 0.739453 0.082769
O O1 0.900704 0.523728 0.677430
O O2 0.917842 0.272721 0.725830
O O3 0.829531 0.206803 0.510385
O O4 0.727050 0.143823 0.001394
O O5 0.687311 0.813631 0.652443
O O6 0.799028 0.937505 0.198979
O O7 0.681183 0.001452 0.406748
O O8 0.949648 0.063584 0.428728
O O9 0.039126 0.215580 0.665605
O O10 0.652034 0.233377 0.398626
O O11 0.634602 0.465958 0.704487
O O12 0.675109 0.527941 0.283076
O O13 0.480706 0.159241 0.624873
O O14 0.135139 0.187269 0.135199
O O15 0.000000 0.000000 0.000000
O O16 0.500000 0.500000 0.000000
O O17 0.318491 0.300783 0.001480
#
# Coordination Sequence:
#
# PCOD9045369 Si02
#       8
#     2   2   2   2   2   2   2   2
#     4  11  23  42  63  89 126 165 204 261 313 364
#     4  11  22  37  63  90 120 163 209 250 306 372
#     4  10  24  41  63  92 121 160 214 256 310 377
#     4  10  24  40  62  94 126 163 207 250 311 381
#     4  11  23  42  65  92 125 163 207 263 314 365
#     4  11  23  41  61  91 129 163 204 256 310 374
#     4  11  22  40  64  91 125 167 209 256 307 366
#     4  11  23  41  65  93 126 165 209 258 311 373
#
# _framework density 21.822603000000001
#
# number of rings (size 3 to 8) (size 9 to 14) (size 15 to 20)
#    0.000    1.250    0.000    6.000    0.000    9.000 
#    0.000    6.250    0.000    0.000    0.000    0.000 
#    0.000    0.000    0.000    0.000    0.000    0.000 
#
# Total GULP energy -89454.455404 kJ/mol
# GULP energy per Si atom -5590.903463 kJ/mol
# Density = 2.177293 g / cm^3
# Si number density = 21.822603 Si / 1000 Ang^3
#
#
#
# Elastic Constant Matrix: (Units=GPa)
#
#
# Indices 1 2 3 4 5 6 
#
# 1 75.4340 27.2779 16.7564 5.5122 -0.4948 -14.5943
# 2 27.2779 95.2144 29.3660 5.9213 -0.6759 -23.6586
# 3 16.7564 29.3660 77.4707 2.8638 -0.7952 -5.1859
# 4 5.5122 5.9213 2.8638 37.6216 8.1516 -3.5923
# 5 -0.4948 -0.6759 -0.7952 8.1516 38.8534 -0.1422
# 6 -14.5943 -23.6586 -5.1859 -3.5923 -0.1422 36.5368
#
#
#
# Elastic Compliance Matrix: (Units=1/GPa)
#
#
# Indices 1 2 3 4 5 6 
#
# 1 0.015581 -0.002759 -0.001999 -0.001404 0.000419 0.004017
# 2 -0.002759 0.014605 -0.004391 -0.000906 0.000347 0.007645
# 3 -0.001999 -0.004391 0.014917 -0.000359 0.000273 -0.001559
# 4 -0.001404 -0.000906 -0.000359 0.028405 -0.005995 0.001571
# 5 0.000419 0.000347 0.000273 -0.005995 0.027012 -0.000054
# 6 0.004017 0.007645 -0.001559 0.001571 -0.000054 0.033857
#
#
# Mechanical properties :
#
#
# Convention : Reuss Voigt Hill
#
# Bulk Modulus (GPa) = 37.30600 43.87996 40.59298
# Shear Modulus (GPa) = 30.93864 34.25029 32.59446
#
# Velocity S-wave (km/s) = 3.76937 3.96597 3.86892
# Velocity P-wave (km/s) = 6.00636 6.41273 6.21287
#
# Compressibility (1/GPa) = 0.02680534
#
# Stress axis : x y z
#
# Youngs Moduli (GPa) = 64.18152 68.46756 67.03905
#
# Poissons Ratio (x) = 0.18888 0.13403
# Poissons Ratio (y) = 0.17706 0.29436
# Poissons Ratio (z) = 0.12831 0.30063
#
# Static dielectric constant tensor:
#      x y z
#    x 1.794720 -0.007570 -0.019130 
#    y -0.007570 1.837210 0.036880 
#    z -0.019130 0.036880 1.789480 
# 
# From -- ./inp_files/38887.got.cif
#   From: 2010.05.17/outbox.cif.g08.bks.cpg/sg2_20_cif.got.tgz:38887.got - 2010.06.03 11:33:40.
