data_PCOD9045845
_publ_section_title
;
Structure prediction by ZEFSAII (Michael W. Deem and Ramdas Pophale) SiO2 
 PCOD9045845
Probable space group: P -1
;
_chemical_formula_sum "Si O2"
_cell_formula_units_Z 16
_cell_length_a 9.124192
_cell_length_b 21.027056
_cell_length_c 11.319221
_cell_angle_alpha 21.128968
_cell_angle_beta 79.894594
_cell_angle_gamma 77.699315
_cell_volume 763.169799
_symmetry_space_group_name_H-M "P -1"
_symmetry_group_IT_number 2
_symmetry_cell_setting 'triclinic'
loop_
_space_group_symop_operation_xyz
x,y,z
-x,-y,-z
loop_
_atom_site_type_symbol
_atom_site_label
_atom_site_fract_x
_atom_site_fract_y
_atom_site_fract_z
Si Si1 0.215544 0.411164 0.172223
Si Si2 0.576687 0.812012 0.866938
Si Si3 0.177491 0.963898 0.553392
Si Si4 0.062439 0.086582 0.726346
Si Si5 0.296878 0.815563 0.042668
Si Si6 0.205088 0.788525 0.611482
Si Si7 0.488696 0.796898 0.387812
Si Si8 0.648969 0.472834 0.290173
O O1 0.087044 0.286897 0.403354
O O2 0.364268 0.296823 0.403814
O O3 0.177478 0.585222 0.955660
O O4 0.254823 0.468091 0.935124
O O5 0.500000 0.000000 0.500000
O O6 0.747341 0.853503 0.781514
O O7 0.476033 0.790179 0.034564
O O8 0.569298 0.649381 0.060510
O O9 0.238496 0.845610 0.638484
O O10 0.222978 0.858955 0.849882
O O11 0.000000 0.000000 0.500000
O O12 0.940312 0.091225 0.631595
O O13 0.222194 0.981203 0.845060
O O14 0.000000 0.000000 0.000000
O O15 0.261903 0.643271 0.417308
O O16 0.347036 0.804278 0.481914
O O17 0.453397 0.664204 0.516873
O O18 0.500000 0.000000 0.000000
#
# Coordination Sequence:
#
# PCOD9045845 Si02
#       8
#     2   2   2   2   2   2   2   2
#     4  11  24  43  72  98 134 176 231 285 341 407
#     4  10  24  41  73  95 133 184 221 283 336 405
#     4  11  24  46  69  99 137 181 229 275 348 406
#     4  12  24  45  69  99 137 182 225 281 349 407
#     4  11  24  43  68 100 134 179 228 278 335 417
#     4  11  24  41  68  99 138 178 224 280 349 405
#     4  11  25  43  72 103 134 175 229 296 333 403
#     4  11  23  43  69 103 136 173 230 280 346 401
#
# _framework density 20.965191000000001
#
# number of rings (size 3 to 8) (size 9 to 14) (size 15 to 20)
#    0.000    1.000    1.250    6.750   10.500    0.000 
#    0.000    0.625    0.000    0.000    0.000    0.000 
#    0.000    0.000    0.000    0.000    0.000    0.000 
#
# Total GULP energy -89402.415567 kJ/mol
# GULP energy per Si atom -5587.650973 kJ/mol
# Density = 2.091747 g / cm^3
# Si number density = 20.965191 Si / 1000 Ang^3
#
#
#
# Elastic Constant Matrix: (Units=GPa)
#
#
# Indices 1 2 3 4 5 6 
#
# 1 94.3697 26.8643 23.1699 4.9189 -4.4264 7.9298
# 2 26.8643 148.2673 70.4869 -7.0110 -11.6534 5.4282
# 3 23.1699 70.4869 131.8172 1.0726 -5.2032 15.9148
# 4 4.9189 -7.0110 1.0726 44.9403 0.6802 7.9287
# 5 -4.4264 -11.6534 -5.2032 0.6802 30.2439 -4.3445
# 6 7.9298 5.4282 15.9148 7.9287 -4.3445 20.6774
#
#
#
# Elastic Compliance Matrix: (Units=1/GPa)
#
#
# Indices 1 2 3 4 5 6 
#
# 1 0.011573 -0.001621 -0.000786 -0.000995 0.000538 -0.002913
# 2 -0.001621 0.009639 -0.005010 0.001402 0.002872 0.002014
# 3 -0.000786 -0.005010 0.011251 0.000365 -0.001186 -0.007432
# 4 -0.000995 0.001402 0.000365 0.024344 -0.001515 -0.009920
# 5 0.000538 0.002872 -0.001186 -0.001515 0.035220 0.007933
# 6 -0.002913 0.002014 -0.007432 -0.009920 0.007933 0.060141
#
#
# Mechanical properties :
#
#
# Convention : Reuss Voigt Hill
#
# Bulk Modulus (GPa) = 56.73036 68.38846 62.55941
# Shear Modulus (GPa) = 28.92205 36.10122 32.51163
#
# Velocity S-wave (km/s) = 3.71823 4.15415 3.94222
# Velocity P-wave (km/s) = 6.74920 7.46325 7.11519
#
# Compressibility (1/GPa) = 0.01762725
#
# Stress axis : x y z
#
# Youngs Moduli (GPa) = 86.40755 103.75028 88.88021
#
# Poissons Ratio (x) = 0.16820 0.06989
# Poissons Ratio (y) = 0.14009 0.44531
# Poissons Ratio (z) = 0.06794 0.51981
#
# Static dielectric constant tensor:
#      x y z
#    x 1.829310 0.004000 0.011690 
#    y 0.004000 1.758840 -0.006020 
#    z 0.011690 -0.006020 1.762590 
# 
# From -- ./inp_files/405208.got.cif
#   From: 2010.05.17/outbox.cif.g08.bks.cpg/sg2_203_cif.got.tgz:405208.got - 2010.06.03 11:33:40.
