data_PCOD9045338
_publ_section_title
;
Structure prediction by ZEFSAII (Michael W. Deem and Ramdas Pophale) SiO2 
 PCOD9045338
Probable space group: P -1
;
_chemical_formula_sum "Si O2"
_cell_formula_units_Z 16
_cell_length_a 15.842816
_cell_length_b 8.479385
_cell_length_c 13.951122
_cell_angle_alpha 115.581856
_cell_angle_beta 152.991902
_cell_angle_gamma 57.473382
_cell_volume 712.100118
_symmetry_space_group_name_H-M "P -1"
_symmetry_group_IT_number 2
_symmetry_cell_setting 'triclinic'
loop_
_space_group_symop_operation_xyz
x,y,z
-x,-y,-z
loop_
_atom_site_type_symbol
_atom_site_label
_atom_site_fract_x
_atom_site_fract_y
_atom_site_fract_z
Si Si1 0.444812 0.245624 0.058218
Si Si2 0.430778 0.404995 0.735899
Si Si3 0.710919 0.072519 0.462856
Si Si4 0.653687 0.167399 0.060223
Si Si5 0.980324 0.322002 0.380225
Si Si6 0.560708 0.009534 0.672361
Si Si7 0.025125 0.450506 0.736789
Si Si8 0.916256 0.807565 0.104925
O O1 0.459530 0.450057 0.112115
O O2 0.579122 0.129610 0.076771
O O3 0.544789 0.183296 0.246041
O O4 0.209676 0.285842 0.829386
O O5 0.532688 0.226471 0.722416
O O6 0.202301 0.522393 0.507776
O O7 0.460970 0.298486 0.840017
O O8 0.596328 0.035045 0.428649
O O9 0.839687 0.878391 0.489060
O O10 0.868266 0.171116 0.675260
O O11 0.798260 0.283714 0.235737
O O12 0.778539 0.980303 0.079004
O O13 0.963062 0.368120 0.259539
O O14 0.000000 0.500000 0.500000
O O15 0.500000 0.000000 0.500000
O O16 0.782626 0.862191 0.887796
O O17 0.060569 0.386554 0.867449
#
# Coordination Sequence:
#
# PCOD9045338 Si02
#       8
#     2   2   2   2   2   2   2   2
#     4  12  24  39  63  96 139 174 216 258 317 382
#     4  11  23  44  63  93 133 166 213 278 311 382
#     4  11  24  44  66  96 136 170 212 271 322 384
#     4  10  24  40  57  96 137 179 217 255 309 386
#     4  11  24  37  63  95 133 181 220 250 315 379
#     4  11  25  48  73  94 121 167 219 273 339 387
#     4  12  23  37  65  91 129 176 213 261 317 371
#     4  10  24  43  65  96 133 167 217 266 320 385
#
# _framework density 22.468751999999999
#
# number of rings (size 3 to 8) (size 9 to 14) (size 15 to 20)
#    0.000    1.000    5.000    1.125    3.500    2.000 
#    0.000    1.250    0.000    0.000    0.000    0.000 
#    0.000    0.000    0.000    0.000    0.000    0.000 
#
# Total GULP energy -89339.483822 kJ/mol
# GULP energy per Si atom -5583.717739 kJ/mol
# Density = 2.241761 g / cm^3
# Si number density = 22.468752 Si / 1000 Ang^3
#
#
#
# Elastic Constant Matrix: (Units=GPa)
#
#
# Indices 1 2 3 4 5 6 
#
# 1 59.7417 3.7994 35.6279 -3.6816 -13.6450 14.8856
# 2 3.7994 47.5696 6.3341 -13.7319 -5.8935 17.3469
# 3 35.6279 6.3341 125.7374 -23.4537 3.9053 10.7651
# 4 -3.6816 -13.7319 -23.4537 31.5167 1.1932 -1.6416
# 5 -13.6450 -5.8935 3.9053 1.1932 46.8172 -3.8577
# 6 14.8856 17.3469 10.7651 -1.6416 -3.8577 22.3925
#
#
#
# Elastic Compliance Matrix: (Units=1/GPa)
#
#
# Indices 1 2 3 4 5 6 
#
# 1 0.026421 0.006114 -0.006565 -0.000352 0.007554 -0.017869
# 2 0.006114 0.037195 0.002168 0.016738 0.003208 -0.032141
# 3 -0.006565 0.002168 0.011691 0.008847 -0.003073 -0.002817
# 4 -0.000352 0.016738 0.008847 0.044881 -0.001020 -0.013872
# 5 0.007554 0.003208 -0.003073 -0.001020 0.024087 -0.001955
# 6 -0.017869 -0.032141 -0.002817 -0.013872 -0.001955 0.081435
#
#
# Mechanical properties :
#
#
# Convention : Reuss Voigt Hill
#
# Bulk Modulus (GPa) = 12.69978 36.06349 24.38164
# Shear Modulus (GPa) = 20.11898 32.63109 26.37503
#
# Velocity S-wave (km/s) = 2.99560 3.81502 3.42987
# Velocity P-wave (km/s) = 4.19873 5.95745 5.15367
#
# Compressibility (1/GPa) = 0.07874150
#
# Stress axis : x y z
#
# Youngs Moduli (GPa) = 37.84878 26.88559 85.53641
#
# Poissons Ratio (x) = -0.16439 0.56153
# Poissons Ratio (y) = -0.23142 -0.18544
# Poissons Ratio (z) = 0.24847 -0.05829
#
# Static dielectric constant tensor:
#      x y z
#    x 1.843360 0.023960 0.007720 
#    y 0.023960 1.867430 0.000660 
#    z 0.007720 0.000660 1.885700 
# 
# From -- ./inp_files/207225.got.cif
#   From: 2010.05.17/outbox.cif.g08.bks.cpg/sg2_104_cif.got.tgz:207225.got - 2010.06.03 11:33:40.
