data_PCOD9045869
_publ_section_title
;
Structure prediction by ZEFSAII (Michael W. Deem and Ramdas Pophale) SiO2 
 PCOD9045869
Probable space group: P -1
;
_chemical_formula_sum "Si O2"
_cell_formula_units_Z 16
_cell_length_a 11.678499
_cell_length_b 12.116467
_cell_length_c 14.216377
_cell_angle_alpha 150.906543
_cell_angle_beta 72.817857
_cell_angle_gamma 125.126408
_cell_volume 682.624135
_symmetry_space_group_name_H-M "P -1"
_symmetry_group_IT_number 2
_symmetry_cell_setting 'triclinic'
loop_
_space_group_symop_operation_xyz
x,y,z
-x,-y,-z
loop_
_atom_site_type_symbol
_atom_site_label
_atom_site_fract_x
_atom_site_fract_y
_atom_site_fract_z
Si Si1 0.130204 0.322797 0.027863
Si Si2 0.333093 0.874040 0.895478
Si Si3 0.083878 0.227006 0.750523
Si Si4 0.573913 0.167291 0.447865
Si Si5 0.108819 0.412509 0.432181
Si Si6 0.977646 0.586309 0.261566
Si Si7 0.437362 0.678366 0.969923
Si Si8 0.497173 0.302132 0.741485
O O1 0.125153 0.345346 0.933644
O O2 0.309532 0.480503 0.132230
O O3 0.005835 0.957274 0.809472
O O4 0.086925 0.518724 0.220467
O O5 0.217995 0.595602 0.637583
O O6 0.203078 0.742466 0.912048
O O7 0.500000 0.000000 0.000000
O O8 0.419696 0.173272 0.030529
O O9 0.990403 0.300927 0.770813
O O10 0.250859 0.427811 0.797318
O O11 0.010924 0.879023 0.514986
O O12 0.754634 0.459854 0.585893
O O13 0.469285 0.200602 0.563082
O O14 0.590262 0.975665 0.372082
O O15 0.476323 0.961130 0.225400
O O16 0.000000 0.500000 0.500000
O O17 0.446832 0.493489 0.906689
#
# Coordination Sequence:
#
# PCOD9045869 Si02
#       8
#     2   2   2   2   2   2   2   2
#     4  12  25  43  70 100 137 180 225 284 342 408
#     4  11  23  46  69 101 134 184 227 277 346 406
#     4  11  24  45  68  98 131 181 228 282 341 401
#     4  10  24  42  60  99 135 170 225 277 334 406
#     4  11  26  45  71 101 143 182 225 283 345 410
#     4  11  26  44  70  97 136 177 230 283 339 408
#     4  11  23  41  70  92 137 178 221 282 340 402
#     4  11  25  39  67  99 132 176 228 278 342 403
#
# _framework density 23.438960000000002
#
# number of rings (size 3 to 8) (size 9 to 14) (size 15 to 20)
#    0.000    1.000    3.750    2.250    8.750    0.500 
#    0.000    1.875    0.000    0.000    0.000    0.000 
#    0.000    0.000    0.000    0.000    0.000    0.000 
#
# Total GULP energy -89193.802683 kJ/mol
# GULP energy per Si atom -5574.612668 kJ/mol
# Density = 2.338561 g / cm^3
# Si number density = 23.438960 Si / 1000 Ang^3
#
#
#
# Elastic Constant Matrix: (Units=GPa)
#
#
# Indices 1 2 3 4 5 6 
#
# 1 89.0164 -1.1461 37.5892 8.7137 5.0726 -9.1839
# 2 -1.1461 92.5018 17.6644 29.2820 0.6668 -1.8397
# 3 37.5892 17.6644 84.5737 21.3041 3.9917 -7.8705
# 4 8.7137 29.2820 21.3041 51.9890 -3.0227 3.5313
# 5 5.0726 0.6668 3.9917 -3.0227 36.0105 3.6702
# 6 -9.1839 -1.8397 -7.8705 3.5313 3.6702 26.8053
#
#
#
# Elastic Compliance Matrix: (Units=1/GPa)
#
#
# Indices 1 2 3 4 5 6 
#
# 1 0.014425 0.001845 -0.006018 -0.001355 -0.001894 0.003740
# 2 0.001845 0.013567 -0.001475 -0.007573 -0.001217 0.002294
# 3 -0.006018 -0.001475 0.016564 -0.005299 -0.001777 0.003642
# 4 -0.001355 -0.007573 -0.005299 0.026566 0.003817 -0.006562
# 5 -0.001894 -0.001217 -0.001777 0.003817 0.029162 -0.005750
# 6 0.003740 0.002294 0.003642 -0.006562 -0.005750 0.041466
#
#
# Mechanical properties :
#
#
# Convention : Reuss Voigt Hill
#
# Bulk Modulus (GPa) = 30.06609 41.58965 35.82787
# Shear Modulus (GPa) = 30.46293 37.09327 33.77810
#
# Velocity S-wave (km/s) = 3.60901 3.98244 3.80031
# Velocity P-wave (km/s) = 5.49744 6.23929 5.88008
#
# Compressibility (1/GPa) = 0.03326006
#
# Stress axis : x y z
#
# Youngs Moduli (GPa) = 69.32272 73.70990 60.37039
#
# Poissons Ratio (x) = -0.13599 0.36331
# Poissons Ratio (y) = -0.12789 0.08905
# Poissons Ratio (z) = 0.41718 0.10873
#
# Static dielectric constant tensor:
#      x y z
#    x 1.901030 -0.027720 0.038900 
#    y -0.027720 1.959920 -0.078030 
#    z 0.038900 -0.078030 1.951210 
# 
# From -- ./inp_files/519956.got.cif
#   From: 2010.05.17/outbox.cif.g08.bks.cpg/sg2_260_cif.got.tgz:519956.got - 2010.06.03 11:33:40.
