data_PCOD9045125
_publ_section_title
;
Structure prediction by ZEFSAII (Michael W. Deem and Ramdas Pophale) SiO2 
 PCOD9045125
Probable space group: P -1
;
_chemical_formula_sum "Si O2"
_cell_formula_units_Z 16
_cell_length_a 26.212877
_cell_length_b 6.564654
_cell_length_c 5.850202
_cell_angle_alpha 99.173808
_cell_angle_beta 91.889931
_cell_angle_gamma 134.369227
_cell_volume 695.383612
_symmetry_space_group_name_H-M "P -1"
_symmetry_group_IT_number 2
_symmetry_cell_setting 'triclinic'
loop_
_space_group_symop_operation_xyz
x,y,z
-x,-y,-z
loop_
_atom_site_type_symbol
_atom_site_label
_atom_site_fract_x
_atom_site_fract_y
_atom_site_fract_z
Si Si1 0.016867 0.362115 0.141765
Si Si2 0.255567 0.753282 0.190267
Si Si3 0.652337 0.697295 0.014994
Si Si4 0.843887 0.283068 0.476921
Si Si5 0.352163 0.933454 0.617234
Si Si6 0.251738 0.377342 0.822123
Si Si7 0.935263 0.818124 0.269676
Si Si8 0.500699 0.884437 0.232224
O O1 0.082113 0.583199 0.368885
O O2 0.046317 0.273859 0.956978
O O3 0.945412 0.075479 0.213815
O O4 0.000000 0.500000 0.000000
O O5 0.203710 0.721103 0.352910
O O6 0.328712 0.874673 0.341668
O O7 0.285817 0.012123 0.070567
O O8 0.220282 0.453719 0.008673
O O9 0.574067 0.460465 0.844165
O O10 0.680421 0.551381 0.047490
O O11 0.646124 0.824638 0.257721
O O12 0.867096 0.515611 0.328363
O O13 0.800619 0.957620 0.326596
O O14 0.286705 0.616262 0.669675
O O15 0.426843 0.043957 0.723615
O O16 0.000000 0.000000 0.500000
O O17 0.500000 0.000000 0.500000
O O18 0.500000 0.000000 0.000000
#
# Coordination Sequence:
#
# PCOD9045125 Si02
#       8
#     2   2   2   2   2   2   2   2
#     4  10  23  49  74 104 140 187 236 290 364 435
#     4  11  27  45  72 108 145 194 242 312 369 453
#     4  11  25  47  72 100 155 187 254 312 376 444
#     4  11  25  47  73 104 148 187 235 304 370 435
#     4  11  25  47  71 104 145 199 251 308 374 447
#     4  11  25  47  69 106 146 189 244 306 372 445
#     4   9  22  47  69 101 144 176 234 290 350 437
#     4  12  27  45  77 108 148 208 262 318 391 454
#
# _framework density 23.008880999999999
#
# number of rings (size 3 to 8) (size 9 to 14) (size 15 to 20)
#    0.000    1.250    2.500    1.125    8.750    2.500 
#   18.000    0.000    0.000    0.000    0.000    0.000 
#    0.000    0.000    0.000    0.000    0.000    0.000 
#
# Total GULP energy -89402.217197 kJ/mol
# GULP energy per Si atom -5587.638575 kJ/mol
# Density = 2.295651 g / cm^3
# Si number density = 23.008881 Si / 1000 Ang^3
#
#
#
# Elastic Constant Matrix: (Units=GPa)
#
#
# Indices 1 2 3 4 5 6 
#
# 1 90.0316 42.6712 29.0677 7.2090 5.9122 -4.6543
# 2 42.6712 134.3586 48.1073 24.9990 -7.4474 1.8456
# 3 29.0677 48.1073 92.7412 20.8121 -7.6366 -3.4187
# 4 7.2090 24.9990 20.8121 44.7273 -5.1285 9.1673
# 5 5.9122 -7.4474 -7.6366 -5.1285 51.5671 0.1889
# 6 -4.6543 1.8456 -3.4187 9.1673 0.1889 40.1811
#
#
#
# Elastic Compliance Matrix: (Units=1/GPa)
#
#
# Indices 1 2 3 4 5 6 
#
# 1 0.013938 -0.003708 -0.002710 0.000504 -0.002490 0.001451
# 2 -0.003708 0.010577 -0.003467 -0.003490 0.001094 -0.000419
# 3 -0.002710 -0.003467 0.014697 -0.004736 0.001508 0.002169
# 4 0.000504 -0.003490 -0.004736 0.027954 0.001541 -0.006569
# 5 -0.002490 0.001094 0.001508 0.001541 0.020215 -0.000657
# 6 0.001451 -0.000419 0.002169 -0.006569 -0.000657 0.026761
#
#
# Mechanical properties :
#
#
# Convention : Reuss Voigt Hill
#
# Bulk Modulus (GPa) = 51.43155 61.86931 56.65043
# Shear Modulus (GPa) = 35.61457 40.44744 38.03101
#
# Velocity S-wave (km/s) = 3.93856 4.19729 4.06998
# Velocity P-wave (km/s) = 6.56387 7.10192 6.83819
#
# Compressibility (1/GPa) = 0.01944332
#
# Stress axis : x y z
#
# Youngs Moduli (GPa) = 71.74799 94.54104 68.03987
#
# Poissons Ratio (x) = 0.35056 0.18437
# Poissons Ratio (y) = 0.26604 0.23588
# Poissons Ratio (z) = 0.19441 0.32776
#
# Static dielectric constant tensor:
#      x y z
#    x 1.804460 0.116820 0.013400 
#    y 0.116820 1.735450 0.010870 
#    z 0.013400 0.010870 1.888120 
# 
# From -- ./inp_files/14705.got.cif
#   From: 2010.05.17/outbox.cif.g08.bks.cpg/sg2_8_cif.got.tgz:14705.got - 2010.06.03 11:33:40.
