data_PCOD9045842
_publ_section_title
;
Structure prediction by ZEFSAII (Michael W. Deem and Ramdas Pophale) SiO2 
 PCOD9045842
Probable space group: P -1
;
_chemical_formula_sum "Si O2"
_cell_formula_units_Z 14
_cell_length_a 5.506726
_cell_length_b 16.041616
_cell_length_c 15.301880
_cell_angle_alpha 141.705725
_cell_angle_beta 131.755950
_cell_angle_gamma 65.452073
_cell_volume 607.847079
_symmetry_space_group_name_H-M "P -1"
_symmetry_group_IT_number 2
_symmetry_cell_setting 'triclinic'
loop_
_space_group_symop_operation_xyz
x,y,z
-x,-y,-z
loop_
_atom_site_type_symbol
_atom_site_label
_atom_site_fract_x
_atom_site_fract_y
_atom_site_fract_z
Si Si1 0.261930 0.601607 0.707323
Si Si2 0.344029 0.949089 0.195088
Si Si3 0.340171 0.732959 0.433122
Si Si4 0.610410 0.714339 0.163928
Si Si5 0.610741 0.432602 0.847872
Si Si6 0.563470 0.903990 0.013242
Si Si7 0.242246 0.502886 0.359625
O O1 0.628161 0.578048 0.754854
O O2 0.000000 0.500000 0.500000
O O3 0.101371 0.574337 0.741393
O O4 0.303235 0.757757 0.817568
O O5 0.532983 0.842406 0.199243
O O6 0.457747 0.947725 0.119563
O O7 0.952622 0.899260 0.088240
O O8 0.455426 0.110482 0.380893
O O9 0.508638 0.638058 0.331422
O O10 0.264144 0.651933 0.441589
O O11 0.997189 0.735464 0.302338
O O12 0.437663 0.692676 0.198709
O O13 0.481461 0.563103 0.962727
O O14 0.000000 0.500000 0.000000
O O15 0.500000 0.000000 0.000000
O O16 0.500000 0.500000 0.500000
#
# Coordination Sequence:
#
# PCOD9045842 Si02
#       7
#     2   2   2   2   2   2   2
#     4  10  24  45  75 102 142 192 252 306 367 439
#     4  12  30  47  79 108 159 201 250 304 391 454
#     4  11  26  44  76 109 153 203 248 315 375 455
#     4  10  24  47  71 112 147 198 255 313 375 443
#     4   9  22  42  73 103 151 188 260 310 372 431
#     4  12  30  50  76 109 157 200 250 313 384 451
#     4  10  24  41  73 106 145 184 257 303 365 434
#
# _framework density 23.032109999999999
#
# number of rings (size 3 to 8) (size 9 to 14) (size 15 to 20)
#    0.000    1.429    0.000    1.714   18.000    5.143 
#    0.000    0.000    0.000    0.000    0.000    0.000 
#    0.000    0.000    0.000    0.000    0.000    0.000 
#
# Total GULP energy -78090.825144 kJ/mol
# GULP energy per Si atom -5577.916082 kJ/mol
# Density = 2.297969 g / cm^3
# Si number density = 23.032110 Si / 1000 Ang^3
#
#
#
# Elastic Constant Matrix: (Units=GPa)
#
#
# Indices 1 2 3 4 5 6 
#
# 1 162.5377 45.1903 37.7152 9.0404 -1.7315 29.8017
# 2 45.1903 162.6273 81.5123 18.1828 -9.2922 26.9754
# 3 37.7152 81.5123 123.8412 30.3624 4.9273 24.6767
# 4 9.0404 18.1828 30.3624 44.6106 2.2656 6.5679
# 5 -1.7315 -9.2922 4.9273 2.2656 28.1387 -0.9998
# 6 29.8017 26.9754 24.6767 6.5679 -0.9998 43.2990
#
#
#
# Elastic Compliance Matrix: (Units=1/GPa)
#
#
# Indices 1 2 3 4 5 6 
#
# 1 0.007341 -0.000963 -0.000824 0.000046 0.000133 -0.003987
# 2 -0.000963 0.010051 -0.006180 0.000390 0.004238 -0.002038
# 3 -0.000824 -0.006180 0.014835 -0.006736 -0.004258 -0.003114
# 4 0.000046 0.000390 -0.006736 0.026958 -0.000879 -0.000545
# 5 0.000133 0.004238 -0.004258 -0.000879 0.037787 0.000701
# 6 -0.003987 -0.002038 -0.003114 -0.000545 0.000701 0.028982
#
#
# Mechanical properties :
#
#
# Convention : Reuss Voigt Hill
#
# Bulk Modulus (GPa) = 61.37757 86.42685 73.90221
# Shear Modulus (GPa) = 33.93966 42.18222 38.06094
#
# Velocity S-wave (km/s) = 3.84289 4.28419 4.06953
# Velocity P-wave (km/s) = 6.81153 7.87898 7.36462
#
# Compressibility (1/GPa) = 0.01629260
#
# Stress axis : x y z
#
# Youngs Moduli (GPa) = 136.21570 99.49230 67.40806
#
# Poissons Ratio (x) = 0.09584 0.05553
# Poissons Ratio (y) = 0.13121 0.41660
# Poissons Ratio (z) = 0.11221 0.61490
#
# Static dielectric constant tensor:
#      x y z
#    x 2.101290 -0.154920 0.067460 
#    y -0.154920 1.975010 -0.095800 
#    z 0.067460 -0.095800 1.909500 
# 
# From -- ./inp_files/484563.got.cif
#   From: 2010.05.17/outbox.cif.g08.bks.cpg/sg2_243_cif.got.tgz:484563.got - 2010.06.03 11:33:40.
