data_PCOD9045258
_publ_section_title
;
Structure prediction by ZEFSAII (Michael W. Deem and Ramdas Pophale) SiO2 
 PCOD9045258
Probable space group: P -1
;
_chemical_formula_sum "Si O2"
_cell_formula_units_Z 16
_cell_length_a 9.124903
_cell_length_b 11.776700
_cell_length_c 10.917866
_cell_angle_alpha 110.403962
_cell_angle_beta 46.547630
_cell_angle_gamma 132.572739
_cell_volume 612.106924
_symmetry_space_group_name_H-M "P -1"
_symmetry_group_IT_number 2
_symmetry_cell_setting 'triclinic'
loop_
_space_group_symop_operation_xyz
x,y,z
-x,-y,-z
loop_
_atom_site_type_symbol
_atom_site_label
_atom_site_fract_x
_atom_site_fract_y
_atom_site_fract_z
Si Si1 0.447174 0.514180 0.175034
Si Si2 0.524866 0.288915 0.162429
Si Si3 0.735641 0.110983 0.185630
Si Si4 0.853656 0.315107 0.783391
Si Si5 0.882796 0.080678 0.820767
Si Si6 0.270586 0.102771 0.462928
Si Si7 0.894893 0.378273 0.364214
Si Si8 0.445869 0.191811 0.745961
O O1 0.455863 0.397840 0.205686
O O2 0.635449 0.699089 0.167148
O O3 0.154190 0.455533 0.324407
O O4 0.500000 0.500000 0.000000
O O5 0.480394 0.260035 0.321791
O O6 0.333817 0.107576 0.152068
O O7 0.789233 0.360602 0.964207
O O8 0.430602 0.038988 0.355783
O O9 0.901126 0.281647 0.215911
O O10 0.766631 0.996087 0.194905
O O11 0.800041 0.111169 0.007089
O O12 0.889015 0.191028 0.758140
O O13 0.612121 0.238373 0.796727
O O14 0.087251 0.479637 0.646588
O O15 0.161703 0.120055 0.656070
O O16 0.000000 0.000000 0.500000
O O17 0.647883 0.252198 0.541944
#
# Coordination Sequence:
#
# PCOD9045258 Si02
#       8
#     2   2   2   2   2   2   2   2
#     4  11  21  41  66 100 126 172 235 268 322 396
#     4  11  20  39  67 102 133 160 236 286 314 395
#     4  12  24  49  65  99 145 172 224 274 348 401
#     4  11  20  42  70  96 131 177 228 274 336 387
#     4  11  23  41  70 101 131 177 219 285 338 386
#     4  10  24  38  69 103 125 174 228 281 320 396
#     4  11  27  41  66  97 138 188 208 278 344 397
#     4  11  23  42  68  92 131 185 223 272 325 404
#
# _framework density 26.139223999999999
#
# number of rings (size 3 to 8) (size 9 to 14) (size 15 to 20)
#    0.000    1.000    5.000    3.750    7.000    0.500 
#    2.250    1.875    0.000    0.000    0.000    0.000 
#    0.000    0.000    0.000    0.000    0.000    0.000 
#
# Total GULP energy -89525.754146 kJ/mol
# GULP energy per Si atom -5595.359634 kJ/mol
# Density = 2.607973 g / cm^3
# Si number density = 26.139224 Si / 1000 Ang^3
#
#
#
# Elastic Constant Matrix: (Units=GPa)
#
#
# Indices 1 2 3 4 5 6 
#
# 1 69.2164 52.3488 18.1672 3.7177 -14.7461 -14.2656
# 2 52.3488 178.8868 28.6751 10.9560 23.2032 -51.7590
# 3 18.1672 28.6751 174.3993 6.1692 12.6376 -12.1625
# 4 3.7177 10.9560 6.1692 50.5362 -5.8746 4.9489
# 5 -14.7461 23.2032 12.6376 -5.8746 41.1260 -0.3417
# 6 -14.2656 -51.7590 -12.1625 4.9489 -0.3417 58.4159
#
#
#
# Elastic Compliance Matrix: (Units=1/GPa)
#
#
# Indices 1 2 3 4 5 6 
#
# 1 0.025487 -0.010391 -0.002474 0.002914 0.016147 -0.003650
# 2 -0.010391 0.013092 0.000609 -0.004457 -0.011857 0.009498
# 3 -0.002474 0.000609 0.006268 -0.001231 -0.003322 0.001325
# 4 0.002914 -0.004457 -0.001231 0.022029 0.007040 -0.005319
# 5 0.016147 -0.011857 -0.003322 0.007040 0.038758 -0.007624
# 6 -0.003650 0.009498 0.001325 -0.005319 -0.007624 0.025325
#
#
# Mechanical properties :
#
#
# Convention : Reuss Voigt Hill
#
# Bulk Modulus (GPa) = 49.17591 68.98717 59.08154
# Shear Modulus (GPa) = 30.81672 51.56969 41.19320
#
# Velocity S-wave (km/s) = 3.43730 4.44654 3.97409
# Velocity P-wave (km/s) = 5.88280 7.26717 6.61132
#
# Compressibility (1/GPa) = 0.02033516
#
# Stress axis : x y z
#
# Youngs Moduli (GPa) = 39.23621 76.38092 159.53386
#
# Poissons Ratio (x) = 0.79366 0.39472
# Poissons Ratio (y) = 0.40770 -0.09716
# Poissons Ratio (z) = 0.09708 -0.04652
#
# Static dielectric constant tensor:
#      x y z
#    x 2.139290 0.067640 -0.010320 
#    y 0.067640 2.081760 0.066470 
#    z -0.010320 0.066470 2.110840 
# 
# From -- ./inp_files/428655.got.cif
#   From: 2010.05.17/outbox.cif.g08.bks.cpg/sg2_215_cif.got.tgz:428655.got - 2010.06.03 11:33:40.
