data_PCOD9045477
_publ_section_title
;
Structure prediction by ZEFSAII (Michael W. Deem and Ramdas Pophale) SiO2 
 PCOD9045477
Probable space group: P -1
;
_chemical_formula_sum "Si O2"
_cell_formula_units_Z 13
_cell_length_a 15.339695
_cell_length_b 14.691063
_cell_length_c 9.193198
_cell_angle_alpha 146.890454
_cell_angle_beta 144.799335
_cell_angle_gamma 29.052491
_cell_volume 520.641084
_symmetry_space_group_name_H-M "P -1"
_symmetry_group_IT_number 2
_symmetry_cell_setting 'triclinic'
loop_
_space_group_symop_operation_xyz
x,y,z
-x,-y,-z
loop_
_atom_site_type_symbol
_atom_site_label
_atom_site_fract_x
_atom_site_fract_y
_atom_site_fract_z
Si Si1 0.323867 0.808477 0.415672
Si Si2 0.500000 0.500000 0.500000
Si Si3 0.871312 0.921830 0.225102
Si Si4 0.190137 0.433551 0.048242
Si Si5 0.288909 0.110280 0.302661
Si Si6 0.276359 0.414063 0.473307
Si Si7 0.933077 0.824734 0.626851
O O1 0.379209 0.614802 0.331864
O O2 0.501389 0.720333 0.433811
O O3 0.263952 0.981639 0.690755
O O4 0.144749 0.956960 0.263812
O O5 0.382358 0.405815 0.239110
O O6 0.026108 0.674293 0.106588
O O7 0.735397 0.010195 0.018505
O O8 0.000000 0.000000 0.500000
O O9 0.199652 0.410937 0.205764
O O10 0.158821 0.280235 0.718814
O O11 0.240335 0.311377 0.418350
O O12 0.144100 0.153154 0.287388
O O13 0.500000 0.000000 0.500000
O O14 0.156029 0.655663 0.674390
#
# Coordination Sequence:
#
# PCOD9045477 Si02
#       7
#     2   1   2   2   2   2   2
#     4  11  24  44  73 107 141 189 246 301 351 436
#     4  10  24  40  68 106 144 184 238 292 362 436
#     4  12  25  47  75 103 148 194 244 295 362 444
#     4  11  23  42  74 107 135 195 250 293 360 424
#     4  12  27  44  71 111 149 190 236 308 374 413
#     4  11  23  42  70 108 138 190 246 300 351 423
#     4  12  24  44  73 103 146 185 247 309 350 430
#
# _framework density 24.969218000000001
#
# number of rings (size 3 to 8) (size 9 to 14) (size 15 to 20)
#    0.000    0.615    6.154    1.846    4.308    3.077 
#    0.000    0.769    3.385    4.615    0.000    0.000 
#    0.000    0.000    0.000    0.000    0.000    0.000 
#
# Total GULP energy -72391.286655 kJ/mol
# GULP energy per Si atom -5568.560512 kJ/mol
# Density = 2.491239 g / cm^3
# Si number density = 24.969218 Si / 1000 Ang^3
#
#
#
# Elastic Constant Matrix: (Units=GPa)
#
#
# Indices 1 2 3 4 5 6 
#
# 1 146.2475 54.3279 23.1794 14.4579 -22.1078 5.8111
# 2 54.3279 151.8324 22.2121 -17.9530 -4.4877 1.5072
# 3 23.1794 22.2121 88.4396 0.8948 -0.7398 -6.8471
# 4 14.4579 -17.9530 0.8948 25.0666 4.1857 -2.2119
# 5 -22.1078 -4.4877 -0.7398 4.1857 50.3940 -1.3340
# 6 5.8111 1.5072 -6.8471 -2.2119 -1.3340 63.8145
#
#
#
# Elastic Compliance Matrix: (Units=1/GPa)
#
#
# Indices 1 2 3 4 5 6 
#
# 1 0.010657 -0.004647 -0.001578 -0.010378 0.005066 -0.001284
# 2 -0.004647 0.009546 -0.001269 0.009932 -0.002023 0.000364
# 3 -0.001578 -0.001269 0.012150 -0.000208 -0.000571 0.001458
# 4 -0.010378 0.009932 -0.000208 0.054572 -0.008140 0.002409
# 5 0.005066 -0.002023 -0.000571 -0.008140 0.022546 -0.000286
# 6 -0.001284 0.000364 0.001458 0.002409 -0.000286 0.016013
#
#
# Mechanical properties :
#
#
# Convention : Reuss Voigt Hill
#
# Bulk Modulus (GPa) = 57.58827 65.10648 61.34737
# Shear Modulus (GPa) = 34.18598 46.97501 40.58050
#
# Velocity S-wave (km/s) = 3.70418 4.34212 4.03578
# Velocity P-wave (km/s) = 6.43494 7.16031 6.80729
#
# Compressibility (1/GPa) = 0.01736465
#
# Stress axis : x y z
#
# Youngs Moduli (GPa) = 93.83634 104.76074 82.30713
#
# Poissons Ratio (x) = 0.48682 0.12988
# Poissons Ratio (y) = 0.43605 0.10443
# Poissons Ratio (z) = 0.14807 0.13292
#
# Static dielectric constant tensor:
#      x y z
#    x 3.091290 0.792700 -0.605440 
#    y 0.792700 2.620510 -0.410510 
#    z -0.605440 -0.410510 2.321920 
# 
# From -- ./inp_files/316110.got.cif
#   From: 2010.05.17/outbox.cif.g08.bks.cpg/sg2_159_cif.got.tgz:316110.got - 2010.06.03 11:33:40.
