data_PCOD9045986
_publ_section_title
;
Structure prediction by ZEFSAII (Michael W. Deem and Ramdas Pophale) SiO2 
 PCOD9045986
Probable space group: P -1
;
_chemical_formula_sum "Si O2"
_cell_formula_units_Z 16
_cell_length_a 11.867365
_cell_length_b 9.063053
_cell_length_c 20.348319
_cell_angle_alpha 141.433311
_cell_angle_beta 29.234677
_cell_angle_gamma 127.388043
_cell_volume 645.778149
_symmetry_space_group_name_H-M "P -1"
_symmetry_group_IT_number 2
_symmetry_cell_setting 'triclinic'
loop_
_space_group_symop_operation_xyz
x,y,z
-x,-y,-z
loop_
_atom_site_type_symbol
_atom_site_label
_atom_site_fract_x
_atom_site_fract_y
_atom_site_fract_z
Si Si1 0.521842 0.788968 0.648531
Si Si2 0.641741 0.960289 0.296238
Si Si3 0.781068 0.256938 0.546906
Si Si4 0.937968 0.833947 0.223161
Si Si5 0.908692 0.510345 0.448404
Si Si6 0.311994 0.023870 0.045824
Si Si7 0.965290 0.330378 0.100281
Si Si8 0.598860 0.738137 0.050041
O O1 0.735563 0.600559 0.508187
O O2 0.273148 0.745899 0.786014
O O3 0.510670 0.798824 0.578607
O O4 0.539197 0.061082 0.757259
O O5 0.478539 0.769847 0.313983
O O6 0.729151 0.974531 0.330107
O O7 0.871098 0.865843 0.100632
O O8 0.772624 0.466077 0.568965
O O9 0.929654 0.309417 0.551053
O O10 0.925324 0.005911 0.352576
O O11 0.907296 0.579403 0.175603
O O12 0.181742 0.806695 0.048565
O O13 0.095106 0.259523 0.250012
O O14 0.408992 0.089019 0.949814
O O15 0.500000 0.000000 0.000000
O O16 0.137110 0.346634 0.080899
O O17 0.500000 0.500000 0.000000
#
# Coordination Sequence:
#
# PCOD9045986 Si02
#       8
#     2   2   2   2   2   2   2   2
#     4  11  25  45  69  99 146 186 224 287 347 413
#     4  11  23  42  68  99 135 179 234 280 339 409
#     4  10  24  42  65  98 137 174 231 283 343 407
#     4  11  23  42  68 101 133 180 233 285 342 406
#     4  10  25  44  67  98 140 181 225 281 360 402
#     4  11  25  43  70 101 135 176 230 287 342 415
#     4  11  24  44  70 104 137 188 229 286 348 400
#     4  11  25  42  69 102 143 179 236 286 343 407
#
# _framework density 24.776311
#
# number of rings (size 3 to 8) (size 9 to 14) (size 15 to 20)
#    0.000    1.250    0.000    5.250   12.250    2.500 
#    0.000    3.750    0.000    0.000    0.000    0.000 
#    0.000    0.000    0.000    0.000    0.000    0.000 
#
# Total GULP energy -89581.004865 kJ/mol
# GULP energy per Si atom -5598.812804 kJ/mol
# Density = 2.471992 g / cm^3
# Si number density = 24.776311 Si / 1000 Ang^3
#
#
#
# Elastic Constant Matrix: (Units=GPa)
#
#
# Indices 1 2 3 4 5 6 
#
# 1 125.2501 31.2478 5.6892 4.8369 -34.1096 -1.6865
# 2 31.2478 119.4790 8.5671 -4.7504 -6.2120 6.2433
# 3 5.6892 8.5671 44.0548 4.7272 -14.8599 3.0082
# 4 4.8369 -4.7504 4.7272 33.5457 -1.1263 -4.1425
# 5 -34.1096 -6.2120 -14.8599 -1.1263 42.2684 3.4785
# 6 -1.6865 6.2433 3.0082 -4.1425 3.4785 46.1057
#
#
#
# Elastic Compliance Matrix: (Units=1/GPa)
#
#
# Indices 1 2 3 4 5 6 
#
# 1 0.011202 -0.002684 0.002522 -0.002068 0.009501 -0.000294
# 2 -0.002684 0.009269 -0.002059 0.001825 -0.001401 -0.000949
# 3 0.002522 -0.002059 0.027288 -0.004447 0.011427 -0.002671
# 4 -0.002068 0.001825 -0.004447 0.031279 -0.002374 0.002957
# 5 0.009501 -0.001401 0.011427 -0.002374 0.035328 -0.003087
# 6 -0.000294 -0.000949 -0.002671 0.002957 -0.003087 0.022480
#
#
# Mechanical properties :
#
#
# Convention : Reuss Voigt Hill
#
# Bulk Modulus (GPa) = 23.08562 42.19913 32.64237
# Shear Modulus (GPa) = 32.10767 40.60260 36.35514
#
# Velocity S-wave (km/s) = 3.60377 4.05256 3.83474
# Velocity P-wave (km/s) = 5.16276 6.24233 5.72803
#
# Compressibility (1/GPa) = 0.04331701
#
# Stress axis : x y z
#
# Youngs Moduli (GPa) = 89.26652 107.89214 36.64654
#
# Poissons Ratio (x) = 0.28953 -0.09242
# Poissons Ratio (y) = 0.23955 0.07547
# Poissons Ratio (z) = -0.22513 0.22219
#
# Static dielectric constant tensor:
#      x y z
#    x 1.969150 -0.022910 0.034390 
#    y -0.022910 2.005510 -0.014210 
#    z 0.034390 -0.014210 2.018030 
# 
# From -- ./inp_files/594236.got.cif
#   From: 2010.05.17/outbox.cif.g08.bks.cpg/sg2_298_cif.got.tgz:594236.got - 2010.06.03 11:33:40.
