data_PCOD9045961
_publ_section_title
;
Structure prediction by ZEFSAII (Michael W. Deem and Ramdas Pophale) SiO2 
 PCOD9045961
Probable space group: P -1
;
_chemical_formula_sum "Si O2"
_cell_formula_units_Z 14
_cell_length_a 9.141001
_cell_length_b 23.251294
_cell_length_c 5.366629
_cell_angle_alpha 115.518131
_cell_angle_beta 81.880713
_cell_angle_gamma 141.979305
_cell_volume 592.378087
_symmetry_space_group_name_H-M "P -1"
_symmetry_group_IT_number 2
_symmetry_cell_setting 'triclinic'
loop_
_space_group_symop_operation_xyz
x,y,z
-x,-y,-z
loop_
_atom_site_type_symbol
_atom_site_label
_atom_site_fract_x
_atom_site_fract_y
_atom_site_fract_z
Si Si1 0.039015 0.314697 0.473513
Si Si2 0.473768 0.600509 0.446363
Si Si3 0.207553 0.895456 0.096782
Si Si4 0.173388 0.161532 0.218362
Si Si5 0.200603 0.044655 0.739280
Si Si6 0.650940 0.129872 0.544659
Si Si7 0.160048 0.496035 0.836729
O O1 0.321074 0.383772 0.519951
O O2 0.903640 0.257684 0.664421
O O3 0.019915 0.382866 0.554602
O O4 0.860786 0.199551 0.163102
O O5 0.623286 0.715256 0.519783
O O6 0.334176 0.571463 0.687491
O O7 0.305054 0.522433 0.101509
O O8 0.245861 0.893943 0.372463
O O9 0.446283 0.024651 0.212189
O O10 0.965340 0.851964 0.002210
O O11 0.281363 0.131975 0.054757
O O12 0.953831 0.062607 0.273025
O O13 0.457263 0.107539 0.687879
O O14 0.000000 0.000000 0.500000
O O15 0.000000 0.500000 0.000000
#
# Coordination Sequence:
#
# PCOD9045961 Si02
#       7
#     2   2   2   2   2   2   2
#     4  11  27  44  75 103 149 190 248 305 375 430
#     4  11  28  49  80 104 148 194 252 306 373 436
#     4  10  24  42  65 105 142 187 244 291 362 433
#     4  10  25  42  69 100 146 196 240 302 367 441
#     4  11  24  41  65 101 149 192 242 290 374 439
#     4  11  25  38  72 103 149 188 246 303 360 445
#     4  12  29  52  78 110 145 190 254 311 372 443
#
# _framework density 23.633554
#
# number of rings (size 3 to 8) (size 9 to 14) (size 15 to 20)
#    0.000    1.143    1.429    1.714   20.000    1.143 
#    0.000    0.000    0.000    0.000    0.000    0.000 
#    0.000    0.000    0.000    0.000    0.000    0.000 
#
# Total GULP energy -77950.898002 kJ/mol
# GULP energy per Si atom -5567.921286 kJ/mol
# Density = 2.357976 g / cm^3
# Si number density = 23.633554 Si / 1000 Ang^3
#
#
#
# Elastic Constant Matrix: (Units=GPa)
#
#
# Indices 1 2 3 4 5 6 
#
# 1 128.0195 50.1025 23.3427 -0.8568 -38.3602 13.6567
# 2 50.1025 95.7628 0.2624 5.2852 -20.0628 -4.9357
# 3 23.3427 0.2624 40.8754 19.0687 -24.0952 16.0194
# 4 -0.8568 5.2852 19.0687 31.3933 -5.3364 -17.1676
# 5 -38.3602 -20.0628 -24.0952 -5.3364 34.7780 9.6177
# 6 13.6567 -4.9357 16.0194 -17.1676 9.6177 32.5725
#
#
#
# Elastic Compliance Matrix: (Units=1/GPa)
#
#
# Indices 1 2 3 4 5 6 
#
# 1 0.013459 -0.006468 -0.010582 0.010042 0.004630 0.002507
# 2 -0.006468 0.013621 -0.001784 0.002369 -0.002241 0.007563
# 3 -0.010582 -0.001784 -0.025208 0.033805 -0.037554 0.045469
# 4 0.010042 0.002369 0.033805 0.000538 0.045224 -0.033546
# 5 0.004630 -0.002241 -0.037554 0.045224 0.002637 0.039245
# 6 0.002507 0.007563 0.045469 -0.033546 0.039245 -0.020835
#
#
# Mechanical properties :
#
#
# Convention : Reuss Voigt Hill
#
# Bulk Modulus (GPa) = -27.93604 45.78586 8.92491
# Shear Modulus (GPa) = 502.56795 32.47877 267.52336
#
# Velocity S-wave (km/s) = 14.59835 3.71113 10.65092
# Velocity P-wave (km/s) = 16.50160 6.14643 12.45154
#
# Compressibility (1/GPa) = -0.03579605
#
# Stress axis : x y z
#
# Youngs Moduli (GPa) = 74.29738 73.41637 -39.67043
#
# Poissons Ratio (x) = 0.47484 -0.41981
# Poissons Ratio (y) = 0.48054 -0.07078
# Poissons Ratio (z) = 0.78625 0.13098
#
# Static dielectric constant tensor:
#      x y z
#    x 1.947570 -0.068090 0.062060 
#    y -0.068090 2.344920 -0.421660 
#    z 0.062060 -0.421660 2.376750 
# 
# From -- ./inp_files/55050.got.cif
#   From: 2010.05.17/outbox.cif.g08.bks.cpg/sg2_28_cif.got.tgz:55050.got - 2010.06.03 11:33:40.
