data_PCOD9045315
_publ_section_title
;
Structure prediction by ZEFSAII (Michael W. Deem and Ramdas Pophale) SiO2 
 PCOD9045315
Probable space group: P -1
;
_chemical_formula_sum "Si O2"
_cell_formula_units_Z 14
_cell_length_a 28.034928
_cell_length_b 5.322412
_cell_length_c 5.093949
_cell_angle_alpha 122.244819
_cell_angle_beta 59.858679
_cell_angle_gamma 117.854647
_cell_volume 534.899078
_symmetry_space_group_name_H-M "P -1"
_symmetry_group_IT_number 2
_symmetry_cell_setting 'triclinic'
loop_
_space_group_symop_operation_xyz
x,y,z
-x,-y,-z
loop_
_atom_site_type_symbol
_atom_site_label
_atom_site_fract_x
_atom_site_fract_y
_atom_site_fract_z
Si Si1 0.976028 0.135190 0.890065
Si Si2 0.359843 0.279269 0.247330
Si Si3 0.469161 0.771047 0.302669
Si Si4 0.260337 0.524977 0.883602
Si Si5 0.223067 0.021166 0.057437
Si Si6 0.591449 0.275228 0.087561
Si Si7 0.158673 0.043333 0.755490
O O1 0.907312 0.040214 0.043160
O O2 0.000000 0.000000 0.500000
O O3 0.000000 0.500000 0.000000
O O4 0.000000 0.000000 0.000000
O O5 0.404564 0.517128 0.465128
O O6 0.301324 0.353065 0.530066
O O7 0.253443 0.383222 0.113821
O O8 0.365270 0.935153 0.084271
O O9 0.469777 0.905638 0.683903
O O10 0.500000 0.500000 0.000000
O O11 0.437647 0.877710 0.205633
O O12 0.381746 0.399057 0.962239
O O13 0.193920 0.397895 0.899229
O O14 0.270838 0.871477 0.955603
O O15 0.173122 0.982632 0.386051
O O16 0.194084 0.899076 0.789357
#
# Coordination Sequence:
#
# PCOD9045315 Si02
#       7
#     2   2   2   2   2   2   2
#     4  12  28  46  75 105 144 186 238 291 351 418
#     4  10  24  42  64  94 126 168 212 266 321 390
#     4  10  24  42  64  92 126 166 211 264 320 384
#     4  10  24  42  66  94 130 168 216 266 328 390
#     4  10  24  39  68  92 132 167 218 265 334 390
#     4  10  24  40  65  90 128 162 213 259 326 380
#     4  10  26  42  69  95 135 171 222 272 336 394
#
# _framework density 26.173158999999998
#
# number of rings (size 3 to 8) (size 9 to 14) (size 15 to 20)
#    1.714    0.000    0.000    2.571    8.000    3.429 
#    0.000    0.000    0.000    0.000    0.000    0.000 
#    0.000    0.000    0.000    0.000    0.000    0.000 
#
# Total GULP energy -78170.048226 kJ/mol
# GULP energy per Si atom -5583.574873 kJ/mol
# Density = 2.611359 g / cm^3
# Si number density = 26.173159 Si / 1000 Ang^3
#
#
#
# Elastic Constant Matrix: (Units=GPa)
#
#
# Indices 1 2 3 4 5 6 
#
# 1 149.0959 80.3862 43.1646 -20.7365 -11.0975 -24.2476
# 2 80.3862 167.0153 94.9622 -10.6391 -12.1343 -31.8550
# 3 43.1646 94.9622 168.1406 -25.6413 -1.3482 -22.9436
# 4 -20.7365 -10.6391 -25.6413 64.7755 -7.0809 2.4223
# 5 -11.0975 -12.1343 -1.3482 -7.0809 36.2363 -7.5235
# 6 -24.2476 -31.8550 -22.9436 2.4223 -7.5235 69.4580
#
#
#
# Elastic Compliance Matrix: (Units=1/GPa)
#
#
# Indices 1 2 3 4 5 6 
#
# 1 0.009741 -0.004362 0.000664 0.002869 0.002479 0.001788
# 2 -0.004362 0.011683 -0.005343 -0.001398 0.002603 0.002401
# 3 0.000664 -0.005343 0.009336 0.002948 -0.000516 0.000707
# 4 0.002869 -0.001398 0.002948 0.017712 0.004225 0.001174
# 5 0.002479 0.002603 -0.000516 0.004225 0.031095 0.005110
# 6 0.001788 0.002401 0.000707 0.001174 0.005110 0.016868
#
#
# Mechanical properties :
#
#
# Convention : Reuss Voigt Hill
#
# Bulk Modulus (GPa) = 78.87431 102.36420 90.61926
# Shear Modulus (GPa) = 42.10734 51.80988 46.95861
#
# Velocity S-wave (km/s) = 4.01533 4.45399 4.24034
# Velocity P-wave (km/s) = 7.19015 8.10222 7.65977
#
# Compressibility (1/GPa) = 0.01267840
#
# Stress axis : x y z
#
# Youngs Moduli (GPa) = 102.65823 85.59299 107.10696
#
# Poissons Ratio (x) = 0.37339 -0.07117
# Poissons Ratio (y) = 0.44784 0.57229
# Poissons Ratio (z) = -0.06821 0.45734
#
# Static dielectric constant tensor:
#      x y z
#    x 2.152780 0.084950 0.171790 
#    y 0.084950 2.173940 -0.011860 
#    z 0.171790 -0.011860 2.201960 
# 
# From -- ./inp_files/10492.got.cif
#   From: 2010.05.17/outbox.cif.g08.bks.cpg/sg2_6_cif.got.tgz:10492.got - 2010.06.03 11:33:40.
