data_PCOD9045264
_publ_section_title
;
Structure prediction by ZEFSAII (Michael W. Deem and Ramdas Pophale) SiO2 
 PCOD9045264
Probable space group: P -1
;
_chemical_formula_sum "Si O2"
_cell_formula_units_Z 15
_cell_length_a 7.169421
_cell_length_b 16.868931
_cell_length_c 18.801896
_cell_angle_alpha 22.655777
_cell_angle_beta 136.844310
_cell_angle_gamma 127.178591
_cell_volume 578.246340
_symmetry_space_group_name_H-M "P -1"
_symmetry_group_IT_number 2
_symmetry_cell_setting 'triclinic'
loop_
_space_group_symop_operation_xyz
x,y,z
-x,-y,-z
loop_
_atom_site_type_symbol
_atom_site_label
_atom_site_fract_x
_atom_site_fract_y
_atom_site_fract_z
Si Si1 0.052061 0.338139 0.478367
Si Si2 0.605404 0.504758 0.327100
Si Si3 0.810831 0.037744 0.813840
Si Si4 0.500000 0.500000 0.000000
Si Si5 0.778143 0.087749 0.503565
Si Si6 0.189256 0.333803 0.971155
Si Si7 0.070204 0.626885 0.980215
Si Si8 0.592589 0.958222 0.966823
O O1 0.901261 0.463334 0.401342
O O2 0.858520 0.197557 0.506083
O O3 0.047488 0.513620 0.270049
O O4 0.338203 0.169653 0.719968
O O5 0.647556 0.285811 0.562493
O O6 0.360572 0.525182 0.184373
O O7 0.531218 0.733454 0.155431
O O8 0.694232 0.931934 0.934971
O O9 0.139997 0.016632 0.935610
O O10 0.777411 0.904790 0.845254
O O11 0.274176 0.735979 0.717718
O O12 0.471813 0.410242 0.983101
O O13 0.500000 0.000000 0.500000
O O14 0.028996 0.872646 0.745166
O O15 0.155297 0.372873 0.015810
O O16 0.000000 0.500000 0.000000
#
# Coordination Sequence:
#
# PCOD9045264 Si02
#       8
#     2   2   2   1   2   2   2   2
#     4  11  24  46  75 102 147 188 240 300 352 430
#     4  12  25  47  72 108 145 189 241 296 357 430
#     4  11  26  47  77 101 149 187 238 304 356 431
#     4  10  24  38  72  96 134 180 238 278 352 424
#     4  11  21  43  66  97 139 182 229 289 351 414
#     4  11  24  46  69 106 140 194 232 296 363 419
#     4  12  26  42  71 106 145 190 238 294 360 431
#     4  11  25  50  71 111 139 190 245 293 364 422
#
# _framework density 25.9405
#
# number of rings (size 3 to 8) (size 9 to 14) (size 15 to 20)
#    0.000    0.800    4.000    2.800    3.733    1.067 
#    2.400    1.333    0.000    0.000    0.000    0.000 
#    0.000    0.000    0.000    0.000    0.000    0.000 
#
# Total GULP energy -83812.681325 kJ/mol
# GULP energy per Si atom -5587.512088 kJ/mol
# Density = 2.588146 g / cm^3
# Si number density = 25.940500 Si / 1000 Ang^3
#
#
#
# Elastic Constant Matrix: (Units=GPa)
#
#
# Indices 1 2 3 4 5 6 
#
# 1 60.1037 20.3324 30.1653 -6.3773 -1.5188 -11.5754
# 2 20.3324 61.4972 22.1514 4.1166 -11.3041 2.0227
# 3 30.1653 22.1514 219.8954 -4.6602 -8.7152 7.9653
# 4 -6.3773 4.1166 -4.6602 44.6278 11.7892 9.2005
# 5 -1.5188 -11.3041 -8.7152 11.7892 42.8534 5.5806
# 6 -11.5754 2.0227 7.9653 9.2005 5.5806 33.5909
#
#
#
# Elastic Compliance Matrix: (Units=1/GPa)
#
#
# Indices 1 2 3 4 5 6 
#
# 1 0.022442 -0.007588 -0.002714 0.002802 -0.003658 0.008675
# 2 -0.007588 0.020642 -0.000729 -0.004056 0.006622 -0.003674
# 3 -0.002714 -0.000729 0.005127 0.000459 0.000939 -0.002389
# 4 0.002802 -0.004056 0.000459 0.026196 -0.007454 -0.004836
# 5 -0.003658 0.006622 0.000939 -0.007454 0.027774 -0.004455
# 6 0.008675 -0.003674 -0.002389 -0.004836 -0.004455 0.035612
#
#
# Mechanical properties :
#
#
# Convention : Reuss Voigt Hill
#
# Bulk Modulus (GPa) = 38.24159 54.08826 46.16493
# Shear Modulus (GPa) = 29.66108 42.13758 35.89933
#
# Velocity S-wave (km/s) = 3.38513 4.03475 3.72413
# Velocity P-wave (km/s) = 5.48205 6.52700 6.02721
#
# Compressibility (1/GPa) = 0.02614954
#
# Stress axis : x y z
#
# Youngs Moduli (GPa) = 44.55846 48.44544 195.05149
#
# Poissons Ratio (x) = 0.36759 0.52940
# Poissons Ratio (y) = 0.33810 0.14217
# Poissons Ratio (z) = 0.12094 0.03531
#
# Static dielectric constant tensor:
#      x y z
#    x 1.192390 -0.741900 0.103230 
#    y -0.741900 1.382430 0.043140 
#    z 0.103230 0.043140 2.015590 
# 
# From -- ./inp_files/590946.got.cif
#   From: 2010.05.17/outbox.cif.g08.bks.cpg/sg2_296_cif.got.tgz:590946.got - 2010.06.03 11:33:40.
