data_PCOD9045729
_publ_section_title
;
Structure prediction by ZEFSAII (Michael W. Deem and Ramdas Pophale) SiO2 
 PCOD9045729
Probable space group: P -1
;
_chemical_formula_sum "Si O2"
_cell_formula_units_Z 16
_cell_length_a 8.121993
_cell_length_b 6.205768
_cell_length_c 20.241191
_cell_angle_alpha 100.851038
_cell_angle_beta 124.692168
_cell_angle_gamma 62.580320
_cell_volume 740.788038
_symmetry_space_group_name_H-M "P -1"
_symmetry_group_IT_number 2
_symmetry_cell_setting 'triclinic'
loop_
_space_group_symop_operation_xyz
x,y,z
-x,-y,-z
loop_
_atom_site_type_symbol
_atom_site_label
_atom_site_fract_x
_atom_site_fract_y
_atom_site_fract_z
Si Si1 0.058755 0.234808 0.536658
Si Si2 0.241015 0.624541 0.802976
Si Si3 0.798074 0.829095 0.982050
Si Si4 0.074117 0.532489 0.342235
Si Si5 0.447613 0.022680 0.410218
Si Si6 0.889246 0.156727 0.747185
Si Si7 0.389957 0.329114 0.941023
Si Si8 0.757510 0.422242 0.871438
O O1 0.323005 0.104787 0.582871
O O2 0.000000 0.500000 0.500000
O O3 0.957726 0.326055 0.589923
O O4 0.000000 0.000000 0.500000
O O5 0.221314 0.484026 0.855148
O O6 0.501747 0.517128 0.840605
O O7 0.109589 0.571576 0.710532
O O8 0.108652 0.912068 0.802993
O O9 0.804729 0.655620 0.912803
O O10 0.592372 0.091498 0.943253
O O11 0.725335 0.734666 0.027454
O O12 0.048348 0.790166 0.053115
O O13 0.040039 0.705637 0.283406
O O14 0.315999 0.308707 0.381819
O O15 0.287287 0.912858 0.336259
O O16 0.500000 0.000000 0.500000
O O17 0.788229 0.321334 0.798323
O O18 0.500000 0.500000 0.000000
#
# Coordination Sequence:
#
# PCOD9045729 Si02
#       8
#     2   2   2   2   2   2   2   2
#     4  12  27  46  78 113 146 190 243 302 367 442
#     4  11  25  43  67  98 138 184 235 295 356 429
#     4  10  24  41  67  98 133 182 234 295 358 432
#     4  11  26  46  72 101 142 193 232 296 366 434
#     4  11  24  47  75 106 142 185 240 296 360 432
#     4  11  26  46  69 100 145 186 237 292 362 434
#     4  11  21  43  68  93 131 179 229 292 354 418
#     4  11  23  45  64  99 139 176 236 292 353 431
#
# _framework density 21.59862
#
# number of rings (size 3 to 8) (size 9 to 14) (size 15 to 20)
#    0.000    1.000    2.500    3.000    7.000    2.500 
#    9.000    0.000    0.000    0.000    0.000    0.000 
#    0.000    0.000    0.000    0.000    0.000    0.000 
#
# Total GULP energy -89276.911317 kJ/mol
# GULP energy per Si atom -5579.806957 kJ/mol
# Density = 2.154946 g / cm^3
# Si number density = 21.598620 Si / 1000 Ang^3
#
#
#
# Elastic Constant Matrix: (Units=GPa)
#
#
# Indices 1 2 3 4 5 6 
#
# 1 100.2616 55.2191 32.9379 -8.1949 11.0219 -15.9489
# 2 55.2191 157.3958 70.7370 -6.3044 -9.9293 -24.8720
# 3 32.9379 70.7370 95.2986 -0.5480 -5.6658 -3.8423
# 4 -8.1949 -6.3044 -0.5480 51.7135 -8.1951 -3.0840
# 5 11.0219 -9.9293 -5.6658 -8.1951 42.5927 -3.7857
# 6 -15.9489 -24.8720 -3.8423 -3.0840 -3.7857 35.5373
#
#
#
# Elastic Compliance Matrix: (Units=1/GPa)
#
#
# Indices 1 2 3 4 5 6 
#
# 1 0.013700 -0.003523 -0.002234 0.001246 -0.004148 0.003108
# 2 -0.003523 0.012303 -0.007406 0.001863 0.003757 0.006790
# 3 -0.002234 -0.007406 0.016601 -0.001281 0.000417 -0.004458
# 4 0.001246 0.001863 -0.001281 0.020662 0.004270 0.003973
# 5 -0.004148 0.003757 0.000417 0.004270 0.026662 0.004024
# 6 0.003108 0.006790 -0.004458 0.003973 0.004024 0.034578
#
#
# Mechanical properties :
#
#
# Convention : Reuss Voigt Hill
#
# Bulk Modulus (GPa) = 61.43898 74.52711 67.98304
# Shear Modulus (GPa) = 31.99825 38.90617 35.45221
#
# Velocity S-wave (km/s) = 3.85319 4.24881 4.05583
# Velocity P-wave (km/s) = 6.95009 7.65834 7.31279
#
# Compressibility (1/GPa) = 0.01627631
#
# Stress axis : x y z
#
# Youngs Moduli (GPa) = 72.99061 81.28358 60.23820
#
# Poissons Ratio (x) = 0.28636 0.13459
# Poissons Ratio (y) = 0.25715 0.44614
# Poissons Ratio (z) = 0.16309 0.60201
#
# Static dielectric constant tensor:
#      x y z
#    x 1.776890 0.059390 0.035050 
#    y 0.059390 1.834280 0.049640 
#    z 0.035050 0.049640 1.963030 
# 
# From -- ./inp_files/585748.got.cif
#   From: 2010.05.17/outbox.cif.g08.bks.cpg/sg2_293_cif.got.tgz:585748.got - 2010.06.03 11:33:40.
