data_PCOD9045136
_publ_section_title
;
Structure prediction by ZEFSAII (Michael W. Deem and Ramdas Pophale) SiO2 
 PCOD9045136
Probable space group: P -1
;
_chemical_formula_sum "Si O2"
_cell_formula_units_Z 14
_cell_length_a 14.172783
_cell_length_b 9.398421
_cell_length_c 14.798503
_cell_angle_alpha 131.781528
_cell_angle_beta 28.911561
_cell_angle_gamma 111.871695
_cell_volume 576.601432
_symmetry_space_group_name_H-M "P -1"
_symmetry_group_IT_number 2
_symmetry_cell_setting 'triclinic'
loop_
_space_group_symop_operation_xyz
x,y,z
-x,-y,-z
loop_
_atom_site_type_symbol
_atom_site_label
_atom_site_fract_x
_atom_site_fract_y
_atom_site_fract_z
Si Si1 0.281161 0.401460 0.200809
Si Si2 0.547749 0.692688 0.528322
Si Si3 0.751335 0.820252 0.261885
Si Si4 0.150985 0.898137 0.561806
Si Si5 0.857420 0.832430 0.897555
Si Si6 0.800422 0.973865 0.617948
Si Si7 0.858926 0.529655 0.362733
O O1 0.296465 0.621966 0.292712
O O2 0.289117 0.278267 0.047199
O O3 0.000000 0.500000 0.500000
O O4 0.519557 0.185316 0.960885
O O5 0.500000 0.500000 0.500000
O O6 0.727819 0.660557 0.286606
O O7 0.630824 0.698049 0.561989
O O8 0.305757 0.939620 0.809308
O O9 0.500000 0.000000 0.500000
O O10 0.799267 0.988720 0.348309
O O11 0.944571 0.649156 0.951703
O O12 0.157071 0.029770 0.526506
O O13 0.905639 0.932720 0.811407
O O14 0.107143 0.640895 0.657209
O O15 0.000000 0.000000 0.500000
O O16 0.881347 0.719207 0.472819
#
# Coordination Sequence:
#
# PCOD9045136 Si02
#       7
#     2   2   2   2   2   2   2
#     4  10  23  49  76 105 150 195 249 314 377 449
#     4  12  26  45  71 104 151 193 256 309 374 452
#     4  12  26  45  72 108 147 201 249 306 380 451
#     4  11  25  46  74 103 152 195 249 310 377 453
#     4  11  24  48  70 110 148 200 242 318 383 444
#     4  12  26  46  78 114 146 198 259 317 383 449
#     4  12  26  46  73 106 155 191 256 309 374 462
#
# _framework density 24.280203
#
# number of rings (size 3 to 8) (size 9 to 14) (size 15 to 20)
#    0.000    0.571    4.286    2.571    6.000    1.143 
#    5.143    4.286    0.000    0.000    0.000    0.000 
#    0.000    0.000    0.000    0.000    0.000    0.000 
#
# Total GULP energy -78020.251664 kJ/mol
# GULP energy per Si atom -5572.875119 kJ/mol
# Density = 2.422494 g / cm^3
# Si number density = 24.280203 Si / 1000 Ang^3
#
#
#
# Elastic Constant Matrix: (Units=GPa)
#
#
# Indices 1 2 3 4 5 6 
#
# 1 67.0236 20.3491 22.3879 8.4309 -18.5645 21.8583
# 2 20.3491 128.8530 39.8197 21.6200 -2.6814 16.4484
# 3 22.3879 39.8197 124.1965 11.2310 -6.1359 -2.1913
# 4 8.4309 21.6200 11.2310 36.0699 0.3650 6.0288
# 5 -18.5645 -2.6814 -6.1359 0.3650 37.1563 11.6035
# 6 21.8583 16.4484 -2.1913 6.0288 11.6035 45.8773
#
#
#
# Elastic Compliance Matrix: (Units=1/GPa)
#
#
# Indices 1 2 3 4 5 6 
#
# 1 0.027544 -0.000027 -0.004135 -0.002362 0.018632 -0.017714
# 2 -0.000027 0.009822 -0.002733 -0.004477 0.001347 -0.003392
# 3 -0.004135 -0.002733 0.009749 -0.001087 -0.001904 0.004040
# 4 -0.002362 -0.004477 -0.001087 0.031488 -0.001668 -0.001037
# 5 0.018632 0.001347 -0.001904 -0.001668 0.042241 -0.019916
# 6 -0.017714 -0.003392 0.004040 -0.001037 -0.019916 0.036819
#
#
# Mechanical properties :
#
#
# Convention : Reuss Voigt Hill
#
# Bulk Modulus (GPa) = 30.00666 53.90962 41.95814
# Shear Modulus (GPa) = 27.38811 39.65512 33.52162
#
# Velocity S-wave (km/s) = 3.36222 4.04571 3.71969
# Velocity P-wave (km/s) = 5.24004 6.63890 5.98051
#
# Compressibility (1/GPa) = 0.03332594
#
# Stress axis : x y z
#
# Youngs Moduli (GPa) = 36.30508 101.81657 102.57714
#
# Poissons Ratio (x) = 0.00273 0.42415
# Poissons Ratio (y) = 0.00097 0.28030
# Poissons Ratio (z) = 0.15012 0.27823
#
# Static dielectric constant tensor:
#      x y z
#    x 2.216360 0.098680 0.086880 
#    y 0.098680 1.953910 0.001970 
#    z 0.086880 0.001970 2.063200 
# 
# From -- ./inp_files/530095.got.cif
#   From: 2010.05.17/outbox.cif.g08.bks.cpg/sg2_266_cif.got.tgz:530095.got - 2010.06.03 11:33:40.
