data_PCOD9045268
_publ_section_title
;
Structure prediction by ZEFSAII (Michael W. Deem and Ramdas Pophale) SiO2 
 PCOD9045268
Probable space group: P -1
;
_chemical_formula_sum "Si O2"
_cell_formula_units_Z 12
_cell_length_a 14.148921
_cell_length_b 13.433496
_cell_length_c 9.896772
_cell_angle_alpha 37.410949
_cell_angle_beta 31.415555
_cell_angle_gamma 28.867901
_cell_volume 465.067154
_symmetry_space_group_name_H-M "P -1"
_symmetry_group_IT_number 2
_symmetry_cell_setting 'triclinic'
loop_
_space_group_symop_operation_xyz
x,y,z
-x,-y,-z
loop_
_atom_site_type_symbol
_atom_site_label
_atom_site_fract_x
_atom_site_fract_y
_atom_site_fract_z
Si Si1 0.753131 0.070173 0.674978
Si Si2 0.951846 0.780396 0.185044
Si Si3 0.453000 0.542833 0.853523
Si Si4 0.151151 0.012400 0.645828
Si Si5 0.691923 0.505806 0.358098
Si Si6 0.829546 0.746076 0.100097
O O1 0.812889 0.948154 0.591254
O O2 0.549603 0.310199 0.621291
O O3 0.000000 0.000000 0.500000
O O4 0.676715 0.979486 0.973830
O O5 0.810791 0.759848 0.269485
O O6 0.889469 0.826042 0.368808
O O7 0.219623 0.574043 0.073528
O O8 0.958019 0.973152 0.927302
O O9 0.368019 0.779121 0.680124
O O10 0.639741 0.410284 0.650340
O O11 0.500000 0.500000 0.000000
O O12 0.772820 0.617808 0.224938
O O13 0.901765 0.363305 0.150337
#
# Coordination Sequence:
#
# PCOD9045268 Si02
#       6
#     2   2   2   2   2   2
#     4  11  20  38  65  89 113 159 199 247 294 341
#     4   9  18  36  56  81 114 149 195 237 292 340
#     4   9  18  35  58  82 112 151 193 249 285 334
#     4   8  18  35  55  85 115 138 202 245 280 345
#     4  10  24  39  57  90 124 152 202 237 295 360
#     4  11  22  40  60  84 127 161 185 246 296 357
#
# _framework density 25.802724999999999
#
# number of rings (size 3 to 8) (size 9 to 14) (size 15 to 20)
#    1.000    1.333    1.667    0.500    2.333    2.667 
#    3.000    4.167    0.000    0.000    0.000    0.000 
#    0.000    0.000    0.000    0.000    0.000    0.000 
#
# Total GULP energy -66980.285605 kJ/mol
# GULP energy per Si atom -5581.690467 kJ/mol
# Density = 2.574400 g / cm^3
# Si number density = 25.802725 Si / 1000 Ang^3
#
#
#
# Elastic Constant Matrix: (Units=GPa)
#
#
# Indices 1 2 3 4 5 6 
#
# 1 147.0988 26.3271 34.4513 -8.5565 35.7724 -10.3150
# 2 26.3271 69.7426 11.7419 14.5102 5.1652 -6.5656
# 3 34.4513 11.7419 48.8420 14.6921 24.0469 -13.6621
# 4 -8.5565 14.5102 14.6921 31.6742 -5.2260 3.2973
# 5 35.7724 5.1652 24.0469 -5.2260 41.2555 2.0213
# 6 -10.3150 -6.5656 -13.6621 3.2973 2.0213 34.1891
#
#
#
# Elastic Compliance Matrix: (Units=1/GPa)
#
#
# Indices 1 2 3 4 5 6 
#
# 1 0.010435 -0.004198 -0.007581 0.007889 -0.003042 -0.001268
# 2 -0.004198 0.018811 0.007511 -0.014852 -0.005322 0.007094
# 3 -0.007581 0.007511 0.068293 -0.047558 -0.041840 0.033506
# 4 0.007889 -0.014852 -0.047558 0.070974 0.033116 -0.028279
# 5 -0.003042 -0.005322 -0.041840 0.033116 0.057362 -0.025244
# 6 -0.001268 0.007094 0.033506 -0.028279 -0.025244 0.047838
#
#
# Mechanical properties :
#
#
# Convention : Reuss Voigt Hill
#
# Bulk Modulus (GPa) = 11.23551 45.63598 28.43575
# Shear Modulus (GPa) = 16.02996 34.30131 25.16563
#
# Velocity S-wave (km/s) = 2.49519 3.65000 3.12638
# Velocity P-wave (km/s) = 3.55882 5.95720 4.90680
#
# Compressibility (1/GPa) = 0.08900356
#
# Stress axis : x y z
#
# Youngs Moduli (GPa) = 95.83396 53.16143 14.64271
#
# Poissons Ratio (x) = 0.22317 0.11101
# Poissons Ratio (y) = 0.40231 -0.10999
# Poissons Ratio (z) = 0.72652 -0.39932
#
# Static dielectric constant tensor:
#      x y z
#    x 2.058060 0.020080 -0.067990 
#    y 0.020080 2.123080 0.031210 
#    z -0.067990 0.031210 2.107350 
# 
# From -- ./inp_files/310878.got.cif
#   From: 2010.05.17/outbox.cif.g08.bks.cpg/sg2_156_cif.got.tgz:310878.got - 2010.06.03 11:33:40.
