data_PCOD9045817
_publ_section_title
;
Structure prediction by ZEFSAII (Michael W. Deem and Ramdas Pophale) SiO2 
 PCOD9045817
Probable space group: P -1
;
_chemical_formula_sum "Si O2"
_cell_formula_units_Z 14
_cell_length_a 9.464462
_cell_length_b 15.359862
_cell_length_c 9.029958
_cell_angle_alpha 79.634961
_cell_angle_beta 59.778724
_cell_angle_gamma 37.739427
_cell_volume 632.475263
_symmetry_space_group_name_H-M "P -1"
_symmetry_group_IT_number 2
_symmetry_cell_setting 'triclinic'
loop_
_space_group_symop_operation_xyz
x,y,z
-x,-y,-z
loop_
_atom_site_type_symbol
_atom_site_label
_atom_site_fract_x
_atom_site_fract_y
_atom_site_fract_z
Si Si1 0.712512 0.533363 0.333179
Si Si2 0.115669 0.748808 0.150479
Si Si3 0.698940 0.126685 0.533317
Si Si4 0.677660 0.804177 0.909869
Si Si5 0.093970 0.956535 0.131474
Si Si6 0.525796 0.518060 0.731974
Si Si7 0.458264 0.046684 0.758550
O O1 0.552740 0.696571 0.334418
O O2 0.627358 0.538285 0.541978
O O3 0.605931 0.506668 0.281008
O O4 0.058191 0.380517 0.186840
O O5 0.171667 0.820383 0.166314
O O6 0.217599 0.631414 0.251975
O O7 0.782637 0.886379 0.240544
O O8 0.296478 0.657338 0.930215
O O9 0.601126 0.069228 0.606416
O O10 0.000000 0.000000 0.500000
O O11 0.806321 0.110434 0.322781
O O12 0.680950 0.873987 0.753289
O O13 0.365597 0.896997 0.040439
O O14 0.693011 0.850358 0.041873
O O15 0.000000 0.000000 0.000000
#
# Coordination Sequence:
#
# PCOD9045817 Si02
#       7
#     2   2   2   2   2   2   2
#     4  11  25  44  73 106 142 185 239 297 352 423
#     4  11  23  45  69 105 143 187 234 294 353 426
#     4  12  27  45  73 107 143 184 243 291 350 428
#     4  11  25  45  75 105 145 188 237 292 358 426
#     4  12  25  45  72 105 146 187 231 294 358 419
#     4  10  24  41  71 103 144 184 235 293 360 411
#     4  11  25  45  74 104 144 187 243 285 356 427
#
# _framework density 22.135254
#
# number of rings (size 3 to 8) (size 9 to 14) (size 15 to 20)
#    0.000    0.857    4.286    1.714    6.000    4.571 
#    0.000    2.143    0.000    0.000    0.000    0.000 
#    0.000    0.000    0.000    0.000    0.000    0.000 
#
# Total GULP energy -78323.472419 kJ/mol
# GULP energy per Si atom -5594.533744 kJ/mol
# Density = 2.208487 g / cm^3
# Si number density = 22.135254 Si / 1000 Ang^3
#
#
#
# Elastic Constant Matrix: (Units=GPa)
#
#
# Indices 1 2 3 4 5 6 
#
# 1 75.2552 21.0573 14.0073 -0.6632 -8.2608 2.7749
# 2 21.0573 110.4341 27.2460 15.5466 -4.8118 2.0148
# 3 14.0073 27.2460 74.8521 7.5023 4.4563 -3.3357
# 4 -0.6632 15.5466 7.5023 31.5343 1.3771 6.8478
# 5 -8.2608 -4.8118 4.4563 1.3771 35.2139 -5.6716
# 6 2.7749 2.0148 -3.3357 6.8478 -5.6716 34.5269
#
#
#
# Elastic Compliance Matrix: (Units=1/GPa)
#
#
# Indices 1 2 3 4 5 6 
#
# 1 0.014806 -0.002386 -0.002361 0.002169 0.003170 -0.001188
# 2 -0.002386 0.011043 -0.003155 -0.004920 0.001619 0.000484
# 3 -0.002361 -0.003155 0.015435 -0.002478 -0.002529 0.001941
# 4 0.002169 -0.004920 -0.002478 0.036576 -0.002536 -0.007797
# 5 0.003170 0.001619 -0.002529 -0.002536 0.030576 0.004932
# 6 -0.001188 0.000484 0.001941 -0.007797 0.004932 0.031574
#
#
# Mechanical properties :
#
#
# Convention : Reuss Voigt Hill
#
# Bulk Modulus (GPa) = 39.24667 42.79584 41.02125
# Shear Modulus (GPa) = 30.43055 33.47039 31.95047
#
# Velocity S-wave (km/s) = 3.71179 3.89277 3.80336
# Velocity P-wave (km/s) = 6.01155 6.29132 6.15302
#
# Compressibility (1/GPa) = 0.02547987
#
# Stress axis : x y z
#
# Youngs Moduli (GPa) = 67.53921 90.55698 64.78677
#
# Poissons Ratio (x) = 0.21609 0.15298
# Poissons Ratio (y) = 0.16116 0.20438
# Poissons Ratio (z) = 0.15948 0.28568
#
# Static dielectric constant tensor:
#      x y z
#    x 1.762290 0.026260 -0.009940 
#    y 0.026260 1.831240 -0.049720 
#    z -0.009940 -0.049720 1.716700 
# 
# From -- ./inp_files/157670.got.cif
#   From: 2010.05.17/outbox.cif.g08.bks.cpg/sg2_79_cif.got.tgz:157670.got - 2010.06.03 11:33:40.
