data_PCOD9045358
_publ_section_title
;
Structure prediction by ZEFSAII (Michael W. Deem and Ramdas Pophale) SiO2 
 PCOD9045358
Probable space group: P -1
;
_chemical_formula_sum "Si O2"
_cell_formula_units_Z 14
_cell_length_a 4.869679
_cell_length_b 18.317787
_cell_length_c 7.762838
_cell_angle_alpha 104.561993
_cell_angle_beta 111.454259
_cell_angle_gamma 51.006781
_cell_volume 500.684736
_symmetry_space_group_name_H-M "P -1"
_symmetry_group_IT_number 2
_symmetry_cell_setting 'triclinic'
loop_
_space_group_symop_operation_xyz
x,y,z
-x,-y,-z
loop_
_atom_site_type_symbol
_atom_site_label
_atom_site_fract_x
_atom_site_fract_y
_atom_site_fract_z
Si Si1 0.236181 0.846398 0.388607
Si Si2 0.850963 0.980667 0.668460
Si Si3 0.505538 0.640865 0.697838
Si Si4 0.045855 0.834045 0.880184
Si Si5 0.102496 0.367462 0.550001
Si Si6 0.198515 0.217281 0.898140
Si Si7 0.460495 0.416541 0.937628
O O1 0.615461 0.743244 0.403688
O O2 0.194366 0.896163 0.588430
O O3 0.153192 0.929126 0.291709
O O4 0.930435 0.827348 0.289607
O O5 0.872800 0.936313 0.828567
O O6 0.500000 0.000000 0.500000
O O7 0.194434 0.753201 0.722156
O O8 0.804188 0.625333 0.622456
O O9 0.301467 0.604846 0.529337
O O10 0.612676 0.600840 0.893379
O O11 0.429140 0.793961 0.041251
O O12 0.781334 0.831823 0.947992
O O13 0.183077 0.421166 0.737620
O O14 0.856327 0.324903 0.911313
O O15 0.500000 0.500000 0.000000
#
# Coordination Sequence:
#
# PCOD9045358 Si02
#       7
#     2   2   2   2   2   2   2
#     4  10  24  40  61  95 130 172 228 269 333 401
#     4  11  24  38  64  94 131 172 222 281 321 394
#     4  11  23  44  71 100 139 182 231 275 347 413
#     4  11  23  43  67  93 133 176 221 274 332 401
#     4  11  24  45  73  99 138 193 222 277 353 412
#     4  10  25  44  67  92 129 179 216 273 345 398
#     4  10  25  46  72 108 141 173 235 293 337 415
#
# _framework density 27.961704999999998
#
# number of rings (size 3 to 8) (size 9 to 14) (size 15 to 20)
#    0.000    1.429    1.429    2.571    6.000    9.143 
#    0.000   10.000    0.000    0.000    0.000    0.000 
#    0.000    0.000    0.000    0.000    0.000    0.000 
#
# Total GULP energy -78607.669001 kJ/mol
# GULP energy per Si atom -5614.833500 kJ/mol
# Density = 2.789806 g / cm^3
# Si number density = 27.961705 Si / 1000 Ang^3
#
#
#
# Elastic Constant Matrix: (Units=GPa)
#
#
# Indices 1 2 3 4 5 6 
#
# 1 58.3148 23.8283 19.0144 1.9862 8.4272 21.1635
# 2 23.8283 170.6624 54.0418 30.4201 -8.6391 39.4699
# 3 19.0144 54.0418 136.6110 11.1978 16.1838 13.5021
# 4 1.9862 30.4201 11.1978 56.3988 10.9674 -5.3922
# 5 8.4272 -8.6391 16.1838 10.9674 54.6010 -1.6094
# 6 21.1635 39.4699 13.5021 -5.3922 -1.6094 47.3777
#
#
#
# Elastic Compliance Matrix: (Units=1/GPa)
#
#
# Indices 1 2 3 4 5 6 
#
# 1 0.021562 -0.000577 -0.001489 -0.000387 -0.003162 -0.008878
# 2 -0.000577 0.009982 -0.003015 -0.006205 0.003579 -0.007784
# 3 -0.001489 -0.003015 0.008974 0.000535 -0.002997 0.000578
# 4 -0.000387 -0.006205 0.000535 0.022768 -0.005430 0.007597
# 5 -0.003162 0.003579 -0.002997 -0.005430 0.021330 -0.000608
# 6 -0.008878 -0.007784 0.000578 0.007597 -0.000608 0.032237
#
#
# Mechanical properties :
#
#
# Convention : Reuss Voigt Hill
#
# Bulk Modulus (GPa) = 32.94180 62.15081 47.54631
# Shear Modulus (GPa) = 36.46120 49.58908 43.02514
#
# Velocity S-wave (km/s) = 3.61497 4.21582 3.92690
# Velocity P-wave (km/s) = 5.40653 6.78033 6.13203
#
# Compressibility (1/GPa) = 0.03035657
#
# Stress axis : x y z
#
# Youngs Moduli (GPa) = 46.37870 100.17889 111.43355
#
# Poissons Ratio (x) = 0.05779 0.16595
# Poissons Ratio (y) = 0.02675 0.33592
# Poissons Ratio (z) = 0.06907 0.30199
#
# Static dielectric constant tensor:
#      x y z
#    x 2.161740 -0.042310 -0.071360 
#    y -0.042310 2.143720 -0.012190 
#    z -0.071360 -0.012190 2.193580 
# 
# From -- ./inp_files/128825.got.cif
#   From: 2010.05.17/outbox.cif.g08.bks.cpg/sg2_65_cif.got.tgz:128825.got - 2010.06.03 11:33:40.
