data_PCOD9045080
_publ_section_title
;
Structure prediction by ZEFSAII (Michael W. Deem and Ramdas Pophale) SiO2 
 PCOD9045080
Probable space group: P -1
;
_chemical_formula_sum "Si O2"
_cell_formula_units_Z 15
_cell_length_a 19.025308
_cell_length_b 7.394803
_cell_length_c 16.041947
_cell_angle_alpha 60.679381
_cell_angle_beta 157.725009
_cell_angle_gamma 129.535622
_cell_volume 620.501100
_symmetry_space_group_name_H-M "P -1"
_symmetry_group_IT_number 2
_symmetry_cell_setting 'triclinic'
loop_
_space_group_symop_operation_xyz
x,y,z
-x,-y,-z
loop_
_atom_site_type_symbol
_atom_site_label
_atom_site_fract_x
_atom_site_fract_y
_atom_site_fract_z
Si Si1 0.500000 0.500000 0.500000
Si Si2 0.283395 0.244616 0.850507
Si Si3 0.391717 0.118029 0.305733
Si Si4 0.247103 0.465978 0.109015
Si Si5 0.169297 0.532729 0.384778
Si Si6 0.188057 0.375762 0.879876
Si Si7 0.924740 0.857620 0.765475
Si Si8 0.933685 0.265913 0.353966
O O1 0.380059 0.645098 0.289625
O O2 0.725636 0.678207 0.647753
O O3 0.285607 0.271725 0.946057
O O4 0.063334 0.222577 0.576967
O O5 0.500000 0.500000 0.000000
O O6 0.250558 0.994137 0.834025
O O7 0.342312 0.287855 0.276303
O O8 0.575967 0.279256 0.401791
O O9 0.500000 0.000000 0.500000
O O10 0.151638 0.940606 0.043189
O O11 0.311342 0.511084 0.071656
O O12 0.993462 0.384430 0.847393
O O13 0.097923 0.287085 0.309987
O O14 0.106668 0.443754 0.431066
O O15 0.164960 0.576907 0.761070
O O16 0.963080 0.121850 0.722554
#
# Coordination Sequence:
#
# PCOD9045080 Si02
#       8
#     1   2   2   2   2   2   2   2
#     4  12  24  44  70 106 140 192 250 302 358 426
#     4  11  24  43  76 107 142 181 231 297 366 443
#     4  11  25  43  68  98 137 194 238 302 357 425
#     4  10  25  42  68 100 140 187 246 294 357 431
#     4  11  23  47  68 100 144 190 242 298 361 428
#     4  10  23  49  68 102 145 189 236 296 365 434
#     4  11  25  44  71  99 144 192 239 304 361 426
#     4  10  24  45  72 106 140 184 239 294 359 447
#
# _framework density 24.174011
#
# number of rings (size 3 to 8) (size 9 to 14) (size 15 to 20)
#    0.000    1.333    2.667    1.200    5.600    7.467 
#    4.800    0.000    0.000    0.000    0.000    0.000 
#    0.000    0.000    0.000    0.000    0.000    0.000 
#
# Total GULP energy -83566.354951 kJ/mol
# GULP energy per Si atom -5571.090330 kJ/mol
# Density = 2.411899 g / cm^3
# Si number density = 24.174011 Si / 1000 Ang^3
#
#
#
# Elastic Constant Matrix: (Units=GPa)
#
#
# Indices 1 2 3 4 5 6 
#
# 1 85.5501 8.9153 9.1953 8.9967 -8.1974 -2.5725
# 2 8.9153 105.0450 24.7225 -3.0862 1.7297 -12.6806
# 3 9.1953 24.7225 88.0978 -14.0589 0.2713 -5.7908
# 4 8.9967 -3.0862 -14.0589 38.9640 5.3796 4.5721
# 5 -8.1974 1.7297 0.2713 5.3796 38.8673 1.5701
# 6 -2.5725 -12.6806 -5.7908 4.5721 1.5701 30.3260
#
#
#
# Elastic Compliance Matrix: (Units=1/GPa)
#
#
# Indices 1 2 3 4 5 6 
#
# 1 0.012734 -0.000739 -0.001740 -0.004184 0.003274 0.000900
# 2 -0.000739 0.010705 -0.002715 -0.000328 -0.000729 0.003982
# 3 -0.001740 -0.002715 0.013132 0.005009 -0.001052 0.000524
# 4 -0.004184 -0.000328 0.005009 0.029518 -0.004838 -0.003735
# 5 0.003274 -0.000729 -0.001052 -0.004838 0.027165 -0.000905
# 6 0.000900 0.003982 0.000524 -0.003735 -0.000905 0.035426
#
#
# Mechanical properties :
#
#
# Convention : Reuss Voigt Hill
#
# Bulk Modulus (GPa) = 38.19631 40.48436 39.34034
# Shear Modulus (GPa) = 33.83036 37.35545 35.59290
#
# Velocity S-wave (km/s) = 3.74498 3.93526 3.84130
# Velocity P-wave (km/s) = 5.87663 6.11815 5.99860
#
# Compressibility (1/GPa) = 0.02618054
#
# Stress axis : x y z
#
# Youngs Moduli (GPa) = 78.53027 93.41823 76.15229
#
# Poissons Ratio (x) = 0.06907 0.13253
# Poissons Ratio (y) = 0.05806 0.20676
# Poissons Ratio (z) = 0.13667 0.25364
#
# Static dielectric constant tensor:
#      x y z
#    x 2.327910 -0.213910 -0.283050 
#    y -0.213910 2.121640 0.076830 
#    z -0.283050 0.076830 2.130460 
# 
# From -- ./inp_files/577058.got.cif
#   From: 2010.05.17/outbox.cif.g08.bks.cpg/sg2_289_cif.got.tgz:577058.got - 2010.06.03 11:33:40.
