data_PCOD9045159
_publ_section_title
;
Structure prediction by ZEFSAII (Michael W. Deem and Ramdas Pophale) SiO2 
 PCOD9045159
Probable space group: P -1
;
_chemical_formula_sum "Si O2"
_cell_formula_units_Z 16
_cell_length_a 5.653194
_cell_length_b 17.014456
_cell_length_c 13.768224
_cell_angle_alpha 135.901649
_cell_angle_beta 101.969807
_cell_angle_gamma 57.511196
_cell_volume 740.598152
_symmetry_space_group_name_H-M "P -1"
_symmetry_group_IT_number 2
_symmetry_cell_setting 'triclinic'
loop_
_space_group_symop_operation_xyz
x,y,z
-x,-y,-z
loop_
_atom_site_type_symbol
_atom_site_label
_atom_site_fract_x
_atom_site_fract_y
_atom_site_fract_z
Si Si1 0.700360 0.945802 0.563038
Si Si2 0.775508 0.502876 0.908615
Si Si3 0.867673 0.872232 0.818931
Si Si4 0.719804 0.262192 0.686266
Si Si5 0.164265 0.334278 0.609204
Si Si6 0.710970 0.180372 0.830893
Si Si7 0.193997 0.991168 0.856418
Si Si8 0.150215 0.574696 0.541359
O O1 0.691383 0.826986 0.506438
O O2 0.028449 0.856276 0.466203
O O3 0.500000 0.000000 0.500000
O O4 0.608450 0.076771 0.736265
O O5 0.728118 0.387934 0.838837
O O6 0.934452 0.432624 0.758953
O O7 0.508265 0.661770 0.014935
O O8 0.000000 0.500000 0.000000
O O9 0.539968 0.919216 0.799954
O O10 0.057075 0.900981 0.785463
O O11 0.036795 0.711942 0.712848
O O12 0.843867 0.942540 0.981881
O O13 0.438874 0.340569 0.660957
O O14 0.729457 0.190180 0.723935
O O15 0.991293 0.377953 0.534615
O O16 0.001222 0.100493 0.851857
O O17 0.500000 0.500000 0.500000
O O18 0.000000 0.500000 0.500000
#
# Coordination Sequence:
#
# PCOD9045159 Si02
#       8
#     2   2   2   2   2   2   2   2
#     4  11  23  42  67 101 140 180 233 281 345 428
#     4  11  24  45  63  99 143 182 224 280 352 421
#     4  10  23  50  66 100 139 176 232 294 361 402
#     4  11  24  42  65  98 143 180 232 278 360 419
#     4  11  26  45  71  95 144 185 222 301 350 419
#     4  12  23  39  68 105 129 181 234 284 343 433
#     4  10  24  42  74  98 136 180 224 300 353 415
#     4  12  29  47  76 104 137 190 246 292 354 429
#
# _framework density 21.60416
#
# number of rings (size 3 to 8) (size 9 to 14) (size 15 to 20)
#    0.000    1.000    2.500    3.000    7.000    2.000 
#    0.000    0.000    0.000    0.000    0.000    0.000 
#    0.000    0.000    0.000    0.000    0.000    0.000 
#
# Total GULP energy -89217.106397 kJ/mol
# GULP energy per Si atom -5576.069150 kJ/mol
# Density = 2.155499 g / cm^3
# Si number density = 21.604160 Si / 1000 Ang^3
#
#
#
# Elastic Constant Matrix: (Units=GPa)
#
#
# Indices 1 2 3 4 5 6 
#
# 1 107.4198 35.0614 29.3630 17.7382 22.7889 -17.2429
# 2 35.0614 102.7765 6.1346 9.5921 14.2915 -26.7595
# 3 29.3630 6.1346 78.7573 31.7607 14.0203 12.0622
# 4 17.7382 9.5921 31.7607 43.0359 3.5799 1.2035
# 5 22.7889 14.2915 14.0203 3.5799 29.7613 4.3075
# 6 -17.2429 -26.7595 12.0622 1.2035 4.3075 29.1510
#
#
#
# Elastic Compliance Matrix: (Units=1/GPa)
#
#
# Indices 1 2 3 4 5 6 
#
# 1 0.015428 0.000207 -0.004864 -0.002246 -0.011244 0.013082
# 2 0.000207 0.015436 -0.001210 -0.002332 -0.009069 0.016228
# 3 -0.004864 -0.001210 0.022572 -0.013799 -0.002883 -0.012332
# 4 -0.002246 -0.002332 -0.013799 0.034432 0.005190 0.000052
# 5 -0.011244 -0.009069 -0.002883 0.005190 0.050403 -0.021445
# 6 0.013082 0.016228 -0.012332 0.000052 -0.021445 0.065209
#
#
# Mechanical properties :
#
#
# Convention : Reuss Voigt Hill
#
# Bulk Modulus (GPa) = 23.98115 47.78574 35.88345
# Shear Modulus (GPa) = 21.82319 34.94929 28.38624
#
# Velocity S-wave (km/s) = 3.18172 4.02644 3.62874
# Velocity P-wave (km/s) = 4.96207 6.61688 5.84830
#
# Compressibility (1/GPa) = 0.04169942
#
# Stress axis : x y z
#
# Youngs Moduli (GPa) = 64.81840 64.78524 44.30346
#
# Poissons Ratio (x) = -0.01339 0.21551
# Poissons Ratio (y) = -0.01339 0.05361
# Poissons Ratio (z) = 0.31530 0.07839
#
# Static dielectric constant tensor:
#      x y z
#    x 1.784410 0.002050 0.004700 
#    y 0.002050 1.750400 0.010400 
#    z 0.004700 0.010400 1.758070 
# 
# From -- ./inp_files/371612.got.cif
#   From: 2010.05.17/outbox.cif.g08.bks.cpg/sg2_186_cif.got.tgz:371612.got - 2010.06.03 11:33:40.
