data_PCOD9045719
_publ_section_title
;
Structure prediction by ZEFSAII (Michael W. Deem and Ramdas Pophale) SiO2 
 PCOD9045719
Probable space group: P -1
;
_chemical_formula_sum "Si O2"
_cell_formula_units_Z 16
_cell_length_a 9.919380
_cell_length_b 5.337092
_cell_length_c 19.929156
_cell_angle_alpha 70.256169
_cell_angle_beta 137.746165
_cell_angle_gamma 115.376155
_cell_volume 640.620990
_symmetry_space_group_name_H-M "P -1"
_symmetry_group_IT_number 2
_symmetry_cell_setting 'triclinic'
loop_
_space_group_symop_operation_xyz
x,y,z
-x,-y,-z
loop_
_atom_site_type_symbol
_atom_site_label
_atom_site_fract_x
_atom_site_fract_y
_atom_site_fract_z
Si Si1 0.005950 0.461447 0.263747
Si Si2 0.973042 0.443319 0.587294
Si Si3 0.236188 0.159588 0.466154
Si Si4 0.290972 0.752368 0.936569
Si Si5 0.063923 0.805115 0.964654
Si Si6 0.324693 0.257163 0.091741
Si Si7 0.404671 0.740594 0.317546
Si Si8 0.433136 0.603013 0.704517
O O1 0.984269 0.600259 0.314053
O O2 0.138238 0.249106 0.354387
O O3 0.160340 0.661098 0.250718
O O4 0.784984 0.325467 0.159785
O O5 0.895538 0.719719 0.538044
O O6 0.184286 0.483337 0.621016
O O7 0.805284 0.168008 0.525619
O O8 0.471507 0.295691 0.565191
O O9 0.097517 0.825458 0.896299
O O10 0.301245 0.480020 0.007091
O O11 0.500000 0.000000 0.000000
O O12 0.864298 0.883585 0.911873
O O13 0.000000 0.500000 0.000000
O O14 0.290301 0.978733 0.060782
O O15 0.503305 0.418548 0.192457
O O16 0.458558 0.557504 0.293509
O O17 0.498205 0.065776 0.308916
#
# Coordination Sequence:
#
# PCOD9045719 Si02
#       8
#     2   2   2   2   2   2   2   2
#     4  10  27  45  70 104 144 184 238 289 351 419
#     4  10  25  45  74  99 150 179 227 291 364 407
#     4  10  24  47  75 100 146 181 236 290 356 409
#     4  11  25  42  70  99 136 183 232 283 352 420
#     4   9  21  41  66  92 133 179 230 285 350 399
#     4  10  24  41  67  95 141 179 230 290 343 414
#     4  12  27  45  77 106 136 188 242 287 348 426
#     4  12  28  43  73 108 143 183 238 286 355 418
#
# _framework density 24.975764999999999
#
# number of rings (size 3 to 8) (size 9 to 14) (size 15 to 20)
#    0.750    0.750    0.000    2.625   14.000    5.000 
#    0.000    0.000    0.000    0.000    0.000    0.000 
#    0.000    0.000    0.000    0.000    0.000    0.000 
#
# Total GULP energy -89271.139621 kJ/mol
# GULP energy per Si atom -5579.446226 kJ/mol
# Density = 2.491892 g / cm^3
# Si number density = 24.975765 Si / 1000 Ang^3
#
#
#
# Elastic Constant Matrix: (Units=GPa)
#
#
# Indices 1 2 3 4 5 6 
#
# 1 86.4997 38.3736 -8.8064 13.3094 -7.2007 2.4847
# 2 38.3736 120.0696 31.8754 21.4796 -10.3836 -12.1381
# 3 -8.8064 31.8754 133.2998 21.6408 -14.2110 3.1338
# 4 13.3094 21.4796 21.6408 45.3144 3.9625 -1.7021
# 5 -7.2007 -10.3836 -14.2110 3.9625 34.5202 12.8662
# 6 2.4847 -12.1381 3.1338 -1.7021 12.8662 26.2797
#
#
#
# Elastic Compliance Matrix: (Units=1/GPa)
#
#
# Indices 1 2 3 4 5 6 
#
# 1 0.016056 -0.005577 0.004156 -0.004991 0.007078 -0.008378
# 2 -0.005577 0.011923 -0.003159 -0.002144 -0.001185 0.006852
# 3 0.004156 -0.003159 0.010412 -0.005620 0.007507 -0.007133
# 4 -0.004991 -0.002144 -0.005620 0.028344 -0.009778 0.006775
# 5 0.007078 -0.001185 0.007507 -0.009778 0.043209 -0.023900
# 6 -0.008378 0.006852 -0.007133 0.006775 -0.023900 0.055000
#
#
# Mechanical properties :
#
#
# Convention : Reuss Voigt Hill
#
# Bulk Modulus (GPa) = 34.20911 51.41714 42.81312
# Shear Modulus (GPa) = 27.19660 39.78463 33.49061
#
# Velocity S-wave (km/s) = 3.30346 3.99548 3.66584
# Velocity P-wave (km/s) = 5.31762 6.47431 5.92426
#
# Compressibility (1/GPa) = 0.02923198
#
# Stress axis : x y z
#
# Youngs Moduli (GPa) = 62.28378 83.87029 96.04089
#
# Poissons Ratio (x) = 0.46771 -0.39914
# Poissons Ratio (y) = 0.34733 0.30338
# Poissons Ratio (z) = -0.25885 0.26494
#
# Static dielectric constant tensor:
#      x y z
#    x 2.081480 -0.102100 -0.048700 
#    y -0.102100 2.029250 0.021040 
#    z -0.048700 0.021040 2.184140 
# 
# From -- ./inp_files/592484.got.cif
#   From: 2010.05.17/outbox.cif.g08.bks.cpg/sg2_297_cif.got.tgz:592484.got - 2010.06.03 11:33:40.
