data_PCOD9045113
_publ_section_title
;
Structure prediction by ZEFSAII (Michael W. Deem and Ramdas Pophale) SiO2 
 PCOD9045113
Probable space group: P -1
;
_chemical_formula_sum "Si O2"
_cell_formula_units_Z 14
_cell_length_a 15.372418
_cell_length_b 8.826947
_cell_length_c 12.164494
_cell_angle_alpha 49.542614
_cell_angle_beta 27.942082
_cell_angle_gamma 59.194818
_cell_volume 579.794881
_symmetry_space_group_name_H-M "P -1"
_symmetry_group_IT_number 2
_symmetry_cell_setting 'triclinic'
loop_
_space_group_symop_operation_xyz
x,y,z
-x,-y,-z
loop_
_atom_site_type_symbol
_atom_site_label
_atom_site_fract_x
_atom_site_fract_y
_atom_site_fract_z
Si Si1 0.641319 0.674609 0.895096
Si Si2 0.796095 0.061982 0.673610
Si Si3 0.301372 0.330464 0.424757
Si Si4 0.269416 0.996515 0.983496
Si Si5 0.122837 0.637905 0.149606
Si Si6 0.682833 0.105380 0.379986
Si Si7 0.047742 0.729844 0.801799
O O1 0.669654 0.876764 0.838545
O O2 0.642549 0.706030 0.747873
O O3 0.820044 0.566665 0.774045
O O4 0.459228 0.510015 0.205931
O O5 0.841055 0.241079 0.451334
O O6 0.711746 0.088165 0.874679
O O7 0.000000 0.000000 0.500000
O O8 0.093847 0.381499 0.631254
O O9 0.299620 0.114503 0.585964
O O10 0.471203 0.089082 0.665701
O O11 0.136438 0.165807 0.054090
O O12 0.173490 0.809534 0.104726
O O13 0.250738 0.721157 0.863806
O O14 0.823945 0.148840 0.304434
O O15 0.000000 0.500000 0.000000
#
# Coordination Sequence:
#
# PCOD9045113 Si02
#       7
#     2   2   2   2   2   2   2
#     4  11  24  45  72 108 138 183 243 291 351 428
#     4  10  23  49  73 101 146 184 233 292 352 425
#     4  11  23  44  72 105 140 184 244 288 353 420
#     4  11  25  47  74 103 144 188 232 295 354 417
#     4  12  25  44  75 103 146 188 233 297 355 413
#     4  12  25  46  69 106 145 185 240 294 353 415
#     4  11  26  49  71 104 144 189 236 285 357 430
#
# _framework density 24.146470000000001
#
# number of rings (size 3 to 8) (size 9 to 14) (size 15 to 20)
#    0.000    0.857    4.286    2.143    4.000    1.143 
#    2.571    0.000    0.000    0.000    0.000    0.000 
#    0.000    0.000    0.000    0.000    0.000    0.000 
#
# Total GULP energy -78575.654588 kJ/mol
# GULP energy per Si atom -5612.546756 kJ/mol
# Density = 2.409151 g / cm^3
# Si number density = 24.146470 Si / 1000 Ang^3
#
#
#
# Elastic Constant Matrix: (Units=GPa)
#
#
# Indices 1 2 3 4 5 6 
#
# 1 101.7393 27.1656 55.5348 -3.3376 3.0344 6.8186
# 2 27.1656 92.5555 45.9500 0.1640 -1.7686 -4.8885
# 3 55.5348 45.9500 135.7923 -2.3474 -14.7142 11.2213
# 4 -3.3376 0.1640 -2.3474 41.0500 -5.9408 -2.3702
# 5 3.0344 -1.7686 -14.7142 -5.9408 51.9539 -3.3242
# 6 6.8186 -4.8885 11.2213 -2.3702 -3.3242 32.5390
#
#
#
# Elastic Compliance Matrix: (Units=1/GPa)
#
#
# Indices 1 2 3 4 5 6 
#
# 1 0.013127 -0.001502 -0.004980 0.000374 -0.002279 -0.001465
# 2 -0.001502 0.013600 -0.004357 -0.000275 -0.000472 0.003792
# 3 -0.004980 -0.004357 0.011503 0.000557 0.003259 -0.003204
# 4 0.000374 -0.000275 0.000557 0.024978 0.003099 0.001824
# 5 -0.002279 -0.000472 0.003259 0.003099 0.020746 0.001628
# 6 -0.001465 0.003792 -0.003204 0.001824 0.001628 0.033013
#
#
# Mechanical properties :
#
#
# Convention : Reuss Voigt Hill
#
# Bulk Modulus (GPa) = 60.41621 65.26534 62.84077
# Shear Modulus (GPa) = 34.68335 38.53769 36.61052
#
# Velocity S-wave (km/s) = 3.79406 3.99933 3.89805
# Velocity P-wave (km/s) = 6.65344 6.95800 6.80742
#
# Compressibility (1/GPa) = 0.01655185
#
# Stress axis : x y z
#
# Youngs Moduli (GPa) = 76.18094 73.52910 86.93734
#
# Poissons Ratio (x) = 0.11046 0.43290
# Poissons Ratio (y) = 0.11444 0.37878
# Poissons Ratio (z) = 0.37934 0.32037
#
# Static dielectric constant tensor:
#      x y z
#    x 1.907800 -0.009890 0.008660 
#    y -0.009890 1.929860 0.021050 
#    z 0.008660 0.021050 1.899410 
# 
# From -- ./inp_files/403520.got.cif
#   From: 2010.05.17/outbox.cif.g08.bks.cpg/sg2_202_cif.got.tgz:403520.got - 2010.06.03 11:33:40.
