data_PCOD9045892
_publ_section_title
;
Structure prediction by ZEFSAII (Michael W. Deem and Ramdas Pophale) SiO2 
 PCOD9045892
Probable space group: P -1
;
_chemical_formula_sum "Si O2"
_cell_formula_units_Z 16
_cell_length_a 17.700846
_cell_length_b 7.336072
_cell_length_c 6.908869
_cell_angle_alpha 69.970546
_cell_angle_beta 112.645867
_cell_angle_gamma 72.937039
_cell_volume 677.898665
_symmetry_space_group_name_H-M "P -1"
_symmetry_group_IT_number 2
_symmetry_cell_setting 'triclinic'
loop_
_space_group_symop_operation_xyz
x,y,z
-x,-y,-z
loop_
_atom_site_type_symbol
_atom_site_label
_atom_site_fract_x
_atom_site_fract_y
_atom_site_fract_z
Si Si1 0.942178 0.740906 0.269949
Si Si2 0.441130 0.350608 0.813776
Si Si3 0.376563 0.849455 0.551162
Si Si4 0.593256 0.953618 0.858876
Si Si5 0.718598 0.756430 0.383408
Si Si6 0.907174 0.342515 0.857919
Si Si7 0.058664 0.093421 0.407245
Si Si8 0.181909 0.940817 0.220053
O O1 0.894046 0.864915 0.375253
O O2 0.000000 0.500000 0.500000
O O3 0.023222 0.761397 0.221021
O O4 0.865300 0.811276 0.003766
O O5 0.436138 0.586488 0.746728
O O6 0.527763 0.178753 0.831818
O O7 0.347583 0.360220 0.621459
O O8 0.445998 0.216173 0.065737
O O9 0.409845 0.974298 0.388813
O O10 0.290065 0.846707 0.356825
O O11 0.328980 0.017620 0.621557
O O12 0.696256 0.831465 0.108566
O O13 0.822866 0.585079 0.625601
O O14 0.856703 0.194288 0.893802
O O15 0.977921 0.297347 0.124817
O O16 0.140284 0.951200 0.388305
O O17 0.000000 0.000000 0.500000
#
# Coordination Sequence:
#
# PCOD9045892 Si02
#       8
#     2   2   2   2   2   2   2   2
#     4  11  25  37  61  86 122 166 207 266 311 365
#     4   9  21  48  65  97 133 161 213 268 306 391
#     4  12  24  41  68  97 131 170 209 264 324 375
#     4   9  22  46  67  95 133 165 210 261 322 383
#     4  10  24  42  62  99 128 162 220 259 307 398
#     4  11  22  42  60  88 125 160 216 265 306 379
#     4  11  21  40  62  84 113 170 213 247 320 370
#     4  11  23  40  59  92 122 160 218 258 313 384
#
# _framework density 23.602350000000001
#
# number of rings (size 3 to 8) (size 9 to 14) (size 15 to 20)
#    0.750    0.750    3.750    1.125    5.250    2.000 
#    4.500    0.000    0.000    0.000    0.000    0.000 
#    0.000    0.000    0.000    0.000    0.000    0.000 
#
# Total GULP energy -89110.035527 kJ/mol
# GULP energy per Si atom -5569.377220 kJ/mol
# Density = 2.354863 g / cm^3
# Si number density = 23.602350 Si / 1000 Ang^3
#
#
#
# Elastic Constant Matrix: (Units=GPa)
#
#
# Indices 1 2 3 4 5 6 
#
# 1 55.2244 -2.7319 20.9447 -4.9637 -2.2232 -2.6005
# 2 -2.7319 73.9523 19.6006 -16.2426 -11.3953 7.5083
# 3 20.9447 19.6006 133.7930 -7.9147 -7.0629 -9.0003
# 4 -4.9637 -16.2426 -7.9147 32.2374 -4.4525 -0.8824
# 5 -2.2232 -11.3953 -7.0629 -4.4525 38.8146 -6.7244
# 6 -2.6005 7.5083 -9.0003 -0.8824 -6.7244 27.7748
#
#
#
# Elastic Compliance Matrix: (Units=1/GPa)
#
#
# Indices 1 2 3 4 5 6 
#
# 1 0.019885 0.002643 -0.003118 0.003913 0.001922 0.000727
# 2 0.002643 0.017472 -0.002396 0.009248 0.005268 -0.003683
# 3 -0.003118 -0.002396 0.008667 0.000729 0.001389 0.003524
# 4 0.003913 0.009248 0.000729 0.037538 0.007573 0.001129
# 5 0.001922 0.005268 0.001389 0.007573 0.029691 0.006635
# 6 0.000727 -0.003683 0.003524 0.001129 0.006635 0.039851
#
#
# Mechanical properties :
#
#
# Convention : Reuss Voigt Hill
#
# Bulk Modulus (GPa) = 24.82571 37.62183 31.22377
# Shear Modulus (GPa) = 29.02368 34.77579 31.89974
#
# Velocity S-wave (km/s) = 3.51050 3.84266 3.68033
# Velocity P-wave (km/s) = 5.19352 5.97181 5.59621
#
# Compressibility (1/GPa) = 0.04028082
#
# Stress axis : x y z
#
# Youngs Moduli (GPa) = 50.29019 57.23514 115.38212
#
# Poissons Ratio (x) = -0.15127 0.35978
# Poissons Ratio (y) = -0.13291 0.27644
# Poissons Ratio (z) = 0.15681 0.13713
#
# Static dielectric constant tensor:
#      x y z
#    x 1.944830 0.107120 0.018420 
#    y 0.107120 1.956410 -0.016590 
#    z 0.018420 -0.016590 1.928660 
# 
# From -- ./inp_files/115978.got.cif
#   From: 2010.05.17/outbox.cif.g08.bks.cpg/sg2_58_cif.got.tgz:115978.got - 2010.06.03 11:33:40.
