data_PCOD9045463
_publ_section_title
;
Structure prediction by ZEFSAII (Michael W. Deem and Ramdas Pophale) SiO2 
 PCOD9045463
Probable space group: P -1
;
_chemical_formula_sum "Si O2"
_cell_formula_units_Z 16
_cell_length_a 5.541777
_cell_length_b 18.313693
_cell_length_c 14.069532
_cell_angle_alpha 152.027364
_cell_angle_beta 88.066078
_cell_angle_gamma 99.775949
_cell_volume 638.841003
_symmetry_space_group_name_H-M "P -1"
_symmetry_group_IT_number 2
_symmetry_cell_setting 'triclinic'
loop_
_space_group_symop_operation_xyz
x,y,z
-x,-y,-z
loop_
_atom_site_type_symbol
_atom_site_label
_atom_site_fract_x
_atom_site_fract_y
_atom_site_fract_z
Si Si1 0.524146 0.663560 0.252781
Si Si2 0.836570 0.584039 0.665415
Si Si3 0.753041 0.859624 0.311679
Si Si4 0.385777 0.079790 0.824470
Si Si5 0.682352 0.692873 0.610406
Si Si6 0.803640 0.901380 0.671646
Si Si7 0.222505 0.600735 0.822633
Si Si8 0.957217 0.548334 0.948427
O O1 0.547861 0.800675 0.330195
O O2 0.748310 0.749446 0.421595
O O3 0.500000 0.500000 0.000000
O O4 0.275690 0.607452 0.257096
O O5 0.777941 0.712226 0.739669
O O6 0.599065 0.431135 0.520344
O O7 0.000000 0.500000 0.500000
O O8 0.999310 0.655018 0.837635
O O9 0.645719 0.912065 0.278849
O O10 0.859087 0.704954 0.119649
O O11 0.000000 0.000000 0.500000
O O12 0.601697 0.995182 0.750312
O O13 0.517156 0.271605 0.067238
O O14 0.103043 0.995073 0.769146
O O15 0.724581 0.844682 0.715471
O O16 0.818112 0.579564 0.421604
O O17 0.193909 0.587680 0.920830
O O18 0.000000 0.500000 0.000000
#
# Coordination Sequence:
#
# PCOD9045463 Si02
#       8
#     2   2   2   2   2   2   2   2
#     4  10  24  40  67  99 139 188 257 308 361 418
#     4   9  21  46  78 112 138 182 245 304 376 440
#     4  11  24  45  65  98 149 200 249 300 367 433
#     4  12  29  47  68 106 151 200 241 299 375 448
#     4  10  24  44  80 108 143 186 248 307 368 442
#     4  12  28  46  71 107 148 191 245 307 372 434
#     4  11  25  44  76 102 149 193 247 300 373 443
#     4  11  25  41  70 110 142 191 254 309 359 425
#
# _framework density 25.045352999999999
#
# number of rings (size 3 to 8) (size 9 to 14) (size 15 to 20)
#    0.000    1.250    1.250    2.250   17.500    0.500 
#    0.000    1.250    0.000    0.000    0.000    0.000 
#    0.000    0.000    0.000    0.000    0.000    0.000 
#
# Total GULP energy -89399.160836 kJ/mol
# GULP energy per Si atom -5587.447552 kJ/mol
# Density = 2.498835 g / cm^3
# Si number density = 25.045353 Si / 1000 Ang^3
#
#
#
# Elastic Constant Matrix: (Units=GPa)
#
#
# Indices 1 2 3 4 5 6 
#
# 1 120.3261 66.6181 28.6017 21.6699 13.0733 -9.7234
# 2 66.6181 224.7666 35.0843 17.8690 10.9066 -6.3898
# 3 28.6017 35.0843 66.4743 11.8287 12.0901 -2.9903
# 4 21.6699 17.8690 11.8287 37.1293 3.9125 3.9915
# 5 13.0733 10.9066 12.0901 3.9125 45.8472 1.6576
# 6 -9.7234 -6.3898 -2.9903 3.9915 1.6576 47.5801
#
#
#
# Elastic Compliance Matrix: (Units=1/GPa)
#
#
# Indices 1 2 3 4 5 6 
#
# 1 0.011504 -0.002509 -0.002346 -0.004827 -0.001737 0.002332
# 2 -0.002509 0.005519 -0.001689 -0.000662 -0.000102 0.000181
# 3 -0.002346 -0.001689 0.018209 -0.003343 -0.003476 0.000840
# 4 -0.004827 -0.000662 -0.003343 0.031571 -0.000136 -0.003929
# 5 -0.001737 -0.000102 -0.003476 -0.000136 0.023310 -0.001388
# 6 0.002332 0.000181 0.000840 -0.003929 -0.001388 0.021949
#
#
# Mechanical properties :
#
#
# Convention : Reuss Voigt Hill
#
# Bulk Modulus (GPa) = 45.15709 74.68613 59.92161
# Shear Modulus (GPa) = 37.72723 44.86216 41.29470
#
# Velocity S-wave (km/s) = 3.88539 4.23689 4.06494
# Velocity P-wave (km/s) = 6.18042 7.33622 6.78298
#
# Compressibility (1/GPa) = 0.02214492
#
# Stress axis : x y z
#
# Youngs Moduli (GPa) = 86.92614 181.18823 54.91823
#
# Poissons Ratio (x) = 0.45463 0.12882
# Poissons Ratio (y) = 0.21811 0.09274
# Poissons Ratio (z) = 0.20390 0.30597
#
# Static dielectric constant tensor:
#      x y z
#    x 2.168550 -0.032030 -0.070030 
#    y -0.032030 1.988910 0.001760 
#    z -0.070030 0.001760 2.031530 
# 
# From -- ./inp_files/485322.got.cif
#   From: 2010.05.17/outbox.cif.g08.bks.cpg/sg2_243_cif.got.tgz:485322.got - 2010.06.03 11:33:40.
