data_PCOD9045118
_publ_section_title
;
Structure prediction by ZEFSAII (Michael W. Deem and Ramdas Pophale) SiO2 
 PCOD9045118
Probable space group: P -1
;
_chemical_formula_sum "Si O2"
_cell_formula_units_Z 10
_cell_length_a 9.757692
_cell_length_b 9.207430
_cell_length_c 5.193693
_cell_angle_alpha 86.822924
_cell_angle_beta 79.513373
_cell_angle_gamma 120.395524
_cell_volume 389.729046
_symmetry_space_group_name_H-M "P -1"
_symmetry_group_IT_number 2
_symmetry_cell_setting 'triclinic'
loop_
_space_group_symop_operation_xyz
x,y,z
-x,-y,-z
loop_
_atom_site_type_symbol
_atom_site_label
_atom_site_fract_x
_atom_site_fract_y
_atom_site_fract_z
Si Si1 0.520356 0.253766 0.062614
Si Si2 0.032991 0.178086 0.566243
Si Si3 0.960671 0.384854 0.268217
Si Si4 0.351335 0.403090 0.765771
Si Si5 0.693779 0.111495 0.662814
O O1 0.937043 0.705243 0.706857
O O2 0.397963 0.297850 0.952919
O O3 0.646457 0.435847 0.124937
O O4 0.419597 0.092210 0.303982
O O5 0.184836 0.276828 0.689656
O O6 0.861167 0.146158 0.740285
O O7 0.000000 0.000000 0.500000
O O8 0.395239 0.810645 0.159006
O O9 0.000000 0.500000 0.500000
O O10 0.773526 0.224385 0.368756
O O11 0.000000 0.500000 0.000000
O O12 0.500000 0.500000 0.500000
#
# Coordination Sequence:
#
# PCOD9045118 Si02
#       5
#     2   2   2   2   2
#     4  10  23  49  73 115 168 208 266 333 409 495
#     4  10  24  48  77 116 155 209 275 334 399 482
#     4  10  25  49  79 118 155 210 274 338 399 486
#     4  11  25  44  75 114 164 211 266 336 412 478
#     4   9  23  48  76 112 155 217 269 330 407 483
#
# _framework density 25.658852
#
# number of rings (size 3 to 8) (size 9 to 14) (size 15 to 20)
#    1.200    0.800    0.000    1.200    2.800    4.800 
#    7.200    7.000    0.000    1.200    0.000    0.000 
#    0.000    0.000    0.000    0.000    0.000    0.000 
#
# Total GULP energy -56031.653829 kJ/mol
# GULP energy per Si atom -5603.165383 kJ/mol
# Density = 2.560045 g / cm^3
# Si number density = 25.658852 Si / 1000 Ang^3
#
#
#
# Elastic Constant Matrix: (Units=GPa)
#
#
# Indices 1 2 3 4 5 6 
#
# 1 159.4805 114.0310 38.1313 0.5401 13.8122 -14.0889
# 2 114.0310 256.1481 84.7731 -22.3599 24.7342 -14.4608
# 3 38.1313 84.7731 148.7431 -33.9675 27.5366 -22.1521
# 4 0.5401 -22.3599 -33.9675 42.6012 -0.6104 8.6931
# 5 13.8122 24.7342 27.5366 -0.6104 35.8176 -8.8118
# 6 -14.0889 -14.4608 -22.1521 8.6931 -8.8118 67.3465
#
#
#
# Elastic Compliance Matrix: (Units=1/GPa)
#
#
# Indices 1 2 3 4 5 6 
#
# 1 0.009587 -0.004286 -0.000498 -0.003035 -0.000085 0.001302
# 2 -0.004286 0.006806 -0.002121 0.002035 -0.001528 -0.000596
# 3 -0.000498 -0.002121 0.011145 0.007421 -0.006465 0.001302
# 4 -0.003035 0.002035 0.007421 0.030929 -0.006037 -0.002539
# 5 -0.000085 -0.001528 -0.006465 -0.006037 0.034571 0.002830
# 6 0.001302 -0.000596 0.001302 -0.002539 0.002830 0.016120
#
#
# Mechanical properties :
#
#
# Convention : Reuss Voigt Hill
#
# Bulk Modulus (GPa) = 72.85235 115.36028 94.10632
# Shear Modulus (GPa) = 39.20244 50.98215 45.09229
#
# Velocity S-wave (km/s) = 3.91299 4.46233 4.19666
# Velocity P-wave (km/s) = 6.99068 8.46207 7.76132
#
# Compressibility (1/GPa) = 0.01372639
#
# Stress axis : x y z
#
# Youngs Moduli (GPa) = 104.30943 146.93769 89.72595
#
# Poissons Ratio (x) = 0.62980 0.04471
# Poissons Ratio (y) = 0.44708 0.19032
# Poissons Ratio (z) = 0.05198 0.31167
#
# Static dielectric constant tensor:
#      x y z
#    x 2.032610 0.009910 -0.012020 
#    y 0.009910 1.961370 0.003460 
#    z -0.012020 0.003460 2.076800 
# 
# From -- ./inp_files/21634.got.cif
#   From: 2010.05.17/outbox.cif.g08.bks.cpg/sg2_11_cif.got.tgz:21634.got - 2010.06.03 11:33:40.
