data_PCOD9045168
_publ_section_title
;
Structure prediction by ZEFSAII (Michael W. Deem and Ramdas Pophale) SiO2 
 PCOD9045168
Probable space group: P -1
;
_chemical_formula_sum "Si O2"
_cell_formula_units_Z 15
_cell_length_a 5.744257
_cell_length_b 5.824316
_cell_length_c 22.185301
_cell_angle_alpha 72.476566
_cell_angle_beta 122.415765
_cell_angle_gamma 96.369978
_cell_volume 596.331967
_symmetry_space_group_name_H-M "P -1"
_symmetry_group_IT_number 2
_symmetry_cell_setting 'triclinic'
loop_
_space_group_symop_operation_xyz
x,y,z
-x,-y,-z
loop_
_atom_site_type_symbol
_atom_site_label
_atom_site_fract_x
_atom_site_fract_y
_atom_site_fract_z
Si Si1 0.481742 0.293434 0.776658
Si Si2 0.459432 0.646719 0.355838
Si Si3 0.992463 0.002553 0.917591
Si Si4 0.039180 0.686266 0.695740
Si Si5 0.675765 0.696791 0.975598
Si Si6 0.834904 0.115195 0.181899
Si Si7 0.000000 0.500000 0.500000
Si Si8 0.295420 0.884051 0.433963
O O1 0.557265 0.241855 0.721783
O O2 0.345948 0.564395 0.739546
O O3 0.737709 0.208028 0.861885
O O4 0.233219 0.134288 0.776447
O O5 0.449545 0.831248 0.396088
O O6 0.750659 0.497755 0.414922
O O7 0.202790 0.483139 0.342006
O O8 0.029407 0.921319 0.860831
O O9 0.247848 0.131846 0.971166
O O10 0.952098 0.760974 0.970413
O O11 0.011678 0.734356 0.759807
O O12 0.967995 0.932334 0.630525
O O13 0.464062 0.766315 0.886453
O O14 0.500000 0.500000 0.000000
O O15 0.190949 0.645355 0.467913
O O16 0.500000 0.000000 0.500000
#
# Coordination Sequence:
#
# PCOD9045168 Si02
#       8
#     2   2   2   2   2   2   1   2
#     4  11  26  47  75 107 152 201 250 312 369 446
#     4  12  27  47  76 112 150 190 252 312 370 456
#     4  10  23  50  74 110 155 197 250 318 363 438
#     4  12  26  48  75 111 150 199 250 307 378 448
#     4  10  24  44  76 115 149 201 252 306 376 442
#     4  11  25  48  75 109 155 197 253 310 374 443
#     4  12  26  50  78 108 144 190 244 312 370 446
#     4  12  28  52  79 111 150 193 248 311 380 448
#
# _framework density 25.153773999999999
#
# number of rings (size 3 to 8) (size 9 to 14) (size 15 to 20)
#    0.000    0.800    1.333    4.800    5.600    5.333 
#    2.400    0.000    0.000    0.000    0.000    0.000 
#    0.000    0.000    0.000    0.000    0.000    0.000 
#
# Total GULP energy -83538.209635 kJ/mol
# GULP energy per Si atom -5569.213976 kJ/mol
# Density = 2.509652 g / cm^3
# Si number density = 25.153774 Si / 1000 Ang^3
#
#
#
# Elastic Constant Matrix: (Units=GPa)
#
#
# Indices 1 2 3 4 5 6 
#
# 1 104.2429 43.3461 53.8255 -2.6323 -7.0633 1.6765
# 2 43.3461 71.5294 61.5368 9.6693 -0.2089 4.0342
# 3 53.8255 61.5368 228.2481 -11.8914 56.4756 -43.6382
# 4 -2.6323 9.6693 -11.8914 59.6960 -21.5089 11.2420
# 5 -7.0633 -0.2089 56.4756 -21.5089 126.2230 -42.7220
# 6 1.6765 4.0342 -43.6382 11.2420 -42.7220 65.6601
#
#
#
# Elastic Compliance Matrix: (Units=1/GPa)
#
#
# Indices 1 2 3 4 5 6 
#
# 1 0.013562 -0.007043 -0.001673 0.002088 0.001774 -0.000229
# 2 -0.007043 0.024270 -0.005985 -0.004580 0.000024 -0.004489
# 3 -0.001673 -0.005985 0.007715 0.000939 -0.002020 0.004062
# 4 0.002088 -0.004580 0.000939 0.018860 0.002691 -0.000626
# 5 0.001774 0.000024 -0.002020 0.002691 0.011232 0.005458
# 6 -0.000229 -0.004489 0.004062 -0.000626 0.005458 0.021870
#
#
# Mechanical properties :
#
#
# Convention : Reuss Voigt Hill
#
# Bulk Modulus (GPa) = 61.94403 80.15968 71.05186
# Shear Modulus (GPa) = 37.79487 66.66996 52.23242
#
# Velocity S-wave (km/s) = 3.88048 5.15388 4.56183
# Velocity P-wave (km/s) = 6.69008 8.20693 7.48702
#
# Compressibility (1/GPa) = 0.01614360
#
# Stress axis : x y z
#
# Youngs Moduli (GPa) = 73.73351 41.20347 129.61800
#
# Poissons Ratio (x) = 0.29021 0.21690
# Poissons Ratio (y) = 0.51932 0.77579
# Poissons Ratio (z) = 0.12338 0.24661
#
# Static dielectric constant tensor:
#      x y z
#    x 2.085620 -0.072820 0.013650 
#    y -0.072820 2.073240 -0.065950 
#    z 0.013650 -0.065950 1.948530 
# 
# From -- ./inp_files/580977.got.cif
#   From: 2010.05.17/outbox.cif.g08.bks.cpg/sg2_291_cif.got.tgz:580977.got - 2010.06.03 11:33:40.
