data_PCOD9045521
_publ_section_title
;
Structure prediction by ZEFSAII (Michael W. Deem and Ramdas Pophale) SiO2 
 PCOD9045521
Probable space group: P -1
;
_chemical_formula_sum "Si O2"
_cell_formula_units_Z 13
_cell_length_a 15.719261
_cell_length_b 8.034793
_cell_length_c 9.225432
_cell_angle_alpha 32.648251
_cell_angle_beta 122.681983
_cell_angle_gamma 120.806590
_cell_volume 524.817121
_symmetry_space_group_name_H-M "P -1"
_symmetry_group_IT_number 2
_symmetry_cell_setting 'triclinic'
loop_
_space_group_symop_operation_xyz
x,y,z
-x,-y,-z
loop_
_atom_site_type_symbol
_atom_site_label
_atom_site_fract_x
_atom_site_fract_y
_atom_site_fract_z
Si Si1 0.061523 0.711539 0.783205
Si Si2 0.725692 0.138328 0.975369
Si Si3 0.355172 0.844108 0.645019
Si Si4 0.000000 0.000000 0.000000
Si Si5 0.646992 0.471204 0.413494
Si Si6 0.122945 0.550070 0.643920
Si Si7 0.427759 0.553320 0.201252
O O1 0.067695 0.536827 0.763110
O O2 0.174670 0.812493 0.871250
O O3 0.000000 0.000000 0.500000
O O4 0.000000 0.500000 0.000000
O O5 0.729106 0.366967 0.675507
O O6 0.630897 0.217635 0.926978
O O7 0.695757 0.788294 0.153520
O O8 0.383082 0.781730 0.551227
O O9 0.239653 0.682379 0.678086
O O10 0.365962 0.211200 0.410977
O O11 0.423869 0.681753 0.939705
O O12 0.076986 0.789859 0.318427
O O13 0.904064 0.815712 0.146014
O O14 0.544656 0.526190 0.362905
#
# Coordination Sequence:
#
# PCOD9045521 Si02
#       7
#     2   2   2   1   2   2   2
#     4  12  27  45  72  98 137 186 238 287 348 426
#     4  12  26  46  71 102 145 185 235 291 351 413
#     4  12  25  43  74  99 146 183 234 286 356 417
#     4  10  24  40  70  94 132 172 232 290 336 408
#     4  12  26  44  70 111 141 182 237 293 345 415
#     4  11  24  45  67  99 134 184 232 283 356 410
#     4  12  24  46  73 101 144 192 231 283 355 426
#
# _framework density 24.770531999999999
#
# number of rings (size 3 to 8) (size 9 to 14) (size 15 to 20)
#    0.000    0.308    1.538    7.385    2.154    7.385 
#    0.000    0.000    0.000    0.000    0.000    0.000 
#    0.000    0.000    0.000    0.000    0.000    0.000 
#
# Total GULP energy -72636.801332 kJ/mol
# GULP energy per Si atom -5587.446256 kJ/mol
# Density = 2.471415 g / cm^3
# Si number density = 24.770532 Si / 1000 Ang^3
#
#
#
# Elastic Constant Matrix: (Units=GPa)
#
#
# Indices 1 2 3 4 5 6 
#
# 1 78.8796 3.6630 19.0188 5.1288 -2.1887 3.3923
# 2 3.6630 56.2915 11.9211 9.6016 3.4725 10.8375
# 3 19.0188 11.9211 159.5328 11.5276 2.3538 12.1080
# 4 5.1288 9.6016 11.5276 46.7700 19.0694 -6.0929
# 5 -2.1887 3.4725 2.3538 19.0694 27.1343 3.3840
# 6 3.3923 10.8375 12.1080 -6.0929 3.3840 34.2745
#
#
#
# Elastic Compliance Matrix: (Units=1/GPa)
#
#
# Indices 1 2 3 4 5 6 
#
# 1 0.013333 -0.000014 -0.001317 -0.002691 0.003289 -0.001653
# 2 -0.000014 0.020205 -0.000535 -0.006091 0.002681 -0.007546
# 3 -0.001317 -0.000535 0.006814 -0.002311 0.001325 -0.002649
# 4 -0.002691 -0.006091 -0.002311 0.035506 -0.025669 0.011855
# 5 0.003289 0.002681 0.001325 -0.025669 0.056166 -0.011750
# 6 -0.001653 -0.007546 -0.002649 0.011855 -0.011750 0.035929
#
#
# Mechanical properties :
#
#
# Convention : Reuss Voigt Hill
#
# Bulk Modulus (GPa) = 27.30801 40.43441 33.87121
# Shear Modulus (GPa) = 27.18985 38.97582 33.08283
#
# Velocity S-wave (km/s) = 3.31670 3.97101 3.65851
# Velocity P-wave (km/s) = 5.07106 6.11427 5.61694
#
# Compressibility (1/GPa) = 0.03661929
#
# Stress axis : x y z
#
# Youngs Moduli (GPa) = 75.00150 49.49234 146.76159
#
# Poissons Ratio (x) = 0.00071 0.19330
# Poissons Ratio (y) = 0.00108 0.07850
# Poissons Ratio (z) = 0.09878 0.02647
#
# Static dielectric constant tensor:
#      x y z
#    x 1.964930 0.059840 -0.034860 
#    y 0.059840 1.752150 0.136470 
#    z -0.034860 0.136470 1.819170 
# 
# From -- ./inp_files/197731.got.cif
#   From: 2010.05.17/outbox.cif.g08.bks.cpg/sg2_99_cif.got.tgz:197731.got - 2010.06.03 11:33:40.
