data_PCOD9045645
_publ_section_title
;
Structure prediction by ZEFSAII (Michael W. Deem and Ramdas Pophale) SiO2 
 PCOD9045645
Probable space group: P -1
;
_chemical_formula_sum "Si O2"
_cell_formula_units_Z 15
_cell_length_a 7.943105
_cell_length_b 22.517765
_cell_length_c 10.562282
_cell_angle_alpha 26.806155
_cell_angle_beta 116.042987
_cell_angle_gamma 128.388870
_cell_volume 631.316437
_symmetry_space_group_name_H-M "P -1"
_symmetry_group_IT_number 2
_symmetry_cell_setting 'triclinic'
loop_
_space_group_symop_operation_xyz
x,y,z
-x,-y,-z
loop_
_atom_site_type_symbol
_atom_site_label
_atom_site_fract_x
_atom_site_fract_y
_atom_site_fract_z
Si Si1 0.406310 0.107847 0.226201
Si Si2 0.527820 0.265329 0.235393
Si Si3 0.870077 0.551868 0.675842
Si Si4 0.000000 0.000000 0.000000
Si Si5 0.926847 0.561249 0.242889
Si Si6 0.308200 0.887187 0.249549
Si Si7 0.578469 0.673056 0.393734
Si Si8 0.044474 0.127778 0.379213
O O1 0.453359 0.216794 0.157615
O O2 0.500000 0.000000 0.500000
O O3 0.482070 0.226370 0.908165
O O4 0.132232 0.979562 0.364696
O O5 0.587747 0.147981 0.531711
O O6 0.308449 0.226885 0.312276
O O7 0.747210 0.445192 0.963536
O O8 0.682117 0.589737 0.505037
O O9 0.938533 0.452939 0.801487
O O10 0.111548 0.718247 0.448786
O O11 0.805327 0.026614 0.908984
O O12 0.201832 0.199454 0.695802
O O13 0.650071 0.450927 0.367532
O O14 0.000000 0.500000 0.500000
O O15 0.001933 0.743530 0.929948
O O16 0.500000 0.000000 0.000000
O O17 0.000000 0.000000 0.500000
#
# Coordination Sequence:
#
# PCOD9045645 Si02
#       8
#     2   2   2   1   2   2   2   2
#     4  11  23  41  67 102 140 188 231 293 358 417
#     4  11  23  44  66  96 142 176 231 290 353 417
#     4  11  25  43  69 100 138 187 231 290 351 419
#     4  10  24  44  68 100 142 178 236 290 348 414
#     4  12  25  43  72 104 142 186 241 288 354 431
#     4  11  25  45  72 100 134 184 233 292 355 425
#     4  11  24  44  70 103 144 187 242 293 350 424
#     4  10  24  41  65 101 140 182 226 290 358 413
#
# _framework density 23.759874
#
# number of rings (size 3 to 8) (size 9 to 14) (size 15 to 20)
#    0.000    1.067    1.333    4.400    7.467    3.200 
#    0.000    0.667    0.000    0.000    0.000    0.000 
#    0.000    0.000    0.000    0.000    0.000    0.000 
#
# Total GULP energy -83540.226688 kJ/mol
# GULP energy per Si atom -5569.348446 kJ/mol
# Density = 2.370580 g / cm^3
# Si number density = 23.759874 Si / 1000 Ang^3
#
#
#
# Elastic Constant Matrix: (Units=GPa)
#
#
# Indices 1 2 3 4 5 6 
#
# 1 161.0500 32.2702 74.3392 -9.2790 4.4997 34.1865
# 2 32.2702 37.3591 14.5152 -20.6971 -8.6130 13.6304
# 3 74.3392 14.5152 153.1680 -24.2305 -1.3612 6.3059
# 4 -9.2790 -20.6971 -24.2305 30.0524 7.0953 -2.9484
# 5 4.4997 -8.6130 -1.3612 7.0953 66.3582 -19.1196
# 6 34.1865 13.6304 6.3059 -2.9484 -19.1196 28.7839
#
#
#
# Elastic Compliance Matrix: (Units=1/GPa)
#
#
# Indices 1 2 3 4 5 6 
#
# 1 0.014286 -0.009701 -0.006644 -0.007738 -0.006073 -0.015745
# 2 -0.009701 0.062220 0.006307 0.043497 -0.000089 -0.014927
# 3 -0.006644 0.006307 0.010713 0.011001 0.001700 0.004813
# 4 -0.007738 0.043497 0.011001 0.069687 -0.003685 -0.009126
# 5 -0.006073 -0.000089 0.001700 -0.003685 0.021980 0.021106
# 6 -0.015745 -0.014927 0.004813 -0.009126 0.021106 0.072540
#
#
# Mechanical properties :
#
#
# Convention : Reuss Voigt Hill
#
# Bulk Modulus (GPa) = 14.89390 65.98069 40.43730
# Shear Modulus (GPa) = 17.01357 40.40240 28.70798
#
# Velocity S-wave (km/s) = 2.67884 4.12812 3.47977
# Velocity P-wave (km/s) = 3.98125 7.10999 5.76204
#
# Compressibility (1/GPa) = 0.06714158
#
# Stress axis : x y z
#
# Youngs Moduli (GPa) = 69.99825 16.07208 93.34418
#
# Poissons Ratio (x) = 0.15592 0.62020
# Poissons Ratio (y) = 0.67908 -0.58872
# Poissons Ratio (z) = 0.46508 -0.10137
#
# Static dielectric constant tensor:
#      x y z
#    x 1.940390 -0.009720 -0.003950 
#    y -0.009720 2.217510 -0.002520 
#    z -0.003950 -0.002520 1.926590 
# 
# From -- ./inp_files/407250.got.cif
#   From: 2010.05.17/outbox.cif.g08.bks.cpg/sg2_204_cif.got.tgz:407250.got - 2010.06.03 11:33:40.
