data_PCOD9045570
_publ_section_title
;
Structure prediction by ZEFSAII (Michael W. Deem and Ramdas Pophale) SiO2 
 PCOD9045570
Probable space group: P -1
;
_chemical_formula_sum "Si O2"
_cell_formula_units_Z 15
_cell_length_a 5.304828
_cell_length_b 29.338969
_cell_length_c 13.669640
_cell_angle_alpha 20.658223
_cell_angle_beta 56.409412
_cell_angle_gamma 53.888564
_cell_volume 606.354922
_symmetry_space_group_name_H-M "P -1"
_symmetry_group_IT_number 2
_symmetry_cell_setting 'triclinic'
loop_
_space_group_symop_operation_xyz
x,y,z
-x,-y,-z
loop_
_atom_site_type_symbol
_atom_site_label
_atom_site_fract_x
_atom_site_fract_y
_atom_site_fract_z
Si Si1 0.941994 0.390550 0.158707
Si Si2 0.336728 0.119584 0.551621
Si Si3 0.217301 0.854501 0.758593
Si Si4 0.500000 0.500000 0.500000
Si Si5 0.039232 0.605129 0.194270
Si Si6 0.650017 0.567015 0.684007
Si Si7 0.787224 0.979618 0.904716
Si Si8 0.098650 0.737216 0.217121
O O1 0.648466 0.355749 0.346162
O O2 0.217224 0.261667 0.344161
O O3 0.844849 0.470480 0.919018
O O4 0.000000 0.500000 0.000000
O O5 0.468092 0.139258 0.376932
O O6 0.614161 0.030270 0.737148
O O7 0.034317 0.061220 0.721231
O O8 0.084995 0.737563 0.969162
O O9 0.000000 0.000000 0.500000
O O10 0.199433 0.827231 0.931957
O O11 0.719712 0.602519 0.213174
O O12 0.641450 0.398723 0.581701
O O13 0.328484 0.539439 0.194402
O O14 0.000000 0.500000 0.500000
O O15 0.796016 0.679807 0.377767
O O16 0.500000 0.000000 0.000000
O O17 0.996411 0.828137 0.150809
#
# Coordination Sequence:
#
# PCOD9045570 Si02
#       8
#     2   2   2   1   2   2   2   2
#     4  11  26  45  76 105 150 198 266 336 399 461
#     4  12  30  50  80 116 156 211 266 329 417 480
#     4  12  26  47  74 112 160 212 258 337 410 485
#     4  10  24  40  74 108 138 208 258 336 376 482
#     4  11  23  46  71 107 157 195 272 319 411 476
#     4  10  24  45  72 109 145 204 258 337 392 484
#     4  12  29  55  80 113 160 216 270 333 398 503
#     4  11  25  47  73 110 153 204 271 317 413 475
#
# _framework density 24.737988999999999
#
# number of rings (size 3 to 8) (size 9 to 14) (size 15 to 20)
#    0.000    0.800    4.000    2.000   13.067    2.667 
#    0.000    0.000    0.000    0.000    0.000    0.000 
#    0.000    0.000    0.000    0.000    0.000    0.000 
#
# Total GULP energy -83525.743489 kJ/mol
# GULP energy per Si atom -5568.382899 kJ/mol
# Density = 2.468168 g / cm^3
# Si number density = 24.737989 Si / 1000 Ang^3
#
#
#
# Elastic Constant Matrix: (Units=GPa)
#
#
# Indices 1 2 3 4 5 6 
#
# 1 65.6666 13.7658 21.0171 4.1193 -1.9893 1.2181
# 2 13.7658 195.6132 42.8327 -15.5998 -3.7599 -8.9713
# 3 21.0171 42.8327 86.9609 -12.7765 -20.1067 1.3432
# 4 4.1193 -15.5998 -12.7765 56.4171 4.4452 -0.8511
# 5 -1.9893 -3.7599 -20.1067 4.4452 44.4293 5.0093
# 6 1.2181 -8.9713 1.3432 -0.8511 5.0093 34.2856
#
#
#
# Elastic Compliance Matrix: (Units=1/GPa)
#
#
# Indices 1 2 3 4 5 6 
#
# 1 0.016855 -0.000441 -0.004416 -0.002281 -0.001002 -0.000451
# 2 -0.000441 0.005945 -0.002958 0.001128 -0.001181 0.001888
# 3 -0.004416 -0.002958 0.016002 0.002561 0.006782 -0.002171
# 4 -0.002281 0.001128 0.002561 0.018862 -0.000832 0.000866
# 5 -0.001002 -0.001181 0.006782 -0.000832 0.026007 -0.004360
# 6 -0.000451 0.001888 -0.002171 0.000866 -0.004360 0.030420
#
#
# Mechanical properties :
#
#
# Convention : Reuss Voigt Hill
#
# Bulk Modulus (GPa) = 43.15700 55.94132 49.54916
# Shear Modulus (GPa) = 36.37805 45.06806 40.72306
#
# Velocity S-wave (km/s) = 3.83891 4.27290 4.06171
# Velocity P-wave (km/s) = 6.09370 6.85611 6.48612
#
# Compressibility (1/GPa) = 0.02317121
#
# Stress axis : x y z
#
# Youngs Moduli (GPa) = 59.32806 168.21812 62.49325
#
# Poissons Ratio (x) = 0.07418 0.27599
# Poissons Ratio (y) = 0.02616 0.18486
# Poissons Ratio (z) = 0.26201 0.49759
#
# Static dielectric constant tensor:
#      x y z
#    x 1.905270 0.050080 0.051920 
#    y 0.050080 1.811180 -0.052190 
#    z 0.051920 -0.052190 1.908800 
# 
# From -- ./inp_files/486272.got.cif
#   From: 2010.05.17/outbox.cif.g08.bks.cpg/sg2_244_cif.got.tgz:486272.got - 2010.06.03 11:33:40.
