data_PCOD9045354
_publ_section_title
;
Structure prediction by ZEFSAII (Michael W. Deem and Ramdas Pophale) SiO2 
 PCOD9045354
Probable space group: P -1
;
_chemical_formula_sum "Si O2"
_cell_formula_units_Z 16
_cell_length_a 14.947748
_cell_length_b 8.724833
_cell_length_c 11.765641
_cell_angle_alpha 131.100872
_cell_angle_beta 42.156605
_cell_angle_gamma 127.981993
_cell_volume 750.747897
_symmetry_space_group_name_H-M "P -1"
_symmetry_group_IT_number 2
_symmetry_cell_setting 'triclinic'
loop_
_space_group_symop_operation_xyz
x,y,z
-x,-y,-z
loop_
_atom_site_type_symbol
_atom_site_label
_atom_site_fract_x
_atom_site_fract_y
_atom_site_fract_z
Si Si1 0.382332 0.686086 0.527647
Si Si2 0.466989 0.250268 0.917680
Si Si3 0.716967 0.349470 0.136053
Si Si4 0.126709 0.197489 0.743571
Si Si5 0.654508 0.031286 0.482923
Si Si6 0.172652 0.041320 0.126801
Si Si7 0.152299 0.149503 0.439779
Si Si8 0.561086 0.752546 0.796516
O O1 0.331223 0.665316 0.694346
O O2 0.297820 0.808659 0.588329
O O3 0.386127 0.461533 0.364597
O O4 0.538933 0.828428 0.449174
O O5 0.571545 0.152110 0.702128
O O6 0.500000 0.500000 0.000000
O O7 0.473093 0.197359 0.019335
O O8 0.308651 0.149207 0.979651
O O9 0.816677 0.581270 0.137137
O O10 0.574880 0.295916 0.174116
O O11 0.795048 0.169292 0.954592
O O12 0.135656 0.257250 0.629323
O O13 0.973537 0.052856 0.840321
O O14 0.229526 0.053953 0.606847
O O15 0.169367 0.201640 0.312736
O O16 0.296583 0.083781 0.294790
O O17 0.000000 0.000000 0.500000
#
# Coordination Sequence:
#
# PCOD9045354 Si02
#       8
#     2   2   2   2   2   2   2   2
#     4  11  21  38  62  93 123 158 208 258 305 364
#     4  11  23  41  64  90 128 164 204 260 305 368
#     4  12  22  38  66  96 121 162 211 261 305 367
#     4  11  22  41  65  91 127 164 206 256 314 374
#     4  11  23  39  65  91 124 165 207 251 312 370
#     4  10  24  40  61  92 130 162 206 259 313 358
#     4   9  20  36  58  86 125 160 197 251 313 357
#     4  11  21  36  65  93 123 156 213 254 305 366
#
# _framework density 21.312080000000002
#
# number of rings (size 3 to 8) (size 9 to 14) (size 15 to 20)
#    0.000    1.250    5.000    1.500    1.750    1.000 
#    0.000    1.250    2.750    0.000    0.000    0.000 
#    0.000    0.000    0.000    0.000    0.000    0.000 
#
# Total GULP energy -89155.971464 kJ/mol
# GULP energy per Si atom -5572.248217 kJ/mol
# Density = 2.126357 g / cm^3
# Si number density = 21.312080 Si / 1000 Ang^3
#
#
#
# Elastic Constant Matrix: (Units=GPa)
#
#
# Indices 1 2 3 4 5 6 
#
# 1 102.1648 54.9216 26.9674 -7.0631 -11.3968 30.1995
# 2 54.9216 91.7725 33.5444 8.2898 -26.0543 22.9630
# 3 26.9674 33.5444 56.5495 4.2652 -5.7278 13.3920
# 4 -7.0631 8.2898 4.2652 31.9025 2.2866 -1.7251
# 5 -11.3968 -26.0543 -5.7278 2.2866 34.9896 -7.4648
# 6 30.1995 22.9630 13.3920 -1.7251 -7.4648 34.3652
#
#
#
# Elastic Compliance Matrix: (Units=1/GPa)
#
#
# Indices 1 2 3 4 5 6 
#
# 1 0.018209 -0.009661 -0.001609 0.006530 -0.003970 -0.009454
# 2 -0.009661 0.024852 -0.007427 -0.008759 0.014164 -0.002585
# 3 -0.001609 -0.007427 0.023510 -0.001554 -0.002847 -0.003481
# 4 0.006530 -0.008759 -0.001554 0.035816 -0.006766 0.001047
# 5 -0.003970 0.014164 -0.002847 -0.006766 0.038483 0.003153
# 6 -0.009454 -0.002585 -0.003481 0.001047 0.003153 0.041229
#
#
# Mechanical properties :
#
#
# Convention : Reuss Voigt Hill
#
# Bulk Modulus (GPa) = 34.27295 53.48374 43.87834
# Shear Modulus (GPa) = 21.81318 29.25502 25.53410
#
# Velocity S-wave (km/s) = 3.20271 3.70901 3.46512
# Velocity P-wave (km/s) = 5.45828 6.59487 6.05331
#
# Compressibility (1/GPa) = 0.02917753
#
# Stress axis : x y z
#
# Youngs Moduli (GPa) = 54.91656 40.23823 42.53526
#
# Poissons Ratio (x) = 0.38873 0.06843
# Poissons Ratio (y) = 0.53053 0.31593
# Poissons Ratio (z) = 0.08835 0.29887
#
# Static dielectric constant tensor:
#      x y z
#    x 1.803070 0.022460 0.020180 
#    y 0.022460 1.859090 -0.012520 
#    z 0.020180 -0.012520 1.799850 
# 
# From -- ./inp_files/205595.got.cif
#   From: 2010.05.17/outbox.cif.g08.bks.cpg/sg2_103_cif.got.tgz:205595.got - 2010.06.03 11:33:40.
