data_PCOD9045393
_publ_section_title
;
Structure prediction by ZEFSAII (Michael W. Deem and Ramdas Pophale) SiO2 
 PCOD9045393
Probable space group: P -1
;
_chemical_formula_sum "Si O2"
_cell_formula_units_Z 16
_cell_length_a 10.852786
_cell_length_b 11.880511
_cell_length_c 11.585483
_cell_angle_alpha 57.742306
_cell_angle_beta 88.264090
_cell_angle_gamma 134.976886
_cell_volume 654.145412
_symmetry_space_group_name_H-M "P -1"
_symmetry_group_IT_number 2
_symmetry_cell_setting 'triclinic'
loop_
_space_group_symop_operation_xyz
x,y,z
-x,-y,-z
loop_
_atom_site_type_symbol
_atom_site_label
_atom_site_fract_x
_atom_site_fract_y
_atom_site_fract_z
Si Si1 0.348824 0.727394 0.399529
Si Si2 0.977546 0.585437 0.785141
Si Si3 0.051665 0.371529 0.973824
Si Si4 0.544068 0.853899 0.579031
Si Si5 0.813026 0.900870 0.682772
Si Si6 0.806705 0.128412 0.736022
Si Si7 0.299285 0.422512 0.278764
Si Si8 0.699708 0.916974 0.102619
O O1 0.440320 0.774242 0.498364
O O2 0.337963 0.876244 0.299428
O O3 0.521728 0.820749 0.250869
O O4 0.083331 0.424921 0.555545
O O5 0.923712 0.381053 0.912046
O O6 0.786132 0.502328 0.774893
O O7 0.237457 0.840632 0.579352
O O8 0.001744 0.664734 0.870512
O O9 0.326503 0.650461 0.785489
O O10 0.947255 0.143257 0.042269
O O11 0.683825 0.847525 0.604410
O O12 0.724002 0.668434 0.796730
O O13 0.758732 0.949733 0.762260
O O14 0.093868 0.170964 0.502937
O O15 0.750546 0.045492 0.914867
O O16 0.556353 0.657027 0.201729
#
# Coordination Sequence:
#
# PCOD9045393 Si02
#       8
#     2   2   2   2   2   2   2   2
#     4  11  24  41  62 102 134 168 208 262 343 382
#     4  10  24  40  64  94 135 170 205 272 315 388
#     4  11  24  38  62 103 129 164 213 257 340 383
#     4  11  23  41  66  90 133 169 209 267 317 391
#     4  10  24  46  66  95 125 177 226 261 318 379
#     4  11  25  39  67  97 135 171 210 269 319 396
#     4  10  24  44  68  92 128 177 222 266 315 379
#     4  12  24  41  66  95 134 168 211 272 321 388
#
# _framework density 24.459395000000001
#
# number of rings (size 3 to 8) (size 9 to 14) (size 15 to 20)
#    0.000    1.250    3.750    0.750   10.500    0.500 
#    0.000    2.500    0.000    0.000    0.000    0.000 
#    0.000    0.000    0.000    0.000    0.000    0.000 
#
# Total GULP energy -89488.462483 kJ/mol
# GULP energy per Si atom -5593.028905 kJ/mol
# Density = 2.440372 g / cm^3
# Si number density = 24.459395 Si / 1000 Ang^3
#
#
#
# Elastic Constant Matrix: (Units=GPa)
#
#
# Indices 1 2 3 4 5 6 
#
# 1 32.8730 6.9103 -2.6169 2.4262 -8.4994 -8.5040
# 2 6.9103 113.8822 18.4331 3.9761 -7.6886 -20.9866
# 3 -2.6169 18.4331 108.0013 5.5298 -17.9027 -10.6030
# 4 2.4262 3.9761 5.5298 48.7874 -6.0563 -0.6544
# 5 -8.4994 -7.6886 -17.9027 -6.0563 16.9375 -0.1717
# 6 -8.5040 -20.9866 -10.6030 -0.6544 -0.1717 25.6540
#
#
#
# Elastic Compliance Matrix: (Units=1/GPa)
#
#
# Indices 1 2 3 4 5 6 
#
# 1 0.043820 0.001754 0.007868 0.000976 0.031648 0.019450
# 2 0.001754 0.010816 0.000129 -0.000113 0.005982 0.009520
# 3 0.007868 0.000129 0.013248 0.000476 0.018264 0.008323
# 4 0.000976 -0.000113 0.000476 0.021490 0.008635 0.001033
# 5 0.031648 0.005982 0.018264 0.008635 0.100272 0.023825
# 6 0.019450 0.009520 0.008323 0.001033 0.023825 0.056841
#
#
# Mechanical properties :
#
#
# Convention : Reuss Voigt Hill
#
# Bulk Modulus (GPa) = 11.44348 33.35660 22.40004
# Shear Modulus (GPa) = 19.52255 33.74446 26.63350
#
# Velocity S-wave (km/s) = 2.82824 3.71834 3.30341
# Velocity P-wave (km/s) = 3.91842 5.66585 4.87113
#
# Compressibility (1/GPa) = 0.08738597
#
# Stress axis : x y z
#
# Youngs Moduli (GPa) = 22.82066 92.45610 75.48205
#
# Poissons Ratio (x) = -0.16221 -0.59389
# Poissons Ratio (y) = -0.04004 -0.00970
# Poissons Ratio (z) = -0.17955 -0.01188
#
# Static dielectric constant tensor:
#      x y z
#    x 2.001630 -0.029330 0.012350 
#    y -0.029330 1.946810 -0.044330 
#    z 0.012350 -0.044330 1.940550 
# 
# From -- ./inp_files/417915.got.cif
#   From: 2010.05.17/outbox.cif.g08.bks.cpg/sg2_209_cif.got.tgz:417915.got - 2010.06.03 11:33:40.
