data_PCOD9045191
_publ_section_title
;
Structure prediction by ZEFSAII (Michael W. Deem and Ramdas Pophale) SiO2 
 PCOD9045191
Probable space group: P -1
;
_chemical_formula_sum "Si O2"
_cell_formula_units_Z 16
_cell_length_a 17.076845
_cell_length_b 11.767410
_cell_length_c 5.099578
_cell_angle_alpha 68.820984
_cell_angle_beta 90.685003
_cell_angle_gamma 134.569704
_cell_volume 634.114274
_symmetry_space_group_name_H-M "P -1"
_symmetry_group_IT_number 2
_symmetry_cell_setting 'triclinic'
loop_
_space_group_symop_operation_xyz
x,y,z
-x,-y,-z
loop_
_atom_site_type_symbol
_atom_site_label
_atom_site_fract_x
_atom_site_fract_y
_atom_site_fract_z
Si Si1 0.812088 0.342375 0.817398
Si Si2 0.668651 0.955671 0.240137
Si Si3 0.450739 0.562371 0.796770
Si Si4 0.196409 0.965287 0.315593
Si Si5 0.000780 0.644487 0.197040
Si Si6 0.252077 0.480013 0.099382
Si Si7 0.788857 0.718042 0.222776
Si Si8 0.933023 0.031782 0.331280
O O1 0.919661 0.377350 0.877120
O O2 0.775845 0.412052 0.941753
O O3 0.870626 0.459511 0.450191
O O4 0.695703 0.121614 0.985983
O O5 0.546333 0.750953 0.482254
O O6 0.385438 0.586488 0.961691
O O7 0.724420 0.941547 0.018769
O O8 0.345007 0.396888 0.739520
O O9 0.739145 0.036761 0.452851
O O10 0.500000 0.500000 0.000000
O O11 0.174871 0.064762 0.391621
O O12 0.016873 0.774913 0.888405
O O13 0.073561 0.771386 0.356320
O O14 0.211783 0.369080 0.453701
O O15 0.185553 0.339674 0.971023
O O16 0.883571 0.927307 0.138937
O O17 0.000000 0.000000 0.500000
#
# Coordination Sequence:
#
# PCOD9045191 Si02
#       8
#     2   2   2   2   2   2   2   2
#     4  10  23  53  81 113 164 213 279 333 392 505
#     4  11  26  48  82 115 156 209 271 338 398 480
#     4  10  27  51  83 118 164 211 273 337 415 476
#     4  11  25  48  74 119 154 200 275 321 415 468
#     4  10  25  50  80 119 158 218 272 339 406 472
#     4  10  26  49  78 116 158 211 263 336 410 473
#     4  10  28  51  74 119 162 203 270 333 407 486
#     4  12  28  52  81 120 167 215 270 340 417 491
#
# _framework density 25.232043999999998
#
# number of rings (size 3 to 8) (size 9 to 14) (size 15 to 20)
#    0.750    0.750    2.500    0.000    8.750    5.000 
#    6.750    1.875    0.000    0.750    0.000    0.000 
#    0.000    0.000    0.000    0.000    0.000    0.000 
#
# Total GULP energy -89366.453603 kJ/mol
# GULP energy per Si atom -5585.403350 kJ/mol
# Density = 2.517462 g / cm^3
# Si number density = 25.232044 Si / 1000 Ang^3
#
#
#
# Elastic Constant Matrix: (Units=GPa)
#
#
# Indices 1 2 3 4 5 6 
#
# 1 190.1625 60.1047 83.5026 -10.7891 -5.1866 -36.3391
# 2 60.1047 87.9133 51.7102 -1.1042 8.9690 -17.2399
# 3 83.5026 51.7102 181.7391 -15.7535 -1.4543 -15.5124
# 4 -10.7891 -1.1042 -15.7535 65.0491 -3.9311 5.2672
# 5 -5.1866 8.9690 -1.4543 -3.9311 39.2126 1.0814
# 6 -36.3391 -17.2399 -15.5124 5.2672 1.0814 38.4311
#
#
#
# Elastic Compliance Matrix: (Units=1/GPa)
#
#
# Indices 1 2 3 4 5 6 
#
# 1 0.008537 -0.003535 -0.002403 0.000442 0.001744 0.005407
# 2 -0.003535 0.016655 -0.003010 -0.001577 -0.004637 0.003260
# 3 -0.002403 -0.003010 0.007529 0.001489 0.000822 -0.000810
# 4 0.000442 -0.001577 0.001489 0.016067 0.002139 -0.001951
# 5 0.001744 -0.004637 0.000822 0.002139 0.027070 -0.001154
# 6 0.005407 0.003260 -0.000810 -0.001951 -0.001154 0.032568
#
#
# Mechanical properties :
#
#
# Convention : Reuss Voigt Hill
#
# Bulk Modulus (GPa) = 67.45383 94.49445 80.97414
# Shear Modulus (GPa) = 38.09096 46.17172 42.13134
#
# Velocity S-wave (km/s) = 3.88961 4.28236 4.09070
# Velocity P-wave (km/s) = 6.85299 7.87292 7.38060
#
# Compressibility (1/GPa) = 0.01482495
#
# Stress axis : x y z
#
# Youngs Moduli (GPa) = 117.13666 60.04251 132.81433
#
# Poissons Ratio (x) = 0.21227 0.31913
# Poissons Ratio (y) = 0.41412 0.39977
# Poissons Ratio (z) = 0.28146 0.18073
#
# Static dielectric constant tensor:
#      x y z
#    x 2.079700 0.022810 0.014470 
#    y 0.022810 2.047370 -0.069230 
#    z 0.014470 -0.069230 2.045520 
# 
# From -- ./inp_files/110467.got.cif
#   From: 2010.05.17/outbox.cif.g08.bks.cpg/sg2_56_cif.got.tgz:110467.got - 2010.06.03 11:33:40.
