data_PCOD9045927
_publ_section_title
;
Structure prediction by ZEFSAII (Michael W. Deem and Ramdas Pophale) SiO2 
 PCOD9045927
Probable space group: P -1
;
_chemical_formula_sum "Si O2"
_cell_formula_units_Z 14
_cell_length_a 6.341276
_cell_length_b 20.691735
_cell_length_c 7.249377
_cell_angle_alpha 131.387115
_cell_angle_beta 115.569300
_cell_angle_gamma 82.437566
_cell_volume 626.927878
_symmetry_space_group_name_H-M "P -1"
_symmetry_group_IT_number 2
_symmetry_cell_setting 'triclinic'
loop_
_space_group_symop_operation_xyz
x,y,z
-x,-y,-z
loop_
_atom_site_type_symbol
_atom_site_label
_atom_site_fract_x
_atom_site_fract_y
_atom_site_fract_z
Si Si1 0.677106 0.924046 0.713068
Si Si2 0.246099 0.517722 0.880694
Si Si3 0.401726 0.647444 0.874682
Si Si4 0.988923 0.951628 0.207558
Si Si5 0.099714 0.240281 0.614482
Si Si6 0.169679 0.634563 0.412356
Si Si7 0.832614 0.190874 0.801846
O O1 0.812872 0.844002 0.584364
O O2 0.402653 0.883385 0.485997
O O3 0.798055 0.998859 0.753893
O O4 0.748195 0.953271 0.004482
O O5 0.273195 0.559000 0.765536
O O6 0.194293 0.591325 0.142541
O O7 0.500000 0.500000 0.000000
O O8 0.958504 0.569333 0.322759
O O9 0.400130 0.639485 0.638036
O O10 0.665086 0.680386 0.122387
O O11 0.260127 0.724672 0.004630
O O12 0.021654 0.854079 0.082662
O O13 0.000000 0.000000 0.500000
O O14 0.906052 0.274157 0.482744
O O15 0.990924 0.217056 0.730688
#
# Coordination Sequence:
#
# PCOD9045927 Si02
#       7
#     2   2   2   2   2   2   2
#     4  10  24  42  64  91 127 161 203 258 302 357
#     4  11  23  43  63  92 126 159 210 256 302 370
#     4  11  24  42  65  91 123 166 205 253 310 361
#     4  11  22  43  65  93 124 163 207 250 304 368
#     4  11  22  43  62  94 125 160 211 250 302 373
#     4  11  24  41  65  90 125 165 204 255 309 360
#     4  11  23  42  65  91 127 162 205 252 308 365
#
# _framework density 22.331115
#
# number of rings (size 3 to 8) (size 9 to 14) (size 15 to 20)
#    0.000    1.143    4.286    1.714    0.000    3.429 
#    2.571    0.000    0.000    0.000    0.000    0.000 
#    0.000    0.000    0.000    0.000    0.000    0.000 
#
# Total GULP energy -78320.758728 kJ/mol
# GULP energy per Si atom -5594.339909 kJ/mol
# Density = 2.228029 g / cm^3
# Si number density = 22.331115 Si / 1000 Ang^3
#
#
#
# Elastic Constant Matrix: (Units=GPa)
#
#
# Indices 1 2 3 4 5 6 
#
# 1 38.9112 11.5502 -13.7522 -5.2571 -0.3322 -1.6195
# 2 11.5502 128.1310 7.8621 -25.5083 -4.2296 -4.1010
# 3 -13.7522 7.8621 44.4758 -23.3139 -2.6583 4.0979
# 4 -5.2571 -25.5083 -23.3139 38.5958 -2.0867 2.5437
# 5 -0.3322 -4.2296 -2.6583 -2.0867 16.4898 -1.1138
# 6 -1.6195 -4.1010 4.0979 2.5437 -1.1138 29.1925
#
#
#
# Elastic Compliance Matrix: (Units=1/GPa)
#
#
# Indices 1 2 3 4 5 6 
#
# 1 0.035610 -0.000930 0.020794 0.017268 0.005857 -0.002355
# 2 -0.000930 0.009403 0.002218 0.007601 0.003742 0.000438
# 3 0.020794 0.002218 0.048107 0.034553 0.012588 -0.007819
# 4 0.017268 0.007601 0.034553 0.055404 0.014399 -0.007103
# 5 0.005857 0.003742 0.012588 0.014399 0.065595 0.000332
# 6 -0.002355 0.000438 -0.007819 -0.007103 0.000332 0.035915
#
#
# Mechanical properties :
#
#
# Convention : Reuss Voigt Hill
#
# Bulk Modulus (GPa) = 7.28416 24.75979 16.02197
# Shear Modulus (GPa) = 19.87030 30.57949 25.22490
#
# Velocity S-wave (km/s) = 2.98619 3.70451 3.36458
# Velocity P-wave (km/s) = 3.89343 5.42305 4.72061
#
# Compressibility (1/GPa) = 0.13728425
#
# Stress axis : x y z
#
# Youngs Moduli (GPa) = 28.08198 106.34869 20.78693
#
# Poissons Ratio (x) = 0.09893 -0.43225
# Poissons Ratio (y) = 0.02612 -0.04610
# Poissons Ratio (z) = -0.58395 -0.23586
#
# Static dielectric constant tensor:
#      x y z
#    x 1.781250 -0.011320 -0.002280 
#    y -0.011320 1.771980 0.018990 
#    z -0.002280 0.018990 1.911300 
# 
# From -- ./inp_files/11703.got.cif
#   From: 2010.05.17/outbox.cif.g08.bks.cpg/sg2_6_cif.got.tgz:11703.got - 2010.06.03 11:33:40.
