data_PCOD9045590
_publ_section_title
;
Structure prediction by ZEFSAII (Michael W. Deem and Ramdas Pophale) SiO2 
 PCOD9045590
Probable space group: P -1
;
_chemical_formula_sum "Si O2"
_cell_formula_units_Z 16
_cell_length_a 23.176809
_cell_length_b 9.218191
_cell_length_c 6.484318
_cell_angle_alpha 129.678409
_cell_angle_beta 136.010016
_cell_angle_gamma 59.012980
_cell_volume 736.532353
_symmetry_space_group_name_H-M "P -1"
_symmetry_group_IT_number 2
_symmetry_cell_setting 'triclinic'
loop_
_space_group_symop_operation_xyz
x,y,z
-x,-y,-z
loop_
_atom_site_type_symbol
_atom_site_label
_atom_site_fract_x
_atom_site_fract_y
_atom_site_fract_z
Si Si1 0.039950 0.590540 0.489098
Si Si2 0.634230 0.474478 0.866047
Si Si3 0.907543 0.079974 0.263720
Si Si4 0.784699 0.356534 0.452536
Si Si5 0.123647 0.324512 0.137034
Si Si6 0.479859 0.686058 0.255416
Si Si7 0.417936 0.109447 0.001068
Si Si8 0.663928 0.215420 0.330112
O O1 0.082272 0.787856 0.790702
O O2 0.105856 0.437743 0.408084
O O3 0.000000 0.500000 0.500000
O O4 0.962493 0.641617 0.181389
O O5 0.557656 0.386524 0.696032
O O6 0.618869 0.701507 0.042327
O O7 0.642802 0.397319 0.587024
O O8 0.714290 0.387764 0.122767
O O9 0.863748 0.223657 0.449610
O O10 0.000000 0.000000 0.500000
O O11 0.857469 0.896154 0.962106
O O12 0.812384 0.567928 0.737102
O O13 0.746530 0.257008 0.458418
O O14 0.551120 0.809860 0.627192
O O15 0.500000 0.500000 0.000000
O O16 0.406582 0.798115 0.037777
O O17 0.500000 0.000000 0.000000
O O18 0.347485 0.967187 0.725402
#
# Coordination Sequence:
#
# PCOD9045590 Si02
#       8
#     2   2   2   2   2   2   2   2
#     4   9  18  34  61  93 116 150 201 255 314 370
#     4  11  24  42  59  92 133 165 209 269 322 373
#     4   9  19  40  65  89 120 159 213 262 307 377
#     4  10  24  41  60  87 130 171 206 258 327 384
#     4   9  19  38  58  83 123 159 197 255 311 374
#     4  11  21  42  68  91 127 168 212 266 322 377
#     4  12  23  41  70  96 127 167 220 269 316 378
#     4  11  24  41  62  94 128 171 214 265 322 385
#
# _framework density 21.723417999999999
#
# number of rings (size 3 to 8) (size 9 to 14) (size 15 to 20)
#    0.000    1.750    2.500    2.250    0.000    4.500 
#    0.000    5.000    0.000    0.000    0.000    0.000 
#    0.000    0.000    0.000    0.000    0.000    0.000 
#
# Total GULP energy -89235.014641 kJ/mol
# GULP energy per Si atom -5577.188415 kJ/mol
# Density = 2.167397 g / cm^3
# Si number density = 21.723418 Si / 1000 Ang^3
#
#
#
# Elastic Constant Matrix: (Units=GPa)
#
#
# Indices 1 2 3 4 5 6 
#
# 1 129.1506 51.9648 16.2011 23.4157 4.1951 24.4687
# 2 51.9648 115.9516 21.7959 31.9130 2.3959 26.1484
# 3 16.2011 21.7959 52.6068 18.1921 5.8647 1.1013
# 4 23.4157 31.9130 18.1921 41.1412 8.9740 17.4129
# 5 4.1951 2.3959 5.8647 8.9740 30.4040 9.9172
# 6 24.4687 26.1484 1.1013 17.4129 9.9172 38.1332
#
#
#
# Elastic Compliance Matrix: (Units=1/GPa)
#
#
# Indices 1 2 3 4 5 6 
#
# 1 0.010099 -0.003029 -0.001429 -0.001247 0.000793 -0.003999
# 2 -0.003029 0.013222 -0.002805 -0.005792 0.003345 -0.005267
# 3 -0.001429 -0.002805 0.024432 -0.010297 -0.003808 0.007827
# 4 -0.001247 -0.005792 -0.010297 0.040285 -0.005386 -0.011925
# 5 0.000793 0.003345 -0.003808 -0.005386 0.038154 -0.010156
# 6 -0.003999 -0.005267 0.007827 -0.011925 -0.010156 0.040262
#
#
# Mechanical properties :
#
#
# Convention : Reuss Voigt Hill
#
# Bulk Modulus (GPa) = 30.09440 53.07027 41.58233
# Shear Modulus (GPa) = 26.03437 35.78549 30.90993
#
# Velocity S-wave (km/s) = 3.46562 4.06313 3.77621
# Velocity P-wave (km/s) = 5.46786 6.81872 6.18031
#
# Compressibility (1/GPa) = 0.03322878
#
# Stress axis : x y z
#
# Youngs Moduli (GPa) = 99.02313 75.63361 40.92913
#
# Poissons Ratio (x) = 0.22907 0.05847
# Poissons Ratio (y) = 0.29990 0.11480
# Poissons Ratio (z) = 0.14147 0.21213
#
# Static dielectric constant tensor:
#      x y z
#    x 1.819160 0.023230 0.032220 
#    y 0.023230 1.828630 0.002520 
#    z 0.032220 0.002520 1.834910 
# 
# From -- ./inp_files/116557.got.cif
#   From: 2010.05.17/outbox.cif.g08.bks.cpg/sg2_59_cif.got.tgz:116557.got - 2010.06.03 11:33:40.
