data_PCOD9045538
_publ_section_title
;
Structure prediction by ZEFSAII (Michael W. Deem and Ramdas Pophale) SiO2 
 PCOD9045538
Probable space group: P -1
;
_chemical_formula_sum "Si O2"
_cell_formula_units_Z 16
_cell_length_a 12.873098
_cell_length_b 5.084906
_cell_length_c 21.596437
_cell_angle_alpha 84.914515
_cell_angle_beta 29.272918
_cell_angle_gamma 87.447239
_cell_volume 686.960071
_symmetry_space_group_name_H-M "P -1"
_symmetry_group_IT_number 2
_symmetry_cell_setting 'triclinic'
loop_
_space_group_symop_operation_xyz
x,y,z
-x,-y,-z
loop_
_atom_site_type_symbol
_atom_site_label
_atom_site_fract_x
_atom_site_fract_y
_atom_site_fract_z
Si Si1 0.889336 0.715245 0.721575
Si Si2 0.117933 0.395756 0.999847
Si Si3 0.523282 0.968327 0.413954
Si Si4 0.982406 0.163504 0.568697
Si Si5 0.306953 0.095423 0.059802
Si Si6 0.443612 0.568974 0.182375
Si Si7 0.998626 0.849942 0.134111
Si Si8 0.273858 0.458247 0.491596
O O1 0.833612 0.767314 0.819531
O O2 0.678851 0.657833 0.790169
O O3 0.044651 0.476783 0.644385
O O4 0.001344 0.959907 0.620386
O O5 0.012404 0.558584 0.106191
O O6 0.370625 0.486378 0.864971
O O7 0.080116 0.081183 0.037925
O O8 0.000000 0.500000 0.000000
O O9 0.768168 0.926989 0.273046
O O10 0.398794 0.722659 0.447789
O O11 0.500000 0.000000 0.500000
O O12 0.428467 0.230679 0.430924
O O13 0.750367 0.277843 0.692349
O O14 0.173257 0.391934 0.476469
O O15 0.000000 0.000000 0.500000
O O16 0.416673 0.269442 0.945039
O O17 0.159555 0.874048 0.107160
O O18 0.500000 0.000000 0.000000
#
# Coordination Sequence:
#
# PCOD9045538 Si02
#       8
#     2   2   2   2   2   2   2   2
#     4  11  22  44  70 105 141 180 231 293 362 419
#     4  11  25  49  70  99 142 183 238 288 344 414
#     4  12  25  46  70 104 147 187 233 290 347 427
#     4  11  25  47  71 104 144 186 240 295 348 426
#     4  11  21  41  73 104 141 177 225 296 360 425
#     4  10  24  40  71 107 137 182 235 287 360 419
#     4  11  26  44  70 107 136 185 235 286 353 416
#     4  11  25  45  69 102 141 191 241 281 358 416
#
# _framework density 23.291017
#
# number of rings (size 3 to 8) (size 9 to 14) (size 15 to 20)
#    0.000    1.000    2.500    3.375    1.750    6.000 
#    6.750    0.000    0.000    0.000    0.000    0.000 
#    0.000    0.000    0.000    0.000    0.000    0.000 
#
# Total GULP energy -89380.537880 kJ/mol
# GULP energy per Si atom -5586.283617 kJ/mol
# Density = 2.323801 g / cm^3
# Si number density = 23.291017 Si / 1000 Ang^3
#
#
#
# Elastic Constant Matrix: (Units=GPa)
#
#
# Indices 1 2 3 4 5 6 
#
# 1 125.4984 34.6050 46.7263 5.3989 -22.2165 16.3591
# 2 34.6050 102.9868 21.1408 11.6954 7.4920 18.1462
# 3 46.7263 21.1408 90.6269 14.9819 -9.7682 2.5815
# 4 5.3989 11.6954 14.9819 40.9621 5.0472 -6.9877
# 5 -22.2165 7.4920 -9.7682 5.0472 43.2208 7.6116
# 6 16.3591 18.1462 2.5815 -6.9877 7.6116 42.1724
#
#
#
# Elastic Compliance Matrix: (Units=1/GPa)
#
#
# Indices 1 2 3 4 5 6 
#
# 1 0.012291 -0.002748 -0.004735 -0.000705 0.006618 -0.004607
# 2 -0.002748 0.012122 -0.001073 -0.003079 -0.002672 -0.004112
# 3 -0.004735 -0.001073 0.014631 -0.004544 0.001523 0.000375
# 4 -0.000705 -0.003079 -0.004544 0.029051 -0.005605 0.007701
# 5 0.006618 -0.002672 0.001523 -0.005605 0.029364 -0.007739
# 6 -0.004607 -0.004112 0.000375 0.007701 -0.007739 0.029919
#
#
# Mechanical properties :
#
#
# Convention : Reuss Voigt Hill
#
# Bulk Modulus (GPa) = 45.59495 58.22847 51.91171
# Shear Modulus (GPa) = 32.93803 39.71374 36.32588
#
# Velocity S-wave (km/s) = 3.76466 4.13378 3.95353
# Velocity P-wave (km/s) = 6.20609 6.91656 6.57094
#
# Compressibility (1/GPa) = 0.02193226
#
# Stress axis : x y z
#
# Youngs Moduli (GPa) = 81.35834 82.49394 68.34905
#
# Poissons Ratio (x) = 0.22666 0.32365
# Poissons Ratio (y) = 0.22354 0.07334
# Poissons Ratio (z) = 0.38525 0.08852
#
# Static dielectric constant tensor:
#      x y z
#    x 2.022440 0.096030 -0.092970 
#    y 0.096030 1.914010 0.007730 
#    z -0.092970 0.007730 1.795030 
# 
# From -- ./inp_files/592771.got.cif
#   From: 2010.05.17/outbox.cif.g08.bks.cpg/sg2_297_cif.got.tgz:592771.got - 2010.06.03 11:33:40.
