data_PCOD9045299
_publ_section_title
;
Structure prediction by ZEFSAII (Michael W. Deem and Ramdas Pophale) SiO2 
 PCOD9045299
Probable space group: P -1
;
_chemical_formula_sum "Si O2"
_cell_formula_units_Z 12
_cell_length_a 13.557019
_cell_length_b 8.918339
_cell_length_c 7.722853
_cell_angle_alpha 51.793412
_cell_angle_beta 134.035174
_cell_angle_gamma 99.577204
_cell_volume 466.562649
_symmetry_space_group_name_H-M "P -1"
_symmetry_group_IT_number 2
_symmetry_cell_setting 'triclinic'
loop_
_space_group_symop_operation_xyz
x,y,z
-x,-y,-z
loop_
_atom_site_type_symbol
_atom_site_label
_atom_site_fract_x
_atom_site_fract_y
_atom_site_fract_z
Si Si1 0.686576 0.895843 0.664354
Si Si2 0.146297 0.412270 0.618239
Si Si3 0.765055 0.809014 0.450977
Si Si4 0.177888 0.833107 0.871487
Si Si5 0.399002 0.376961 0.441603
Si Si6 0.177928 0.820934 0.293257
O O1 0.804375 0.790680 0.716355
O O2 0.563595 0.813268 0.515657
O O3 0.691451 0.120210 0.516632
O O4 0.737141 0.797995 0.984948
O O5 0.120551 0.345525 0.443277
O O6 0.201329 0.592476 0.547877
O O7 0.000000 0.500000 0.500000
O O8 0.630288 0.734897 0.344259
O O9 0.728890 0.047700 0.179576
O O10 0.237416 0.592658 0.043233
O O11 0.191790 0.813524 0.108555
O O12 0.000000 0.000000 0.500000
O O13 0.500000 0.500000 0.500000
O O14 0.000000 0.000000 0.000000
#
# Coordination Sequence:
#
# PCOD9045299 Si02
#       6
#     2   2   2   2   2   2
#     4  10  24  39  66  94 132 181 230 272 341 401
#     4  12  23  39  63  98 144 178 218 279 350 413
#     4  10  24  42  67  98 137 177 233 279 344 405
#     4  12  25  40  73 104 139 181 223 287 354 403
#     4  10  26  49  68  95 142 188 234 280 340 408
#     4  12  22  38  62 104 142 172 224 281 343 414
#
# _framework density 25.720018
#
# number of rings (size 3 to 8) (size 9 to 14) (size 15 to 20)
#    1.000    0.000    5.000    1.000    7.000    2.000 
#    0.000    1.667    0.000    0.000    0.000    0.000 
#    0.000    0.000    0.000    0.000    0.000    0.000 
#
# Total GULP energy -66930.611254 kJ/mol
# GULP energy per Si atom -5577.550938 kJ/mol
# Density = 2.566148 g / cm^3
# Si number density = 25.720018 Si / 1000 Ang^3
#
#
#
# Elastic Constant Matrix: (Units=GPa)
#
#
# Indices 1 2 3 4 5 6 
#
# 1 128.4093 51.0293 39.4852 -12.4000 -23.9537 24.0316
# 2 51.0293 186.8842 33.1401 -23.9872 -15.6417 49.2619
# 3 39.4852 33.1401 42.6453 -11.9991 -8.2435 5.2746
# 4 -12.4000 -23.9872 -11.9991 44.0789 10.3785 -13.2125
# 5 -23.9537 -15.6417 -8.2435 10.3785 37.5782 -8.6072
# 6 24.0316 49.2619 5.2746 -13.2125 -8.6072 66.6636
#
#
#
# Elastic Compliance Matrix: (Units=1/GPa)
#
#
# Indices 1 2 3 4 5 6 
#
# 1 0.012550 -0.000621 -0.010235 -0.001715 0.005303 -0.002911
# 2 -0.000621 0.007792 -0.004434 0.001304 0.000399 -0.004873
# 3 -0.010235 -0.004434 0.037443 0.006653 -0.000798 0.005219
# 4 -0.001715 0.001304 0.006653 0.027209 -0.005740 0.003780
# 5 0.005303 0.000399 -0.000798 -0.005740 0.031755 0.000819
# 6 -0.002911 -0.004873 0.005219 0.003780 0.000819 0.020093
#
#
# Mechanical properties :
#
#
# Convention : Reuss Voigt Hill
#
# Bulk Modulus (GPa) = 36.75574 67.24978 52.00276
# Shear Modulus (GPa) = 28.33015 45.28310 36.80662
#
# Velocity S-wave (km/s) = 3.32246 4.20052 3.78703
# Velocity P-wave (km/s) = 5.38888 7.05191 6.27573
#
# Compressibility (1/GPa) = 0.02720664
#
# Stress axis : x y z
#
# Youngs Moduli (GPa) = 79.68238 128.33639 26.70705
#
# Poissons Ratio (x) = 0.07968 0.27334
# Poissons Ratio (y) = 0.04947 0.11841
# Poissons Ratio (z) = 0.81553 0.56900
#
# Static dielectric constant tensor:
#      x y z
#    x 2.076460 0.031400 0.150040 
#    y 0.031400 1.990460 0.027430 
#    z 0.150040 0.027430 2.110640 
# 
# From -- ./inp_files/294367.got.cif
#   From: 2010.05.17/outbox.cif.g08.bks.cpg/sg2_148_cif.got.tgz:294367.got - 2010.06.03 11:33:40.
