data_PCOD9045709
_publ_section_title
;
Structure prediction by ZEFSAII (Michael W. Deem and Ramdas Pophale) SiO2 
 PCOD9045709
Probable space group: P -1
;
_chemical_formula_sum "Si O2"
_cell_formula_units_Z 14
_cell_length_a 8.965860
_cell_length_b 9.346551
_cell_length_c 8.783597
_cell_angle_alpha 103.801083
_cell_angle_beta 102.653302
_cell_angle_gamma 49.610852
_cell_volume 542.373586
_symmetry_space_group_name_H-M "P -1"
_symmetry_group_IT_number 2
_symmetry_cell_setting 'triclinic'
loop_
_space_group_symop_operation_xyz
x,y,z
-x,-y,-z
loop_
_atom_site_type_symbol
_atom_site_label
_atom_site_fract_x
_atom_site_fract_y
_atom_site_fract_z
Si Si1 0.350634 0.301937 0.006266
Si Si2 0.114963 0.627174 0.787179
Si Si3 0.484997 0.501295 0.182320
Si Si4 0.427248 0.824379 0.415788
Si Si5 0.133810 0.029309 0.636852
Si Si6 0.791063 0.936205 0.000107
Si Si7 0.180675 0.253608 0.491990
O O1 0.215778 0.454183 0.884229
O O2 0.260425 0.204812 0.017521
O O3 0.373388 0.417542 0.164989
O O4 0.577236 0.134060 0.962715
O O5 0.288490 0.618154 0.747665
O O6 0.689575 0.960019 0.610261
O O7 0.985038 0.617304 0.635258
O O8 0.380328 0.704835 0.284606
O O9 0.500000 0.500000 0.000000
O O10 0.654967 0.725668 0.433964
O O11 0.352789 0.858837 0.581088
O O12 0.133673 0.037962 0.818971
O O13 0.099408 0.215596 0.610715
O O14 0.000000 0.000000 0.500000
O O15 0.970276 0.824595 0.895095
#
# Coordination Sequence:
#
# PCOD9045709 Si02
#       7
#     2   2   2   2   2   2   2
#     4  10  26  45  69 104 140 187 229 290 358 401
#     4  11  25  43  73 110 130 185 243 286 341 420
#     4  10  24  41  67 103 141 176 241 289 335 415
#     4   9  22  44  69 101 142 187 232 285 351 418
#     4  10  24  43  72 104 137 191 230 283 363 409
#     4  11  26  47  74  98 149 181 232 293 352 427
#     4   9  23  43  74  99 140 191 233 284 350 413
#
# _framework density 25.812465
#
# number of rings (size 3 to 8) (size 9 to 14) (size 15 to 20)
#    0.857    1.143    0.000    0.429   18.000    1.143 
#    0.000    0.714    0.000    0.000    0.000    0.000 
#    0.000    0.000    0.000    0.000    0.000    0.000 
#
# Total GULP energy -78317.325141 kJ/mol
# GULP energy per Si atom -5594.094653 kJ/mol
# Density = 2.575372 g / cm^3
# Si number density = 25.812465 Si / 1000 Ang^3
#
#
#
# Elastic Constant Matrix: (Units=GPa)
#
#
# Indices 1 2 3 4 5 6 
#
# 1 96.4392 25.7706 20.5627 -2.3096 31.3172 13.6421
# 2 25.7706 108.0575 20.2144 -17.6873 14.1043 -1.5871
# 3 20.5627 20.2144 103.4768 2.6289 25.4589 6.4457
# 4 -2.3096 -17.6873 2.6289 54.6350 0.7276 13.5692
# 5 31.3172 14.1043 25.4589 0.7276 41.3215 12.1779
# 6 13.6421 -1.5871 6.4457 13.5692 12.1779 45.9197
#
#
#
# Elastic Compliance Matrix: (Units=1/GPa)
#
#
# Indices 1 2 3 4 5 6 
#
# 1 0.014331 -0.002113 0.000034 0.000532 -0.009596 -0.001948
# 2 -0.002113 0.010770 -0.001459 0.003339 -0.001409 0.000592
# 3 0.000034 -0.001459 0.011613 -0.001043 -0.006787 0.000418
# 4 0.000532 0.003339 -0.001043 0.021003 0.000573 -0.006254
# 5 -0.009596 -0.001409 -0.006787 0.000573 0.038043 -0.006503
# 6 -0.001948 0.000592 0.000418 -0.006254 -0.006503 0.025890
#
#
# Mechanical properties :
#
#
# Convention : Reuss Voigt Hill
#
# Bulk Modulus (GPa) = 33.74126 49.00765 41.37445
# Shear Modulus (GPa) = 36.07341 44.47029 40.27185
#
# Velocity S-wave (km/s) = 3.74240 4.15519 3.95418
# Velocity P-wave (km/s) = 5.63685 6.48445 6.07545
#
# Compressibility (1/GPa) = 0.02963730
#
# Stress axis : x y z
#
# Youngs Moduli (GPa) = 69.77767 92.84636 86.11281
#
# Poissons Ratio (x) = 0.19620 -0.00291
# Poissons Ratio (y) = 0.14745 0.12565
# Poissons Ratio (z) = -0.00236 0.13548
#
# Static dielectric constant tensor:
#      x y z
#    x 2.047150 0.022360 -0.002580 
#    y 0.022360 2.125330 0.036940 
#    z -0.002580 0.036940 2.028410 
# 
# From -- ./inp_files/181754.got.cif
#   From: 2010.05.17/outbox.cif.g08.bks.cpg/sg2_91_cif.got.tgz:181754.got - 2010.06.03 11:33:40.
