data_PCOD9045420
_publ_section_title
;
Structure prediction by ZEFSAII (Michael W. Deem and Ramdas Pophale) SiO2 
 PCOD9045420
Probable space group: P -1
;
_chemical_formula_sum "Si O2"
_cell_formula_units_Z 12
_cell_length_a 6.493228
_cell_length_b 18.597681
_cell_length_c 5.195301
_cell_angle_alpha 81.235782
_cell_angle_beta 80.088249
_cell_angle_gamma 50.440447
_cell_volume 475.711565
_symmetry_space_group_name_H-M "P -1"
_symmetry_group_IT_number 2
_symmetry_cell_setting 'triclinic'
loop_
_space_group_symop_operation_xyz
x,y,z
-x,-y,-z
loop_
_atom_site_type_symbol
_atom_site_label
_atom_site_fract_x
_atom_site_fract_y
_atom_site_fract_z
Si Si1 0.499271 0.086780 0.428466
Si Si2 0.435032 0.297570 0.175983
Si Si3 0.566220 0.407473 0.796407
Si Si4 0.661159 0.136021 0.882344
Si Si5 0.921816 0.434488 0.508206
Si Si6 0.113075 0.786175 0.482246
O O1 0.589104 0.104298 0.666511
O O2 0.184030 0.172542 0.403357
O O3 0.500000 0.000000 0.500000
O O4 0.673662 0.080638 0.157379
O O5 0.710876 0.224470 0.310416
O O6 0.182482 0.340406 0.386394
O O7 0.454454 0.377720 0.050055
O O8 0.434255 0.244448 0.961181
O O9 0.796324 0.417321 0.781847
O O10 0.316397 0.504953 0.679269
O O11 0.715609 0.317619 0.619890
O O12 0.892354 0.143418 0.749612
O O13 0.000000 0.500000 0.500000
#
# Coordination Sequence:
#
# PCOD9045420 Si02
#       6
#     2   2   2   2   2   2
#     4  12  28  48  75 108 144 185 233 291 360 431
#     4  11  23  45  71 102 140 188 238 293 347 414
#     4  10  24  40  65  98 137 189 237 286 350 416
#     4  11  26  49  73 105 144 188 232 293 354 426
#     4  11  22  43  63  98 144 186 236 290 347 412
#     4  11  25  46  72 105 139 188 240 292 354 418
#
# _framework density 25.225370999999999
#
# number of rings (size 3 to 8) (size 9 to 14) (size 15 to 20)
#    0.000    1.000    3.333    2.000    4.667    2.000 
#    3.000    0.000    0.000    0.000    0.000    0.000 
#    0.000    0.000    0.000    0.000    0.000    0.000 
#
# Total GULP energy -67124.336923 kJ/mol
# GULP energy per Si atom -5593.694744 kJ/mol
# Density = 2.516796 g / cm^3
# Si number density = 25.225371 Si / 1000 Ang^3
#
#
#
# Elastic Constant Matrix: (Units=GPa)
#
#
# Indices 1 2 3 4 5 6 
#
# 1 68.2949 27.8788 44.7383 8.2645 -17.3710 34.2639
# 2 27.8788 80.4077 22.9887 -6.3096 9.3886 29.0688
# 3 44.7383 22.9887 131.9466 -12.6928 -5.8390 22.7832
# 4 8.2645 -6.3096 -12.6928 35.6311 15.8996 -6.1826
# 5 -17.3710 9.3886 -5.8390 15.8996 38.8173 -2.3150
# 6 34.2639 29.0688 22.7832 -6.1826 -2.3150 55.6342
#
#
#
# Elastic Compliance Matrix: (Units=1/GPa)
#
#
# Indices 1 2 3 4 5 6 
#
# 1 0.068459 -0.018594 -0.017841 -0.054159 0.052906 -0.028958
# 2 -0.018594 0.021847 0.003397 0.018615 -0.020727 -0.000149
# 3 -0.017841 0.003397 0.013132 0.016167 -0.013149 0.005085
# 4 -0.054159 0.018615 0.016167 0.079373 -0.057420 0.023440
# 5 0.052906 -0.020727 -0.013149 -0.057420 0.074821 -0.019636
# 6 -0.028958 -0.000149 0.005085 0.023440 -0.019636 0.035592
#
#
# Mechanical properties :
#
#
# Convention : Reuss Voigt Hill
#
# Bulk Modulus (GPa) = 26.76488 52.42896 39.59692
# Shear Modulus (GPa) = 13.44985 38.35275 25.90130
#
# Velocity S-wave (km/s) = 2.31159 3.90347 3.20784
# Velocity P-wave (km/s) = 4.21402 6.41447 5.42694
#
# Compressibility (1/GPa) = 0.03736239
#
# Stress axis : x y z
#
# Youngs Moduli (GPa) = 14.60736 45.77370 76.15273
#
# Poissons Ratio (x) = 0.85109 1.35863
# Poissons Ratio (y) = 0.27160 -0.25871
# Poissons Ratio (z) = 0.26061 -0.15550
#
# Static dielectric constant tensor:
#      x y z
#    x 2.811350 -0.133600 -0.145870 
#    y -0.133600 2.046600 0.004790 
#    z -0.145870 0.004790 2.035170 
# 
# From -- ./inp_files/3691.got.cif
#   From: 2010.05.17/outbox.cif.g08.bks.cpg/sg2_2_cif.got.tgz:3691.got - 2010.06.03 11:33:40.
