data_PCOD9045975
_publ_section_title
;
Structure prediction by ZEFSAII (Michael W. Deem and Ramdas Pophale) SiO2 
 PCOD9045975
Probable space group: P -1
;
_chemical_formula_sum "Si O2"
_cell_formula_units_Z 16
_cell_length_a 6.308087
_cell_length_b 5.991945
_cell_length_c 24.045446
_cell_angle_alpha 78.793020
_cell_angle_beta 54.966027
_cell_angle_gamma 89.823745
_cell_volume 723.306528
_symmetry_space_group_name_H-M "P -1"
_symmetry_group_IT_number 2
_symmetry_cell_setting 'triclinic'
loop_
_space_group_symop_operation_xyz
x,y,z
-x,-y,-z
loop_
_atom_site_type_symbol
_atom_site_label
_atom_site_fract_x
_atom_site_fract_y
_atom_site_fract_z
Si Si1 0.793576 0.423152 0.844117
Si Si2 0.004761 0.043038 0.904634
Si Si3 0.731816 0.196280 0.216183
Si Si4 0.086973 0.898088 0.592441
Si Si5 0.608677 0.183063 0.654407
Si Si6 0.443004 0.718183 0.463069
Si Si7 0.219078 0.337198 0.963966
Si Si8 0.746928 0.509464 0.722726
O O1 0.871155 0.203196 0.875134
O O2 0.509916 0.464332 0.906916
O O3 0.788316 0.388396 0.780381
O O4 0.009594 0.638382 0.813884
O O5 0.144179 0.199929 0.924927
O O6 0.211985 0.920975 0.844659
O O7 0.803844 0.848004 0.973993
O O8 0.495724 0.346949 0.239798
O O9 0.644676 0.995904 0.283383
O O10 0.185327 0.798054 0.525223
O O11 0.994726 0.689468 0.658251
O O12 0.324191 0.073994 0.572481
O O13 0.841436 0.033669 0.614678
O O14 0.577016 0.328270 0.597072
O O15 0.680450 0.336496 0.690243
O O16 0.500000 0.500000 0.500000
O O17 0.000000 0.500000 0.000000
#
# Coordination Sequence:
#
# PCOD9045975 Si02
#       8
#     2   2   2   2   2   2   2   2
#     4  12  24  42  67  96 129 169 215 266 322 380
#     4  11  25  43  67  98 131 170 215 265 320 385
#     4  11  25  43  66  95 130 171 216 265 321 388
#     4  10  24  42  65  96 130 173 217 267 326 390
#     4  11  24  44  66  94 131 172 216 268 327 386
#     4  11  24  42  66  97 131 170 220 271 325 388
#     4  11  25  46  68  97 134 171 214 265 322 384
#     4  11  25  44  67  95 131 172 217 269 324 386
#
# _framework density 22.120633000000002
#
# number of rings (size 3 to 8) (size 9 to 14) (size 15 to 20)
#    0.000    1.000    0.000    6.000    0.000   17.000 
#    0.000    0.000    0.000    0.000    0.000    0.000 
#    0.000    0.000    0.000    0.000    0.000    0.000 
#
# Total GULP energy -89636.654300 kJ/mol
# GULP energy per Si atom -5602.290894 kJ/mol
# Density = 2.207029 g / cm^3
# Si number density = 22.120633 Si / 1000 Ang^3
#
#
#
# Elastic Constant Matrix: (Units=GPa)
#
#
# Indices 1 2 3 4 5 6 
#
# 1 77.0488 55.0105 90.0091 -11.3375 6.6495 -0.4202
# 2 55.0105 117.2497 82.8762 1.2111 9.8875 1.7353
# 3 90.0091 82.8762 191.5047 -11.4562 11.2802 1.7669
# 4 -11.3375 1.2111 -11.4562 41.9752 3.4875 6.3999
# 5 6.6495 9.8875 11.2802 3.4875 53.2232 -10.5845
# 6 -0.4202 1.7353 1.7669 6.3999 -10.5845 24.4539
#
#
#
# Elastic Compliance Matrix: (Units=1/GPa)
#
#
# Indices 1 2 3 4 5 6 
#
# 1 0.033008 -0.006919 -0.012136 0.005833 -0.000621 0.000140
# 2 -0.006919 0.013942 -0.002887 -0.002881 -0.001044 -0.000597
# 3 -0.012136 -0.002887 0.012264 0.000432 -0.000847 -0.001369
# 4 0.005833 -0.002881 0.000432 0.027203 -0.003752 -0.008470
# 5 -0.000621 -0.001044 -0.000847 -0.003752 0.021562 0.010439
# 6 0.000140 -0.000597 -0.001369 -0.008470 0.010439 0.047772
#
#
# Mechanical properties :
#
#
# Convention : Reuss Voigt Hill
#
# Bulk Modulus (GPa) = 65.22793 93.51052 79.36922
# Shear Modulus (GPa) = 24.42059 34.45762 29.43910
#
# Velocity S-wave (km/s) = 3.32621 3.95107 3.65203
# Velocity P-wave (km/s) = 6.65605 7.94854 7.33084
#
# Compressibility (1/GPa) = 0.01533086
#
# Stress axis : x y z
#
# Youngs Moduli (GPa) = 30.29531 71.72444 81.54145
#
# Poissons Ratio (x) = 0.49623 0.98958
# Poissons Ratio (y) = 0.20960 0.23543
# Poissons Ratio (z) = 0.36766 0.20709
#
# Static dielectric constant tensor:
#      x y z
#    x 1.787970 -0.004160 -0.004160 
#    y -0.004160 1.791990 -0.014890 
#    z -0.004160 -0.014890 1.804730 
# 
# From -- ./inp_files/14730.got.cif
#   From: 2010.05.17/outbox.cif.g08.bks.cpg/sg2_8_cif.got.tgz:14730.got - 2010.06.03 11:33:40.
