data_PCOD9045911
_publ_section_title
;
Structure prediction by ZEFSAII (Michael W. Deem and Ramdas Pophale) SiO2 
 PCOD9045911
Probable space group: P -1
;
_chemical_formula_sum "Si O2"
_cell_formula_units_Z 16
_cell_length_a 7.377391
_cell_length_b 17.857533
_cell_length_c 7.736363
_cell_angle_alpha 84.560232
_cell_angle_beta 53.998130
_cell_angle_gamma 109.537949
_cell_volume 718.068504
_symmetry_space_group_name_H-M "P -1"
_symmetry_group_IT_number 2
_symmetry_cell_setting 'triclinic'
loop_
_space_group_symop_operation_xyz
x,y,z
-x,-y,-z
loop_
_atom_site_type_symbol
_atom_site_label
_atom_site_fract_x
_atom_site_fract_y
_atom_site_fract_z
Si Si1 0.609341 0.928249 0.206286
Si Si2 0.310945 0.529245 0.010888
Si Si3 0.395416 0.844191 0.995341
Si Si4 0.259626 0.820435 0.697045
Si Si5 0.001193 0.872040 0.066537
Si Si6 0.141219 0.654227 0.256577
Si Si7 0.172526 0.642501 0.636158
Si Si8 0.583802 0.596358 0.490762
O O1 0.572864 0.910240 0.025928
O O2 0.351057 0.885402 0.470556
O O3 0.744753 0.876491 0.223096
O O4 0.785513 0.028912 0.114205
O O5 0.222582 0.584815 0.165616
O O6 0.049331 0.442309 0.129033
O O7 0.500000 0.500000 0.000000
O O8 0.468776 0.586856 0.749033
O O9 0.121050 0.843911 0.162037
O O10 0.357830 0.751384 0.082219
O O11 0.441129 0.857177 0.759859
O O12 0.223847 0.728651 0.684886
O O13 0.000428 0.814352 0.920248
O O14 0.074270 0.642009 0.498497
O O15 0.888715 0.643446 0.303190
O O16 0.432238 0.636601 0.467345
O O17 0.500000 0.500000 0.500000
#
# Coordination Sequence:
#
# PCOD9045911 Si02
#       8
#     2   2   2   2   2   2   2   2
#     4  11  20  48  67  95 137 172 210 278 329 387
#     4  12  25  44  66  95 129 173 226 270 329 396
#     4  10  24  42  66  99 133 168 219 270 322 394
#     4  10  24  42  64 101 130 170 219 268 326 394
#     4   9  24  42  70  99 129 172 223 260 332 408
#     4  12  25  46  63  97 132 175 224 271 336 387
#     4  12  24  45  65  94 133 175 218 278 333 385
#     4  12  26  42  69  91 129 179 223 278 327 390
#
# _framework density 22.281998000000002
#
# number of rings (size 3 to 8) (size 9 to 14) (size 15 to 20)
#    0.750    0.250    3.750    3.000    3.500    1.000 
#    4.500    1.250    0.000    0.000    0.000    0.000 
#    0.000    0.000    0.000    0.000    0.000    0.000 
#
# Total GULP energy -89299.563196 kJ/mol
# GULP energy per Si atom -5581.222700 kJ/mol
# Density = 2.223128 g / cm^3
# Si number density = 22.281998 Si / 1000 Ang^3
#
#
#
# Elastic Constant Matrix: (Units=GPa)
#
#
# Indices 1 2 3 4 5 6 
#
# 1 67.9475 19.1288 2.1699 13.5639 -15.8907 -3.9867
# 2 19.1288 99.8747 23.3639 23.6023 -4.6373 -5.3256
# 3 2.1699 23.3639 53.6529 9.5202 4.2257 8.0697
# 4 13.5639 23.6023 9.5202 28.0502 -6.7426 5.2550
# 5 -15.8907 -4.6373 4.2257 -6.7426 36.2861 7.5728
# 6 -3.9867 -5.3256 8.0697 5.2550 7.5728 23.1993
#
#
#
# Elastic Compliance Matrix: (Units=1/GPa)
#
#
# Indices 1 2 3 4 5 6 
#
# 1 0.017962 -0.001617 0.000324 -0.006385 0.005999 0.002091
# 2 -0.001617 0.014720 -0.005322 -0.011879 -0.002157 0.008347
# 3 0.000324 -0.005322 0.022707 -0.002386 -0.001982 -0.007877
# 4 -0.006385 -0.011879 -0.002386 0.055547 0.010233 -0.018917
# 5 0.005999 -0.002157 -0.001982 0.010233 0.034630 -0.012397
# 6 0.002091 0.008347 -0.007877 -0.018917 -0.012397 0.056452
#
#
# Mechanical properties :
#
#
# Convention : Reuss Voigt Hill
#
# Bulk Modulus (GPa) = 23.72046 34.53335 29.12691
# Shear Modulus (GPa) = 21.80540 29.29463 25.55002
#
# Velocity S-wave (km/s) = 3.13167 3.62984 3.38992
# Velocity P-wave (km/s) = 4.87290 5.75323 5.33127
#
# Compressibility (1/GPa) = 0.04215770
#
# Stress axis : x y z
#
# Youngs Moduli (GPa) = 55.67190 67.93677 44.03922
#
# Poissons Ratio (x) = 0.10987 -0.01425
# Poissons Ratio (y) = 0.09003 0.23438
# Poissons Ratio (z) = -0.01802 0.36157
#
# Static dielectric constant tensor:
#      x y z
#    x 1.760560 0.066240 0.133810 
#    y 0.066240 1.766560 -0.086090 
#    z 0.133810 -0.086090 1.615500 
# 
# From -- ./inp_files/217790.got.cif
#   From: 2010.05.17/outbox.cif.g08.bks.cpg/sg2_109_cif.got.tgz:217790.got - 2010.06.03 11:33:40.
