data_PCOD9045374
_publ_section_title
;
Structure prediction by ZEFSAII (Michael W. Deem and Ramdas Pophale) SiO2 
 PCOD9045374
Probable space group: P -1
;
_chemical_formula_sum "Si O2"
_cell_formula_units_Z 14
_cell_length_a 18.537384
_cell_length_b 6.875242
_cell_length_c 8.935671
_cell_angle_alpha 129.981845
_cell_angle_beta 60.777267
_cell_angle_gamma 121.890325
_cell_volume 721.294270
_symmetry_space_group_name_H-M "P -1"
_symmetry_group_IT_number 2
_symmetry_cell_setting 'triclinic'
loop_
_space_group_symop_operation_xyz
x,y,z
-x,-y,-z
loop_
_atom_site_type_symbol
_atom_site_label
_atom_site_fract_x
_atom_site_fract_y
_atom_site_fract_z
Si Si1 0.303234 0.813901 0.785486
Si Si2 0.122535 0.834649 0.538960
Si Si3 0.697097 0.187667 0.574320
Si Si4 0.001306 0.487543 0.242641
Si Si5 0.876976 0.590457 0.172938
Si Si6 0.596511 0.613318 0.888976
Si Si7 0.595168 0.611106 0.530592
O O1 0.299142 0.841248 0.623466
O O2 0.205015 0.679120 0.877889
O O3 0.354867 0.603055 0.658859
O O4 0.352347 0.098035 0.950482
O O5 0.204697 0.729722 0.421222
O O6 0.064813 0.716750 0.394611
O O7 0.058877 0.734290 0.695243
O O8 0.155824 0.154612 0.658236
O O9 0.649499 0.405948 0.763876
O O10 0.644075 0.901853 0.556684
O O11 0.937402 0.588846 0.253496
O O12 0.062134 0.385904 0.020898
O O13 0.589944 0.633532 0.726361
O O14 0.500000 0.500000 0.000000
O O15 0.500000 0.500000 0.500000
#
# Coordination Sequence:
#
# PCOD9045374 Si02
#       7
#     2   2   2   2   2   2   2
#     4  11  24  42  66  95 134 166 210 270 314 381
#     4  11  22  43  64  94 130 168 215 260 316 376
#     4  11  24  42  66  95 132 168 211 264 320 378
#     4  10  24  40  63  94 128 170 210 264 316 376
#     4  11  22  42  64  95 128 168 215 260 318 371
#     4  11  26  45  66  98 129 168 215 261 322 385
#     4  11  24  44  69  93 125 168 211 264 328 382
#
# _framework density 19.409555000000001
#
# number of rings (size 3 to 8) (size 9 to 14) (size 15 to 20)
#    0.000    1.143    2.857    2.571    2.000    6.857 
#   10.286    0.000    0.000    0.000    0.000    0.000 
#    0.000    0.000    0.000    0.000    0.000    0.000 
#
# Total GULP energy -78281.459462 kJ/mol
# GULP energy per Si atom -5591.532819 kJ/mol
# Density = 1.936538 g / cm^3
# Si number density = 19.409555 Si / 1000 Ang^3
#
#
#
# Elastic Constant Matrix: (Units=GPa)
#
#
# Indices 1 2 3 4 5 6 
#
# 1 131.3538 54.8558 60.1256 -0.5248 -7.7036 24.5495
# 2 54.8558 103.6996 43.3346 19.5885 1.4117 20.0147
# 3 60.1256 43.3346 88.6953 15.3328 -2.2064 5.1473
# 4 -0.5248 19.5885 15.3328 25.7282 2.4356 0.1674
# 5 -7.7036 1.4117 -2.2064 2.4356 27.1449 2.7404
# 6 24.5495 20.0147 5.1473 0.1674 2.7404 33.1598
#
#
#
# Elastic Compliance Matrix: (Units=1/GPa)
#
#
# Indices 1 2 3 4 5 6 
#
# 1 0.015442 -0.004595 -0.009245 0.009010 0.003827 -0.007585
# 2 -0.004595 0.016419 -0.002701 -0.010870 -0.000800 -0.005968
# 3 -0.009245 -0.002701 0.020303 -0.010223 -0.000462 0.005413
# 4 0.009010 -0.010870 -0.010223 0.053664 -0.002668 0.001427
# 5 0.003827 -0.000800 -0.000462 -0.002668 0.038721 -0.005466
# 6 -0.007585 -0.005968 0.005413 0.001427 -0.005466 0.038979
#
#
# Mechanical properties :
#
#
# Convention : Reuss Voigt Hill
#
# Bulk Modulus (GPa) = 52.40858 71.15343 61.78100
# Shear Modulus (GPa) = 22.42442 28.23542 25.32992
#
# Velocity S-wave (km/s) = 3.40270 3.81821 3.61643
# Velocity P-wave (km/s) = 6.51904 7.49512 7.02406
#
# Compressibility (1/GPa) = 0.01908084
#
# Stress axis : x y z
#
# Youngs Moduli (GPa) = 64.75801 60.90493 49.25367
#
# Poissons Ratio (x) = 0.27989 0.45535
# Poissons Ratio (y) = 0.29759 0.13304
# Poissons Ratio (z) = 0.59869 0.16452
#
# Static dielectric constant tensor:
#      x y z
#    x 1.655030 -0.006600 -0.009850 
#    y -0.006600 1.655450 -0.006070 
#    z -0.009850 -0.006070 1.650630 
# 
# From -- ./inp_files/10244.got.cif
#   From: 2010.05.17/outbox.cif.g08.bks.cpg/sg2_6_cif.got.tgz:10244.got - 2010.06.03 11:33:40.
