data_PCOD9045516
_publ_section_title
;
Structure prediction by ZEFSAII (Michael W. Deem and Ramdas Pophale) SiO2 
 PCOD9045516
Probable space group: P -1
;
_chemical_formula_sum "Si O2"
_cell_formula_units_Z 13
_cell_length_a 5.614386
_cell_length_b 17.421876
_cell_length_c 4.864643
_cell_angle_alpha 82.615178
_cell_angle_beta 93.947492
_cell_angle_gamma 71.202769
_cell_volume 443.619905
_symmetry_space_group_name_H-M "P -1"
_symmetry_group_IT_number 2
_symmetry_cell_setting 'triclinic'
loop_
_space_group_symop_operation_xyz
x,y,z
-x,-y,-z
loop_
_atom_site_type_symbol
_atom_site_label
_atom_site_fract_x
_atom_site_fract_y
_atom_site_fract_z
Si Si1 0.256086 0.432244 0.955645
Si Si2 0.440080 0.132160 0.961943
Si Si3 0.562425 0.378317 0.491658
Si Si4 0.103438 0.954695 0.313728
Si Si5 0.255893 0.785594 0.661459
Si Si6 0.500000 0.000000 0.500000
Si Si7 0.964030 0.705371 0.084649
O O1 0.495151 0.423383 0.175922
O O2 0.202114 0.346487 0.016256
O O3 0.345295 0.431993 0.652010
O O4 0.000000 0.500000 0.000000
O O5 0.624292 0.172481 0.114869
O O6 0.208227 0.211518 0.822726
O O7 0.379024 0.076345 0.215893
O O8 0.562540 0.074552 0.734515
O O9 0.561847 0.285628 0.483530
O O10 0.831218 0.357163 0.671054
O O11 0.123457 0.861464 0.418076
O O12 0.190532 0.004188 0.556922
O O13 0.000000 0.000000 0.000000
O O14 0.096436 0.738589 0.834214
#
# Coordination Sequence:
#
# PCOD9045516 Si02
#       7
#     2   2   2   2   2   1   2
#     4  12  29  52  81 120 162 202 259 324 393 480
#     4  11  24  47  72 111 153 211 266 333 393 470
#     4  12  26  52  77 121 155 206 262 320 392 481
#     4  11  24  42  68 105 157 197 262 332 392 464
#     4  11  24  45  73 112 147 203 267 318 388 472
#     4  10  24  40  70 106 150 198 270 320 406 444
#     4  12  25  46  82 108 161 208 264 320 404 461
#
# _framework density 29.304362999999999
#
# number of rings (size 3 to 8) (size 9 to 14) (size 15 to 20)
#    0.000    0.615    3.077    3.692    2.154    8.615 
#    0.000    0.000    0.000    2.769    0.000    0.000 
#    0.000    0.000    0.000    0.000    0.000    0.000 
#
# Total GULP energy -72893.027668 kJ/mol
# GULP energy per Si atom -5607.155974 kJ/mol
# Density = 2.923767 g / cm^3
# Si number density = 29.304363 Si / 1000 Ang^3
#
#
#
# Elastic Constant Matrix: (Units=GPa)
#
#
# Indices 1 2 3 4 5 6 
#
# 1 127.2690 32.8756 44.0626 10.9596 4.9458 6.1181
# 2 32.8756 199.3098 56.0841 14.6987 2.1028 -35.6376
# 3 44.0626 56.0841 186.6999 5.1966 -14.6186 -12.1854
# 4 10.9596 14.6987 5.1966 57.8197 -14.6072 -4.6597
# 5 4.9458 2.1028 -14.6186 -14.6072 67.9455 -1.2706
# 6 6.1181 -35.6376 -12.1854 -4.6597 -1.2706 84.1305
#
#
#
# Elastic Compliance Matrix: (Units=1/GPa)
#
#
# Indices 1 2 3 4 5 6 
#
# 1 0.009106 -0.001067 -0.001993 -0.001769 -0.001467 -0.001523
# 2 -0.001067 0.006122 -0.001448 -0.001192 -0.000635 0.002386
# 3 -0.001993 -0.001448 0.006412 0.000646 0.001718 0.000522
# 4 -0.001769 -0.001192 0.000646 0.019059 0.004418 0.000840
# 5 -0.001467 -0.000635 0.001718 0.004418 0.016174 0.000576
# 6 -0.001523 0.002386 0.000522 0.000840 0.000576 0.013138
#
#
# Mechanical properties :
#
#
# Convention : Reuss Voigt Hill
#
# Bulk Modulus (GPa) = 79.22452 86.59149 82.90801
# Shear Modulus (GPa) = 60.06930 67.32955 63.69942
#
# Velocity S-wave (km/s) = 4.53243 4.79852 4.66737
# Velocity P-wave (km/s) = 7.38135 7.76623 7.57623
#
# Compressibility (1/GPa) = 0.01262236
#
# Stress axis : x y z
#
# Youngs Moduli (GPa) = 109.81923 163.34571 155.95154
#
# Poissons Ratio (x) = 0.17437 0.31089
# Poissons Ratio (y) = 0.11723 0.22581
# Poissons Ratio (z) = 0.21892 0.23651
#
# Static dielectric constant tensor:
#      x y z
#    x 2.744790 0.082480 0.200190 
#    y 0.082480 2.314820 0.211910 
#    z 0.200190 0.211910 2.276930 
# 
# From -- ./inp_files/6567.got.cif
#   From: 2010.05.17/outbox.cif.g08.bks.cpg/sg2_4_cif.got.tgz:6567.got - 2010.06.03 11:33:40.
