data_PCOD9045460
_publ_section_title
;
Structure prediction by ZEFSAII (Michael W. Deem and Ramdas Pophale) SiO2 
 PCOD9045460
Probable space group: P -1
;
_chemical_formula_sum "Si O2"
_cell_formula_units_Z 14
_cell_length_a 9.571646
_cell_length_b 23.917312
_cell_length_c 8.502091
_cell_angle_alpha 37.800009
_cell_angle_beta 133.040778
_cell_angle_gamma 149.782865
_cell_volume 600.381873
_symmetry_space_group_name_H-M "P -1"
_symmetry_group_IT_number 2
_symmetry_cell_setting 'triclinic'
loop_
_space_group_symop_operation_xyz
x,y,z
-x,-y,-z
loop_
_atom_site_type_symbol
_atom_site_label
_atom_site_fract_x
_atom_site_fract_y
_atom_site_fract_z
Si Si1 0.726107 0.384643 0.447304
Si Si2 0.804958 0.690940 0.674077
Si Si3 0.628017 0.344084 0.104754
Si Si4 0.833409 0.034916 0.828481
Si Si5 0.885248 0.607970 0.621556
Si Si6 0.247538 0.805618 0.993443
Si Si7 0.013963 0.182779 0.965656
O O1 0.468979 0.353348 0.382732
O O2 0.744214 0.409413 0.221141
O O3 0.673462 0.258382 0.709476
O O4 0.000000 0.500000 0.500000
O O5 0.026600 0.842405 0.448467
O O6 0.747768 0.608902 0.662672
O O7 0.960791 0.692404 0.930107
O O8 0.799874 0.312777 0.266502
O O9 0.297972 0.227519 0.122094
O O10 0.718783 0.456327 0.806815
O O11 0.879521 0.085514 0.930634
O O12 0.504028 0.909942 0.841423
O O13 0.000000 0.000000 0.000000
O O14 0.899926 0.685700 0.320669
O O15 0.183029 0.866589 0.927588
#
# Coordination Sequence:
#
# PCOD9045460 Si02
#       7
#     2   2   2   2   2   2   2
#     4  12  26  42  69 104 140 174 223 278 332 403
#     4  11  25  45  70 100 133 182 221 275 343 391
#     4  11  23  43  65 101 134 181 220 271 334 404
#     4  11  25  46  69 100 133 176 229 284 331 391
#     4  10  24  40  67  98 137 173 225 269 332 402
#     4  12  24  46  68  98 138 177 228 275 332 402
#     4  11  24  43  69  95 136 177 224 275 339 391
#
# _framework density 23.318491000000002
#
# number of rings (size 3 to 8) (size 9 to 14) (size 15 to 20)
#    0.000    0.857    4.286    2.143    4.000    5.714 
#    0.000    1.429    0.000    0.000    0.000    0.000 
#    0.000    0.000    0.000    0.000    0.000    0.000 
#
# Total GULP energy -78356.103173 kJ/mol
# GULP energy per Si atom -5596.864512 kJ/mol
# Density = 2.326542 g / cm^3
# Si number density = 23.318491 Si / 1000 Ang^3
#
#
#
# Elastic Constant Matrix: (Units=GPa)
#
#
# Indices 1 2 3 4 5 6 
#
# 1 143.4781 28.6281 -3.4795 10.7956 3.7604 40.9617
# 2 28.6281 87.4264 5.2896 19.3731 5.5468 34.2395
# 3 -3.4795 5.2896 50.0931 4.5870 8.3622 7.9900
# 4 10.7956 19.3731 4.5870 31.6822 3.8922 3.3074
# 5 3.7604 5.5468 8.3622 3.8922 28.1116 11.2875
# 6 40.9617 34.2395 7.9900 3.3074 11.2875 42.9658
#
#
#
# Elastic Compliance Matrix: (Units=1/GPa)
#
#
# Indices 1 2 3 4 5 6 
#
# 1 0.010429 0.002101 0.002374 -0.004255 0.003112 -0.012549
# 2 0.002101 0.020379 0.001331 -0.011964 0.004486 -0.018748
# 3 0.002374 0.001331 0.021984 -0.003661 -0.004192 -0.006029
# 4 -0.004255 -0.011964 -0.003661 0.040339 -0.006763 0.012942
# 5 0.003112 0.004486 -0.004192 -0.006763 0.043106 -0.016566
# 6 -0.012549 -0.018748 -0.006029 0.012942 -0.016566 0.054655
#
#
# Mechanical properties :
#
#
# Convention : Reuss Voigt Hill
#
# Bulk Modulus (GPa) = 15.52691 37.98600 26.75645
# Shear Modulus (GPa) = 24.90704 37.25586 31.08145
#
# Velocity S-wave (km/s) = 3.27176 4.00146 3.65486
# Velocity P-wave (km/s) = 4.57664 6.13794 5.41387
#
# Compressibility (1/GPa) = 0.06440431
#
# Stress axis : x y z
#
# Youngs Moduli (GPa) = 95.88554 49.07131 45.48778
#
# Poissons Ratio (x) = -0.10311 -0.10800
# Poissons Ratio (y) = -0.20147 -0.06055
# Poissons Ratio (z) = -0.22765 -0.06532
#
# Static dielectric constant tensor:
#      x y z
#    x 1.848070 0.014190 0.003920 
#    y 0.014190 1.891590 -0.033210 
#    z 0.003920 -0.033210 1.925030 
# 
# From -- ./inp_files/40332.got.cif
#   From: 2010.05.17/outbox.cif.g08.bks.cpg/sg2_21_cif.got.tgz:40332.got - 2010.06.03 11:33:40.
