data_PCOD9045699
_publ_section_title
;
Structure prediction by ZEFSAII (Michael W. Deem and Ramdas Pophale) SiO2 
 PCOD9045699
Probable space group: P -1
;
_chemical_formula_sum "Si O2"
_cell_formula_units_Z 16
_cell_length_a 13.077531
_cell_length_b 15.313697
_cell_length_c 10.390381
_cell_angle_alpha 88.533110
_cell_angle_beta 89.648133
_cell_angle_gamma 18.669425
_cell_volume 664.804697
_symmetry_space_group_name_H-M "P -1"
_symmetry_group_IT_number 2
_symmetry_cell_setting 'triclinic'
loop_
_space_group_symop_operation_xyz
x,y,z
-x,-y,-z
loop_
_atom_site_type_symbol
_atom_site_label
_atom_site_fract_x
_atom_site_fract_y
_atom_site_fract_z
Si Si1 0.095722 0.376437 0.830932
Si Si2 0.696854 0.006878 0.544111
Si Si3 0.520449 0.815684 0.998034
Si Si4 0.082139 0.031957 0.959263
Si Si5 0.817452 0.228852 0.426045
Si Si6 0.008046 0.567840 0.608841
Si Si7 0.174790 0.138840 0.724202
Si Si8 0.454165 0.433782 0.204620
O O1 0.927254 0.592009 0.747526
O O2 0.161744 0.253447 0.724012
O O3 0.865405 0.521704 0.937020
O O4 0.404679 0.167850 0.904257
O O5 0.634723 0.055233 0.388493
O O6 0.967306 0.859488 0.573167
O O7 0.810697 0.815678 0.577907
O O8 0.384123 0.286182 0.614104
O O9 0.315468 0.900935 0.053034
O O10 0.306455 0.015373 0.870345
O O11 0.320436 0.823409 0.844404
O O12 0.758723 0.343396 0.908859
O O13 0.000000 0.000000 0.000000
O O14 0.500000 0.500000 0.500000
O O15 0.689241 0.307005 0.283464
O O16 0.000000 0.000000 0.500000
O O17 0.000000 0.500000 0.500000
O O18 0.816429 0.390080 0.709812
#
# Coordination Sequence:
#
# PCOD9045699 Si02
#       8
#     2   2   2   2   2   2   2   2
#     4  11  23  42  68  95 140 176 237 282 344 411
#     4  12  27  43  71 102 142 182 230 285 350 417
#     4  10  24  41  67 101 126 184 228 290 337 410
#     4  11  24  45  70  97 136 177 228 283 352 413
#     4  12  25  43  69 103 137 176 234 290 343 408
#     4  12  26  45  67 102 139 188 225 284 354 419
#     4  11  22  41  70  95 137 175 234 276 345 411
#     4  11  24  42  69  99 131 180 224 282 343 410
#
# _framework density 24.067216999999999
#
# number of rings (size 3 to 8) (size 9 to 14) (size 15 to 20)
#    0.000    0.750    3.750    3.375    3.500    2.000 
#    0.000    0.000    0.000    0.000    0.000    0.000 
#    0.000    0.000    0.000    0.000    0.000    0.000 
#
# Total GULP energy -89475.571278 kJ/mol
# GULP energy per Si atom -5592.223205 kJ/mol
# Density = 2.401244 g / cm^3
# Si number density = 24.067217 Si / 1000 Ang^3
#
#
#
# Elastic Constant Matrix: (Units=GPa)
#
#
# Indices 1 2 3 4 5 6 
#
# 1 142.0018 26.0081 24.5860 -23.1612 4.4228 -32.2227
# 2 26.0081 96.5326 3.4440 -1.1105 -2.7944 -10.7948
# 3 24.5860 3.4440 46.5611 -12.6211 6.2635 -12.7256
# 4 -23.1612 -1.1105 -12.6211 36.5752 -6.4194 3.5706
# 5 4.4228 -2.7944 6.2635 -6.4194 39.2396 -10.9128
# 6 -32.2227 -10.7948 -12.7256 3.5706 -10.9128 53.1934
#
#
#
# Elastic Compliance Matrix: (Units=1/GPa)
#
#
# Indices 1 2 3 4 5 6 
#
# 1 0.009684 -0.001885 -0.002483 0.004980 0.001328 0.004828
# 2 -0.001885 0.011050 0.000216 -0.000706 0.001255 0.001457
# 3 -0.002483 0.000216 0.025886 0.006693 -0.001644 0.003946
# 4 0.004980 -0.000706 0.006693 0.033288 0.004654 0.003195
# 5 0.001328 0.001255 -0.001644 0.004654 0.028153 0.006129
# 6 0.004828 0.001457 0.003946 0.003195 0.006129 0.024006
#
#
# Mechanical properties :
#
#
# Convention : Reuss Voigt Hill
#
# Bulk Modulus (GPa) = 26.09844 43.68575 34.89209
# Shear Modulus (GPa) = 32.64925 41.20547 36.92736
#
# Velocity S-wave (km/s) = 3.68718 4.14224 3.92132
# Velocity P-wave (km/s) = 5.38466 6.40847 5.91875
#
# Compressibility (1/GPa) = 0.03831647
#
# Stress axis : x y z
#
# Youngs Moduli (GPa) = 103.26652 90.49392 38.63048
#
# Poissons Ratio (x) = 0.17057 0.09593
# Poissons Ratio (y) = 0.19464 -0.00835
# Poissons Ratio (z) = 0.25644 -0.01956
#
# Static dielectric constant tensor:
#      x y z
#    x 2.057830 -0.013750 -0.024500 
#    y -0.013750 1.944090 0.009750 
#    z -0.024500 0.009750 1.962940 
# 
# From -- ./inp_files/69043.got.cif
#   From: 2010.05.17/outbox.cif.g08.bks.cpg/sg2_35_cif.got.tgz:69043.got - 2010.06.03 11:33:40.
