data_PCOD9045119
_publ_section_title
;
Structure prediction by ZEFSAII (Michael W. Deem and Ramdas Pophale) SiO2 
 PCOD9045119
Probable space group: P -1
;
_chemical_formula_sum "Si O2"
_cell_formula_units_Z 16
_cell_length_a 20.697304
_cell_length_b 8.779725
_cell_length_c 11.864340
_cell_angle_alpha 143.170483
_cell_angle_beta 44.326602
_cell_angle_gamma 110.482478
_cell_volume 764.843201
_symmetry_space_group_name_H-M "P -1"
_symmetry_group_IT_number 2
_symmetry_cell_setting 'triclinic'
loop_
_space_group_symop_operation_xyz
x,y,z
-x,-y,-z
loop_
_atom_site_type_symbol
_atom_site_label
_atom_site_fract_x
_atom_site_fract_y
_atom_site_fract_z
Si Si1 0.087382 0.940225 0.988424
Si Si2 0.082245 0.228984 0.817199
Si Si3 0.753541 0.395552 0.821845
Si Si4 0.365950 0.510843 0.762112
Si Si5 0.072136 0.492208 0.215864
Si Si6 0.536110 0.063265 0.111458
Si Si7 0.743536 0.582542 0.694180
Si Si8 0.165960 0.980886 0.151444
O O1 0.050394 0.268000 0.182550
O O2 0.156998 0.873395 0.975613
O O3 0.836646 0.300010 0.341763
O O4 0.986321 0.908117 0.127452
O O5 0.185228 0.966798 0.466803
O O6 0.114755 0.348727 0.955103
O O7 0.000000 0.500000 0.000000
O O8 0.842513 0.467455 0.797283
O O9 0.725041 0.488813 0.783603
O O10 0.653383 0.556961 0.127854
O O11 0.439011 0.233003 0.424271
O O12 0.419262 0.713148 0.824501
O O13 0.246298 0.715088 0.976211
O O14 0.958475 0.805797 0.526386
O O15 0.500000 0.000000 0.000000
O O16 0.633872 0.757204 0.861536
O O17 0.784278 0.810508 0.796368
#
# Coordination Sequence:
#
# PCOD9045119 Si02
#       8
#     2   2   2   2   2   2   2   2
#     4  12  22  39  62  92 134 179 221 254 310 386
#     4  12  26  37  58  94 140 182 222 261 305 373
#     4  12  25  42  62 101 138 169 216 267 319 387
#     4  10  25  43  67  96 129 159 222 277 322 387
#     4  12  23  39  62  92 139 183 214 248 320 389
#     4  10  23  49  73  93 118 169 218 273 342 388
#     4  11  23  41  68  95 128 173 219 268 322 385
#     4  11  21  38  64  93 127 184 215 254 313 389
#
# _framework density 20.919319999999999
#
# number of rings (size 3 to 8) (size 9 to 14) (size 15 to 20)
#    0.000    0.750    5.000    3.000    3.500    2.500 
#    0.000    0.625    0.000    0.000    0.000    0.000 
#    0.000    0.000    0.000    0.000    0.000    0.000 
#
# Total GULP energy -89566.215470 kJ/mol
# GULP energy per Si atom -5597.888467 kJ/mol
# Density = 2.087171 g / cm^3
# Si number density = 20.919320 Si / 1000 Ang^3
#
#
#
# Elastic Constant Matrix: (Units=GPa)
#
#
# Indices 1 2 3 4 5 6 
#
# 1 128.2212 16.1791 33.3573 -6.4986 15.2632 -25.7160
# 2 16.1791 49.8169 32.1578 -14.1765 7.3620 -6.9010
# 3 33.3573 32.1578 95.2901 -23.8862 10.1496 -5.6045
# 4 -6.4986 -14.1765 -23.8862 31.0778 -8.7176 4.7932
# 5 15.2632 7.3620 10.1496 -8.7176 35.6890 -6.0933
# 6 -25.7160 -6.9010 -5.6045 4.7932 -6.0933 24.0332
#
#
#
# Elastic Compliance Matrix: (Units=1/GPa)
#
#
# Indices 1 2 3 4 5 6 
#
# 1 0.011121 -0.000210 -0.003655 -0.002977 -0.002533 0.010939
# 2 -0.000210 0.027295 -0.007297 0.005749 -0.001304 0.004434
# 3 -0.003655 -0.007297 0.016264 0.009017 -0.000041 -0.004023
# 4 -0.002977 0.005749 0.009017 0.044116 0.007206 -0.006404
# 5 -0.002533 -0.001304 -0.000041 0.007206 0.031744 0.003517
# 6 0.010939 0.004434 -0.004023 -0.006404 0.003517 0.055818
#
#
# Mechanical properties :
#
#
# Convention : Reuss Voigt Hill
#
# Bulk Modulus (GPa) = 30.90638 48.52407 39.71523
# Shear Modulus (GPa) = 22.78231 30.93559 26.85895
#
# Velocity S-wave (km/s) = 3.30367 3.84969 3.58708
# Velocity P-wave (km/s) = 5.41834 6.55792 6.01518
#
# Compressibility (1/GPa) = 0.03235577
#
# Stress axis : x y z
#
# Youngs Moduli (GPa) = 89.92087 36.63668 61.48392
#
# Poissons Ratio (x) = 0.00769 0.22475
# Poissons Ratio (y) = 0.01886 0.44866
# Poissons Ratio (z) = 0.32869 0.26734
#
# Static dielectric constant tensor:
#      x y z
#    x 1.733490 0.001710 0.009410 
#    y 0.001710 1.762190 0.000430 
#    z 0.009410 0.000430 1.744160 
# 
# From -- ./inp_files/469654.got.cif
#   From: 2010.05.17/outbox.cif.g08.bks.cpg/sg2_235_cif.got.tgz:469654.got - 2010.06.03 11:33:40.
