data_PCOD9045659
_publ_section_title
;
Structure prediction by ZEFSAII (Michael W. Deem and Ramdas Pophale) SiO2 
 PCOD9045659
Probable space group: P -1
;
_chemical_formula_sum "Si O2"
_cell_formula_units_Z 12
_cell_length_a 11.177408
_cell_length_b 13.837825
_cell_length_c 5.379879
_cell_angle_alpha 100.239702
_cell_angle_beta 89.431592
_cell_angle_gamma 137.783735
_cell_volume 540.810831
_symmetry_space_group_name_H-M "P -1"
_symmetry_group_IT_number 2
_symmetry_cell_setting 'triclinic'
loop_
_space_group_symop_operation_xyz
x,y,z
-x,-y,-z
loop_
_atom_site_type_symbol
_atom_site_label
_atom_site_fract_x
_atom_site_fract_y
_atom_site_fract_z
Si Si1 0.452447 0.309844 0.335190
Si Si2 0.846567 0.363231 0.681361
Si Si3 0.524964 0.803684 0.211405
Si Si4 0.948679 0.624349 0.941757
Si Si5 0.188837 0.849361 0.692957
Si Si6 0.218033 0.352710 0.389527
O O1 0.458884 0.245431 0.550802
O O2 0.288287 0.285880 0.353574
O O3 0.633897 0.488642 0.406633
O O4 0.438764 0.240649 0.050342
O O5 0.680935 0.285261 0.834558
O O6 0.764493 0.229827 0.444644
O O7 0.913286 0.514817 0.687754
O O8 0.015010 0.413552 0.832444
O O9 0.661979 0.979009 0.282518
O O10 0.135513 0.796629 0.957372
O O11 0.796867 0.610087 0.874177
O O12 0.988659 0.762782 0.563620
#
# Coordination Sequence:
#
# PCOD9045659 Si02
#       6
#     2   2   2   2   2   2
#     4  11  26  46  69  97 133 176 222 275 319 396
#     4  11  22  39  69  96 134 173 222 270 329 393
#     4  12  27  42  68 102 138 171 213 275 340 387
#     4   9  22  40  65  99 121 180 218 276 312 395
#     4  10  24  41  65  97 134 172 218 272 333 392
#     4   9  23  46  69  94 129 176 232 264 325 386
#
# _framework density 22.188905999999999
#
# number of rings (size 3 to 8) (size 9 to 14) (size 15 to 20)
#    1.000    0.667    1.667    1.000    9.333    6.000 
#    0.000    0.000    0.000    0.000    0.000    0.000 
#    0.000    0.000    0.000    0.000    0.000    0.000 
#
# Total GULP energy -66844.810470 kJ/mol
# GULP energy per Si atom -5570.400873 kJ/mol
# Density = 2.213840 g / cm^3
# Si number density = 22.188906 Si / 1000 Ang^3
#
#
#
# Elastic Constant Matrix: (Units=GPa)
#
#
# Indices 1 2 3 4 5 6 
#
# 1 100.3894 29.5919 21.7657 0.7232 5.1620 -1.5849
# 2 29.5919 153.7995 35.3464 15.9439 -15.0431 -4.4408
# 3 21.7657 35.3464 82.4016 -5.1111 -8.1052 -13.8453
# 4 0.7232 15.9439 -5.1111 20.2409 -5.2120 1.0706
# 5 5.1620 -15.0431 -8.1052 -5.2120 31.6702 1.0011
# 6 -1.5849 -4.4408 -13.8453 1.0706 1.0011 21.2279
#
#
#
# Elastic Compliance Matrix: (Units=1/GPa)
#
#
# Indices 1 2 3 4 5 6 
#
# 1 0.011267 -0.001863 -0.002739 -0.000457 -0.003461 -0.001149
# 2 -0.001863 0.008596 -0.003452 -0.006947 0.002371 -0.000354
# 3 -0.002739 -0.003452 0.016800 0.007604 0.004059 0.009455
# 4 -0.000457 -0.006947 0.007604 0.058977 0.008424 0.000101
# 5 -0.003461 0.002371 0.004059 0.008424 0.035666 0.000778
# 6 -0.001149 -0.000354 0.009455 0.000101 0.000778 0.053073
#
#
# Mechanical properties :
#
#
# Convention : Reuss Voigt Hill
#
# Bulk Modulus (GPa) = 48.65071 56.66650 52.65861
# Shear Modulus (GPa) = 24.11515 31.28689 27.70102
#
# Velocity S-wave (km/s) = 3.30026 3.75910 3.53713
# Velocity P-wave (km/s) = 6.04116 6.66594 6.36122
#
# Compressibility (1/GPa) = 0.02055468
#
# Stress axis : x y z
#
# Youngs Moduli (GPa) = 88.75276 116.33879 59.52515
#
# Poissons Ratio (x) = 0.21670 0.16304
# Poissons Ratio (y) = 0.16532 0.20550
# Poissons Ratio (z) = 0.24309 0.40163
#
# Static dielectric constant tensor:
#      x y z
#    x 1.789740 0.010000 -0.011620 
#    y 0.010000 1.804420 -0.042500 
#    z -0.011620 -0.042500 1.956880 
# 
# From -- ./inp_files/78332.got.cif
#   From: 2010.05.17/outbox.cif.g08.bks.cpg/sg2_40_cif.got.tgz:78332.got - 2010.06.03 11:33:40.
