data_PCOD9045705
_publ_section_title
;
Structure prediction by ZEFSAII (Michael W. Deem and Ramdas Pophale) SiO2 
 PCOD9045705
Probable space group: P -1
;
_chemical_formula_sum "Si O2"
_cell_formula_units_Z 16
_cell_length_a 9.355439
_cell_length_b 11.930103
_cell_length_c 18.765105
_cell_angle_alpha 27.467667
_cell_angle_beta 131.725621
_cell_angle_gamma 129.387567
_cell_volume 715.072012
_symmetry_space_group_name_H-M "P -1"
_symmetry_group_IT_number 2
_symmetry_cell_setting 'triclinic'
loop_
_space_group_symop_operation_xyz
x,y,z
-x,-y,-z
loop_
_atom_site_type_symbol
_atom_site_label
_atom_site_fract_x
_atom_site_fract_y
_atom_site_fract_z
Si Si1 0.260309 0.309350 0.711426
Si Si2 0.654511 0.059867 0.793951
Si Si3 0.980085 0.784899 0.673873
Si Si4 0.816711 0.157644 0.647489
Si Si5 0.328568 0.166786 0.339672
Si Si6 0.020656 0.528471 0.281785
Si Si7 0.400716 0.370838 0.872089
Si Si8 0.743087 0.868289 0.345050
O O1 0.286636 0.600885 0.538476
O O2 0.381891 0.260726 0.848228
O O3 0.290689 0.160690 0.734049
O O4 0.034814 0.249210 0.690031
O O5 0.711820 0.008187 0.761820
O O6 0.839411 0.220346 0.800181
O O7 0.465161 0.196649 0.651155
O O8 0.589618 0.827132 0.952272
O O9 0.782527 0.781697 0.654210
O O10 0.985311 0.546542 0.761254
O O11 0.000000 0.000000 0.500000
O O12 0.152895 0.871944 0.737284
O O13 0.818208 0.992428 0.671756
O O14 0.424063 0.413757 0.194647
O O15 0.500000 0.000000 0.500000
O O16 0.119626 0.330325 0.472559
O O17 0.803167 0.526929 0.237863
#
# Coordination Sequence:
#
# PCOD9045705 Si02
#       8
#     2   2   2   2   2   2   2   2
#     4  11  21  42  70  97 132 180 235 279 329 407
#     4  12  27  43  69 103 138 178 230 285 347 393
#     4  10  24  41  67 102 135 171 224 284 337 393
#     4  11  23  41  71  98 133 182 233 278 326 413
#     4  12  24  42  70 103 136 182 227 280 340 409
#     4  11  23  45  69  96 138 184 225 277 337 408
#     4  12  27  45  68 103 139 180 226 284 347 405
#     4  11  23  43  69 102 131 177 231 281 330 411
#
# _framework density 22.375368999999999
#
# number of rings (size 3 to 8) (size 9 to 14) (size 15 to 20)
#    0.000    0.750    5.000    3.000    7.000    1.000 
#    0.000    0.625    0.000    0.000    0.000    0.000 
#    0.000    0.000    0.000    0.000    0.000    0.000 
#
# Total GULP energy -89497.361921 kJ/mol
# GULP energy per Si atom -5593.585120 kJ/mol
# Density = 2.232444 g / cm^3
# Si number density = 22.375369 Si / 1000 Ang^3
#
#
#
# Elastic Constant Matrix: (Units=GPa)
#
#
# Indices 1 2 3 4 5 6 
#
# 1 117.0931 43.0804 12.0907 -6.7886 -20.1723 -15.1216
# 2 43.0804 77.9695 12.8367 1.3583 -8.0078 -8.8238
# 3 12.0907 12.8367 63.6994 -1.7864 -25.6120 6.0748
# 4 -6.7886 1.3583 -1.7864 17.7599 6.5112 -12.3050
# 5 -20.1723 -8.0078 -25.6120 6.5112 33.6038 1.5721
# 6 -15.1216 -8.8238 6.0748 -12.3050 1.5721 44.9662
#
#
#
# Elastic Compliance Matrix: (Units=1/GPa)
#
#
# Indices 1 2 3 4 5 6 
#
# 1 0.012584 -0.006134 0.000636 0.006663 0.005071 0.004588
# 2 -0.006134 0.016702 -0.002954 -0.002751 -0.001463 0.000912
# 3 0.000636 -0.002954 0.024993 -0.009609 0.020921 -0.007103
# 4 0.006663 -0.002751 -0.009609 0.084695 -0.021650 0.026933
# 5 0.005071 -0.001463 0.020921 -0.021650 0.053024 -0.009186
# 6 0.004588 0.000912 -0.007103 0.026933 -0.009186 0.032612
#
#
# Mechanical properties :
#
#
# Convention : Reuss Voigt Hill
#
# Bulk Modulus (GPa) = 26.75564 43.86418 35.30991
# Shear Modulus (GPa) = 19.68723 31.98292 25.83508
#
# Velocity S-wave (km/s) = 2.96946 3.78482 3.40166
# Velocity P-wave (km/s) = 4.87243 6.22464 5.58957
#
# Compressibility (1/GPa) = 0.03737529
#
# Stress axis : x y z
#
# Youngs Moduli (GPa) = 79.46823 59.87413 40.01106
#
# Poissons Ratio (x) = 0.36724 -0.02544
# Poissons Ratio (y) = 0.48742 0.11819
# Poissons Ratio (z) = -0.05053 0.17687
#
# Static dielectric constant tensor:
#      x y z
#    x 1.808140 -0.007870 0.017600 
#    y -0.007870 1.842800 -0.006550 
#    z 0.017600 -0.006550 1.841470 
# 
# From -- ./inp_files/184189.got.cif
#   From: 2010.05.17/outbox.cif.g08.bks.cpg/sg2_93_cif.got.tgz:184189.got - 2010.06.03 11:33:40.
