data_PCOD9045994
_publ_section_title
;
Structure prediction by ZEFSAII (Michael W. Deem and Ramdas Pophale) SiO2 
 PCOD9045994
Probable space group: P -1
;
_chemical_formula_sum "Si O2"
_cell_formula_units_Z 14
_cell_length_a 8.731604
_cell_length_b 5.104096
_cell_length_c 18.553391
_cell_angle_alpha 105.311137
_cell_angle_beta 119.087321
_cell_angle_gamma 57.388138
_cell_volume 608.658982
_symmetry_space_group_name_H-M "P -1"
_symmetry_group_IT_number 2
_symmetry_cell_setting 'triclinic'
loop_
_space_group_symop_operation_xyz
x,y,z
-x,-y,-z
loop_
_atom_site_type_symbol
_atom_site_label
_atom_site_fract_x
_atom_site_fract_y
_atom_site_fract_z
Si Si1 0.380431 0.820867 0.763870
Si Si2 0.713399 0.043375 0.478866
Si Si3 0.050559 0.909561 0.921949
Si Si4 0.295137 0.180913 0.920919
Si Si5 0.041102 0.211347 0.613955
Si Si6 0.708226 0.797650 0.618043
Si Si7 0.629965 0.100301 0.766591
O O1 0.487126 0.458411 0.779487
O O2 0.326755 0.025432 0.838448
O O3 0.184609 0.925932 0.676709
O O4 0.530367 0.899711 0.758440
O O5 0.480959 0.264568 0.422813
O O6 0.854720 0.195389 0.533655
O O7 0.819100 0.796278 0.420435
O O8 0.715362 0.893250 0.544770
O O9 0.216981 0.548091 0.925723
O O10 0.130357 0.124537 0.920123
O O11 0.846659 0.972103 0.841594
O O12 0.000000 0.000000 0.000000
O O13 0.500000 0.000000 0.000000
O O14 0.928408 0.511360 0.660267
O O15 0.657958 0.063146 0.684149
#
# Coordination Sequence:
#
# PCOD9045994 Si02
#       7
#     2   2   2   2   2   2   2
#     4  12  27  46  70 103 144 185 236 292 353 419
#     4  10  24  42  66 100 136 180 242 294 362 424
#     4  12  25  46  75 107 144 186 234 287 353 418
#     4  12  25  46  75 107 144 186 234 287 353 418
#     4  11  24  42  69  97 139 183 240 293 363 417
#     4  11  24  42  69  97 139 183 240 293 363 417
#     4  12  27  46  70 103 144 185 236 292 353 419
#
# _framework density 23.001386
#
# number of rings (size 3 to 8) (size 9 to 14) (size 15 to 20)
#    0.000    0.571    1.429    6.000    6.000    4.571 
#    0.000    0.000    0.000    0.000    0.000    0.000 
#    0.000    0.000    0.000    0.000    0.000    0.000 
#
# Total GULP energy -78378.373139 kJ/mol
# GULP energy per Si atom -5598.455224 kJ/mol
# Density = 2.294903 g / cm^3
# Si number density = 23.001386 Si / 1000 Ang^3
#
#
#
# Elastic Constant Matrix: (Units=GPa)
#
#
# Indices 1 2 3 4 5 6 
#
# 1 90.5074 -16.2675 17.3554 3.3412 -13.3784 -16.0462
# 2 -16.2675 70.1133 11.9917 1.1103 -0.0229 -19.2561
# 3 17.3554 11.9917 118.4328 1.4367 -6.7563 -23.1086
# 4 3.3412 1.1103 1.4367 38.2503 -4.3661 -1.8942
# 5 -13.3784 -0.0229 -6.7563 -4.3661 16.1244 2.9638
# 6 -16.0462 -19.2561 -23.1086 -1.8942 2.9638 41.2327
#
#
#
# Elastic Compliance Matrix: (Units=1/GPa)
#
#
# Indices 1 2 3 4 5 6 
#
# 1 0.015115 0.005646 -0.000735 0.000155 0.010936 0.007328
# 2 0.005646 0.018511 -0.000535 -0.000209 0.002527 0.010351
# 3 -0.000735 -0.000535 0.009672 0.000251 0.002645 0.004706
# 4 0.000155 -0.000209 0.000251 0.027011 0.007398 0.000812
# 5 0.010936 0.002527 0.002645 0.007398 0.073848 0.001950
# 6 0.007328 0.010351 0.004706 0.000812 0.001950 0.034473
#
#
# Mechanical properties :
#
#
# Convention : Reuss Voigt Hill
#
# Bulk Modulus (GPa) = 19.21250 33.91253 26.56252
# Shear Modulus (GPa) = 26.70553 36.85306 31.77929
#
# Velocity S-wave (km/s) = 3.41110 4.00710 3.72105
# Velocity P-wave (km/s) = 4.88723 6.01539 5.48042
#
# Compressibility (1/GPa) = 0.05204945
#
# Stress axis : x y z
#
# Youngs Moduli (GPa) = 66.16152 54.02148 103.39618
#
# Poissons Ratio (x) = -0.30502 0.07597
# Poissons Ratio (y) = -0.37356 0.05535
# Poissons Ratio (z) = 0.04861 0.02892
#
# Static dielectric constant tensor:
#      x y z
#    x 1.848500 -0.002890 0.021350 
#    y -0.002890 1.890610 0.045940 
#    z 0.021350 0.045940 1.861100 
# 
# From -- ./inp_files/553755.got.cif
#   From: 2010.05.17/outbox.cif.g08.bks.cpg/sg2_277_cif.got.tgz:553755.got - 2010.06.03 11:33:40.
