data_PCOD9045226
_publ_section_title
;
Structure prediction by ZEFSAII (Michael W. Deem and Ramdas Pophale) SiO2 
 PCOD9045226
Probable space group: P -1
;
_chemical_formula_sum "Si O2"
_cell_formula_units_Z 15
_cell_length_a 28.927341
_cell_length_b 8.527442
_cell_length_c 28.857961
_cell_angle_alpha 33.034191
_cell_angle_beta 170.323951
_cell_angle_gamma 146.719868
_cell_volume 648.669290
_symmetry_space_group_name_H-M "P -1"
_symmetry_group_IT_number 2
_symmetry_cell_setting 'triclinic'
loop_
_space_group_symop_operation_xyz
x,y,z
-x,-y,-z
loop_
_atom_site_type_symbol
_atom_site_label
_atom_site_fract_x
_atom_site_fract_y
_atom_site_fract_z
Si Si1 0.908719 0.632746 0.736837
Si Si2 0.000000 0.500000 0.000000
Si Si3 0.635962 0.717174 0.687129
Si Si4 0.396433 0.132991 0.487335
Si Si5 0.317834 0.281301 0.906916
Si Si6 0.221449 0.105234 0.549435
Si Si7 0.156960 0.281239 0.846976
Si Si8 0.345019 0.562544 0.630613
O O1 0.603058 0.541122 0.476881
O O2 0.874632 0.668001 0.639099
O O3 0.097729 0.379204 0.999911
O O4 0.047577 0.945507 0.812744
O O5 0.166604 0.285429 0.250684
O O6 0.288027 0.737787 0.227424
O O7 0.713304 0.770936 0.696000
O O8 0.500000 0.000000 0.500000
O O9 0.364793 0.800832 0.550188
O O10 0.220320 0.410603 0.826509
O O11 0.527013 0.047404 0.185897
O O12 0.500000 0.500000 0.000000
O O13 0.046560 0.125720 0.652272
O O14 0.337872 0.258288 0.673124
O O15 0.418395 0.328743 0.126679
O O16 0.929401 0.431004 0.612727
#
# Coordination Sequence:
#
# PCOD9045226 Si02
#       8
#     2   1   2   2   2   2   2   2
#     4  11  24  42  66  89 132 176 235 278 326 403
#     4  10  24  38  54  82 118 170 230 260 330 382
#     4  12  25  39  61  90 124 173 235 289 328 379
#     4  11  25  38  58  86 129 172 225 274 338 369
#     4  11  24  49  77 104 137 173 220 270 332 428
#     4  11  24  46  71 104 134 186 219 272 352 410
#     4  11  25  42  68 103 128 179 219 276 337 412
#     4  12  25  42  67  98 145 173 226 285 337 403
#
# _framework density 23.124265999999999
#
# number of rings (size 3 to 8) (size 9 to 14) (size 15 to 20)
#    0.000    0.800    0.000    8.000   11.200    2.133 
#    0.000    4.000    0.000    0.000    0.000    0.000 
#    0.000    0.000    0.000    0.000    0.000    0.000 
#
# Total GULP energy -83702.234555 kJ/mol
# GULP energy per Si atom -5580.148970 kJ/mol
# Density = 2.307163 g / cm^3
# Si number density = 23.124266 Si / 1000 Ang^3
#
#
#
# Elastic Constant Matrix: (Units=GPa)
#
#
# Indices 1 2 3 4 5 6 
#
# 1 101.3561 31.3904 6.4614 17.4790 -11.9125 7.1230
# 2 31.3904 30.7044 3.6819 23.3590 -14.8414 5.2306
# 3 6.4614 3.6819 123.1372 29.4919 1.6398 3.4758
# 4 17.4790 23.3590 29.4919 39.3432 -2.8065 0.0553
# 5 -11.9125 -14.8414 1.6398 -2.8065 25.5855 10.8670
# 6 7.1230 5.2306 3.4758 0.0553 10.8670 34.3573
#
#
#
# Elastic Compliance Matrix: (Units=1/GPa)
#
#
# Indices 1 2 3 4 5 6 
#
# 1 0.016791 -0.039413 -0.003962 0.017740 -0.016257 0.008034
# 2 -0.039413 0.316159 0.037272 -0.184743 0.185798 -0.102201
# 3 -0.003962 0.037272 0.014397 -0.029639 0.021096 -0.012934
# 4 0.017740 -0.184743 -0.029639 0.141688 -0.107459 0.061207
# 5 -0.016257 0.185798 0.021096 -0.107459 0.158916 -0.077141
# 6 0.008034 -0.102201 -0.012934 0.061207 -0.077141 0.068609
#
#
# Mechanical properties :
#
#
# Convention : Reuss Voigt Hill
#
# Bulk Modulus (GPa) = 2.98382 37.58501 20.28441
# Shear Modulus (GPa) = 5.94899 34.10146 20.02523
#
# Velocity S-wave (km/s) = 1.60568 3.84435 2.94595
# Velocity P-wave (km/s) = 2.17503 5.99952 4.51248
#
# Compressibility (1/GPa) = 0.33514102
#
# Stress axis : x y z
#
# Youngs Moduli (GPa) = 59.55666 3.16297 69.45808
#
# Poissons Ratio (x) = 0.12466 0.27516
# Poissons Ratio (y) = 2.34733 -2.58885
# Poissons Ratio (z) = 0.23594 -0.11789
#
# Static dielectric constant tensor:
#      x y z
#    x 1.728340 0.049560 -0.130560 
#    y 0.049560 1.856730 0.002200 
#    z -0.130560 0.002200 1.716430 
# 
# From -- ./inp_files/624352.got.cif
#   From: 2010.05.17/outbox.cif.g08.bks.cpg/sg2_313_cif.got.tgz:624352.got - 2010.06.03 11:33:40.
