data_PCOD9045740
_publ_section_title
;
Structure prediction by ZEFSAII (Michael W. Deem and Ramdas Pophale) SiO2 
 PCOD9045740
Probable space group: P -1
;
_chemical_formula_sum "Si O2"
_cell_formula_units_Z 12
_cell_length_a 26.508118
_cell_length_b 10.994125
_cell_length_c 11.504016
_cell_angle_alpha 28.846202
_cell_angle_beta 163.236853
_cell_angle_gamma 153.832901
_cell_volume 422.796545
_symmetry_space_group_name_H-M "P -1"
_symmetry_group_IT_number 2
_symmetry_cell_setting 'triclinic'
loop_
_space_group_symop_operation_xyz
x,y,z
-x,-y,-z
loop_
_atom_site_type_symbol
_atom_site_label
_atom_site_fract_x
_atom_site_fract_y
_atom_site_fract_z
Si Si1 0.242144 0.463471 0.511137
Si Si2 0.338026 0.020901 0.214422
Si Si3 0.197841 0.958660 0.403338
Si Si4 0.674735 0.827437 0.250589
Si Si5 0.032589 0.311412 0.600526
Si Si6 0.623140 0.748538 0.653463
O O1 0.775926 0.811103 0.232059
O O2 0.222085 0.357386 0.421781
O O3 0.176888 0.714240 0.154644
O O4 0.461117 0.662010 0.871034
O O5 0.444694 0.189822 0.425128
O O6 0.500000 0.000000 0.500000
O O7 0.100040 0.636822 0.492142
O O8 0.324787 0.133792 0.643748
O O9 0.315410 0.987666 0.518446
O O10 0.075824 0.130925 0.950054
O O11 0.807744 0.134308 0.237244
O O12 0.182103 0.288288 0.857356
O O13 0.500000 0.500000 0.500000
#
# Coordination Sequence:
#
# PCOD9045740 Si02
#       6
#     2   2   2   2   2   2
#     4  11  27  38  74  94 128 182 219 277 309 406
#     4  12  23  46  64 100 128 175 229 264 332 390
#     4  10  24  41  68 100 134 172 214 278 334 388
#     4  11  21  45  67 100 135 171 230 259 336 392
#     4  10  25  41  65 103 132 176 209 283 329 393
#     4  10  26  42  70  97 136 169 223 278 333 385
#
# _framework density 28.382446999999999
#
# number of rings (size 3 to 8) (size 9 to 14) (size 15 to 20)
#    1.000    0.333    3.333    2.000    4.667    4.667 
#    0.000    1.667    0.000    0.000    0.000    0.000 
#    0.000    0.000    0.000    0.000    0.000    0.000 
#
# Total GULP energy -66915.727656 kJ/mol
# GULP energy per Si atom -5576.310638 kJ/mol
# Density = 2.831785 g / cm^3
# Si number density = 28.382447 Si / 1000 Ang^3
#
#
#
# Elastic Constant Matrix: (Units=GPa)
#
#
# Indices 1 2 3 4 5 6 
#
# 1 142.5623 76.7671 47.8121 -4.6417 -28.4533 -28.5135
# 2 76.7671 235.5078 58.1751 -24.3345 -32.3032 11.9934
# 3 47.8121 58.1751 107.1016 -11.4221 -11.2617 -5.4763
# 4 -4.6417 -24.3345 -11.4221 52.5480 -0.3152 -14.7068
# 5 -28.4533 -32.3032 -11.2617 -0.3152 48.2240 -6.9174
# 6 -28.5135 11.9934 -5.4763 -14.7068 -6.9174 62.3882
#
#
#
# Elastic Compliance Matrix: (Units=1/GPa)
#
#
# Indices 1 2 3 4 5 6 
#
# 1 0.011805 -0.002618 -0.002823 0.001072 0.005493 0.006513
# 2 -0.002618 0.006079 -0.001865 0.001647 0.001825 -0.001938
# 3 -0.002823 -0.001865 0.011794 0.001581 -0.000083 0.000467
# 4 0.001072 0.001647 0.001581 0.021876 0.003082 0.005811
# 5 0.005493 0.001825 -0.000083 0.003082 0.026028 0.005765
# 6 0.006513 -0.001938 0.000467 0.005811 0.005765 0.021428
#
#
# Mechanical properties :
#
#
# Convention : Reuss Voigt Hill
#
# Bulk Modulus (GPa) = 66.37320 94.52004 80.44662
# Shear Modulus (GPa) = 42.14299 52.79319 47.46809
#
# Velocity S-wave (km/s) = 3.85752 4.31753 4.09399
# Velocity P-wave (km/s) = 6.57850 7.63081 7.12411
#
# Compressibility (1/GPa) = 0.01506632
#
# Stress axis : x y z
#
# Youngs Moduli (GPa) = 84.71114 164.48908 84.78997
#
# Poissons Ratio (x) = 0.43063 0.23935
# Poissons Ratio (y) = 0.22177 0.15814
# Poissons Ratio (z) = 0.23913 0.30678
#
# Static dielectric constant tensor:
#      x y z
#    x 2.401960 0.077140 0.052500 
#    y 0.077140 2.301790 -0.118570 
#    z 0.052500 -0.118570 2.459540 
# 
# From -- ./inp_files/341684.got.cif
#   From: 2010.05.17/outbox.cif.g08.bks.cpg/sg2_171_cif.got.tgz:341684.got - 2010.06.03 11:33:40.
