data_PCOD9045149
_publ_section_title
;
Structure prediction by ZEFSAII (Michael W. Deem and Ramdas Pophale) SiO2 
 PCOD9045149
Probable space group: P -1
;
_chemical_formula_sum "Si O2"
_cell_formula_units_Z 12
_cell_length_a 9.661359
_cell_length_b 12.255970
_cell_length_c 7.132655
_cell_angle_alpha 104.445832
_cell_angle_beta 64.646974
_cell_angle_gamma 145.007930
_cell_volume 429.236144
_symmetry_space_group_name_H-M "P -1"
_symmetry_group_IT_number 2
_symmetry_cell_setting 'triclinic'
loop_
_space_group_symop_operation_xyz
x,y,z
-x,-y,-z
loop_
_atom_site_type_symbol
_atom_site_label
_atom_site_fract_x
_atom_site_fract_y
_atom_site_fract_z
Si Si1 0.708666 0.226193 0.988558
Si Si2 0.512153 0.657660 0.924281
Si Si3 0.105596 0.229063 0.985022
Si Si4 0.898873 0.812554 0.469463
Si Si5 0.659264 0.979081 0.412850
Si Si6 0.153057 0.575196 0.637271
O O1 0.459441 0.755484 0.474125
O O2 0.107170 0.221587 0.758337
O O3 0.881717 0.119249 0.503875
O O4 0.500000 0.000000 0.000000
O O5 0.264022 0.436558 0.040628
O O6 0.625515 0.659156 0.676137
O O7 0.970751 0.377621 0.771493
O O8 0.430777 0.736749 0.962200
O O9 0.816973 0.059414 0.165076
O O10 0.814237 0.308775 0.173020
O O11 0.737661 0.775146 0.998518
O O12 0.000000 0.000000 0.500000
O O13 0.500000 0.000000 0.500000
O O14 0.000000 0.500000 0.500000
#
# Coordination Sequence:
#
# PCOD9045149 Si02
#       6
#     2   2   2   2   2   2
#     4  11  27  52  82 124 172 223 284 360 432 510
#     4  10  23  49  80 121 162 221 288 343 423 512
#     4  10  24  48  85 119 168 220 279 352 421 509
#     4  11  25  47  77 118 166 224 274 348 422 502
#     4  11  26  47  77 125 162 214 278 347 426 507
#     4  11  28  51  78 119 167 220 279 345 430 510
#
# _framework density 27.956641000000001
#
# number of rings (size 3 to 8) (size 9 to 14) (size 15 to 20)
#    0.000    1.333    0.000    2.500    2.333   11.333 
#    9.000    0.000    0.000    3.000    0.000    0.000 
#    0.000    0.000    0.000    0.000    0.000    0.000 
#
# Total GULP energy -67327.689264 kJ/mol
# GULP energy per Si atom -5610.640772 kJ/mol
# Density = 2.789301 g / cm^3
# Si number density = 27.956641 Si / 1000 Ang^3
#
#
#
# Elastic Constant Matrix: (Units=GPa)
#
#
# Indices 1 2 3 4 5 6 
#
# 1 204.6193 52.5409 78.9805 18.1638 -14.4586 7.9994
# 2 52.5409 201.1545 94.9752 -9.4690 7.7044 -13.0405
# 3 78.9805 94.9752 203.9520 -34.6797 23.5673 7.3054
# 4 18.1638 -9.4690 -34.6797 64.5039 9.1199 15.7575
# 5 -14.4586 7.7044 23.5673 9.1199 57.9243 2.7064
# 6 7.9994 -13.0405 7.3054 15.7575 2.7064 51.1323
#
#
#
# Elastic Compliance Matrix: (Units=1/GPa)
#
#
# Indices 1 2 3 4 5 6 
#
# 1 0.007242 -0.000356 -0.004004 -0.005007 0.004241 0.000667
# 2 -0.000356 0.006764 -0.003418 -0.001475 0.000508 0.002697
# 3 -0.004004 -0.003418 0.010179 0.007842 -0.005743 -0.003812
# 4 -0.005007 -0.001475 0.007842 0.023865 -0.007643 -0.007663
# 5 0.004241 0.000508 -0.005743 -0.007643 0.021725 0.001492
# 6 0.000667 0.002697 -0.003812 -0.007663 0.001492 0.022968
#
#
# Mechanical properties :
#
#
# Convention : Reuss Voigt Hill
#
# Bulk Modulus (GPa) = 115.89330 118.07991 116.98660
# Shear Modulus (GPa) = 44.97374 60.26071 52.61723
#
# Velocity S-wave (km/s) = 4.01521 4.64778 4.34303
# Velocity P-wave (km/s) = 7.93980 8.43392 8.19059
#
# Compressibility (1/GPa) = 0.00862863
#
# Stress axis : x y z
#
# Youngs Moduli (GPa) = 138.08046 147.83891 98.24151
#
# Poissons Ratio (x) = 0.05263 0.39337
# Poissons Ratio (y) = 0.04916 0.33581
# Poissons Ratio (z) = 0.55289 0.50535
#
# Static dielectric constant tensor:
#      x y z
#    x 2.338680 -0.024800 -0.069830 
#    y -0.024800 2.136280 -0.030270 
#    z -0.069830 -0.030270 2.287980 
# 
# From -- ./inp_files/277965.got.cif
#   From: 2010.05.17/outbox.cif.g08.bks.cpg/sg2_139_cif.got.tgz:277965.got - 2010.06.03 11:33:40.
