data_PCOD9045640
_publ_section_title
;
Structure prediction by ZEFSAII (Michael W. Deem and Ramdas Pophale) SiO2 
 PCOD9045640
Probable space group: P -1
;
_chemical_formula_sum "Si O2"
_cell_formula_units_Z 14
_cell_length_a 9.001802
_cell_length_b 17.302330
_cell_length_c 18.582041
_cell_angle_alpha 21.526042
_cell_angle_beta 41.817466
_cell_angle_gamma 54.981119
_cell_volume 617.940786
_symmetry_space_group_name_H-M "P -1"
_symmetry_group_IT_number 2
_symmetry_cell_setting 'triclinic'
loop_
_space_group_symop_operation_xyz
x,y,z
-x,-y,-z
loop_
_atom_site_type_symbol
_atom_site_label
_atom_site_fract_x
_atom_site_fract_y
_atom_site_fract_z
Si Si1 0.944879 0.695388 0.470436
Si Si2 0.854370 0.112269 0.912696
Si Si3 0.336993 0.683624 0.439178
Si Si4 0.671648 0.263666 0.175012
Si Si5 0.829824 0.760722 0.025911
Si Si6 0.617859 0.907490 0.843757
Si Si7 0.562728 0.632895 0.972240
O O1 0.677515 0.546495 0.736024
O O2 0.960355 0.697569 0.376756
O O3 0.149299 0.626750 0.489746
O O4 0.043697 0.973610 0.216217
O O5 0.684811 0.173717 0.975454
O O6 0.619327 0.901330 0.134981
O O7 0.000000 0.000000 0.000000
O O8 0.248066 0.814604 0.418943
O O9 0.333556 0.453371 0.674337
O O10 0.692109 0.478284 0.032619
O O11 0.941422 0.284396 0.042276
O O12 0.500000 0.000000 0.500000
O O13 0.539525 0.287663 0.128774
O O14 0.669680 0.765396 0.011409
O O15 0.709289 0.857211 0.779020
#
# Coordination Sequence:
#
# PCOD9045640 Si02
#       7
#     2   2   2   2   2   2   2
#     4  11  22  41  66  95 132 169 216 260 314 388
#     4  10  24  41  64  98 133 171 214 261 319 381
#     4   9  22  43  61  92 135 167 213 258 320 379
#     4  11  24  42  69  96 123 169 223 261 326 383
#     4  11  22  42  68  93 129 173 211 267 321 380
#     4   9  25  42  61  97 135 164 212 264 319 387
#     4  11  24  42  67  97 129 167 213 277 315 375
#
# _framework density 22.655892000000001
#
# number of rings (size 3 to 8) (size 9 to 14) (size 15 to 20)
#    0.857    0.857    2.857    0.429    4.000    2.857 
#    0.000    1.429    0.000    0.000    0.000    0.000 
#    0.000    0.000    0.000    0.000    0.000    0.000 
#
# Total GULP energy -78226.991283 kJ/mol
# GULP energy per Si atom -5587.642234 kJ/mol
# Density = 2.260433 g / cm^3
# Si number density = 22.655892 Si / 1000 Ang^3
#
#
#
# Elastic Constant Matrix: (Units=GPa)
#
#
# Indices 1 2 3 4 5 6 
#
# 1 56.6332 28.0708 -8.6445 -15.2295 19.7218 -8.8206
# 2 28.0708 130.0821 8.4188 -12.9323 18.4565 4.2783
# 3 -8.6445 8.4188 78.2027 -0.4965 16.2125 3.4074
# 4 -15.2295 -12.9323 -0.4965 33.9120 -7.0585 -0.6242
# 5 19.7218 18.4565 16.2125 -7.0585 30.4840 1.9050
# 6 -8.8206 4.2783 3.4074 -0.6242 1.9050 40.4704
#
#
#
# Elastic Compliance Matrix: (Units=1/GPa)
#
#
# Indices 1 2 3 4 5 6 
#
# 1 0.031489 -0.003752 0.007914 0.008641 -0.020790 0.007705
# 2 -0.003752 0.009042 -0.000855 0.001264 -0.002201 -0.001579
# 3 0.007914 -0.000855 0.016460 0.000730 -0.013254 0.001064
# 4 0.008641 0.001264 0.000730 0.034113 0.001020 0.002166
# 5 -0.020790 -0.002201 -0.013254 0.001020 0.055232 -0.005767
# 6 0.007705 -0.001579 0.001064 0.002166 -0.005767 0.026771
#
#
# Mechanical properties :
#
#
# Convention : Reuss Voigt Hill
#
# Bulk Modulus (GPa) = 15.72209 35.62314 25.67262
# Shear Modulus (GPa) = 26.63894 36.77815 31.70854
#
# Velocity S-wave (km/s) = 3.43272 4.03344 3.74514
# Velocity P-wave (km/s) = 4.76089 6.11957 5.48248
#
# Compressibility (1/GPa) = 0.06360479
#
# Stress axis : x y z
#
# Youngs Moduli (GPa) = 31.75749 110.59141 60.75327
#
# Poissons Ratio (x) = 0.41492 -0.48079
# Poissons Ratio (y) = 0.11915 0.05194
# Poissons Ratio (z) = -0.25132 0.09455
#
# Static dielectric constant tensor:
#      x y z
#    x 1.803570 0.044420 -0.053070 
#    y 0.044420 1.892480 -0.035430 
#    z -0.053070 -0.035430 1.878320 
# 
# From -- ./inp_files/43025.got.cif
#   From: 2010.05.17/outbox.cif.g08.bks.cpg/sg2_22_cif.got.tgz:43025.got - 2010.06.03 11:33:40.
