data_PCOD9045097
_publ_section_title
;
Structure prediction by ZEFSAII (Michael W. Deem and Ramdas Pophale) SiO2 
 PCOD9045097
Probable space group: P -1
;
_chemical_formula_sum "Si O2"
_cell_formula_units_Z 16
_cell_length_a 20.774298
_cell_length_b 20.960389
_cell_length_c 8.598393
_cell_angle_alpha 145.388114
_cell_angle_beta 43.998337
_cell_angle_gamma 161.674726
_cell_volume 627.175105
_symmetry_space_group_name_H-M "P -1"
_symmetry_group_IT_number 2
_symmetry_cell_setting 'triclinic'
loop_
_space_group_symop_operation_xyz
x,y,z
-x,-y,-z
loop_
_atom_site_type_symbol
_atom_site_label
_atom_site_fract_x
_atom_site_fract_y
_atom_site_fract_z
Si Si1 0.568532 0.961651 0.717277
Si Si2 0.736047 0.555133 0.704063
Si Si3 0.527891 0.000294 0.275013
Si Si4 0.606546 0.514518 0.530103
Si Si5 0.545872 0.402016 0.059304
Si Si6 0.037628 0.461253 0.024293
Si Si7 0.187104 0.909970 0.074738
Si Si8 0.904151 0.215172 0.356436
O O1 0.481270 0.759647 0.554617
O O2 0.420033 0.826234 0.553359
O O3 0.500000 0.000000 0.000000
O O4 0.831659 0.239982 0.821009
O O5 0.742837 0.632601 0.686487
O O6 0.934655 0.685021 0.623925
O O7 0.696484 0.565404 0.967982
O O8 0.285728 0.707587 0.044442
O O9 0.500000 0.000000 0.500000
O O10 0.685126 0.069395 0.119513
O O11 0.655384 0.519879 0.279857
O O12 0.585913 0.625001 0.771100
O O13 0.364944 0.202032 0.361630
O O14 0.347081 0.092358 0.780442
O O15 0.975042 0.292870 0.911792
O O16 0.047543 0.597874 0.355441
O O17 0.067900 0.794823 0.888631
#
# Coordination Sequence:
#
# PCOD9045097 Si02
#       8
#     2   2   2   2   2   2   2   2
#     4  12  23  42  61  96 142 174 215 276 332 401
#     4  12  23  44  73  99 136 184 222 279 346 401
#     4  12  25  38  64  94 130 180 221 260 331 407
#     4  10  23  49  70  96 139 174 229 289 336 394
#     4  10  25  47  72  98 133 180 228 287 334 404
#     4  12  23  41  64  95 138 175 218 271 334 399
#     4  11  23  43  62  97 136 174 216 283 332 390
#     4  11  24  39  67 101 137 173 229 277 335 404
#
# _framework density 25.511216000000001
#
# number of rings (size 3 to 8) (size 9 to 14) (size 15 to 20)
#    0.000    0.750    5.000    1.875    3.500    0.500 
#    0.000    9.375    0.000    0.000    0.000    0.000 
#    0.000    0.000    0.000    0.000    0.000    0.000 
#
# Total GULP energy -89368.772257 kJ/mol
# GULP energy per Si atom -5585.548266 kJ/mol
# Density = 2.545315 g / cm^3
# Si number density = 25.511216 Si / 1000 Ang^3
#
#
#
# Elastic Constant Matrix: (Units=GPa)
#
#
# Indices 1 2 3 4 5 6 
#
# 1 156.2689 16.3969 20.8050 -2.3990 24.9838 -8.7330
# 2 16.3969 82.8111 2.9897 -7.6114 10.1949 9.5731
# 3 20.8050 2.9897 75.5952 -2.6432 -3.3198 -0.0723
# 4 -2.3990 -7.6114 -2.6432 30.6308 -12.4217 6.0188
# 5 24.9838 10.1949 -3.3198 -12.4217 42.7882 -4.4798
# 6 -8.7330 9.5731 -0.0723 6.0188 -4.4798 45.8736
#
#
#
# Elastic Compliance Matrix: (Units=1/GPa)
#
#
# Indices 1 2 3 4 5 6 
#
# 1 0.007664 -0.001212 -0.002348 -0.002164 -0.004838 0.001520
# 2 -0.001212 0.013262 -0.000171 0.003105 -0.001940 -0.003595
# 3 -0.002348 -0.000171 0.014101 0.002342 0.003145 -0.000389
# 4 -0.002164 0.003105 0.002342 0.039123 0.011533 -0.005063
# 5 -0.004838 -0.001940 0.003145 0.011533 0.030348 0.000939
# 6 0.001520 -0.003595 -0.000389 -0.005063 0.000939 0.023594
#
#
# Mechanical properties :
#
#
# Convention : Reuss Voigt Hill
#
# Bulk Modulus (GPa) = 36.27776 43.89540 40.08658
# Shear Modulus (GPa) = 34.54416 42.15742 38.35079
#
# Velocity S-wave (km/s) = 3.68377 4.06951 3.88144
# Velocity P-wave (km/s) = 5.68724 6.27096 5.98622
#
# Compressibility (1/GPa) = 0.02756510
#
# Stress axis : x y z
#
# Youngs Moduli (GPa) = 130.47847 75.40498 70.91717
#
# Poissons Ratio (x) = 0.09137 0.16651
# Poissons Ratio (y) = 0.15811 0.01213
# Poissons Ratio (z) = 0.30636 0.01290
#
# Static dielectric constant tensor:
#      x y z
#    x 2.065710 -0.093150 0.081330 
#    y -0.093150 2.058860 -0.057190 
#    z 0.081330 -0.057190 2.122550 
# 
# From -- ./inp_files/349596.got.cif
#   From: 2010.05.17/outbox.cif.g08.bks.cpg/sg2_175_cif.got.tgz:349596.got - 2010.06.03 11:33:40.
