data_PCOD9045306
_publ_section_title
;
Structure prediction by ZEFSAII (Michael W. Deem and Ramdas Pophale) SiO2 
 PCOD9045306
Probable space group: P -1
;
_chemical_formula_sum "Si O2"
_cell_formula_units_Z 12
_cell_length_a 5.226134
_cell_length_b 5.165031
_cell_length_c 25.552036
_cell_angle_alpha 60.319920
_cell_angle_beta 83.802961
_cell_angle_gamma 61.053229
_cell_volume 516.448071
_symmetry_space_group_name_H-M "P -1"
_symmetry_group_IT_number 2
_symmetry_cell_setting 'triclinic'
loop_
_space_group_symop_operation_xyz
x,y,z
-x,-y,-z
loop_
_atom_site_type_symbol
_atom_site_label
_atom_site_fract_x
_atom_site_fract_y
_atom_site_fract_z
Si Si1 0.784683 0.724123 0.114341
Si Si2 0.988616 0.145422 0.330547
Si Si3 0.474717 0.232700 0.261430
Si Si4 0.119197 0.220995 0.775582
Si Si5 0.850684 0.263612 0.524391
Si Si6 0.084509 0.191991 0.069374
O O1 0.820306 0.660160 0.182399
O O2 0.959407 0.386974 0.108253
O O3 0.231406 0.640574 0.229616
O O4 0.926866 0.972902 0.079487
O O5 0.860579 0.554102 0.295300
O O6 0.270383 0.061975 0.295851
O O7 0.085675 0.945819 0.402084
O O8 0.728959 0.119127 0.310236
O O9 0.626378 0.149659 0.209654
O O10 0.562439 0.059815 0.913151
O O11 0.500000 0.500000 0.500000
O O12 0.000000 0.500000 0.500000
O O13 0.000000 0.000000 0.500000
O O14 0.000000 0.500000 0.000000
#
# Coordination Sequence:
#
# PCOD9045306 Si02
#       6
#     2   2   2   2   2   2
#     4  12  26  43  74 100 140 175 234 279 335 406
#     4  10  26  42  70  92 138 168 223 272 343 393
#     4  10  24  39  67  92 135 167 220 262 352 392
#     4  10  26  40  68  98 133 171 220 275 343 390
#     4  12  28  47  71 101 135 180 231 279 335 406
#     4  12  26  47  70 101 139 185 227 279 335 397
#
# _framework density 23.23564
#
# number of rings (size 3 to 8) (size 9 to 14) (size 15 to 20)
#    1.000    0.000    0.000    5.000   11.667    0.000 
#    0.000    0.000    0.000    0.000    0.000    0.000 
#    0.000    0.000    0.000    0.000    0.000    0.000 
#
# Total GULP energy -67060.224130 kJ/mol
# GULP energy per Si atom -5588.352011 kJ/mol
# Density = 2.318275 g / cm^3
# Si number density = 23.235640 Si / 1000 Ang^3
#
#
#
# Elastic Constant Matrix: (Units=GPa)
#
#
# Indices 1 2 3 4 5 6 
#
# 1 174.9134 49.6965 33.8408 0.6962 2.6540 -32.8478
# 2 49.6965 111.3953 16.3467 30.9156 -4.8507 -22.3611
# 3 33.8408 16.3467 112.3898 -11.1977 0.5606 -15.2474
# 4 0.6962 30.9156 -11.1977 39.7622 1.6867 -7.7266
# 5 2.6540 -4.8507 0.5606 1.6867 37.4186 -10.0872
# 6 -32.8478 -22.3611 -15.2474 -7.7266 -10.0872 40.5272
#
#
#
# Elastic Compliance Matrix: (Units=1/GPa)
#
#
# Indices 1 2 3 4 5 6 
#
# 1 0.007665 -0.003148 -0.000910 0.002971 0.000209 0.004752
# 2 -0.003148 0.014677 -0.001846 -0.011332 0.003634 0.003597
# 3 -0.000910 -0.001846 0.010364 0.004972 0.000299 0.003165
# 4 0.002971 -0.011332 0.004972 0.036255 -0.002205 0.004390
# 5 0.000209 0.003634 0.000299 -0.002205 0.029777 0.009278
# 6 0.004752 0.003597 0.003165 0.004390 0.009278 0.034847
#
#
# Mechanical properties :
#
#
# Convention : Reuss Voigt Hill
#
# Bulk Modulus (GPa) = 47.85327 66.49629 57.17478
# Shear Modulus (GPa) = 32.81712 43.46256 38.13984
#
# Velocity S-wave (km/s) = 3.76222 4.32963 4.05586
# Velocity P-wave (km/s) = 6.28585 7.32630 6.82593
#
# Compressibility (1/GPa) = 0.02089722
#
# Stress axis : x y z
#
# Youngs Moduli (GPa) = 130.46471 68.13228 96.49205
#
# Poissons Ratio (x) = 0.21445 0.08786
# Poissons Ratio (y) = 0.41064 0.17815
# Poissons Ratio (z) = 0.11879 0.12579
#
# Static dielectric constant tensor:
#      x y z
#    x 1.870410 -0.015370 -0.044590 
#    y -0.015370 1.955500 -0.017610 
#    z -0.044590 -0.017610 1.875480 
# 
# From -- ./inp_files/580593.got.cif
#   From: 2010.05.17/outbox.cif.g08.bks.cpg/sg2_291_cif.got.tgz:580593.got - 2010.06.03 11:33:40.
