data_PCOD9045541
_publ_section_title
;
Structure prediction by ZEFSAII (Michael W. Deem and Ramdas Pophale) SiO2 
 PCOD9045541
Probable space group: P -1
;
_chemical_formula_sum "Si O2"
_cell_formula_units_Z 16
_cell_length_a 14.731437
_cell_length_b 19.407102
_cell_length_c 5.195718
_cell_angle_alpha 84.988282
_cell_angle_beta 92.244987
_cell_angle_gamma 27.925511
_cell_volume 671.099702
_symmetry_space_group_name_H-M "P -1"
_symmetry_group_IT_number 2
_symmetry_cell_setting 'triclinic'
loop_
_space_group_symop_operation_xyz
x,y,z
-x,-y,-z
loop_
_atom_site_type_symbol
_atom_site_label
_atom_site_fract_x
_atom_site_fract_y
_atom_site_fract_z
Si Si1 0.428306 0.658370 0.268556
Si Si2 0.314582 0.451368 0.291083
Si Si3 0.892688 0.191160 0.499732
Si Si4 0.307173 0.859743 0.831185
Si Si5 0.262328 0.638303 0.081450
Si Si6 0.377362 0.152955 0.384249
Si Si7 0.441972 0.201759 0.867857
Si Si8 0.059553 0.534826 0.893973
O O1 0.631056 0.556471 0.419045
O O2 0.285584 0.741678 0.473421
O O3 0.441427 0.571592 0.188672
O O4 0.308006 0.789816 0.023959
O O5 0.503289 0.276072 0.292458
O O6 0.314727 0.522809 0.106163
O O7 0.124892 0.537940 0.141420
O O8 0.869945 0.261802 0.706482
O O9 0.859176 0.249099 0.205869
O O10 0.103842 0.011369 0.612927
O O11 0.363459 0.884941 0.018078
O O12 0.436304 0.166958 0.608688
O O13 0.137214 0.302761 0.319278
O O14 0.500000 0.000000 0.500000
O O15 0.418711 0.161058 0.109177
O O16 0.255025 0.382884 0.797509
O O17 0.000000 0.500000 0.000000
#
# Coordination Sequence:
#
# PCOD9045541 Si02
#       8
#     2   2   2   2   2   2   2   2
#     4  10  24  40  71  93 139 173 234 268 337 383
#     4  11  24  42  69  99 133 179 226 276 333 395
#     4  10  25  44  65  95 138 177 220 278 334 387
#     4  11  25  40  69 101 135 178 229 271 329 401
#     4  10  25  45  64  95 136 177 223 278 332 393
#     4  11  23  45  71  98 134 172 216 277 337 393
#     4  10  24  42  68  99 135 172 219 271 329 400
#     4   9  22  44  68  99 132 172 219 272 329 397
#
# _framework density 23.841463000000001
#
# number of rings (size 3 to 8) (size 9 to 14) (size 15 to 20)
#    0.750    1.000    0.000    2.250    8.750    4.000 
#    2.250    0.000    0.000    0.000    0.000    0.000 
#    0.000    0.000    0.000    0.000    0.000    0.000 
#
# Total GULP energy -89490.368903 kJ/mol
# GULP energy per Si atom -5593.148056 kJ/mol
# Density = 2.378720 g / cm^3
# Si number density = 23.841463 Si / 1000 Ang^3
#
#
#
# Elastic Constant Matrix: (Units=GPa)
#
#
# Indices 1 2 3 4 5 6 
#
# 1 113.3372 38.6742 47.3279 -15.0543 21.8799 21.9136
# 2 38.6742 98.7601 55.0150 -27.9041 10.1251 29.3999
# 3 47.3279 55.0150 166.8289 -9.9284 13.0057 23.3962
# 4 -15.0543 -27.9041 -9.9284 46.8275 8.0531 -5.6694
# 5 21.8799 10.1251 13.0057 8.0531 51.2371 1.4315
# 6 21.9136 29.3999 23.3962 -5.6694 1.4315 21.9645
#
#
#
# Elastic Compliance Matrix: (Units=1/GPa)
#
#
# Indices 1 2 3 4 5 6 
#
# 1 0.012959 0.000769 -0.001762 0.003909 -0.005554 -0.010711
# 2 0.000769 0.022364 -0.003166 0.010826 -0.004969 -0.024211
# 3 -0.001762 -0.003166 0.007876 -0.001036 -0.000384 -0.002636
# 4 0.003909 0.010826 -0.001036 0.029072 -0.007856 -0.009271
# 5 -0.005554 -0.004969 -0.000384 -0.007856 0.023951 0.009013
# 6 -0.010711 -0.024211 -0.002636 -0.009271 0.009013 0.088448
#
#
# Mechanical properties :
#
#
# Convention : Reuss Voigt Hill
#
# Bulk Modulus (GPa) = 28.66925 73.44005 51.05465
# Shear Modulus (GPa) = 24.43620 39.86641 32.15131
#
# Velocity S-wave (km/s) = 3.20495 4.09362 3.67624
# Velocity P-wave (km/s) = 5.07412 7.29480 6.28334
#
# Compressibility (1/GPa) = 0.03488058
#
# Stress axis : x y z
#
# Youngs Moduli (GPa) = 77.16699 44.71571 126.96543
#
# Poissons Ratio (x) = -0.03441 0.22376
# Poissons Ratio (y) = -0.05938 0.40198
# Poissons Ratio (z) = 0.13600 0.14157
#
# Static dielectric constant tensor:
#      x y z
#    x 1.943620 -0.015870 -0.015320 
#    y -0.015870 1.947930 0.085980 
#    z -0.015320 0.085980 1.962210 
# 
# From -- ./inp_files/99836.got.cif
#   From: 2010.05.17/outbox.cif.g08.bks.cpg/sg2_50_cif.got.tgz:99836.got - 2010.06.03 11:33:40.
