data_PCOD9045405
_publ_section_title
;
Structure prediction by ZEFSAII (Michael W. Deem and Ramdas Pophale) SiO2 
 PCOD9045405
Probable space group: P -1
;
_chemical_formula_sum "Si O2"
_cell_formula_units_Z 16
_cell_length_a 11.362535
_cell_length_b 11.808384
_cell_length_c 18.508773
_cell_angle_alpha 140.424556
_cell_angle_beta 34.980034
_cell_angle_gamma 149.763756
_cell_volume 699.702589
_symmetry_space_group_name_H-M "P -1"
_symmetry_group_IT_number 2
_symmetry_cell_setting 'triclinic'
loop_
_space_group_symop_operation_xyz
x,y,z
-x,-y,-z
loop_
_atom_site_type_symbol
_atom_site_label
_atom_site_fract_x
_atom_site_fract_y
_atom_site_fract_z
Si Si1 0.018470 0.547865 0.398941
Si Si2 0.432534 0.756559 0.420529
Si Si3 0.296622 0.576222 0.712399
Si Si4 0.626101 0.979421 0.072373
Si Si5 0.426397 0.647734 0.141679
Si Si6 0.194985 0.219619 0.856974
Si Si7 0.846025 0.385266 0.946914
Si Si8 0.867857 0.772852 0.503445
O O1 0.207737 0.596333 0.393721
O O2 0.133916 0.498070 0.249721
O O3 0.716195 0.360650 0.486444
O O4 0.054007 0.773316 0.467261
O O5 0.688535 0.784540 0.280023
O O6 0.500000 0.000000 0.500000
O O7 0.599775 0.695443 0.637478
O O8 0.228931 0.439227 0.605155
O O9 0.061279 0.397979 0.797215
O O10 0.286891 0.783140 0.823935
O O11 0.470481 0.806570 0.132416
O O12 0.423916 0.872741 0.054444
O O13 0.886759 0.020452 0.933358
O O14 0.634794 0.787827 0.171086
O O15 0.500000 0.500000 0.000000
O O16 0.230235 0.453376 0.958546
O O17 0.000000 0.500000 0.000000
O O18 0.000000 0.000000 0.500000
#
# Coordination Sequence:
#
# PCOD9045405 Si02
#       8
#     2   2   2   2   2   2   2   2
#     4  10  24  41  66  96 134 178 223 273 337 408
#     4  10  24  44  63  96 136 178 227 273 332 410
#     4  10  24  41  65 101 130 173 225 275 339 404
#     4  11  23  43  68 101 137 172 228 289 343 406
#     4  11  21  39  70  99 134 172 219 289 345 401
#     4  10  24  40  65 101 126 178 226 274 345 404
#     4  11  24  43  65  92 136 175 227 277 336 405
#     4  11  23  43  69  99 138 176 224 283 344 403
#
# _framework density 22.866859999999999
#
# number of rings (size 3 to 8) (size 9 to 14) (size 15 to 20)
#    0.000    1.500    1.250    2.625    5.250    7.000 
#    2.250    0.000    0.000    0.000    0.000    0.000 
#    0.000    0.000    0.000    0.000    0.000    0.000 
#
# Total GULP energy -89283.261538 kJ/mol
# GULP energy per Si atom -5580.203846 kJ/mol
# Density = 2.281481 g / cm^3
# Si number density = 22.866860 Si / 1000 Ang^3
#
#
#
# Elastic Constant Matrix: (Units=GPa)
#
#
# Indices 1 2 3 4 5 6 
#
# 1 70.2650 17.5821 19.1048 -16.1129 -3.2003 -1.6597
# 2 17.5821 70.7204 37.2482 -10.4846 16.1168 -4.8065
# 3 19.1048 37.2482 189.7158 -39.2746 15.4832 -6.9079
# 4 -16.1129 -10.4846 -39.2746 41.1324 -7.3555 -0.4649
# 5 -3.2003 16.1168 15.4832 -7.3555 23.1936 0.3789
# 6 -1.6597 -4.8065 -6.9079 -0.4649 0.3789 29.9315
#
#
#
# Elastic Compliance Matrix: (Units=1/GPa)
#
#
# Indices 1 2 3 4 5 6 
#
# 1 0.017517 -0.005202 0.000053 0.007060 0.008233 0.000154
# 2 -0.005202 0.019708 -0.002541 -0.001796 -0.013325 0.002431
# 3 0.000053 -0.002541 0.007150 0.006016 -0.001114 0.001353
# 4 0.007060 -0.001796 0.006016 0.033987 0.008953 0.001906
# 5 0.008233 -0.013325 -0.001114 0.008953 0.057135 -0.002525
# 6 0.000154 0.002431 0.001353 0.001906 -0.002525 0.034182
#
#
# Mechanical properties :
#
#
# Convention : Reuss Voigt Hill
#
# Bulk Modulus (GPa) = 34.49030 53.17460 43.83245
# Shear Modulus (GPa) = 25.67731 35.96924 30.82328
#
# Velocity S-wave (km/s) = 3.35461 3.97039 3.67542
# Velocity P-wave (km/s) = 5.48821 6.65756 6.10097
#
# Compressibility (1/GPa) = 0.02899366
#
# Stress axis : x y z
#
# Youngs Moduli (GPa) = 57.08814 50.74198 139.85310
#
# Poissons Ratio (x) = 0.26395 -0.00735
# Poissons Ratio (y) = 0.29696 0.35541
# Poissons Ratio (z) = -0.00300 0.12895
#
# Static dielectric constant tensor:
#      x y z
#    x 1.941650 0.005040 0.012250 
#    y 0.005040 1.874300 -0.020660 
#    z 0.012250 -0.020660 1.860390 
# 
# From -- ./inp_files/427302.got.cif
#   From: 2010.05.17/outbox.cif.g08.bks.cpg/sg2_214_cif.got.tgz:427302.got - 2010.06.03 11:33:40.
