data_PCOD9045190
_publ_section_title
;
Structure prediction by ZEFSAII (Michael W. Deem and Ramdas Pophale) SiO2 
 PCOD9045190
Probable space group: P -1
;
_chemical_formula_sum "Si O2"
_cell_formula_units_Z 10
_cell_length_a 8.005399
_cell_length_b 8.781706
_cell_length_c 7.339027
_cell_angle_alpha 65.300606
_cell_angle_beta 62.717706
_cell_angle_gamma 50.908844
_cell_volume 349.637093
_symmetry_space_group_name_H-M "P -1"
_symmetry_group_IT_number 2
_symmetry_cell_setting 'triclinic'
loop_
_space_group_symop_operation_xyz
x,y,z
-x,-y,-z
loop_
_atom_site_type_symbol
_atom_site_label
_atom_site_fract_x
_atom_site_fract_y
_atom_site_fract_z
Si Si1 0.642683 0.759010 0.549155
Si Si2 0.345495 0.909186 0.122659
Si Si3 0.649832 0.433719 0.208223
Si Si4 0.965473 0.788494 0.582590
Si Si5 0.034528 0.211508 0.836553
O O1 0.500206 0.661566 0.669117
O O2 0.804712 0.704890 0.669119
O O3 0.804712 0.704887 0.321285
O O4 0.500000 0.000000 0.500000
O O5 0.495410 0.671830 0.166379
O O6 0.190967 0.007519 0.971517
O O7 0.190966 0.007518 0.329996
O O8 0.500000 0.000000 0.000000
O O9 0.183563 0.651200 0.660358
O O10 0.816439 0.348801 0.995120
O O11 0.012709 0.814081 0.336605
#
# Coordination Sequence:
#
# PCOD9045190 Si02
#       5
#     2   2   2   2   2
#     4  10  23  52  88 123 178 226 293 374 430 533
#     4  11  24  49  87 127 180 225 288 378 439 522
#     4  11  25  52  90 123 168 244 286 356 463 518
#     4   9  24  52  83 124 175 224 299 365 432 543
#     4   9  24  52  83 124 175 224 299 365 432 543
#
# _framework density 28.60108
#
# number of rings (size 3 to 8) (size 9 to 14) (size 15 to 20)
#    1.200    0.800    0.000    1.200    0.000    6.400 
#    7.200   18.000    0.000    7.200    0.000    0.000 
#    0.000    0.000    0.000    0.000    0.000    0.000 
#
# Total GULP energy -56232.058518 kJ/mol
# GULP energy per Si atom -5623.205852 kJ/mol
# Density = 2.853598 g / cm^3
# Si number density = 28.601080 Si / 1000 Ang^3
#
#
#
# Elastic Constant Matrix: (Units=GPa)
#
#
# Indices 1 2 3 4 5 6 
#
# 1 306.0404 152.1933 130.5130 -17.5592 12.0177 -3.4026
# 2 152.1933 322.9122 169.1398 -10.9682 -2.6887 -36.0682
# 3 130.5130 169.1398 276.5783 23.4761 -12.8496 9.9891
# 4 -17.5592 -10.9682 23.4761 64.4292 16.6737 -3.8376
# 5 12.0177 -2.6887 -12.8496 16.6737 74.4854 -1.6399
# 6 -3.4026 -36.0682 9.9891 -3.8376 -1.6399 51.4285
#
#
#
# Elastic Compliance Matrix: (Units=1/GPa)
#
#
# Indices 1 2 3 4 5 6 
#
# 1 0.004852 -0.001354 -0.001709 0.002119 -0.001605 -0.000190
# 2 -0.001354 0.006309 -0.003649 0.002508 -0.000630 0.005211
# 3 -0.001709 -0.003649 0.007312 -0.004617 0.002343 -0.004362
# 4 0.002119 0.002508 -0.004617 0.019850 -0.005401 0.004105
# 5 -0.001605 -0.000630 0.002343 -0.005401 0.015255 -0.000920
# 6 -0.000190 0.005211 -0.004362 0.004105 -0.000920 0.024210
#
#
# Mechanical properties :
#
#
# Convention : Reuss Voigt Hill
#
# Bulk Modulus (GPa) = 198.10707 201.02477 199.56592
# Shear Modulus (GPa) = 53.82385 68.31425 61.06905
#
# Velocity S-wave (km/s) = 4.34277 4.89255 4.62584
# Velocity P-wave (km/s) = 9.72431 10.11703 9.92261
#
# Compressibility (1/GPa) = 0.00504778
#
# Stress axis : x y z
#
# Youngs Moduli (GPa) = 206.08331 158.51593 136.76194
#
# Poissons Ratio (x) = 0.21471 0.23372
# Poissons Ratio (y) = 0.27914 0.49906
# Poissons Ratio (z) = 0.35219 0.57844
#
# Static dielectric constant tensor:
#      x y z
#    x 2.283160 0.021010 -0.084290 
#    y 0.021010 2.215790 -0.025690 
#    z -0.084290 -0.025690 2.288790 
# 
# From -- ./inp_files/375294.got.cif
#   From: 2010.05.17/outbox.cif.g08.bks.cpg/sg2_188_cif.got.tgz:375294.got - 2010.06.03 11:33:40.
