data_PCOD9045054
_publ_section_title
;
Structure prediction by ZEFSAII (Michael W. Deem and Ramdas Pophale) SiO2 
 PCOD9045054
Probable space group: P -1
;
_chemical_formula_sum "Si O2"
_cell_formula_units_Z 16
_cell_length_a 13.217399
_cell_length_b 6.426809
_cell_length_c 8.685762
_cell_angle_alpha 93.238555
_cell_angle_beta 64.276090
_cell_angle_gamma 116.464558
_cell_volume 586.404287
_symmetry_space_group_name_H-M "P -1"
_symmetry_group_IT_number 2
_symmetry_cell_setting 'triclinic'
loop_
_space_group_symop_operation_xyz
x,y,z
-x,-y,-z
loop_
_atom_site_type_symbol
_atom_site_label
_atom_site_fract_x
_atom_site_fract_y
_atom_site_fract_z
Si Si1 0.807593 0.133831 0.302724
Si Si2 0.465894 0.388887 0.291995
Si Si3 0.949912 0.200975 0.529859
Si Si4 0.194577 0.691211 0.140086
Si Si5 0.307209 0.530097 0.624159
Si Si6 0.591079 0.083924 0.794043
Si Si7 0.623999 0.878942 0.173584
Si Si8 0.057412 0.281171 0.986414
O O1 0.640728 0.567062 0.551416
O O2 0.723006 0.261091 0.399146
O O3 0.872343 0.122676 0.417511
O O4 0.921727 0.282739 0.110425
O O5 0.572941 0.382443 0.334125
O O6 0.561086 0.615078 0.136347
O O7 0.387742 0.139181 0.256348
O O8 0.891228 0.194143 0.736422
O O9 0.000000 0.500000 0.500000
O O10 0.000000 0.000000 0.500000
O O11 0.280852 0.695571 0.227868
O O12 0.133149 0.436857 0.091673
O O13 0.286285 0.890466 0.970052
O O14 0.294894 0.100089 0.727390
O O15 0.167601 0.371034 0.787482
O O16 0.504380 0.103249 0.719865
O O17 0.500000 0.000000 0.000000
O O18 0.000000 0.000000 0.000000
#
# Coordination Sequence:
#
# PCOD9045054 Si02
#       8
#     2   2   2   2   2   2   2   2
#     4  12  26  50  88 117 171 226 291 365 436 537
#     4  11  25  47  77 124 169 217 284 369 441 527
#     4  12  31  58  81 126 181 233 293 371 457 537
#     4  11  26  54  78 123 171 227 285 366 445 536
#     4  11  25  48  77 125 168 214 291 363 440 512
#     4  10  23  48  77 110 171 210 284 350 439 526
#     4  11  25  49  84 123 158 220 292 347 438 526
#     4  12  26  50  83 120 168 226 302 366 441 529
#
# _framework density 27.284931
#
# number of rings (size 3 to 8) (size 9 to 14) (size 15 to 20)
#    0.000    0.750    3.750    1.875    1.750   10.500 
#    4.500    0.000    0.000    0.000    0.000    0.000 
#    0.000    0.000    0.000    0.000    0.000    0.000 
#
# Total GULP energy -89132.399085 kJ/mol
# GULP energy per Si atom -5570.774943 kJ/mol
# Density = 2.722283 g / cm^3
# Si number density = 27.284931 Si / 1000 Ang^3
#
#
#
# Elastic Constant Matrix: (Units=GPa)
#
#
# Indices 1 2 3 4 5 6 
#
# 1 149.2543 68.9422 45.0018 0.3294 -19.3167 -1.0013
# 2 68.9422 167.4204 52.3615 10.5039 -3.2628 24.6359
# 3 45.0018 52.3615 139.3104 4.4582 -41.3517 -4.7443
# 4 0.3294 10.5039 4.4582 44.5426 -5.9484 -8.4467
# 5 -19.3167 -3.2628 -41.3517 -5.9484 43.4526 12.5942
# 6 -1.0013 24.6359 -4.7443 -8.4467 12.5942 54.2532
#
#
#
# Elastic Compliance Matrix: (Units=1/GPa)
#
#
# Indices 1 2 3 4 5 6 
#
# 1 0.009010 -0.003754 -0.000630 0.001534 0.002935 0.001373
# 2 -0.003754 0.009320 -0.003318 -0.003096 -0.003302 -0.004307
# 3 -0.000630 -0.003318 0.011807 0.001084 0.010800 0.000189
# 4 0.001534 -0.003096 0.001084 0.024385 0.003512 0.004510
# 5 0.002935 -0.003302 0.010800 0.003512 0.036395 -0.005404
# 6 0.001373 -0.004307 0.000189 0.004510 -0.005404 0.022386
#
#
# Mechanical properties :
#
#
# Convention : Reuss Voigt Hill
#
# Bulk Modulus (GPa) = 67.88387 87.62179 77.75283
# Shear Modulus (GPa) = 37.41972 47.76166 42.59069
#
# Velocity S-wave (km/s) = 3.70732 4.18841 3.95519
# Velocity P-wave (km/s) = 6.57718 7.45478 7.02968
#
# Compressibility (1/GPa) = 0.01473104
#
# Stress axis : x y z
#
# Youngs Moduli (GPa) = 110.98936 107.29163 84.69859
#
# Poissons Ratio (x) = 0.40279 0.05340
# Poissons Ratio (y) = 0.41667 0.28106
# Poissons Ratio (z) = 0.06997 0.35603
#
# Static dielectric constant tensor:
#      x y z
#    x 2.112070 0.029120 -0.032580 
#    y 0.029120 2.152940 0.040440 
#    z -0.032580 0.040440 2.204370 
# 
# From -- ./inp_files/459574.got.cif
#   From: 2010.05.17/outbox.cif.g08.bks.cpg/sg2_230_cif.got.tgz:459574.got - 2010.06.03 11:33:40.
