data_PCOD9045678
_publ_section_title
;
Structure prediction by ZEFSAII (Michael W. Deem and Ramdas Pophale) SiO2 
 PCOD9045678
Probable space group: P -1
;
_chemical_formula_sum "Si O2"
_cell_formula_units_Z 14
_cell_length_a 12.784206
_cell_length_b 11.595749
_cell_length_c 6.997063
_cell_angle_alpha 93.497526
_cell_angle_beta 93.496540
_cell_angle_gamma 146.593612
_cell_volume 558.080018
_symmetry_space_group_name_H-M "P -1"
_symmetry_group_IT_number 2
_symmetry_cell_setting 'triclinic'
loop_
_space_group_symop_operation_xyz
x,y,z
-x,-y,-z
loop_
_atom_site_type_symbol
_atom_site_label
_atom_site_fract_x
_atom_site_fract_y
_atom_site_fract_z
Si Si1 0.124757 0.934706 0.865700
Si Si2 0.329671 0.337870 0.812141
Si Si3 0.391668 0.778604 0.422636
Si Si4 0.985396 0.496156 0.229174
Si Si5 0.697732 0.881126 0.501770
Si Si6 0.614684 0.008207 0.118097
Si Si7 0.946855 0.727688 0.189495
O O1 0.290678 0.008206 0.988163
O O2 0.165225 0.107197 0.876459
O O3 0.172500 0.947457 0.648844
O O4 0.944585 0.733165 0.956697
O O5 0.373227 0.303761 0.622808
O O6 0.239386 0.378008 0.764933
O O7 0.500000 0.500000 0.000000
O O8 0.166428 0.601889 0.363178
O O9 0.517598 0.794497 0.539246
O O10 0.500000 0.000000 0.500000
O O11 0.456770 0.807324 0.218258
O O12 0.967328 0.617253 0.260289
O O13 0.794757 0.249823 0.242628
O O14 0.000000 0.500000 0.000000
O O15 0.862302 0.024910 0.694426
O O16 0.500000 0.000000 0.000000
#
# Coordination Sequence:
#
# PCOD9045678 Si02
#       7
#     2   2   2   2   2   2   2
#     4   9  22  40  65  88 124 167 212 260 326 367
#     4  10  24  41  66  92 126 169 215 269 317 381
#     4  11  22  43  61  95 135 163 213 270 330 378
#     4  12  24  37  69 100 124 177 216 261 329 397
#     4   9  23  41  65  92 129 166 211 274 318 376
#     4  11  22  39  64  93 132 166 214 265 317 389
#     4  12  21  43  68  91 127 174 216 254 332 388
#
# _framework density 25.086008
#
# number of rings (size 3 to 8) (size 9 to 14) (size 15 to 20)
#    0.857    0.571    4.286    0.857    4.000    0.571 
#    0.000    0.714    0.000    0.000    0.000    0.000 
#    0.000    0.000    0.000    0.000    0.000    0.000 
#
# Total GULP energy -77991.641318 kJ/mol
# GULP energy per Si atom -5570.831523 kJ/mol
# Density = 2.502891 g / cm^3
# Si number density = 25.086008 Si / 1000 Ang^3
#
#
#
# Elastic Constant Matrix: (Units=GPa)
#
#
# Indices 1 2 3 4 5 6 
#
# 1 182.3561 30.1353 37.0571 32.0737 -6.0216 18.6324
# 2 30.1353 91.4679 23.3986 8.6123 5.7610 7.7054
# 3 37.0571 23.3986 82.9419 14.5891 -0.7245 5.6116
# 4 32.0737 8.6123 14.5891 40.6419 4.0669 15.6922
# 5 -6.0216 5.7610 -0.7245 4.0669 31.3184 12.4146
# 6 18.6324 7.7054 5.6116 15.6922 12.4146 31.8495
#
#
#
# Elastic Compliance Matrix: (Units=1/GPa)
#
#
# Indices 1 2 3 4 5 6 
#
# 1 0.007201 -0.001485 -0.001888 -0.003911 0.003257 -0.002863
# 2 -0.001485 0.012341 -0.002803 0.000089 -0.002332 -0.000758
# 3 -0.001888 -0.002803 0.014241 -0.003352 0.000651 0.000671
# 4 -0.003911 0.000089 -0.003352 0.034317 0.000317 -0.014174
# 5 0.003257 -0.002332 0.000651 0.000317 0.039738 -0.017101
# 6 -0.002863 -0.000758 0.000671 -0.014174 -0.017101 0.046788
#
#
# Mechanical properties :
#
#
# Convention : Reuss Voigt Hill
#
# Bulk Modulus (GPa) = 46.66171 59.77199 53.21685
# Shear Modulus (GPa) = 28.71555 38.50695 33.61125
#
# Velocity S-wave (km/s) = 3.38699 3.92215 3.66435
# Velocity P-wave (km/s) = 5.82552 6.66255 6.25805
#
# Compressibility (1/GPa) = 0.02143085
#
# Stress axis : x y z
#
# Youngs Moduli (GPa) = 138.87296 81.02796 70.22037
#
# Poissons Ratio (x) = 0.12033 0.13259
# Poissons Ratio (y) = 0.20624 0.19682
# Poissons Ratio (z) = 0.26222 0.22711
#
# Static dielectric constant tensor:
#      x y z
#    x 1.873770 -0.079960 -0.239020 
#    y -0.079960 1.935010 -0.083180 
#    z -0.239020 -0.083180 2.211840 
# 
# From -- ./inp_files/254209.got.cif
#   From: 2010.05.17/outbox.cif.g08.bks.cpg/sg2_128_cif.got.tgz:254209.got - 2010.06.03 11:33:40.
