data_PCOD9045562
_publ_section_title
;
Structure prediction by ZEFSAII (Michael W. Deem and Ramdas Pophale) SiO2 
 PCOD9045562
Probable space group: P -1
;
_chemical_formula_sum "Si O2"
_cell_formula_units_Z 14
_cell_length_a 9.084095
_cell_length_b 12.169228
_cell_length_c 10.641070
_cell_angle_alpha 90.576295
_cell_angle_beta 138.278357
_cell_angle_gamma 116.765736
_cell_volume 568.102015
_symmetry_space_group_name_H-M "P -1"
_symmetry_group_IT_number 2
_symmetry_cell_setting 'triclinic'
loop_
_space_group_symop_operation_xyz
x,y,z
-x,-y,-z
loop_
_atom_site_type_symbol
_atom_site_label
_atom_site_fract_x
_atom_site_fract_y
_atom_site_fract_z
Si Si1 0.627955 0.459373 0.348504
Si Si2 0.639789 0.154918 0.526426
Si Si3 0.151890 0.153781 0.172229
Si Si4 0.192241 0.944319 0.561297
Si Si5 0.546298 0.791697 0.121421
Si Si6 0.046086 0.781757 0.720152
Si Si7 0.144534 0.468193 0.781329
O O1 0.307611 0.295975 0.180771
O O2 0.869348 0.447531 0.546387
O O3 0.744599 0.605146 0.502365
O O4 0.672596 0.499573 0.229141
O O5 0.422633 0.181976 0.416491
O O6 0.651149 0.110862 0.391439
O O7 0.982018 0.317205 0.754883
O O8 0.500000 0.000000 0.500000
O O9 0.963798 0.155936 0.155588
O O10 0.000000 0.000000 0.000000
O O11 0.079958 0.875280 0.627646
O O12 0.883833 0.872706 0.290830
O O13 0.405385 0.122078 0.719463
O O14 0.349340 0.614871 0.000682
O O15 0.338822 0.800845 0.904622
#
# Coordination Sequence:
#
# PCOD9045562 Si02
#       7
#     2   2   2   2   2   2   2
#     4   9  19  39  69  96 135 171 233 270 336 405
#     4  11  25  45  64  96 141 172 223 286 340 397
#     4  11  25  40  68 103 134 179 221 280 346 396
#     4  11  24  43  68 102 135 182 226 276 340 410
#     4  10  24  40  72  99 135 174 233 274 336 405
#     4  11  22  44  70  99 138 180 221 283 336 404
#     4   9  19  41  68  97 127 184 221 279 335 408
#
# _framework density 24.643463000000001
#
# number of rings (size 3 to 8) (size 9 to 14) (size 15 to 20)
#    0.000    1.714    1.429    1.714    8.000    0.571 
#    2.571    0.714    0.000    0.000    0.000    0.000 
#    0.000    0.000    0.000    0.000    0.000    0.000 
#
# Total GULP energy -78201.579348 kJ/mol
# GULP energy per Si atom -5585.827096 kJ/mol
# Density = 2.458737 g / cm^3
# Si number density = 24.643463 Si / 1000 Ang^3
#
#
#
# Elastic Constant Matrix: (Units=GPa)
#
#
# Indices 1 2 3 4 5 6 
#
# 1 84.6059 46.8052 26.8473 11.7836 1.3282 -4.5762
# 2 46.8052 162.9180 58.5151 33.3535 -8.1214 5.4081
# 3 26.8473 58.5151 84.3375 18.4083 -1.3147 -1.4010
# 4 11.7836 33.3535 18.4083 58.7579 -21.6265 -0.7824
# 5 1.3282 -8.1214 -1.3147 -21.6265 22.5528 3.6301
# 6 -4.5762 5.4081 -1.4010 -0.7824 3.6301 44.7085
#
#
#
# Elastic Compliance Matrix: (Units=1/GPa)
#
#
# Indices 1 2 3 4 5 6 
#
# 1 0.014811 -0.003448 -0.001906 -0.002065 -0.004560 0.002208
# 2 -0.003448 0.009605 -0.004946 -0.002916 0.000865 -0.001791
# 3 -0.001906 -0.004946 0.016635 -0.003609 -0.004355 0.001215
# 4 -0.002065 -0.002916 -0.003609 0.030725 0.028606 -0.001757
# 5 -0.004560 0.000865 -0.004355 0.028606 0.073087 -0.006142
# 6 0.002208 -0.001791 0.001215 -0.001757 -0.006142 0.023316
#
#
# Mechanical properties :
#
#
# Convention : Reuss Voigt Hill
#
# Bulk Modulus (GPa) = 48.89894 66.24409 57.57151
# Shear Modulus (GPa) = 25.56301 38.51676 32.03988
#
# Velocity S-wave (km/s) = 3.22423 3.95772 3.60965
# Velocity P-wave (km/s) = 5.80918 6.91549 6.38634
#
# Compressibility (1/GPa) = 0.02045034
#
# Stress axis : x y z
#
# Youngs Moduli (GPa) = 67.51962 104.11401 60.11259
#
# Poissons Ratio (x) = 0.35902 0.11457
# Poissons Ratio (y) = 0.23283 0.29732
# Poissons Ratio (z) = 0.12868 0.51495
#
# Static dielectric constant tensor:
#      x y z
#    x 1.979690 0.006050 0.046070 
#    y 0.006050 1.982990 0.012620 
#    z 0.046070 0.012620 2.035220 
# 
# From -- ./inp_files/390301.got.cif
#   From: 2010.05.17/outbox.cif.g08.bks.cpg/sg2_196_cif.got.tgz:390301.got - 2010.06.03 11:33:40.
