data_PCOD9045655
_publ_section_title
;
Structure prediction by ZEFSAII (Michael W. Deem and Ramdas Pophale) SiO2 
 PCOD9045655
Probable space group: P -1
;
_chemical_formula_sum "Si O2"
_cell_formula_units_Z 16
_cell_length_a 8.101065
_cell_length_b 13.645804
_cell_length_c 7.034448
_cell_angle_alpha 82.821508
_cell_angle_beta 105.810477
_cell_angle_gamma 84.871347
_cell_volume 736.111017
_symmetry_space_group_name_H-M "P -1"
_symmetry_group_IT_number 2
_symmetry_cell_setting 'triclinic'
loop_
_space_group_symop_operation_xyz
x,y,z
-x,-y,-z
loop_
_atom_site_type_symbol
_atom_site_label
_atom_site_fract_x
_atom_site_fract_y
_atom_site_fract_z
Si Si1 0.703584 0.554205 0.861333
Si Si2 0.483549 0.969351 0.285697
Si Si3 0.958217 0.203408 0.216163
Si Si4 0.346360 0.621351 0.843105
Si Si5 0.175974 0.531410 0.461182
Si Si6 0.783220 0.814102 0.346181
Si Si7 0.937661 0.674746 0.128876
Si Si8 0.223780 0.983350 0.889173
O O1 0.542723 0.634588 0.853185
O O2 0.737565 0.545424 0.649870
O O3 0.663683 0.448733 0.959058
O O4 0.867777 0.585498 0.015282
O O5 0.586348 0.858199 0.320812
O O6 0.500000 0.000000 0.500000
O O7 0.600626 0.036018 0.180196
O O8 0.295834 0.978694 0.128081
O O9 0.790131 0.280754 0.202439
O O10 0.900098 0.096420 0.182356
O O11 0.100335 0.201777 0.426537
O O12 0.033264 0.245051 0.038649
O O13 0.293153 0.555725 0.665263
O O14 0.000000 0.500000 0.500000
O O15 0.113037 0.632232 0.300696
O O16 0.807254 0.719707 0.240447
O O17 0.849097 0.905495 0.225888
#
# Coordination Sequence:
#
# PCOD9045655 Si02
#       8
#     2   2   2   2   2   2   2   2
#     4  11  25  43  67  93 133 175 210 277 333 386
#     4   9  21  44  67  92 129 174 212 266 333 385
#     4  12  24  42  66  98 132 172 218 278 320 391
#     4  11  24  43  66  95 132 166 224 269 329 391
#     4  12  22  44  67  95 131 173 219 272 330 392
#     4  10  24  41  65  96 129 171 219 263 325 390
#     4  12  25  40  66  97 129 170 223 265 331 393
#     4   9  23  42  66  94 132 168 217 264 326 388
#
# _framework density 21.735852999999999
#
# number of rings (size 3 to 8) (size 9 to 14) (size 15 to 20)
#    0.750    0.500    3.750    1.875    3.500    1.500 
#    0.000    0.000    0.000    0.000    0.000    0.000 
#    0.000    0.000    0.000    0.000    0.000    0.000 
#
# Total GULP energy -89378.002493 kJ/mol
# GULP energy per Si atom -5586.125156 kJ/mol
# Density = 2.168638 g / cm^3
# Si number density = 21.735853 Si / 1000 Ang^3
#
#
#
# Elastic Constant Matrix: (Units=GPa)
#
#
# Indices 1 2 3 4 5 6 
#
# 1 37.2639 -2.8982 21.2286 2.6922 -10.6481 -3.1436
# 2 -2.8982 38.2480 8.1415 4.3825 -9.8353 -7.0363
# 3 21.2286 8.1415 129.7935 10.9731 -6.4524 -7.4601
# 4 2.6922 4.3825 10.9731 36.4243 -10.6768 5.1140
# 5 -10.6481 -9.8353 -6.4524 -10.6768 28.0552 3.8268
# 6 -3.1436 -7.0363 -7.4601 5.1140 3.8268 27.5794
#
#
#
# Elastic Compliance Matrix: (Units=1/GPa)
#
#
# Indices 1 2 3 4 5 6 
#
# 1 0.035001 0.007876 -0.005544 0.002385 0.015416 0.001918
# 2 0.007876 0.031758 -0.002178 -0.001128 0.012248 0.006921
# 3 -0.005544 -0.002178 0.009012 -0.002991 -0.002221 0.002113
# 4 0.002385 -0.001128 -0.002991 0.033635 0.013847 -0.008983
# 5 0.015416 0.012248 -0.002221 0.013847 0.051285 -0.005403
# 6 0.001918 0.006921 0.002113 -0.008983 -0.005403 0.041230
#
#
# Mechanical properties :
#
#
# Convention : Reuss Voigt Hill
#
# Bulk Modulus (GPa) = 13.14428 28.69437 20.91932
# Shear Modulus (GPa) = 22.02920 30.33403 26.18161
#
# Velocity S-wave (km/s) = 3.18700 3.73979 3.47441
# Velocity P-wave (km/s) = 4.42753 5.64607 5.07352
#
# Compressibility (1/GPa) = 0.07607875
#
# Stress axis : x y z
#
# Youngs Moduli (GPa) = 28.57057 31.48852 110.96629
#
# Poissons Ratio (x) = -0.24801 0.61516
# Poissons Ratio (y) = -0.22502 0.24170
# Poissons Ratio (z) = 0.15839 0.06859
#
# Static dielectric constant tensor:
#      x y z
#    x 1.827910 -0.031850 -0.013210 
#    y -0.031850 1.790030 -0.028330 
#    z -0.013210 -0.028330 1.766660 
# 
# From -- ./inp_files/38180.got.cif
#   From: 2010.05.17/outbox.cif.g08.bks.cpg/sg2_20_cif.got.tgz:38180.got - 2010.06.03 11:33:40.
