data_PCOD9045867
_publ_section_title
;
Structure prediction by ZEFSAII (Michael W. Deem and Ramdas Pophale) SiO2 
 PCOD9045867
Probable space group: P -1
;
_chemical_formula_sum "Si O2"
_cell_formula_units_Z 16
_cell_length_a 5.172117
_cell_length_b 32.307208
_cell_length_c 25.985706
_cell_angle_alpha 9.428784
_cell_angle_beta 88.463485
_cell_angle_gamma 87.770726
_cell_volume 709.021147
_symmetry_space_group_name_H-M "P -1"
_symmetry_group_IT_number 2
_symmetry_cell_setting 'triclinic'
loop_
_space_group_symop_operation_xyz
x,y,z
-x,-y,-z
loop_
_atom_site_type_symbol
_atom_site_label
_atom_site_fract_x
_atom_site_fract_y
_atom_site_fract_z
Si Si1 0.931446 0.814243 0.341292
Si Si2 0.939750 0.303377 0.023599
Si Si3 0.602606 0.899657 0.475841
Si Si4 0.691284 0.050393 0.484335
Si Si5 0.478135 0.758870 0.030691
Si Si6 0.437981 0.837585 0.248927
Si Si7 0.858990 0.513722 0.867307
Si Si8 0.062168 0.981290 0.248804
O O1 0.645973 0.882229 0.237724
O O2 0.146565 0.886156 0.211386
O O3 0.987112 0.938126 0.243456
O O4 0.966797 0.512851 0.723333
O O5 0.841565 0.047849 0.314484
O O6 0.754383 0.442206 0.898681
O O7 0.182804 0.208162 0.174385
O O8 0.458287 0.819687 0.625441
O O9 0.676246 0.681469 0.701895
O O10 0.450828 0.124732 0.167889
O O11 0.500000 0.000000 0.500000
O O12 0.898753 0.243666 0.226789
O O13 0.519056 0.459999 0.398887
O O14 0.180284 0.851863 0.929674
O O15 0.672101 0.888798 0.908090
O O16 0.500000 0.000000 0.000000
O O17 0.072569 0.710365 0.610844
#
# Coordination Sequence:
#
# PCOD9045867 Si02
#       8
#     2   2   2   2   2   2   2   2
#     4  11  24  46  73 101 141 185 233 276 349 422
#     4  11  24  44  65  94 130 185 230 287 343 419
#     4  11  24  42  68  90 131 184 229 282 358 401
#     4  12  25  42  64  93 137 182 234 298 354 403
#     4  11  23  45  69 101 136 175 236 282 346 424
#     4  12  25  44  74 109 142 178 223 282 346 424
#     4  10  24  42  60  97 130 170 238 289 342 399
#     4  10  24  44  71  99 135 186 232 289 338 413
#
# _framework density 22.566323000000001
#
# number of rings (size 3 to 8) (size 9 to 14) (size 15 to 20)
#    0.000    1.000    2.500    3.375    5.250    4.500 
#    0.000    3.750    0.000    0.000    0.000    0.000 
#    0.000    0.000    0.000    0.000    0.000    0.000 
#
# Total GULP energy -89417.304027 kJ/mol
# GULP energy per Si atom -5588.581502 kJ/mol
# Density = 2.251496 g / cm^3
# Si number density = 22.566323 Si / 1000 Ang^3
#
#
#
# Elastic Constant Matrix: (Units=GPa)
#
#
# Indices 1 2 3 4 5 6 
#
# 1 52.7603 10.1695 5.4713 -8.0911 -8.7586 11.4925
# 2 10.1695 100.0817 45.6691 2.7312 -5.2927 -4.9938
# 3 5.4713 45.6691 86.0223 5.0047 -11.0621 2.1739
# 4 -8.0911 2.7312 5.0047 35.8123 -9.1662 0.2607
# 5 -8.7586 -5.2927 -11.0621 -9.1662 24.4473 5.5441
# 6 11.4925 -4.9938 2.1739 0.2607 5.5441 45.2840
#
#
#
# Elastic Compliance Matrix: (Units=1/GPa)
#
#
# Indices 1 2 3 4 5 6 
#
# 1 0.025173 -0.003235 0.001660 0.009501 0.014597 -0.008667
# 2 -0.003235 0.013766 -0.007453 -0.001477 -0.002796 0.003048
# 3 0.001660 -0.007453 0.016457 0.000531 0.007291 -0.002929
# 4 0.009501 -0.001477 0.000531 0.034602 0.017417 -0.004931
# 5 0.014597 -0.002796 0.007291 0.017417 0.057980 -0.011562
# 6 -0.008667 0.003048 -0.002929 -0.004931 -0.011562 0.026203
#
#
# Mechanical properties :
#
#
# Convention : Reuss Voigt Hill
#
# Bulk Modulus (GPa) = 26.78149 40.16489 33.47319
# Shear Modulus (GPa) = 24.42777 32.94570 28.68674
#
# Velocity S-wave (km/s) = 3.29369 3.82507 3.56928
# Velocity P-wave (km/s) = 5.13402 6.11110 5.64374
#
# Compressibility (1/GPa) = 0.03733922
#
# Stress axis : x y z
#
# Youngs Moduli (GPa) = 39.72460 72.64185 60.76446
#
# Poissons Ratio (x) = 0.23500 -0.10086
# Poissons Ratio (y) = 0.12851 0.45290
# Poissons Ratio (z) = -0.06593 0.54142
#
# Static dielectric constant tensor:
#      x y z
#    x 1.914790 -0.031840 0.015380 
#    y -0.031840 1.870860 -0.046400 
#    z 0.015380 -0.046400 1.839040 
# 
# From -- ./inp_files/48423.got.cif
#   From: 2010.05.17/outbox.cif.g08.bks.cpg/sg2_25_cif.got.tgz:48423.got - 2010.06.03 11:33:40.
