data_PCOD9045611
_publ_section_title
;
Structure prediction by ZEFSAII (Michael W. Deem and Ramdas Pophale) SiO2 
 PCOD9045611
Probable space group: P -1
;
_chemical_formula_sum "Si O2"
_cell_formula_units_Z 16
_cell_length_a 6.810279
_cell_length_b 14.012138
_cell_length_c 7.676670
_cell_angle_alpha 109.962247
_cell_angle_beta 68.457164
_cell_angle_gamma 100.178321
_cell_volume 639.339380
_symmetry_space_group_name_H-M "P -1"
_symmetry_group_IT_number 2
_symmetry_cell_setting 'triclinic'
loop_
_space_group_symop_operation_xyz
x,y,z
-x,-y,-z
loop_
_atom_site_type_symbol
_atom_site_label
_atom_site_fract_x
_atom_site_fract_y
_atom_site_fract_z
Si Si1 0.032074 0.302425 0.494535
Si Si2 0.856625 0.404692 0.058388
Si Si3 0.798557 0.723273 0.196897
Si Si4 0.296792 0.988278 0.440310
Si Si5 0.635282 0.409264 0.765354
Si Si6 0.566688 0.623803 0.771292
Si Si7 0.111365 0.087775 0.264003
Si Si8 0.412699 0.149743 0.922915
O O1 0.076426 0.268880 0.658198
O O2 0.240180 0.369479 0.420426
O O3 0.023662 0.197523 0.328377
O O4 0.824612 0.361917 0.570481
O O5 0.711293 0.382434 0.919613
O O6 0.023500 0.325376 0.011086
O O7 0.662430 0.410820 0.256371
O O8 0.000000 0.500000 0.000000
O O9 0.590849 0.646802 0.236012
O O10 0.712159 0.819829 0.191202
O O11 0.092514 0.973637 0.623386
O O12 0.500000 0.000000 0.500000
O O13 0.271132 0.079382 0.369801
O O14 0.363370 0.893986 0.233815
O O15 0.628282 0.529496 0.815612
O O16 0.562800 0.742590 0.912578
O O17 0.259518 0.071400 0.037414
#
# Coordination Sequence:
#
# PCOD9045611 Si02
#       8
#     2   2   2   2   2   2   2   2
#     4  10  24  41  63  95 128 172 220 276 324 379
#     4  11  21  37  59  87 127 177 226 264 317 377
#     4  11  22  39  61  92 130 173 219 266 322 373
#     4  11  24  46  74  99 131 165 206 273 336 396
#     4  11  21  40  63  87 135 181 222 268 322 374
#     4  11  22  41  61  93 131 174 227 269 318 386
#     4  10  24  46  68  99 132 166 216 267 327 400
#     4  11  23  44  69  97 131 174 214 267 332 388
#
# _framework density 25.025832000000001
#
# number of rings (size 3 to 8) (size 9 to 14) (size 15 to 20)
#    0.000    1.250    2.500    3.375    1.750    1.000 
#   13.500    0.000    0.000    0.000    0.000    0.000 
#    0.000    0.000    0.000    0.000    0.000    0.000 
#
# Total GULP energy -89245.987827 kJ/mol
# GULP energy per Si atom -5577.874239 kJ/mol
# Density = 2.496887 g / cm^3
# Si number density = 25.025832 Si / 1000 Ang^3
#
#
#
# Elastic Constant Matrix: (Units=GPa)
#
#
# Indices 1 2 3 4 5 6 
#
# 1 99.1085 13.6719 24.0276 1.9682 -29.6757 -14.5788
# 2 13.6719 83.6673 31.3466 -5.6607 -18.1390 -14.8725
# 3 24.0276 31.3466 62.2878 -16.2413 -18.9165 -1.0085
# 4 1.9682 -5.6607 -16.2413 48.5077 -2.3477 -10.8903
# 5 -29.6757 -18.1390 -18.9165 -2.3477 48.7333 -1.1549
# 6 -14.5788 -14.8725 -1.0085 -10.8903 -1.1549 39.0746
#
#
#
# Elastic Compliance Matrix: (Units=1/GPa)
#
#
# Indices 1 2 3 4 5 6 
#
# 1 0.014033 0.001979 -0.003865 0.000135 0.007935 0.006162
# 2 0.001979 0.016837 -0.007274 0.001366 0.004892 0.007485
# 3 -0.003865 -0.007274 0.024594 0.007472 0.004814 -0.001351
# 4 0.000135 0.001366 0.007472 0.025295 0.004898 0.007958
# 5 0.007935 0.004892 0.004814 0.004898 0.029447 0.007182
# 6 0.006162 0.007485 -0.001351 0.007958 0.007182 0.033135
#
#
# Mechanical properties :
#
#
# Convention : Reuss Voigt Hill
#
# Bulk Modulus (GPa) = 26.92047 42.57287 34.74667
# Shear Modulus (GPa) = 28.72848 38.99762 33.86305
#
# Velocity S-wave (km/s) = 3.39182 3.95181 3.68247
# Velocity P-wave (km/s) = 5.11074 6.15393 5.65644
#
# Compressibility (1/GPa) = 0.03714645
#
# Stress axis : x y z
#
# Youngs Moduli (GPa) = 71.25848 59.39153 40.65958
#
# Poissons Ratio (x) = -0.11756 0.15715
# Poissons Ratio (y) = -0.14105 0.29576
# Poissons Ratio (z) = 0.27541 0.43201
#
# Static dielectric constant tensor:
#      x y z
#    x 1.986820 0.092640 -0.137780 
#    y 0.092640 2.032920 -0.028510 
#    z -0.137780 -0.028510 2.523500 
# 
# From -- ./inp_files/135487.got.cif
#   From: 2010.05.17/outbox.cif.g08.bks.cpg/sg2_68_cif.got.tgz:135487.got - 2010.06.03 11:33:40.
