data_PCOD9045807
_publ_section_title
;
Structure prediction by ZEFSAII (Michael W. Deem and Ramdas Pophale) SiO2 
 PCOD9045807
Probable space group: P -1
;
_chemical_formula_sum "Si O2"
_cell_formula_units_Z 16
_cell_length_a 13.551193
_cell_length_b 10.275013
_cell_length_c 13.734041
_cell_angle_alpha 69.680780
_cell_angle_beta 29.519721
_cell_angle_gamma 53.542572
_cell_volume 684.720442
_symmetry_space_group_name_H-M "P -1"
_symmetry_group_IT_number 2
_symmetry_cell_setting 'triclinic'
loop_
_space_group_symop_operation_xyz
x,y,z
-x,-y,-z
loop_
_atom_site_type_symbol
_atom_site_label
_atom_site_fract_x
_atom_site_fract_y
_atom_site_fract_z
Si Si1 0.527107 0.703170 0.743264
Si Si2 0.342790 0.861036 0.506105
Si Si3 0.816970 0.179256 0.544920
Si Si4 0.719425 0.706346 0.959209
Si Si5 0.511402 0.017448 0.184334
Si Si6 0.024834 0.345116 0.430397
Si Si7 0.766544 0.665231 0.337451
Si Si8 0.996175 0.863066 0.107017
O O1 0.397243 0.881276 0.872282
O O2 0.648499 0.709387 0.537045
O O3 0.776591 0.536697 0.630776
O O4 0.296427 0.700740 0.914959
O O5 0.190455 0.843703 0.558524
O O6 0.546803 0.701729 0.445404
O O7 0.521133 0.889733 0.285624
O O8 0.151094 0.028382 0.696907
O O9 0.529147 0.271574 0.803227
O O10 0.893618 0.299515 0.476608
O O11 0.000000 0.000000 0.500000
O O12 0.646138 0.896448 0.004448
O O13 0.774169 0.662983 0.809113
O O14 0.974879 0.538697 0.835825
O O15 0.203698 0.177472 0.390537
O O16 0.850011 0.789174 0.214269
O O17 0.000000 0.000000 0.000000
#
# Coordination Sequence:
#
# PCOD9045807 Si02
#       8
#     2   2   2   2   2   2   2   2
#     4  11  24  41  68  99 130 169 221 278 320 392
#     4  11  23  41  69  95 132 173 217 273 326 390
#     4  11  23  42  64  96 133 169 220 267 320 389
#     4  10  24  41  70  93 134 180 209 274 328 386
#     4  11  22  42  66  97 131 177 216 267 331 385
#     4  11  23  44  65  95 135 173 223 267 322 393
#     4  11  23  46  64 100 136 163 223 273 328 386
#     4  12  23  41  71  97 129 177 217 268 336 390
#
# _framework density 23.367201999999999
#
# number of rings (size 3 to 8) (size 9 to 14) (size 15 to 20)
#    0.000    1.000    5.000    2.625    1.750    2.000 
#    0.000    4.375    0.000    0.000    0.000    0.000 
#    0.000    0.000    0.000    0.000    0.000    0.000 
#
# Total GULP energy -89374.416421 kJ/mol
# GULP energy per Si atom -5585.901026 kJ/mol
# Density = 2.331402 g / cm^3
# Si number density = 23.367202 Si / 1000 Ang^3
#
#
#
# Elastic Constant Matrix: (Units=GPa)
#
#
# Indices 1 2 3 4 5 6 
#
# 1 110.3059 19.1097 18.9245 6.7161 -5.4504 -3.9809
# 2 19.1097 52.3456 10.4572 18.1995 2.1060 0.5987
# 3 18.9245 10.4572 103.0251 17.5862 -2.3170 -5.6143
# 4 6.7161 18.1995 17.5862 34.5498 -1.6369 -7.2663
# 5 -5.4504 2.1060 -2.3170 -1.6369 39.1773 6.9451
# 6 -3.9809 0.5987 -5.6143 -7.2663 6.9451 39.0955
#
#
#
# Elastic Compliance Matrix: (Units=1/GPa)
#
#
# Indices 1 2 3 4 5 6 
#
# 1 0.010023 -0.003788 -0.001565 0.001079 0.001408 0.000804
# 2 -0.003788 0.025191 0.000216 -0.013340 -0.001915 -0.002880
# 3 -0.001565 0.000216 0.010895 -0.005265 0.000124 0.000401
# 4 0.001079 -0.013340 -0.005265 0.039918 0.001019 0.006796
# 5 0.001408 -0.001915 0.000124 0.001019 0.026645 -0.004354
# 6 0.000804 -0.002880 0.000401 0.006796 -0.004354 0.027799
#
#
# Mechanical properties :
#
#
# Convention : Reuss Voigt Hill
#
# Bulk Modulus (GPa) = 27.90519 40.29550 34.10035
# Shear Modulus (GPa) = 30.73288 37.04354 33.88821
#
# Velocity S-wave (km/s) = 3.63052 3.98588 3.81234
# Velocity P-wave (km/s) = 5.43528 6.20200 5.83126
#
# Compressibility (1/GPa) = 0.03583562
#
# Stress axis : x y z
#
# Youngs Moduli (GPa) = 99.76730 39.69616 91.78186
#
# Poissons Ratio (x) = 0.15035 0.14368
# Poissons Ratio (y) = 0.37788 -0.01981
# Poissons Ratio (z) = 0.15618 -0.00857
#
# Static dielectric constant tensor:
#      x y z
#    x 1.947750 -0.000590 0.005400 
#    y -0.000590 1.947860 0.010000 
#    z 0.005400 0.010000 1.854260 
# 
# From -- ./inp_files/531710.got.cif
#   From: 2010.05.17/outbox.cif.g08.bks.cpg/sg2_266_cif.got.tgz:531710.got - 2010.06.03 11:33:40.
