data_PCOD9045470
_publ_section_title
;
Structure prediction by ZEFSAII (Michael W. Deem and Ramdas Pophale) SiO2 
 PCOD9045470
Probable space group: P -1
;
_chemical_formula_sum "Si O2"
_cell_formula_units_Z 12
_cell_length_a 11.699147
_cell_length_b 14.510823
_cell_length_c 5.060351
_cell_angle_alpha 75.982991
_cell_angle_beta 96.917694
_cell_angle_gamma 38.056819
_cell_volume 438.787403
_symmetry_space_group_name_H-M "P -1"
_symmetry_group_IT_number 2
_symmetry_cell_setting 'triclinic'
loop_
_space_group_symop_operation_xyz
x,y,z
-x,-y,-z
loop_
_atom_site_type_symbol
_atom_site_label
_atom_site_fract_x
_atom_site_fract_y
_atom_site_fract_z
Si Si1 0.686806 0.674936 0.973519
Si Si2 0.189570 0.133441 0.966285
Si Si3 0.967886 0.936411 0.275123
Si Si4 0.334129 0.187123 0.592896
Si Si5 0.825029 0.381284 0.106204
Si Si6 0.639276 0.241869 0.374060
O O1 0.777391 0.682906 0.772378
O O2 0.476350 0.779934 0.682685
O O3 0.665418 0.744706 0.194109
O O4 0.801237 0.494752 0.189924
O O5 0.166064 0.038060 0.973276
O O6 0.228540 0.164225 0.685080
O O7 0.974840 0.304308 0.953681
O O8 0.411292 0.005228 0.265137
O O9 0.074059 0.779345 0.605994
O O10 0.183758 0.842203 0.310113
O O11 0.800994 0.120582 0.253825
O O12 0.573493 0.542506 0.835742
#
# Coordination Sequence:
#
# PCOD9045470 Si02
#       6
#     2   2   2   2   2   2
#     4  10  24  46  67  99 141 180 226 281 347 398
#     4  11  25  39  70 101 135 185 231 287 336 415
#     4  11  21  45  67 100 135 184 232 277 356 402
#     4  11  25  46  70 101 144 182 230 283 342 410
#     4  10  24  40  68 103 136 178 234 282 344 409
#     4   9  22  44  68  98 140 180 225 295 337 416
#
# _framework density 27.348096000000002
#
# number of rings (size 3 to 8) (size 9 to 14) (size 15 to 20)
#    1.000    0.667    1.667    1.500    4.667    3.333 
#    3.000    2.500    0.000    0.000    0.000    0.000 
#    0.000    0.000    0.000    0.000    0.000    0.000 
#
# Total GULP energy -67017.499765 kJ/mol
# GULP energy per Si atom -5584.791647 kJ/mol
# Density = 2.728585 g / cm^3
# Si number density = 27.348096 Si / 1000 Ang^3
#
#
#
# Elastic Constant Matrix: (Units=GPa)
#
#
# Indices 1 2 3 4 5 6 
#
# 1 191.8046 55.4733 34.4871 -11.0533 0.3473 -2.6473
# 2 55.4733 129.5792 43.2942 -11.9224 4.1944 -7.8116
# 3 34.4871 43.2942 90.4627 -4.6838 10.9122 -25.6600
# 4 -11.0533 -11.9224 -4.6838 36.3584 -12.4494 16.5479
# 5 0.3473 4.1944 10.9122 -12.4494 57.3260 -5.9146
# 6 -2.6473 -7.8116 -25.6600 16.5479 -5.9146 51.1494
#
#
#
# Elastic Compliance Matrix: (Units=1/GPa)
#
#
# Indices 1 2 3 4 5 6 
#
# 1 0.006201 -0.001987 -0.001803 0.001891 0.000716 -0.001416
# 2 -0.001987 0.010262 -0.004575 0.003209 0.000644 -0.001794
# 3 -0.001803 -0.004575 0.016513 -0.004913 -0.002963 0.008739
# 4 0.001891 0.003209 -0.004913 0.036925 0.007370 -0.012971
# 5 0.000716 0.000644 -0.002963 0.007370 0.019403 -0.001492
# 6 -0.001416 -0.001794 0.008739 -0.012971 -0.001492 0.027611
#
#
# Mechanical properties :
#
#
# Convention : Reuss Voigt Hill
#
# Bulk Modulus (GPa) = 61.54884 75.37285 68.46085
# Shear Modulus (GPa) = 35.95591 47.53954 41.74773
#
# Velocity S-wave (km/s) = 3.62988 4.17383 3.91132
# Velocity P-wave (km/s) = 6.33424 7.13079 6.74429
#
# Compressibility (1/GPa) = 0.01624726
#
# Stress axis : x y z
#
# Youngs Moduli (GPa) = 161.27663 97.44303 60.55892
#
# Poissons Ratio (x) = 0.19358 0.10920
# Poissons Ratio (y) = 0.32039 0.27703
# Poissons Ratio (z) = 0.29081 0.44576
#
# Static dielectric constant tensor:
#      x y z
#    x 2.187430 0.029910 0.095120 
#    y 0.029910 2.120220 -0.041620 
#    z 0.095120 -0.041620 2.284630 
# 
# From -- ./inp_files/57634.got.cif
#   From: 2010.05.17/outbox.cif.g08.bks.cpg/sg2_29_cif.got.tgz:57634.got - 2010.06.03 11:33:40.
