data_PCOD9045055
_publ_section_title
;
Structure prediction by ZEFSAII (Michael W. Deem and Ramdas Pophale) SiO2 
 PCOD9045055
Probable space group: P -1
;
_chemical_formula_sum "Si O2"
_cell_formula_units_Z 14
_cell_length_a 10.212328
_cell_length_b 10.900158
_cell_length_c 11.307531
_cell_angle_alpha 36.496140
_cell_angle_beta 72.812334
_cell_angle_gamma 98.530774
_cell_volume 524.966874
_symmetry_space_group_name_H-M "P -1"
_symmetry_group_IT_number 2
_symmetry_cell_setting 'triclinic'
loop_
_space_group_symop_operation_xyz
x,y,z
-x,-y,-z
loop_
_atom_site_type_symbol
_atom_site_label
_atom_site_fract_x
_atom_site_fract_y
_atom_site_fract_z
Si Si1 0.040829 0.453801 0.394646
Si Si2 0.386723 0.661100 0.792511
Si Si3 0.281403 0.239547 0.743419
Si Si4 0.420553 0.932362 0.942200
Si Si5 0.987924 0.969406 0.824209
Si Si6 0.776015 0.264447 0.419871
Si Si7 0.254451 0.186531 0.373667
O O1 0.000000 0.500000 0.500000
O O2 0.916809 0.121318 0.682668
O O3 0.961573 0.488626 0.274504
O O4 0.256444 0.606618 0.208700
O O5 0.239831 0.572972 0.800341
O O6 0.552557 0.667471 0.720923
O O7 0.500000 0.000000 0.500000
O O8 0.280703 0.429458 0.106545
O O9 0.500000 0.500000 0.500000
O O10 0.159419 0.174720 0.713319
O O11 0.288772 0.999553 0.919922
O O12 0.180385 0.250924 0.869582
O O13 0.590805 0.096437 0.680207
O O14 0.500000 0.000000 0.000000
O O15 0.089272 0.996582 0.658340
O O16 0.769436 0.031479 0.541532
#
# Coordination Sequence:
#
# PCOD9045055 Si02
#       7
#     2   2   2   2   2   2   2
#     4  12  25  47  71 112 149 199 257 319 389 467
#     4   9  21  45  76 112 153 211 266 313 386 466
#     4  11  25  47  76 114 147 200 254 324 395 462
#     4  12  24  46  76 105 152 199 255 320 396 464
#     4  11  25  47  74 110 154 193 256 319 385 473
#     4  11  25  47  77 112 156 207 259 324 396 465
#     4  10  23  48  77 112 158 210 260 323 397 467
#
# _framework density 26.66835
#
# number of rings (size 3 to 8) (size 9 to 14) (size 15 to 20)
#    0.000    1.143    2.857    1.714    6.000    0.571 
#    7.714    2.143    0.000    0.000    0.000    0.000 
#    0.000    0.000    0.000    0.000    0.000    0.000 
#
# Total GULP energy -78170.507611 kJ/mol
# GULP energy per Si atom -5583.607686 kJ/mol
# Density = 2.660765 g / cm^3
# Si number density = 26.668350 Si / 1000 Ang^3
#
#
#
# Elastic Constant Matrix: (Units=GPa)
#
#
# Indices 1 2 3 4 5 6 
#
# 1 132.7824 85.6833 61.6329 22.9367 -2.4744 25.8730
# 2 85.6833 163.1795 80.8206 37.5664 -13.8362 -2.6609
# 3 61.6329 80.8206 183.6568 36.2398 -34.3468 3.8109
# 4 22.9367 37.5664 36.2398 34.5340 4.7005 -12.5231
# 5 -2.4744 -13.8362 -34.3468 4.7005 55.0281 1.6808
# 6 25.8730 -2.6609 3.8109 -12.5231 1.6808 62.7873
#
#
#
# Elastic Compliance Matrix: (Units=1/GPa)
#
#
# Indices 1 2 3 4 5 6 
#
# 1 0.013938 -0.006041 -0.001475 -0.003328 -0.001329 -0.006538
# 2 -0.006041 0.011868 -0.001336 -0.007264 0.002451 0.001559
# 3 -0.001475 -0.001336 0.009605 -0.009269 0.006448 -0.002053
# 4 -0.003328 -0.007264 -0.009269 0.055260 -0.012879 0.012992
# 5 -0.001329 0.002451 0.006448 -0.012879 0.023944 -0.002949
# 6 -0.006538 0.001559 -0.002053 0.012992 -0.002949 0.021482
#
#
# Mechanical properties :
#
#
# Convention : Reuss Voigt Hill
#
# Bulk Modulus (GPa) = 56.47644 103.98803 80.23224
# Shear Modulus (GPa) = 31.30807 47.23536 39.27172
#
# Velocity S-wave (km/s) = 3.43005 4.21315 3.84161
# Velocity P-wave (km/s) = 6.07539 7.92118 7.05888
#
# Compressibility (1/GPa) = 0.01770650
#
# Stress axis : x y z
#
# Youngs Moduli (GPa) = 71.74429 84.26361 104.11101
#
# Poissons Ratio (x) = 0.50908 0.15358
# Poissons Ratio (y) = 0.43344 0.13905
# Poissons Ratio (z) = 0.10584 0.11254
#
# Static dielectric constant tensor:
#      x y z
#    x 3.396360 -3.016580 4.297770 
#    y -3.016580 9.080490 -9.785510 
#    z 4.297770 -9.785510 15.736690 
# 
# From -- ./inp_files/505026.got.cif
#   From: 2010.05.17/outbox.cif.g08.bks.cpg/sg2_253_cif.got.tgz:505026.got - 2010.06.03 11:33:40.
