data_PCOD9045846
_publ_section_title
;
Structure prediction by ZEFSAII (Michael W. Deem and Ramdas Pophale) SiO2 
 PCOD9045846
Probable space group: P -1
;
_chemical_formula_sum "Si O2"
_cell_formula_units_Z 14
_cell_length_a 9.392736
_cell_length_b 13.506781
_cell_length_c 7.608868
_cell_angle_alpha 128.296874
_cell_angle_beta 131.855570
_cell_angle_gamma 61.511984
_cell_volume 560.933647
_symmetry_space_group_name_H-M "P -1"
_symmetry_group_IT_number 2
_symmetry_cell_setting 'triclinic'
loop_
_space_group_symop_operation_xyz
x,y,z
-x,-y,-z
loop_
_atom_site_type_symbol
_atom_site_label
_atom_site_fract_x
_atom_site_fract_y
_atom_site_fract_z
Si Si1 0.676493 0.390873 0.028847
Si Si2 0.348566 0.271226 0.591862
Si Si3 0.323040 0.590978 0.536474
Si Si4 0.853208 0.897729 0.219749
Si Si5 0.926459 0.617606 0.834398
Si Si6 0.516778 0.802162 0.036551
Si Si7 0.785747 0.987548 0.873180
O O1 0.568644 0.281227 0.726875
O O2 0.500000 0.500000 0.000000
O O3 0.723846 0.379489 0.261451
O O4 0.861985 0.416861 0.104800
O O5 0.209782 0.342916 0.408833
O O6 0.364565 0.301122 0.848711
O O7 0.288733 0.131585 0.411102
O O8 0.500000 0.500000 0.500000
O O9 0.153886 0.500862 0.265262
O O10 0.399869 0.728587 0.713467
O O11 0.667046 0.890291 0.178586
O O12 0.930531 0.747609 0.093441
O O13 0.785010 0.945368 0.026626
O O14 0.000000 0.000000 0.500000
O O15 0.356426 0.885744 0.109875
O O16 0.000000 0.000000 0.000000
#
# Coordination Sequence:
#
# PCOD9045846 Si02
#       7
#     2   2   2   2   2   2   2
#     4  11  24  42  71 102 134 184 232 279 341 412
#     4  10  24  41  73  97 141 173 239 283 340 409
#     4  11  23  45  68  98 144 171 233 284 348 410
#     4  11  25  45  68 100 144 178 233 286 352 409
#     4  11  24  46  72 104 136 188 230 286 344 411
#     4  11  24  43  70 103 137 185 228 289 348 409
#     4  11  25  43  71 102 136 186 231 285 350 412
#
# _framework density 24.958385
#
# number of rings (size 3 to 8) (size 9 to 14) (size 15 to 20)
#    0.000    1.143    2.857    2.143   10.000    0.000 
#    2.571    0.714    0.000    0.000    0.000    0.000 
#    0.000    0.000    0.000    0.000    0.000    0.000 
#
# Total GULP energy -77967.193822 kJ/mol
# GULP energy per Si atom -5569.085273 kJ/mol
# Density = 2.490158 g / cm^3
# Si number density = 24.958385 Si / 1000 Ang^3
#
#
#
# Elastic Constant Matrix: (Units=GPa)
#
#
# Indices 1 2 3 4 5 6 
#
# 1 158.7560 25.8235 64.2363 -4.5269 53.1146 -6.7035
# 2 25.8235 67.0206 44.4337 16.2176 15.5749 0.9201
# 3 64.2363 44.4337 178.8912 36.0603 51.4014 1.3571
# 4 -4.5269 16.2176 36.0603 38.5206 15.2007 -0.6742
# 5 53.1146 15.5749 51.4014 15.2007 49.2797 -0.6031
# 6 -6.7035 0.9201 1.3571 -0.6742 -0.6031 37.3108
#
#
#
# Elastic Compliance Matrix: (Units=1/GPa)
#
#
# Indices 1 2 3 4 5 6 
#
# 1 0.012411 -0.002798 -0.001856 0.009757 -0.013537 0.002324
# 2 -0.002798 0.019083 -0.003057 -0.006356 0.002122 -0.000943
# 3 -0.001856 -0.003057 0.009776 -0.005966 -0.005400 -0.000809
# 4 0.009757 -0.006356 -0.005966 0.041333 -0.015002 0.002631
# 5 -0.013537 0.002122 -0.005400 -0.015002 0.044450 -0.001841
# 6 0.002324 -0.000943 -0.000809 0.002631 -0.001841 0.027290
#
#
# Mechanical properties :
#
#
# Convention : Reuss Voigt Hill
#
# Bulk Modulus (GPa) = 38.68755 74.85054 56.76905
# Shear Modulus (GPa) = 28.02999 43.03385 35.53192
#
# Velocity S-wave (km/s) = 3.35486 4.15688 3.77722
# Velocity P-wave (km/s) = 5.52641 7.28662 6.46669
#
# Compressibility (1/GPa) = 0.02584811
#
# Stress axis : x y z
#
# Youngs Moduli (GPa) = 80.57682 52.40212 102.29106
#
# Poissons Ratio (x) = 0.14664 0.18985
# Poissons Ratio (y) = 0.22548 0.31266
# Poissons Ratio (z) = 0.14955 0.16017
#
# Static dielectric constant tensor:
#      x y z
#    x 1.935980 0.078700 -0.099020 
#    y 0.078700 2.137080 0.291900 
#    z -0.099020 0.291900 1.623210 
# 
# From -- ./inp_files/204584.got.cif
#   From: 2010.05.17/outbox.cif.g08.bks.cpg/sg2_103_cif.got.tgz:204584.got - 2010.06.03 11:33:40.
