data_PCOD9045344
_publ_section_title
;
Structure prediction by ZEFSAII (Michael W. Deem and Ramdas Pophale) SiO2 
 PCOD9045344
Probable space group: P -1
;
_chemical_formula_sum "Si O2"
_cell_formula_units_Z 16
_cell_length_a 11.180842
_cell_length_b 6.536974
_cell_length_c 9.583114
_cell_angle_alpha 77.634371
_cell_angle_beta 104.338365
_cell_angle_gamma 104.829676
_cell_volume 647.442393
_symmetry_space_group_name_H-M "P -1"
_symmetry_group_IT_number 2
_symmetry_cell_setting 'triclinic'
loop_
_space_group_symop_operation_xyz
x,y,z
-x,-y,-z
loop_
_atom_site_type_symbol
_atom_site_label
_atom_site_fract_x
_atom_site_fract_y
_atom_site_fract_z
Si Si1 0.610807 0.386344 0.289005
Si Si2 0.221042 0.953101 0.600220
Si Si3 0.777274 0.814765 0.156161
Si Si4 0.575321 0.952513 0.895026
Si Si5 0.848794 0.009856 0.722908
Si Si6 0.101668 0.357625 0.024615
Si Si7 0.623596 0.709866 0.577753
Si Si8 0.731695 0.351001 0.768919
O O1 0.673607 0.618615 0.217046
O O2 0.513596 0.251827 0.170076
O O3 0.517965 0.373284 0.398118
O O4 0.724576 0.261064 0.357642
O O5 0.178570 0.019675 0.729064
O O6 0.126604 0.956580 0.441322
O O7 0.344313 0.139059 0.568015
O O8 0.708838 0.919855 0.999031
O O9 0.879800 0.714857 0.116849
O O10 0.607277 0.170660 0.784187
O O11 0.500000 0.000000 0.000000
O O12 0.919162 0.853808 0.851380
O O13 0.701858 0.874704 0.692046
O O14 0.837363 0.230379 0.760131
O O15 0.227809 0.518837 0.095881
O O16 0.000000 0.500000 0.000000
O O17 0.703966 0.526184 0.627953
#
# Coordination Sequence:
#
# PCOD9045344 Si02
#       8
#     2   2   2   2   2   2   2   2
#     4  12  22  37  60  92 136 181 215 245 302 380
#     4  10  24  40  59  94 137 170 215 253 309 378
#     4  12  25  41  60  95 135 165 216 273 309 368
#     4  12  20  36  58  92 133 171 205 247 310 375
#     4   9  21  43  63  90 126 163 212 258 313 380
#     4  11  25  46  71  94 116 163 222 274 333 382
#     4   9  21  36  58  92 129 175 209 237 302 379
#     4  11  20  41  68  88 129 168 210 267 309 375
#
# _framework density 24.712620999999999
#
# number of rings (size 3 to 8) (size 9 to 14) (size 15 to 20)
#    0.750    0.500    3.750    3.000    1.750    1.000 
#    0.000    0.625    0.000    1.500    0.000    0.000 
#    0.000    0.000    0.000    0.000    0.000    0.000 
#
# Total GULP energy -89411.926721 kJ/mol
# GULP energy per Si atom -5588.245420 kJ/mol
# Density = 2.465637 g / cm^3
# Si number density = 24.712621 Si / 1000 Ang^3
#
#
#
# Elastic Constant Matrix: (Units=GPa)
#
#
# Indices 1 2 3 4 5 6 
#
# 1 69.0233 11.1268 12.0031 16.5599 -7.2608 -22.5604
# 2 11.1268 100.3008 28.0591 4.9134 -4.3202 -24.4927
# 3 12.0031 28.0591 92.1537 17.8905 -13.4389 -22.2980
# 4 16.5599 4.9134 17.8905 36.0827 -12.5335 -9.3223
# 5 -7.2608 -4.3202 -13.4389 -12.5335 23.7384 3.9562
# 6 -22.5604 -24.4927 -22.2980 -9.3223 3.9562 46.4418
#
#
#
# Elastic Compliance Matrix: (Units=1/GPa)
#
#
# Indices 1 2 3 4 5 6 
#
# 1 0.018677 0.000016 0.001005 -0.006438 0.001529 0.008141
# 2 0.000016 0.011924 -0.002507 0.001143 0.000479 0.005281
# 3 0.001005 -0.002507 0.014149 -0.004241 0.004840 0.004696
# 4 -0.006438 0.001143 -0.004241 0.038621 0.015923 0.001835
# 5 0.001529 0.000479 0.004840 0.015923 0.053501 0.001957
# 6 0.008141 0.005281 0.004696 0.001835 0.001957 0.030729
#
#
# Mechanical properties :
#
#
# Convention : Reuss Voigt Hill
#
# Bulk Modulus (GPa) = 23.93562 40.42845 32.18204
# Shear Modulus (GPa) = 27.10050 35.27182 31.18616
#
# Velocity S-wave (km/s) = 3.31513 3.78203 3.55625
# Velocity P-wave (km/s) = 4.93559 5.95539 5.46931
#
# Compressibility (1/GPa) = 0.04177873
#
# Stress axis : x y z
#
# Youngs Moduli (GPa) = 53.54233 83.86590 70.67550
#
# Poissons Ratio (x) = -0.00136 -0.07103
# Poissons Ratio (y) = -0.00087 0.17717
# Poissons Ratio (z) = -0.05381 0.21023
#
# Static dielectric constant tensor:
#      x y z
#    x 2.037420 -0.031710 0.021560 
#    y -0.031710 1.950870 0.064330 
#    z 0.021560 0.064330 2.008630 
# 
# From -- ./inp_files/409216.got.cif
#   From: 2010.05.17/outbox.cif.g08.bks.cpg/sg2_205_cif.got.tgz:409216.got - 2010.06.03 11:33:40.
