data_PCOD9045833
_publ_section_title
;
Structure prediction by ZEFSAII (Michael W. Deem and Ramdas Pophale) SiO2 
 PCOD9045833
Probable space group: P -1
;
_chemical_formula_sum "Si O2"
_cell_formula_units_Z 15
_cell_length_a 9.274943
_cell_length_b 11.363168
_cell_length_c 18.208880
_cell_angle_alpha 28.876523
_cell_angle_beta 67.458686
_cell_angle_gamma 85.581480
_cell_volume 697.359733
_symmetry_space_group_name_H-M "P -1"
_symmetry_group_IT_number 2
_symmetry_cell_setting 'triclinic'
loop_
_space_group_symop_operation_xyz
x,y,z
-x,-y,-z
loop_
_atom_site_type_symbol
_atom_site_label
_atom_site_fract_x
_atom_site_fract_y
_atom_site_fract_z
Si Si1 0.774194 0.784029 0.644657
Si Si2 0.795579 0.753725 0.080679
Si Si3 0.497108 0.165763 0.980733
Si Si4 0.749142 0.430484 0.040895
Si Si5 0.824432 0.266774 0.267239
Si Si6 0.489482 0.906719 0.273509
Si Si7 0.770874 0.736964 0.267034
Si Si8 0.500000 0.500000 0.000000
O O1 0.703715 0.466016 0.796879
O O2 0.648883 0.696170 0.790435
O O3 0.739635 0.960452 0.493493
O O4 0.000000 0.000000 0.500000
O O5 0.646144 0.748985 0.059876
O O6 0.806719 0.481043 0.206672
O O7 0.745004 0.745535 0.180293
O O8 0.009185 0.052251 0.868343
O O9 0.500000 0.000000 0.000000
O O10 0.437892 0.953984 0.178009
O O11 0.733419 0.257620 0.211350
O O12 0.571514 0.209991 0.139086
O O13 0.692899 0.658726 0.932781
O O14 0.951768 0.571555 0.886097
O O15 0.660175 0.861360 0.259405
O O16 0.320425 0.603777 0.508400
#
# Coordination Sequence:
#
# PCOD9045833 Si02
#       8
#     2   2   2   2   2   2   2   1
#     4  12  27  48  77 108 148 195 235 305 370 426
#     4  11  24  45  67 105 137 183 237 293 351 429
#     4  12  26  46  72 104 144 184 241 297 355 431
#     4  11  24  44  67 101 140 186 236 295 351 429
#     4  11  25  44  71 101 145 186 239 296 355 431
#     4  11  22  46  66  97 140 182 228 291 355 424
#     4  10  24  41  72  95 138 186 227 286 364 421
#     4  12  24  44  70 106 140 184 240 290 362 426
#
# _framework density 21.509699999999999
#
# number of rings (size 3 to 8) (size 9 to 14) (size 15 to 20)
#    0.000    0.800    5.333    0.800    3.733    1.600 
#    0.000    0.000    0.000    0.000    0.000    0.000 
#    0.000    0.000    0.000    0.000    0.000    0.000 
#
# Total GULP energy -83677.552928 kJ/mol
# GULP energy per Si atom -5578.503529 kJ/mol
# Density = 2.146074 g / cm^3
# Si number density = 21.509700 Si / 1000 Ang^3
#
#
#
# Elastic Constant Matrix: (Units=GPa)
#
#
# Indices 1 2 3 4 5 6 
#
# 1 86.2632 9.1932 17.9857 3.4729 11.1044 9.7192
# 2 9.1932 93.0966 30.1016 6.3943 -9.1648 3.6315
# 3 17.9857 30.1016 122.0738 7.9504 18.5422 4.7839
# 4 3.4729 6.3943 7.9504 22.6357 4.5858 0.7582
# 5 11.1044 -9.1648 18.5422 4.5858 23.9054 5.1176
# 6 9.7192 3.6315 4.7839 0.7582 5.1176 30.5736
#
#
#
# Elastic Compliance Matrix: (Units=1/GPa)
#
#
# Indices 1 2 3 4 5 6 
#
# 1 0.012912 -0.001504 -0.000576 -0.000147 -0.005475 -0.002916
# 2 -0.001504 0.013744 -0.004431 -0.004184 0.010666 -0.002143
# 3 -0.000576 -0.004431 0.010882 -0.000495 -0.009922 0.000680
# 4 -0.000147 -0.004184 -0.000495 0.047654 -0.010552 0.001206
# 5 -0.005475 0.010666 -0.009922 -0.010552 0.059839 -0.007728
# 6 -0.002916 -0.002143 0.000680 0.001206 -0.007728 0.035047
#
#
# Mechanical properties :
#
#
# Convention : Reuss Voigt Hill
#
# Bulk Modulus (GPa) = 40.79018 46.22162 43.50590
# Shear Modulus (GPa) = 24.84213 31.69982 28.27097
#
# Velocity S-wave (km/s) = 3.40211 3.84310 3.62931
# Velocity P-wave (km/s) = 5.86833 6.42090 6.15082
#
# Compressibility (1/GPa) = 0.02451570
#
# Stress axis : x y z
#
# Youngs Moduli (GPa) = 77.44698 72.76033 91.89494
#
# Poissons Ratio (x) = 0.10943 0.05294
# Poissons Ratio (y) = 0.11648 0.40719
# Poissons Ratio (z) = 0.04461 0.32240
#
# Static dielectric constant tensor:
#      x y z
#    x 2.166620 -0.294270 0.170730 
#    y -0.294270 2.016580 -0.140210 
#    z 0.170730 -0.140210 1.817510 
# 
# From -- ./inp_files/557667.got.cif
#   From: 2010.05.17/outbox.cif.g08.bks.cpg/sg2_279_cif.got.tgz:557667.got - 2010.06.03 11:33:40.
