data_PCOD9045186
_publ_section_title
;
Structure prediction by ZEFSAII (Michael W. Deem and Ramdas Pophale) SiO2 
 PCOD9045186
Probable space group: P -1
;
_chemical_formula_sum "Si O2"
_cell_formula_units_Z 12
_cell_length_a 14.331203
_cell_length_b 8.795414
_cell_length_c 9.676136
_cell_angle_alpha 134.672402
_cell_angle_beta 148.929620
_cell_angle_gamma 57.070121
_cell_volume 441.893704
_symmetry_space_group_name_H-M "P -1"
_symmetry_group_IT_number 2
_symmetry_cell_setting 'triclinic'
loop_
_space_group_symop_operation_xyz
x,y,z
-x,-y,-z
loop_
_atom_site_type_symbol
_atom_site_label
_atom_site_fract_x
_atom_site_fract_y
_atom_site_fract_z
Si Si1 0.023696 0.985699 0.185265
Si Si2 0.764995 0.557020 0.574915
Si Si3 0.401387 0.524996 0.232443
Si Si4 0.533901 0.221125 0.775165
Si Si5 0.975306 0.770850 0.401173
Si Si6 0.445891 0.954532 0.744628
O O1 0.976005 0.176286 0.342711
O O2 0.233802 0.977109 0.477008
O O3 0.000000 0.000000 0.000000
O O4 0.895867 0.767140 0.933502
O O5 0.599500 0.465231 0.407286
O O6 0.648379 0.662093 0.376188
O O7 0.897265 0.391989 0.597946
O O8 0.340574 0.619655 0.068084
O O9 0.449694 0.726600 0.526464
O O10 0.234805 0.346500 0.951558
O O11 0.562688 0.137094 0.910510
O O12 0.500000 0.000000 0.500000
O O13 0.000000 0.000000 0.500000
O O14 0.500000 0.000000 0.000000
#
# Coordination Sequence:
#
# PCOD9045186 Si02
#       6
#     2   2   2   2   2   2
#     4  12  26  53  87 126 177 231 296 367 438 550
#     4  10  23  51  92 119 171 227 310 349 442 530
#     4   9  22  52  85 122 178 232 297 356 447 542
#     4   8  18  44  85 125 167 229 291 349 435 538
#     4  12  29  54  86 127 176 234 300 374 446 515
#     4  11  22  47  86 138 181 224 290 378 455 523
#
# _framework density 27.155853
#
# number of rings (size 3 to 8) (size 9 to 14) (size 15 to 20)
#    1.000    0.667    3.333    0.000    0.000    3.333 
#    6.000    6.667    0.000    0.000    0.000    0.000 
#    0.000    0.000    0.000    0.000    0.000    0.000 
#
# Total GULP energy -67254.395701 kJ/mol
# GULP energy per Si atom -5604.532975 kJ/mol
# Density = 2.709405 g / cm^3
# Si number density = 27.155853 Si / 1000 Ang^3
#
#
#
# Elastic Constant Matrix: (Units=GPa)
#
#
# Indices 1 2 3 4 5 6 
#
# 1 214.8325 102.5169 96.9297 0.3993 -8.0692 -10.2886
# 2 102.5169 134.5418 91.5070 16.1329 -11.3632 14.2124
# 3 96.9297 91.5070 186.5638 3.9004 8.3824 18.8304
# 4 0.3993 16.1329 3.9004 57.1554 19.6968 -2.8035
# 5 -8.0692 -11.3632 8.3824 19.6968 63.8029 -2.3882
# 6 -10.2886 14.2124 18.8304 -2.8035 -2.3882 71.8378
#
#
#
# Elastic Compliance Matrix: (Units=1/GPa)
#
#
# Indices 1 2 3 4 5 6 
#
# 1 0.008293 -0.005560 -0.001901 0.001833 -0.000151 0.002853
# 2 -0.005560 0.016472 -0.004988 -0.006006 0.004634 -0.002828
# 3 -0.001901 -0.004988 0.009060 0.001724 -0.002915 -0.001690
# 4 0.001833 -0.006006 0.001724 0.021805 -0.007736 0.001592
# 5 -0.000151 0.004634 -0.002915 -0.007736 0.019257 0.000164
# 6 0.002853 -0.002828 -0.001690 0.001592 0.000164 0.015399
#
#
# Mechanical properties :
#
#
# Convention : Reuss Voigt Hill
#
# Bulk Modulus (GPa) = 112.01892 124.20502 118.11197
# Shear Modulus (GPa) = 42.31579 54.89153 48.60366
#
# Velocity S-wave (km/s) = 3.95176 4.50082 4.23520
# Velocity P-wave (km/s) = 7.88427 8.53505 8.21611
#
# Compressibility (1/GPa) = 0.00892706
#
# Stress axis : x y z
#
# Youngs Moduli (GPa) = 120.57800 60.70960 110.37924
#
# Poissons Ratio (x) = 0.33755 0.20985
# Poissons Ratio (y) = 0.67043 0.55053
# Poissons Ratio (z) = 0.22924 0.30280
#
# Static dielectric constant tensor:
#      x y z
#    x 2.132310 -0.010740 -0.023480 
#    y -0.010740 2.267950 -0.063500 
#    z -0.023480 -0.063500 2.167190 
# 
# From -- ./inp_files/293126.got.cif
#   From: 2010.05.17/outbox.cif.g08.bks.cpg/sg2_147_cif.got.tgz:293126.got - 2010.06.03 11:33:40.
