data_PCOD9045787
_publ_section_title
;
Structure prediction by ZEFSAII (Michael W. Deem and Ramdas Pophale) SiO2 
 PCOD9045787
Probable space group: P -1
;
_chemical_formula_sum "Si O2"
_cell_formula_units_Z 15
_cell_length_a 9.715479
_cell_length_b 19.208405
_cell_length_c 8.156578
_cell_angle_alpha 146.548795
_cell_angle_beta 128.910784
_cell_angle_gamma 44.831315
_cell_volume 588.956586
_symmetry_space_group_name_H-M "P -1"
_symmetry_group_IT_number 2
_symmetry_cell_setting 'triclinic'
loop_
_space_group_symop_operation_xyz
x,y,z
-x,-y,-z
loop_
_atom_site_type_symbol
_atom_site_label
_atom_site_fract_x
_atom_site_fract_y
_atom_site_fract_z
Si Si1 0.490792 0.190054 0.480700
Si Si2 0.221869 0.484576 0.485818
Si Si3 0.069720 0.224980 0.284661
Si Si4 0.960526 0.685218 0.198272
Si Si5 0.592606 0.230285 0.283884
Si Si6 0.676231 0.516997 0.082293
Si Si7 0.000000 0.000000 0.000000
Si Si8 0.641644 0.940435 0.334811
O O1 0.285773 0.176288 0.269334
O O2 0.607557 0.207646 0.447015
O O3 0.411057 0.340665 0.804709
O O4 0.622262 0.063312 0.443488
O O5 0.455327 0.391844 0.445741
O O6 0.210298 0.462452 0.630885
O O7 0.109424 0.652255 0.703944
O O8 0.124174 0.410309 0.147501
O O9 0.074849 0.302056 0.611284
O O10 0.045604 0.089032 0.058538
O O11 0.858232 0.846163 0.376972
O O12 0.184833 0.613779 0.175044
O O13 0.441219 0.160366 0.003249
O O14 0.788124 0.139081 0.152370
O O15 0.500000 0.500000 0.000000
O O16 0.500000 0.000000 0.500000
#
# Coordination Sequence:
#
# PCOD9045787 Si02
#       8
#     2   2   2   2   2   2   1   2
#     4  11  23  44  71  98 136 191 235 284 354 428
#     4  10  24  45  73 103 135 193 235 289 352 434
#     4  12  25  43  72 106 141 189 238 287 358 420
#     4  11  23  42  74 101 141 180 244 288 341 425
#     4  10  24  41  69  98 139 179 236 291 348 415
#     4  11  26  46  68 109 144 177 237 303 357 416
#     4  12  26  44  64 106 152 178 232 302 350 410
#     4  11  21  41  67 102 131 182 242 285 338 425
#
# _framework density 25.468772000000001
#
# number of rings (size 3 to 8) (size 9 to 14) (size 15 to 20)
#    0.000    1.067    4.000    1.200    7.467    0.533 
#    4.800    0.667    0.000    0.000    0.000    0.000 
#    0.000    0.000    0.000    0.000    0.000    0.000 
#
# Total GULP energy -83633.853209 kJ/mol
# GULP energy per Si atom -5575.590214 kJ/mol
# Density = 2.541080 g / cm^3
# Si number density = 25.468772 Si / 1000 Ang^3
#
#
#
# Elastic Constant Matrix: (Units=GPa)
#
#
# Indices 1 2 3 4 5 6 
#
# 1 118.2468 6.3679 1.0892 9.0374 -3.1547 -31.0778
# 2 6.3679 130.0015 11.4202 40.9122 8.4198 -17.3095
# 3 1.0892 11.4202 31.3449 8.5500 -11.1353 8.1536
# 4 9.0374 40.9122 8.5500 53.9516 5.1925 -2.5968
# 5 -3.1547 8.4198 -11.1353 5.1925 42.5069 11.9499
# 6 -31.0778 -17.3095 8.1536 -2.5968 11.9499 42.5466
#
#
#
# Elastic Compliance Matrix: (Units=1/GPa)
#
#
# Indices 1 2 3 4 5 6 
#
# 1 0.011327 0.002176 -0.004866 -0.001886 -0.003734 0.011025
# 2 0.002176 0.012083 -0.006735 -0.007494 -0.005585 0.008908
# 3 -0.004866 -0.006735 0.048722 -0.004806 0.020412 -0.021658
# 4 -0.001886 -0.007494 -0.004806 0.025497 -0.002694 -0.001193
# 5 -0.003734 -0.005585 0.020412 -0.002694 0.035376 -0.019012
# 6 0.011025 0.008908 -0.021658 -0.001193 -0.019012 0.044598
#
#
# Mechanical properties :
#
#
# Convention : Reuss Voigt Hill
#
# Bulk Modulus (GPa) = 18.76823 35.26087 27.01455
# Shear Modulus (GPa) = 23.34098 45.18208 34.26153
#
# Velocity S-wave (km/s) = 3.03058 4.21648 3.67173
# Velocity P-wave (km/s) = 4.43069 6.13023 5.34840
#
# Compressibility (1/GPa) = 0.05328154
#
# Stress axis : x y z
#
# Youngs Moduli (GPa) = 88.28691 82.75802 20.52447
#
# Poissons Ratio (x) = -0.18009 0.09988
# Poissons Ratio (y) = -0.19212 0.13823
# Poissons Ratio (z) = 0.42965 0.55738
#
# Static dielectric constant tensor:
#      x y z
#    x 1.768540 0.415640 -0.222080 
#    y 0.415640 1.052560 0.452870 
#    z -0.222080 0.452870 1.989950 
# 
# From -- ./inp_files/216194.got.cif
#   From: 2010.05.17/outbox.cif.g08.bks.cpg/sg2_109_cif.got.tgz:216194.got - 2010.06.03 11:33:40.
