data_PCOD9045230
_publ_section_title
;
Structure prediction by ZEFSAII (Michael W. Deem and Ramdas Pophale) SiO2 
 PCOD9045230
Probable space group: P -1
;
_chemical_formula_sum "Si O2"
_cell_formula_units_Z 16
_cell_length_a 8.968501
_cell_length_b 19.464066
_cell_length_c 14.342100
_cell_angle_alpha 156.392550
_cell_angle_beta 46.876828
_cell_angle_gamma 133.551576
_cell_volume 714.789749
_symmetry_space_group_name_H-M "P -1"
_symmetry_group_IT_number 2
_symmetry_cell_setting 'triclinic'
loop_
_space_group_symop_operation_xyz
x,y,z
-x,-y,-z
loop_
_atom_site_type_symbol
_atom_site_label
_atom_site_fract_x
_atom_site_fract_y
_atom_site_fract_z
Si Si1 0.582843 0.078692 0.673516
Si Si2 0.642602 0.127493 0.025850
Si Si3 0.122529 0.491277 0.531580
Si Si4 0.568565 0.736821 0.200299
Si Si5 0.212259 0.397708 0.906792
Si Si6 0.932455 0.870484 0.531473
Si Si7 0.494505 0.676609 0.829096
Si Si8 0.092817 0.387658 0.617236
O O1 0.436919 0.151464 0.751867
O O2 0.822439 0.086765 0.548435
O O3 0.485705 0.871753 0.474397
O O4 0.597020 0.213217 0.917898
O O5 0.775377 0.307090 0.235810
O O6 0.484469 0.193418 0.105140
O O7 0.500000 0.000000 0.000000
O O8 0.804594 0.025173 0.780084
O O9 0.298578 0.380612 0.299003
O O10 0.014162 0.399255 0.558912
O O11 0.000000 0.500000 0.500000
O O12 0.766016 0.701593 0.128462
O O13 0.421889 0.550653 0.005797
O O14 0.177718 0.273130 0.677014
O O15 0.030134 0.501723 0.126495
O O16 0.920256 0.790532 0.541931
O O17 0.329112 0.499404 0.653876
#
# Coordination Sequence:
#
# PCOD9045230 Si02
#       8
#     2   2   2   2   2   2   2   2
#     4  11  23  40  64 101 138 176 213 282 333 395
#     4  11  25  47  70  99 132 178 230 281 322 397
#     4  11  27  48  70  97 130 184 224 280 335 397
#     4  10  24  38  57  98 144 171 211 268 344 389
#     4  11  22  41  65  98 136 180 219 268 336 404
#     4  12  23  42  72 103 133 176 228 271 331 403
#     4  11  23  44  71  92 135 176 232 268 335 395
#     4  11  22  43  69  98 131 179 231 267 328 406
#
# _framework density 22.384205000000001
#
# number of rings (size 3 to 8) (size 9 to 14) (size 15 to 20)
#    0.000    1.000    2.500    4.875    5.250    2.000 
#    4.500    1.250    0.000    0.000    0.000    0.000 
#    0.000    0.000    0.000    0.000    0.000    0.000 
#
# Total GULP energy -89300.975708 kJ/mol
# GULP energy per Si atom -5581.310982 kJ/mol
# Density = 2.233326 g / cm^3
# Si number density = 22.384205 Si / 1000 Ang^3
#
#
#
# Elastic Constant Matrix: (Units=GPa)
#
#
# Indices 1 2 3 4 5 6 
#
# 1 145.5330 30.1308 45.6525 6.4531 -7.5526 -18.8839
# 2 30.1308 64.8361 25.4924 0.6510 2.5162 -4.3810
# 3 45.6525 25.4924 114.0302 -1.3242 -6.5777 7.6621
# 4 6.4531 0.6510 -1.3242 31.7730 0.1916 -5.8522
# 5 -7.5526 2.5162 -6.5777 0.1916 41.2721 3.5750
# 6 -18.8839 -4.3810 7.6621 -5.8522 3.5750 13.8985
#
#
#
# Elastic Compliance Matrix: (Units=1/GPa)
#
#
# Indices 1 2 3 4 5 6 
#
# 1 0.011195 -0.001924 -0.005259 0.000849 -0.000228 0.017920
# 2 -0.001924 0.018387 -0.003917 0.001059 -0.002663 0.006473
# 3 -0.005259 -0.003917 0.013032 -0.001438 0.002824 -0.016897
# 4 0.000849 0.001059 -0.001438 0.034403 -0.001790 0.017225
# 5 -0.000228 -0.002663 0.002824 -0.001790 0.025680 -0.010066
# 6 0.017920 0.006473 -0.016897 0.017225 -0.010066 0.117495
#
#
# Mechanical properties :
#
#
# Convention : Reuss Voigt Hill
#
# Bulk Modulus (GPa) = 48.98232 58.55008 53.76620
# Shear Modulus (GPa) = 20.06435 32.26363 26.16399
#
# Velocity S-wave (km/s) = 2.99718 3.80064 3.42257
# Velocity P-wave (km/s) = 5.82301 6.74340 6.30004
#
# Compressibility (1/GPa) = 0.02041553
#
# Stress axis : x y z
#
# Youngs Moduli (GPa) = 89.32440 54.38485 76.73170
#
# Poissons Ratio (x) = 0.10461 0.40357
# Poissons Ratio (y) = 0.17182 0.30054
# Poissons Ratio (z) = 0.46980 0.21301
#
# Static dielectric constant tensor:
#      x y z
#    x 1.855100 -0.004450 0.027330 
#    y -0.004450 1.880610 0.001260 
#    z 0.027330 0.001260 1.855260 
# 
# From -- ./inp_files/508166.got.cif
#   From: 2010.05.17/outbox.cif.g08.bks.cpg/sg2_255_cif.got.tgz:508166.got - 2010.06.03 11:33:40.
