data_PCOD9045453
_publ_section_title
;
Structure prediction by ZEFSAII (Michael W. Deem and Ramdas Pophale) SiO2 
 PCOD9045453
Probable space group: P -1
;
_chemical_formula_sum "Si O2"
_cell_formula_units_Z 12
_cell_length_a 22.699751
_cell_length_b 4.669110
_cell_length_c 5.347944
_cell_angle_alpha 88.088114
_cell_angle_beta 61.751198
_cell_angle_gamma 70.510051
_cell_volume 465.373821
_symmetry_space_group_name_H-M "P -1"
_symmetry_group_IT_number 2
_symmetry_cell_setting 'triclinic'
loop_
_space_group_symop_operation_xyz
x,y,z
-x,-y,-z
loop_
_atom_site_type_symbol
_atom_site_label
_atom_site_fract_x
_atom_site_fract_y
_atom_site_fract_z
Si Si1 0.179058 0.223404 0.532929
Si Si2 0.611744 0.332022 0.289878
Si Si3 0.671175 0.724891 0.882535
Si Si4 0.896108 0.147827 0.118436
Si Si5 0.935917 0.806871 0.548777
Si Si6 0.433434 0.137783 0.312880
O O1 0.326029 0.529069 0.903690
O O2 0.123368 0.498960 0.796214
O O3 0.139114 0.242015 0.347776
O O4 0.253305 0.262227 0.344639
O O5 0.553125 0.667230 0.484801
O O6 0.624040 0.072236 0.058055
O O7 0.598316 0.119831 0.538350
O O8 0.822550 0.079671 0.318815
O O9 0.629592 0.639143 0.741316
O O10 0.943657 0.947917 0.258386
O O11 0.924102 0.041509 0.791852
O O12 0.000000 0.500000 0.500000
O O13 0.500000 0.000000 0.000000
#
# Coordination Sequence:
#
# PCOD9045453 Si02
#       6
#     2   2   2   2   2   2
#     4  10  25  41  64  96 127 176 216 281 330 402
#     4  10  24  40  67  94 126 177 214 273 329 396
#     4  11  23  44  62  94 131 168 223 269 336 390
#     4  10  24  41  68  95 134 173 224 274 336 398
#     4  10  24  44  67  99 133 175 222 277 335 400
#     4  11  24  41  64  98 131 172 220 271 329 396
#
# _framework density 25.785722
#
# number of rings (size 3 to 8) (size 9 to 14) (size 15 to 20)
#    1.000    0.667    0.000    3.000    2.333    9.333 
#    0.000    0.000    0.000    0.000    0.000    0.000 
#    0.000    0.000    0.000    0.000    0.000    0.000 
#
# Total GULP energy -66919.981386 kJ/mol
# GULP energy per Si atom -5576.665116 kJ/mol
# Density = 2.572703 g / cm^3
# Si number density = 25.785722 Si / 1000 Ang^3
#
#
#
# Elastic Constant Matrix: (Units=GPa)
#
#
# Indices 1 2 3 4 5 6 
#
# 1 113.2548 17.1352 45.4578 0.9098 2.5013 11.9317
# 2 17.1352 129.8144 42.0709 3.5277 11.0756 27.2424
# 3 45.4578 42.0709 135.5788 0.6172 19.8762 11.2915
# 4 0.9098 3.5277 0.6172 54.0091 17.7180 1.0535
# 5 2.5013 11.0756 19.8762 17.7180 29.6092 3.5917
# 6 11.9317 27.2424 11.2915 1.0535 3.5917 34.7124
#
#
#
# Elastic Compliance Matrix: (Units=1/GPa)
#
#
# Indices 1 2 3 4 5 6 
#
# 1 0.010537 0.000222 -0.003714 -0.000877 0.002385 -0.002809
# 2 0.000222 0.010045 -0.002422 -0.000087 -0.001244 -0.007040
# 3 -0.003714 -0.002422 0.010392 0.002489 -0.007303 0.000477
# 4 -0.000877 -0.000087 0.002489 0.023678 -0.015791 0.000475
# 5 0.002385 -0.001244 -0.007303 -0.015791 0.048634 -0.002021
# 6 -0.002809 -0.007040 0.000477 0.000475 -0.002021 0.035338
#
#
# Mechanical properties :
#
#
# Convention : Reuss Voigt Hill
#
# Bulk Modulus (GPa) = 52.22829 65.33064 58.77946
# Shear Modulus (GPa) = 31.88076 41.93174 36.90625
#
# Velocity S-wave (km/s) = 3.52002 4.03694 3.78731
# Velocity P-wave (km/s) = 6.06790 6.86442 6.47841
#
# Compressibility (1/GPa) = 0.01914671
#
# Stress axis : x y z
#
# Youngs Moduli (GPa) = 94.90519 99.55179 96.22562
#
# Poissons Ratio (x) = -0.02214 0.35735
# Poissons Ratio (y) = -0.02111 0.23310
# Poissons Ratio (z) = 0.35245 0.24116
#
# Static dielectric constant tensor:
#      x y z
#    x 2.054150 0.003540 -0.026770 
#    y 0.003540 2.016680 -0.019800 
#    z -0.026770 -0.019800 2.031990 
# 
# From -- ./inp_files/102666.got.cif
#   From: 2010.05.17/outbox.cif.g08.bks.cpg/sg2_52_cif.got.tgz:102666.got - 2010.06.03 11:33:40.
