data_PCOD9045373
_publ_section_title
;
Structure prediction by ZEFSAII (Michael W. Deem and Ramdas Pophale) SiO2 
 PCOD9045373
Probable space group: P -1
;
_chemical_formula_sum "Si O2"
_cell_formula_units_Z 14
_cell_length_a 9.222985
_cell_length_b 14.595181
_cell_length_c 7.460863
_cell_angle_alpha 109.753959
_cell_angle_beta 130.111585
_cell_angle_gamma 50.396537
_cell_volume 587.270304
_symmetry_space_group_name_H-M "P -1"
_symmetry_group_IT_number 2
_symmetry_cell_setting 'triclinic'
loop_
_space_group_symop_operation_xyz
x,y,z
-x,-y,-z
loop_
_atom_site_type_symbol
_atom_site_label
_atom_site_fract_x
_atom_site_fract_y
_atom_site_fract_z
Si Si1 0.577057 0.854353 0.485929
Si Si2 0.335242 0.301237 0.061849
Si Si3 0.714570 0.059783 0.048529
Si Si4 0.270257 0.399083 0.675258
Si Si5 0.875812 0.917013 0.625319
Si Si6 0.505801 0.397976 0.544631
Si Si7 0.968640 0.798314 0.240814
O O1 0.656956 0.720855 0.452219
O O2 0.797850 0.860094 0.671760
O O3 0.362519 0.948950 0.503312
O O4 0.464757 0.903606 0.231177
O O5 0.317490 0.363780 0.898823
O O6 0.136884 0.278436 0.910840
O O7 0.570757 0.166268 0.147248
O O8 0.349797 0.372596 0.281254
O O9 0.923090 0.067687 0.156226
O O10 0.813652 0.929646 0.115535
O O11 0.413317 0.435422 0.698877
O O12 0.000000 0.500000 0.500000
O O13 0.960792 0.831431 0.465075
O O14 0.500000 0.500000 0.500000
O O15 0.770069 0.279544 0.676400
#
# Coordination Sequence:
#
# PCOD9045373 Si02
#       7
#     2   2   2   2   2   2   2
#     4  10  24  40  63 105 141 182 236 281 354 414
#     4  11  26  48  73 104 145 183 234 292 354 421
#     4  11  22  38  68 103 143 182 227 283 350 413
#     4  11  25  48  74 100 142 187 237 291 350 414
#     4  11  21  38  66  97 144 181 224 286 342 417
#     4  12  29  49  75 104 138 186 242 292 352 419
#     4  12  24  43  69 107 144 186 231 288 355 416
#
# _framework density 23.839106000000001
#
# number of rings (size 3 to 8) (size 9 to 14) (size 15 to 20)
#    0.000    0.857    4.286    3.000    2.000    5.143 
#    0.000    1.429    0.000    0.000    0.000    0.000 
#    0.000    0.000    0.000    0.000    0.000    0.000 
#
# Total GULP energy -78338.756581 kJ/mol
# GULP energy per Si atom -5595.625470 kJ/mol
# Density = 2.378485 g / cm^3
# Si number density = 23.839106 Si / 1000 Ang^3
#
#
#
# Elastic Constant Matrix: (Units=GPa)
#
#
# Indices 1 2 3 4 5 6 
#
# 1 51.2062 -47.6229 15.8872 -15.2264 3.8104 5.1668
# 2 -47.6229 30.0369 -3.5060 -21.2045 -9.1206 5.9299
# 3 15.8872 -3.5060 51.0924 13.8482 -4.6876 9.6304
# 4 -15.2264 -21.2045 13.8482 42.9097 7.7230 5.8503
# 5 3.8104 -9.1206 -4.6876 7.7230 34.6667 -12.8087
# 6 5.1668 5.9299 9.6304 5.8503 -12.8087 48.8269
#
#
#
# Elastic Compliance Matrix: (Units=1/GPa)
#
#
# Indices 1 2 3 4 5 6 
#
# 1 -0.006760 -0.021606 0.003905 -0.015066 0.000619 0.004537
# 2 -0.021606 -0.012335 0.010634 -0.019251 0.007011 0.005833
# 3 0.003905 0.010634 0.020257 0.000177 0.003271 -0.004863
# 4 -0.015066 -0.019251 0.000177 0.009046 -0.004829 0.001547
# 5 0.000619 0.007011 0.003271 -0.004829 0.035188 0.008247
# 6 0.004537 0.005833 -0.004863 0.001547 0.008247 0.022229
#
#
# Mechanical properties :
#
#
# Convention : Reuss Voigt Hill
#
# Bulk Modulus (GPa) = -77.07806 6.87244 -35.10281
# Shear Modulus (GPa) = 64.56982 36.45248 50.51115
#
# Velocity S-wave (km/s) = 5.21004 3.91462 4.60807
# Velocity P-wave (km/s) = 1.94675 4.82923 3.68180
#
# Compressibility (1/GPa) = -0.01297386
#
# Stress axis : x y z
#
# Youngs Moduli (GPa) = -147.92311 -81.06949 49.36646
#
# Poissons Ratio (x) = -1.75158 -0.19276
# Poissons Ratio (y) = -3.19601 -0.52494
# Poissons Ratio (z) = 0.57759 0.86206
#
# Static dielectric constant tensor:
#      x y z
#    x 1.987380 0.041610 0.001040 
#    y 0.041610 1.902340 0.015400 
#    z 0.001040 0.015400 1.901260 
# 
# From -- ./inp_files/203312.got.cif
#   From: 2010.05.17/outbox.cif.g08.bks.cpg/sg2_102_cif.got.tgz:203312.got - 2010.06.03 11:33:40.
