data_PCOD9045940
_publ_section_title
;
Structure prediction by ZEFSAII (Michael W. Deem and Ramdas Pophale) SiO2 
 PCOD9045940
Probable space group: P -1
;
_chemical_formula_sum "Si O2"
_cell_formula_units_Z 12
_cell_length_a 23.847000
_cell_length_b 9.422960
_cell_length_c 5.104737
_cell_angle_alpha 55.177284
_cell_angle_beta 129.820460
_cell_angle_gamma 147.420430
_cell_volume 473.032899
_symmetry_space_group_name_H-M "P -1"
_symmetry_group_IT_number 2
_symmetry_cell_setting 'triclinic'
loop_
_space_group_symop_operation_xyz
x,y,z
-x,-y,-z
loop_
_atom_site_type_symbol
_atom_site_label
_atom_site_fract_x
_atom_site_fract_y
_atom_site_fract_z
Si Si1 0.622926 0.583113 0.187608
Si Si2 0.194621 0.470698 0.749395
Si Si3 0.851249 0.962493 0.669210
Si Si4 0.942181 0.529706 0.996944
Si Si5 0.736851 0.069675 0.224843
Si Si6 0.583913 0.307216 0.892151
O O1 0.758898 0.798748 0.337234
O O2 0.562859 0.421745 0.914717
O O3 0.624094 0.787384 0.063027
O O4 0.591347 0.398647 0.526501
O O5 0.097181 0.375765 0.385139
O O6 0.254809 0.737479 0.800594
O O7 0.297188 0.564238 0.812847
O O8 0.145043 0.227288 0.029675
O O9 0.784336 0.989240 0.616339
O O10 0.974968 0.260748 0.743238
O O11 0.829312 0.259765 0.074756
O O12 0.000000 0.500000 0.000000
O O13 0.500000 0.000000 0.000000
#
# Coordination Sequence:
#
# PCOD9045940 Si02
#       6
#     2   2   2   2   2   2
#     4   9  23  43  72  96 141 177 220 294 347 402
#     4  11  25  41  68  98 133 188 232 281 340 411
#     4   9  22  41  61  96 139 178 227 269 342 392
#     4  12  23  39  66  97 143 187 226 277 335 412
#     4  10  24  42  64  97 146 177 233 277 340 401
#     4  11  24  48  74 101 133 179 233 293 353 411
#
# _framework density 25.368217999999999
#
# number of rings (size 3 to 8) (size 9 to 14) (size 15 to 20)
#    1.000    0.667    1.667    1.500   11.667    0.667 
#    0.000    1.667    0.000    0.000    0.000    0.000 
#    0.000    0.000    0.000    0.000    0.000    0.000 
#
# Total GULP energy -66923.043378 kJ/mol
# GULP energy per Si atom -5576.920281 kJ/mol
# Density = 2.531048 g / cm^3
# Si number density = 25.368218 Si / 1000 Ang^3
#
#
#
# Elastic Constant Matrix: (Units=GPa)
#
#
# Indices 1 2 3 4 5 6 
#
# 1 96.7537 26.4649 14.4521 2.1393 0.8681 -20.4363
# 2 26.4649 163.5365 -3.5623 -19.3691 -22.9062 -35.7797
# 3 14.4521 -3.5623 70.1526 -15.4403 10.2227 -11.9820
# 4 2.1393 -19.3691 -15.4403 36.4071 -7.1120 4.1466
# 5 0.8681 -22.9062 10.2227 -7.1120 40.1414 -0.2727
# 6 -20.4363 -35.7797 -11.9820 4.1466 -0.2727 38.1392
#
#
#
# Elastic Compliance Matrix: (Units=1/GPa)
#
#
# Indices 1 2 3 4 5 6 
#
# 1 0.012180 -0.001535 -0.002347 -0.003276 -0.001090 0.004697
# 2 -0.001535 0.010064 0.002939 0.006918 0.006313 0.008835
# 3 -0.002347 0.002939 0.017985 0.008360 -0.001329 0.006231
# 4 -0.003276 0.006918 0.008360 0.036111 0.008311 0.003494
# 5 -0.001090 0.006313 -0.001329 0.008311 0.030378 0.004235
# 6 0.004697 0.008835 0.006231 0.003494 0.004235 0.038633
#
#
# Mechanical properties :
#
#
# Convention : Reuss Voigt Hill
#
# Bulk Modulus (GPa) = 26.08046 45.01690 35.54868
# Shear Modulus (GPa) = 31.24622 42.47674 36.86148
#
# Velocity S-wave (km/s) = 3.51338 4.09639 3.81603
# Velocity P-wave (km/s) = 5.17315 6.33702 5.78443
#
# Compressibility (1/GPa) = 0.03834289
#
# Stress axis : x y z
#
# Youngs Moduli (GPa) = 82.09892 99.36509 55.60097
#
# Poissons Ratio (x) = 0.15255 0.13050
# Poissons Ratio (y) = 0.12604 -0.16341
# Poissons Ratio (z) = 0.19269 -0.29202
#
# Static dielectric constant tensor:
#      x y z
#    x 2.054680 0.020120 0.035880 
#    y 0.020120 2.101300 -0.010630 
#    z 0.035880 -0.010630 2.072550 
# 
# From -- ./inp_files/41379.got.cif
#   From: 2010.05.17/outbox.cif.g08.bks.cpg/sg2_21_cif.got.tgz:41379.got - 2010.06.03 11:33:40.
