data_PCOD9045311
_publ_section_title
;
Structure prediction by ZEFSAII (Michael W. Deem and Ramdas Pophale) SiO2 
 PCOD9045311
Probable space group: P -1
;
_chemical_formula_sum "Si O2"
_cell_formula_units_Z 16
_cell_length_a 21.378185
_cell_length_b 12.225902
_cell_length_c 18.233542
_cell_angle_alpha 141.128490
_cell_angle_beta 19.154044
_cell_angle_gamma 150.478374
_cell_volume 742.159524
_symmetry_space_group_name_H-M "P -1"
_symmetry_group_IT_number 2
_symmetry_cell_setting 'triclinic'
loop_
_space_group_symop_operation_xyz
x,y,z
-x,-y,-z
loop_
_atom_site_type_symbol
_atom_site_label
_atom_site_fract_x
_atom_site_fract_y
_atom_site_fract_z
Si Si1 0.680157 0.765758 0.463437
Si Si2 0.640405 0.710720 0.898209
Si Si3 0.841429 0.421690 0.248163
Si Si4 0.821985 0.144067 0.998542
Si Si5 0.003671 0.285986 0.127862
Si Si6 0.766243 0.020841 0.641429
Si Si7 0.319691 0.159487 0.655296
Si Si8 0.578251 0.299650 0.014901
O O1 0.500000 0.500000 0.500000
O O2 0.679893 0.885674 0.454645
O O3 0.947249 0.837673 0.220427
O O4 0.622066 0.836095 0.638082
O O5 0.506106 0.645285 0.934380
O O6 0.933874 0.831231 0.623360
O O7 0.634692 0.899167 0.039941
O O8 0.500000 0.500000 0.000000
O O9 0.589169 0.385389 0.505734
O O10 0.067599 0.657154 0.080775
O O11 0.916460 0.389264 0.225677
O O12 0.757037 0.215401 0.179386
O O13 0.128799 0.206789 0.900109
O O14 0.209392 0.474076 0.055900
O O15 0.776176 0.057275 0.302974
O O16 0.659768 0.880300 0.762121
O O17 0.693413 0.180181 0.803714
#
# Coordination Sequence:
#
# PCOD9045311 Si02
#       8
#     2   2   2   2   2   2   2   2
#     4  11  20  41  69  97 130 175 222 280 337 393
#     4  11  27  46  69  99 138 182 227 285 343 401
#     4  11  23  41  67 102 131 172 221 279 341 397
#     4  10  24  39  67  98 132 166 226 279 329 407
#     4  11  26  42  66 100 139 175 226 273 346 405
#     4  10  26  44  70  99 135 179 234 278 334 412
#     4  11  24  41  67  99 139 177 217 285 341 402
#     4  11  26  45  70  98 135 187 225 279 335 412
#
# _framework density 21.558706999999998
#
# number of rings (size 3 to 8) (size 9 to 14) (size 15 to 20)
#    0.000    1.250    2.500    1.500   10.500    2.500 
#    0.000    0.000    0.000    0.000    0.000    0.000 
#    0.000    0.000    0.000    0.000    0.000    0.000 
#
# Total GULP energy -89475.673340 kJ/mol
# GULP energy per Si atom -5592.229584 kJ/mol
# Density = 2.150964 g / cm^3
# Si number density = 21.558707 Si / 1000 Ang^3
#
#
#
# Elastic Constant Matrix: (Units=GPa)
#
#
# Indices 1 2 3 4 5 6 
#
# 1 187.1928 44.9707 34.1777 -7.6635 0.1124 -9.0979
# 2 44.9707 76.0601 19.0527 -0.1068 18.1678 5.6529
# 3 34.1777 19.0527 59.0615 -4.3929 7.3365 -2.8011
# 4 -7.6635 -0.1068 -4.3929 24.4023 0.3075 2.8821
# 5 0.1124 18.1678 7.3365 0.3075 26.7762 1.6718
# 6 -9.0979 5.6529 -2.8011 2.8821 1.6718 26.2258
#
#
#
# Elastic Compliance Matrix: (Units=1/GPa)
#
#
# Indices 1 2 3 4 5 6 
#
# 1 0.007162 -0.004598 -0.002888 0.001334 0.003692 0.002785
# 2 -0.004598 0.019853 -0.002527 -0.001037 -0.012420 -0.005239
# 3 -0.002888 -0.002527 0.020177 0.002567 -0.003935 0.001666
# 4 0.001334 -0.001037 0.002567 0.042293 -0.000262 -0.003671
# 5 0.003692 -0.012420 -0.003935 -0.000262 0.046803 0.000583
# 6 0.002785 -0.005239 0.001666 -0.003671 0.000583 0.040770
#
#
# Mechanical properties :
#
#
# Convention : Reuss Voigt Hill
#
# Bulk Modulus (GPa) = 36.81045 57.63517 47.22281
# Shear Modulus (GPa) = 24.25548 30.42177 27.33862
#
# Velocity S-wave (km/s) = 3.35787 3.76055 3.56490
# Velocity P-wave (km/s) = 5.66969 6.75631 6.23671
#
# Compressibility (1/GPa) = 0.02716620
#
# Stress axis : x y z
#
# Youngs Moduli (GPa) = 139.63049 50.36924 49.56178
#
# Poissons Ratio (x) = 0.23159 0.14316
# Poissons Ratio (y) = 0.64199 0.12522
# Poissons Ratio (z) = 0.40332 0.12727
#
# Static dielectric constant tensor:
#      x y z
#    x 1.765940 0.017450 0.009990 
#    y 0.017450 1.794370 0.006370 
#    z 0.009990 0.006370 1.863420 
# 
# From -- ./inp_files/577977.got.cif
#   From: 2010.05.17/outbox.cif.g08.bks.cpg/sg2_289_cif.got.tgz:577977.got - 2010.06.03 11:33:40.
