data_PCOD9045695
_publ_section_title
;
Structure prediction by ZEFSAII (Michael W. Deem and Ramdas Pophale) SiO2 
 PCOD9045695
Probable space group: P -1
;
_chemical_formula_sum "Si O2"
_cell_formula_units_Z 16
_cell_length_a 11.170189
_cell_length_b 20.165992
_cell_length_c 8.419817
_cell_angle_alpha 59.423419
_cell_angle_beta 44.570765
_cell_angle_gamma 34.312751
_cell_volume 734.925564
_symmetry_space_group_name_H-M "P -1"
_symmetry_group_IT_number 2
_symmetry_cell_setting 'triclinic'
loop_
_space_group_symop_operation_xyz
x,y,z
-x,-y,-z
loop_
_atom_site_type_symbol
_atom_site_label
_atom_site_fract_x
_atom_site_fract_y
_atom_site_fract_z
Si Si1 0.294201 0.364182 0.886595
Si Si2 0.484973 0.645181 0.990347
Si Si3 0.738249 0.786970 0.980216
Si Si4 0.795457 0.381035 0.020783
Si Si5 0.359777 0.045684 0.354378
Si Si6 0.225638 0.935716 0.496436
Si Si7 0.894861 0.813223 0.266727
Si Si8 0.529401 0.305190 0.380710
O O1 0.394922 0.340741 0.637669
O O2 0.452255 0.348745 0.899663
O O3 0.301747 0.270475 0.030309
O O4 0.000000 0.500000 0.000000
O O5 0.586014 0.521855 0.034977
O O6 0.621058 0.639499 0.715364
O O7 0.169536 0.760471 0.115921
O O8 0.730754 0.873637 0.808142
O O9 0.493939 0.865251 0.235709
O O10 0.012651 0.673190 0.946068
O O11 0.993883 0.303098 0.777341
O O12 0.664506 0.342555 0.214428
O O13 0.272128 0.128145 0.486056
O O14 0.208015 0.015734 0.531382
O O15 0.679562 0.923852 0.213344
O O16 0.276040 0.835458 0.648279
O O17 0.000000 0.000000 0.500000
#
# Coordination Sequence:
#
# PCOD9045695 Si02
#       8
#     2   2   2   2   2   2   2   2
#     4  11  25  46  64 107 138 175 230 279 340 412
#     4  11  25  45  73  99 138 181 233 281 338 417
#     4  11  24  41  69  97 138 177 224 282 343 407
#     4  11  22  47  69  99 133 180 233 274 342 412
#     4  11  24  43  67  99 136 179 224 287 336 409
#     4  11  24  41  67  98 136 182 226 277 345 414
#     4  10  24  41  66  99 134 172 237 275 337 406
#     4  10  25  43  69  99 135 180 223 284 343 391
#
# _framework density 21.770913
#
# number of rings (size 3 to 8) (size 9 to 14) (size 15 to 20)
#    0.000    1.250    2.500    2.625    8.750    5.000 
#    0.000    3.125    0.000    0.000    0.000    0.000 
#    0.000    0.000    0.000    0.000    0.000    0.000 
#
# Total GULP energy -89179.705442 kJ/mol
# GULP energy per Si atom -5573.731590 kJ/mol
# Density = 2.172136 g / cm^3
# Si number density = 21.770913 Si / 1000 Ang^3
#
#
#
# Elastic Constant Matrix: (Units=GPa)
#
#
# Indices 1 2 3 4 5 6 
#
# 1 80.9475 41.1044 24.0771 -1.9623 4.5327 -5.7221
# 2 41.1044 124.0373 47.0453 -12.2870 -2.2753 1.1097
# 3 24.0771 47.0453 56.6773 -11.4220 6.3792 -4.3763
# 4 -1.9623 -12.2870 -11.4220 36.5648 2.5433 -0.5932
# 5 4.5327 -2.2753 6.3792 2.5433 26.0896 -0.7560
# 6 -5.7221 1.1097 -4.3763 -0.5932 -0.7560 47.2438
#
#
#
# Elastic Compliance Matrix: (Units=1/GPa)
#
#
# Indices 1 2 3 4 5 6 
#
# 1 0.015597 -0.004205 -0.003037 -0.001348 -0.002154 0.001655
# 2 -0.004205 0.013300 -0.009659 0.000913 0.004116 -0.001639
# 3 -0.003037 -0.009659 0.029331 0.006353 -0.008033 0.002527
# 4 -0.001348 0.000913 0.006353 0.029867 -0.004131 0.000713
# 5 -0.002154 0.004116 -0.008033 -0.004131 0.041415 -0.000491
# 6 0.001655 -0.001639 0.002527 0.000713 -0.000491 0.021641
#
#
# Mechanical properties :
#
#
# Convention : Reuss Voigt Hill
#
# Bulk Modulus (GPa) = 40.93930 54.01285 47.47608
# Shear Modulus (GPa) = 25.89417 31.94201 28.91809
#
# Velocity S-wave (km/s) = 3.45250 3.83454 3.64853
# Velocity P-wave (km/s) = 5.89393 6.66847 6.29313
#
# Compressibility (1/GPa) = 0.02442641
#
# Stress axis : x y z
#
# Youngs Moduli (GPa) = 64.11459 75.19060 34.09371
#
# Poissons Ratio (x) = 0.31615 0.10354
# Poissons Ratio (y) = 0.26958 0.32931
# Poissons Ratio (z) = 0.19472 0.72626
#
# Static dielectric constant tensor:
#      x y z
#    x 1.894400 0.023770 0.025760 
#    y 0.023770 1.793740 0.019060 
#    z 0.025760 0.019060 1.828700 
# 
# From -- ./inp_files/282860.got.cif
#   From: 2010.05.17/outbox.cif.g08.bks.cpg/sg2_142_cif.got.tgz:282860.got - 2010.06.03 11:33:40.
