data_PCOD9045281
_publ_section_title
;
Structure prediction by ZEFSAII (Michael W. Deem and Ramdas Pophale) SiO2 
 PCOD9045281
Probable space group: P -1
;
_chemical_formula_sum "Si O2"
_cell_formula_units_Z 10
_cell_length_a 5.238439
_cell_length_b 4.963156
_cell_length_c 21.067517
_cell_angle_alpha 60.478738
_cell_angle_beta 124.566134
_cell_angle_gamma 124.002498
_cell_volume 361.361826
_symmetry_space_group_name_H-M "P -1"
_symmetry_group_IT_number 2
_symmetry_cell_setting 'triclinic'
loop_
_space_group_symop_operation_xyz
x,y,z
-x,-y,-z
loop_
_atom_site_type_symbol
_atom_site_label
_atom_site_fract_x
_atom_site_fract_y
_atom_site_fract_z
Si Si1 0.650684 0.201408 0.799611
Si Si2 0.125945 0.865394 0.867845
Si Si3 0.685494 0.738751 0.636424
Si Si4 0.740116 0.878140 0.419744
Si Si5 0.245531 0.289706 0.955677
O O1 0.301745 0.030481 0.806751
O O2 0.670350 0.456159 0.717494
O O3 0.767924 0.909282 0.825942
O O4 0.929591 0.431075 0.865135
O O5 0.376318 0.675236 0.958604
O O6 0.313325 0.185169 0.908420
O O7 0.559173 0.002680 0.620233
O O8 0.044855 0.924804 0.633256
O O9 0.417890 0.519145 0.570587
O O10 0.000000 0.000000 0.500000
O O11 0.000000 0.000000 0.000000
#
# Coordination Sequence:
#
# PCOD9045281 Si02
#       5
#     2   2   2   2   2
#     4  10  26  40  66  95 130 172 224 269 336 394
#     4  10  24  39  64  88 131 162 228 266 333 390
#     4  12  26  43  75 100 144 182 228 285 339 408
#     4  12  26  47  72 106 140 182 228 280 345 411
#     4  10  24  42  64  92 129 170 219 274 330 392
#
# _framework density 27.673095
#
# number of rings (size 3 to 8) (size 9 to 14) (size 15 to 20)
#    1.200    0.000    0.000    4.800    8.400    1.600 
#    0.000    0.000    0.000    0.000    0.000    0.000 
#    0.000    0.000    0.000    0.000    0.000    0.000 
#
# Total GULP energy -56051.206761 kJ/mol
# GULP energy per Si atom -5605.120676 kJ/mol
# Density = 2.761011 g / cm^3
# Si number density = 27.673095 Si / 1000 Ang^3
#
#
#
# Elastic Constant Matrix: (Units=GPa)
#
#
# Indices 1 2 3 4 5 6 
#
# 1 227.0198 82.3582 26.1893 -24.9275 -20.3838 -28.0301
# 2 82.3582 152.3343 -4.4551 0.5943 -11.4118 6.0316
# 3 26.1893 -4.4551 87.3352 -4.3910 -15.1213 7.2369
# 4 -24.9275 0.5943 -4.3910 54.5538 5.6240 8.0682
# 5 -20.3838 -11.4118 -15.1213 5.6240 39.6627 -16.7266
# 6 -28.0301 6.0316 7.2369 8.0682 -16.7266 66.9660
#
#
#
# Elastic Compliance Matrix: (Units=1/GPa)
#
#
# Indices 1 2 3 4 5 6 
#
# 1 0.007025 -0.003787 -0.001978 0.002172 0.003155 0.004022
# 2 -0.003787 0.008798 0.001790 -0.001398 0.000506 -0.002277
# 3 -0.001978 0.001790 0.012912 -0.000069 0.003833 -0.001419
# 4 0.002172 -0.001398 -0.000069 0.019959 -0.003037 -0.002121
# 5 0.003155 0.000506 0.003833 -0.003037 0.032849 0.009432
# 6 0.004022 -0.002277 -0.001419 -0.002121 0.009432 0.019586
#
#
# Mechanical properties :
#
#
# Convention : Reuss Voigt Hill
#
# Bulk Modulus (GPa) = 48.10873 74.98600 61.54736
# Shear Modulus (GPa) = 43.10038 56.40961 49.75499
#
# Velocity S-wave (km/s) = 3.95078 4.51979 4.24483
# Velocity P-wave (km/s) = 6.18336 7.37522 6.80543
#
# Compressibility (1/GPa) = 0.02078625
#
# Stress axis : x y z
#
# Youngs Moduli (GPa) = 142.33990 113.66218 77.44571
#
# Poissons Ratio (x) = 0.43049 0.15317
# Poissons Ratio (y) = 0.53911 -0.13866
# Poissons Ratio (z) = 0.28151 -0.20351
#
# Static dielectric constant tensor:
#      x y z
#    x 2.025360 -0.061850 0.129320 
#    y -0.061850 2.087920 0.120230 
#    z 0.129320 0.120230 2.359970 
# 
# From -- ./inp_files/5814.got.cif
#   From: 2010.05.17/outbox.cif.g08.bks.cpg/sg2_3_cif.got.tgz:5814.got - 2010.06.03 11:33:40.
