data_PCOD9045098
_publ_section_title
;
Structure prediction by ZEFSAII (Michael W. Deem and Ramdas Pophale) SiO2 
 PCOD9045098
Probable space group: P -1
;
_chemical_formula_sum "Si O2"
_cell_formula_units_Z 14
_cell_length_a 14.153504
_cell_length_b 14.852067
_cell_length_c 8.860432
_cell_angle_alpha 38.594305
_cell_angle_beta 130.061945
_cell_angle_gamma 150.875672
_cell_volume 560.762256
_symmetry_space_group_name_H-M "P -1"
_symmetry_group_IT_number 2
_symmetry_cell_setting 'triclinic'
loop_
_space_group_symop_operation_xyz
x,y,z
-x,-y,-z
loop_
_atom_site_type_symbol
_atom_site_label
_atom_site_fract_x
_atom_site_fract_y
_atom_site_fract_z
Si Si1 0.966131 0.799599 0.271520
Si Si2 0.842735 0.142060 0.315532
Si Si3 0.707427 0.985745 0.870228
Si Si4 0.576165 0.482718 0.953263
Si Si5 0.580033 0.148275 0.040299
Si Si6 0.448917 0.626474 0.486388
Si Si7 0.990241 0.130588 0.209988
O O1 0.043164 0.844210 0.460913
O O2 0.098290 0.813010 0.290097
O O3 0.808834 0.674798 0.931802
O O4 0.000000 0.000000 0.000000
O O5 0.634982 0.873500 0.428291
O O6 0.955409 0.231890 0.155711
O O7 0.776125 0.241951 0.161036
O O8 0.589354 0.003131 0.810959
O O9 0.554344 0.775672 0.871671
O O10 0.801931 0.966105 0.122100
O O11 0.520257 0.527880 0.689092
O O12 0.500000 0.500000 0.000000
O O13 0.742195 0.549398 0.374777
O O14 0.607219 0.338830 0.767718
O O15 0.500000 0.000000 0.000000
O O16 0.000000 0.000000 0.500000
#
# Coordination Sequence:
#
# PCOD9045098 Si02
#       7
#     2   2   2   2   2   2   2
#     4  12  26  42  71 107 143 179 235 295 365 420
#     4  11  25  47  71 101 147 181 239 300 338 428
#     4  12  25  45  71 102 145 187 233 297 358 420
#     4  12  26  42  68 110 145 178 233 295 364 421
#     4  10  23  49  70  98 143 192 242 292 342 424
#     4  11  23  43  72  97 144 183 226 296 354 406
#     4  12  24  40  72 103 134 186 237 286 359 417
#
# _framework density 24.966017999999998
#
# number of rings (size 3 to 8) (size 9 to 14) (size 15 to 20)
#    0.000    0.571    5.714    2.571    2.000    2.286 
#    0.000    2.857    0.000    0.000    0.000    0.000 
#    0.000    0.000    0.000    0.000    0.000    0.000 
#
# Total GULP energy -78274.072187 kJ/mol
# GULP energy per Si atom -5591.005156 kJ/mol
# Density = 2.490919 g / cm^3
# Si number density = 24.966018 Si / 1000 Ang^3
#
#
#
# Elastic Constant Matrix: (Units=GPa)
#
#
# Indices 1 2 3 4 5 6 
#
# 1 209.7535 58.9156 10.3831 4.5698 -8.8511 29.8109
# 2 58.9156 110.0734 4.0672 13.5047 -5.0171 23.2071
# 3 10.3831 4.0672 58.8159 19.9500 2.5512 6.2730
# 4 4.5698 13.5047 19.9500 26.8998 3.4348 -10.1925
# 5 -8.8511 -5.0171 2.5512 3.4348 34.7488 1.0139
# 6 29.8109 23.2071 6.2730 -10.1925 1.0139 45.0054
#
#
#
# Elastic Compliance Matrix: (Units=1/GPa)
#
#
# Indices 1 2 3 4 5 6 
#
# 1 0.005941 -0.002410 -0.000376 -0.000772 0.001352 -0.002846
# 2 -0.002410 0.014217 0.005421 -0.014865 0.002800 -0.009920
# 3 -0.000376 0.005421 0.027532 -0.028160 0.001823 -0.012803
# 4 -0.000772 -0.014865 -0.028160 0.078154 -0.008876 0.030001
# 5 0.001352 0.002800 0.001823 -0.008876 0.030424 -0.005289
# 6 -0.002846 -0.009920 -0.012803 0.030001 -0.005289 0.037918
#
#
# Mechanical properties :
#
#
# Convention : Reuss Voigt Hill
#
# Bulk Modulus (GPa) = 18.88171 58.37494 38.62833
# Shear Modulus (GPa) = 24.20492 41.68260 32.94376
#
# Velocity S-wave (km/s) = 3.11708 4.09047 3.63649
# Velocity P-wave (km/s) = 4.53148 6.76327 5.75657
#
# Compressibility (1/GPa) = 0.05296130
#
# Stress axis : x y z
#
# Youngs Moduli (GPa) = 168.31369 70.33755 36.32172
#
# Poissons Ratio (x) = 0.16950 0.01364
# Poissons Ratio (y) = 0.40560 -0.19690
# Poissons Ratio (z) = 0.06320 -0.38129
#
# Static dielectric constant tensor:
#      x y z
#    x 2.038930 -0.065100 0.018850 
#    y -0.065100 2.030080 -0.029850 
#    z 0.018850 -0.029850 2.127830 
# 
# From -- ./inp_files/316288.got.cif
#   From: 2010.05.17/outbox.cif.g08.bks.cpg/sg2_159_cif.got.tgz:316288.got - 2010.06.03 11:33:40.
