data_PCOD9045717
_publ_section_title
;
Structure prediction by ZEFSAII (Michael W. Deem and Ramdas Pophale) SiO2 
 PCOD9045717
Probable space group: P -1
;
_chemical_formula_sum "Si O2"
_cell_formula_units_Z 16
_cell_length_a 14.810046
_cell_length_b 14.069010
_cell_length_c 12.539582
_cell_angle_alpha 139.794486
_cell_angle_beta 137.150986
_cell_angle_gamma 20.112403
_cell_volume 578.464000
_symmetry_space_group_name_H-M "P -1"
_symmetry_group_IT_number 2
_symmetry_cell_setting 'triclinic'
loop_
_space_group_symop_operation_xyz
x,y,z
-x,-y,-z
loop_
_atom_site_type_symbol
_atom_site_label
_atom_site_fract_x
_atom_site_fract_y
_atom_site_fract_z
Si Si1 0.056139 0.160487 0.436776
Si Si2 0.543985 0.470262 0.743534
Si Si3 0.108803 0.195717 0.102087
Si Si4 0.757865 0.844406 0.586232
Si Si5 0.352709 0.495787 0.411913
Si Si6 0.148357 0.193644 0.757121
Si Si7 0.183842 0.812936 0.895098
Si Si8 0.613483 0.742491 0.027550
O O1 0.210274 0.868242 0.359646
O O2 0.274382 0.031924 0.442240
O O3 0.017745 0.313786 0.628883
O O4 0.871628 0.294459 0.292705
O O5 0.315995 0.593576 0.587090
O O6 0.490642 0.530435 0.878441
O O7 0.574212 0.608513 0.845814
O O8 0.216138 0.095451 0.228330
O O9 0.819157 0.534156 0.124645
O O10 0.322603 0.061052 0.091053
O O11 0.090184 0.038532 0.932312
O O12 0.000000 0.500000 0.500000
O O13 0.500000 0.000000 0.500000
O O14 0.500000 0.500000 0.500000
O O15 0.078331 0.696730 0.295646
O O16 0.572453 0.157979 0.306079
O O17 0.241736 0.271201 0.930798
O O18 0.000000 0.000000 0.000000
#
# Coordination Sequence:
#
# PCOD9045717 Si02
#       8
#     2   2   2   2   2   2   2   2
#     4  11  22  39  61  87 122 173 219 259 315 375
#     4  10  24  41  67  93 129 170 216 266 322 385
#     4  11  22  38  57  87 125 170 217 261 313 368
#     4  12  26  38  55  84 125 170 219 273 314 365
#     4  11  24  45  71  99 127 165 213 261 319 393
#     4  11  23  42  68  96 129 166 208 264 325 382
#     4  11  21  37  59  89 123 169 220 264 303 369
#     4  11  23  41  64  93 129 167 207 264 325 379
#
# _framework density 27.659455999999999
#
# number of rings (size 3 to 8) (size 9 to 14) (size 15 to 20)
#    0.000    1.000    3.750    3.375    1.750    2.500 
#    0.000    1.250    0.000    0.000    0.000    0.000 
#    0.000    0.000    0.000    0.000    0.000    0.000 
#
# Total GULP energy -89124.548912 kJ/mol
# GULP energy per Si atom -5570.284307 kJ/mol
# Density = 2.759650 g / cm^3
# Si number density = 27.659456 Si / 1000 Ang^3
#
#
#
# Elastic Constant Matrix: (Units=GPa)
#
#
# Indices 1 2 3 4 5 6 
#
# 1 69.9002 -6.8751 12.1568 -0.3722 11.0604 -22.9309
# 2 -6.8751 127.1396 24.4527 4.0533 4.9863 -21.3734
# 3 12.1568 24.4527 130.8306 -7.9486 35.8121 0.8267
# 4 -0.3722 4.0533 -7.9486 41.7536 -3.1525 3.7896
# 5 11.0604 4.9863 35.8121 -3.1525 49.1206 -0.4013
# 6 -22.9309 -21.3734 0.8267 3.7896 -0.4013 40.3546
#
#
#
# Elastic Compliance Matrix: (Units=1/GPa)
#
#
# Indices 1 2 3 4 5 6 
#
# 1 0.020060 0.003943 -0.001826 -0.002066 -0.003607 0.013683
# 2 0.003943 0.009900 -0.002317 -0.002089 -0.000274 0.007725
# 3 -0.001826 -0.002317 0.010212 0.001894 -0.006700 -0.002719
# 4 -0.002066 -0.002089 0.001894 0.024983 0.000862 -0.004657
# 5 -0.003607 -0.000274 -0.006700 0.000862 0.026123 -0.001879
# 6 0.013683 0.007725 -0.002719 -0.004657 -0.001879 0.037121
#
#
# Mechanical properties :
#
#
# Convention : Reuss Voigt Hill
#
# Bulk Modulus (GPa) = 25.14253 43.03770 34.09011
# Shear Modulus (GPa) = 35.19724 46.12149 40.65937
#
# Velocity S-wave (km/s) = 3.57111 4.08790 3.83822
# Velocity P-wave (km/s) = 5.11014 6.15426 5.65634
#
# Compressibility (1/GPa) = 0.03977325
#
# Stress axis : x y z
#
# Youngs Moduli (GPa) = 49.85066 101.00607 97.91984
#
# Poissons Ratio (x) = -0.39831 0.17877
# Poissons Ratio (y) = -0.19658 0.22693
# Poissons Ratio (z) = 0.09101 0.23408
#
# Static dielectric constant tensor:
#      x y z
#    x 1.825040 1.049160 -0.385740 
#    y 1.049160 0.009100 0.365660 
#    z -0.385740 0.365660 2.284380 
# 
# From -- ./inp_files/78246.got.cif
#   From: 2010.05.17/outbox.cif.g08.bks.cpg/sg2_40_cif.got.tgz:78246.got - 2010.06.03 11:33:40.
