data_PCOD9045829
_publ_section_title
;
Structure prediction by ZEFSAII (Michael W. Deem and Ramdas Pophale) SiO2 
 PCOD9045829
Probable space group: P -1
;
_chemical_formula_sum "Si O2"
_cell_formula_units_Z 12
_cell_length_a 14.271686
_cell_length_b 6.471022
_cell_length_c 8.284997
_cell_angle_alpha 94.611868
_cell_angle_beta 139.246121
_cell_angle_gamma 93.370173
_cell_volume 489.378280
_symmetry_space_group_name_H-M "P -1"
_symmetry_group_IT_number 2
_symmetry_cell_setting 'triclinic'
loop_
_space_group_symop_operation_xyz
x,y,z
-x,-y,-z
loop_
_atom_site_type_symbol
_atom_site_label
_atom_site_fract_x
_atom_site_fract_y
_atom_site_fract_z
Si Si1 0.884350 0.377357 0.708464
Si Si2 0.593026 0.084296 0.432868
Si Si3 0.067863 0.324806 0.480228
Si Si4 0.698060 0.750635 0.992181
Si Si5 0.929194 0.944322 0.083739
Si Si6 0.459883 0.666288 0.324808
O O1 0.737702 0.226306 0.562387
O O2 0.845306 0.548820 0.546897
O O3 0.973455 0.216574 0.731381
O O4 0.000000 0.500000 0.000000
O O5 0.605032 0.169937 0.638761
O O6 0.575693 0.831163 0.384446
O O7 0.445683 0.147257 0.170041
O O8 0.172225 0.198844 0.707580
O O9 0.000000 0.500000 0.500000
O O10 0.945786 0.157444 0.219773
O O11 0.768222 0.816034 0.910487
O O12 0.651487 0.497156 0.933768
O O13 0.000000 0.000000 0.000000
O O14 0.500000 0.500000 0.500000
#
# Coordination Sequence:
#
# PCOD9045829 Si02
#       6
#     2   2   2   2   2   2
#     4  12  26  47  76 111 147 192 252 313 372 448
#     4  10  24  41  72 108 146 193 248 304 370 448
#     4  12  28  47  75 107 153 198 248 311 386 441
#     4  11  25  45  72 107 151 196 246 308 379 445
#     4  12  27  44  77 110 146 195 258 305 367 449
#     4   9  21  39  68 102 146 193 242 290 375 439
#
# _framework density 24.520911000000002
#
# number of rings (size 3 to 8) (size 9 to 14) (size 15 to 20)
#    0.000    1.000    3.333    1.500    9.333    2.000 
#    0.000    1.667    0.000    0.000    0.000    0.000 
#    0.000    0.000    0.000    0.000    0.000    0.000 
#
# Total GULP energy -66918.155163 kJ/mol
# GULP energy per Si atom -5576.512930 kJ/mol
# Density = 2.446510 g / cm^3
# Si number density = 24.520911 Si / 1000 Ang^3
#
#
#
# Elastic Constant Matrix: (Units=GPa)
#
#
# Indices 1 2 3 4 5 6 
#
# 1 81.3165 57.7380 48.8408 8.8703 28.2864 19.9363
# 2 57.7380 165.3266 48.3665 28.1746 11.7915 29.0743
# 3 48.8408 48.3665 113.9196 -3.6317 18.3770 9.2760
# 4 8.8703 28.1746 -3.6317 59.1862 0.4393 6.1719
# 5 28.2864 11.7915 18.3770 0.4393 40.9856 10.2921
# 6 19.9363 29.0743 9.2760 6.1719 10.2921 56.0773
#
#
#
# Elastic Compliance Matrix: (Units=1/GPa)
#
#
# Indices 1 2 3 4 5 6 
#
# 1 0.024821 -0.005294 -0.006260 -0.001214 -0.012113 -0.002687
# 2 -0.005294 0.009388 -0.002023 -0.003534 0.002585 -0.002736
# 3 -0.006260 -0.002023 0.012473 0.002558 -0.000997 0.001113
# 4 -0.001214 -0.003534 0.002558 0.018949 0.000593 -0.000354
# 5 -0.012113 0.002585 -0.000997 0.000593 0.033216 -0.003031
# 6 -0.002687 -0.002736 0.001113 -0.000354 -0.003031 0.020618
#
#
# Mechanical properties :
#
#
# Convention : Reuss Voigt Hill
#
# Bulk Modulus (GPa) = 51.20736 74.49483 62.85109
# Shear Modulus (GPa) = 32.65229 44.95764 38.80496
#
# Velocity S-wave (km/s) = 3.65308 4.28652 3.98241
# Velocity P-wave (km/s) = 6.22269 7.41249 6.84349
#
# Compressibility (1/GPa) = 0.01952844
#
# Stress axis : x y z
#
# Youngs Moduli (GPa) = 40.28863 106.51494 80.17513
#
# Poissons Ratio (x) = 0.56385 0.50189
# Poissons Ratio (y) = 0.21327 0.16221
# Poissons Ratio (z) = 0.25220 0.21550
#
# Static dielectric constant tensor:
#      x y z
#    x 2.131490 0.137140 -0.037440 
#    y 0.137140 2.053840 0.044000 
#    z -0.037440 0.044000 2.058060 
# 
# From -- ./inp_files/288967.got.cif
#   From: 2010.05.17/outbox.cif.g08.bks.cpg/sg2_145_cif.got.tgz:288967.got - 2010.06.03 11:33:40.
