data_PCOD9045318
_publ_section_title
;
Structure prediction by ZEFSAII (Michael W. Deem and Ramdas Pophale) SiO2 
 PCOD9045318
Probable space group: P -1
;
_chemical_formula_sum "Si O2"
_cell_formula_units_Z 16
_cell_length_a 9.102847
_cell_length_b 23.495578
_cell_length_c 8.025115
_cell_angle_alpha 34.013254
_cell_angle_beta 65.220586
_cell_angle_gamma 53.361391
_cell_volume 759.426722
_symmetry_space_group_name_H-M "P -1"
_symmetry_group_IT_number 2
_symmetry_cell_setting 'triclinic'
loop_
_space_group_symop_operation_xyz
x,y,z
-x,-y,-z
loop_
_atom_site_type_symbol
_atom_site_label
_atom_site_fract_x
_atom_site_fract_y
_atom_site_fract_z
Si Si1 0.496246 0.482694 0.847232
Si Si2 0.466902 0.123166 0.780255
Si Si3 0.911037 0.732210 0.211208
Si Si4 0.426503 0.310258 0.103193
Si Si5 0.101051 0.683185 0.900262
Si Si6 0.039476 0.472511 0.743445
Si Si7 0.817228 0.126257 0.776760
Si Si8 0.739840 0.262875 0.817087
O O1 0.379240 0.605022 0.515752
O O2 0.500000 0.500000 0.000000
O O3 0.423073 0.394988 0.045506
O O4 0.712339 0.412602 0.862574
O O5 0.297372 0.179484 0.853157
O O6 0.404764 0.208635 0.443759
O O7 0.649851 0.119383 0.780598
O O8 0.500000 0.000000 0.000000
O O9 0.959001 0.599496 0.555155
O O10 0.060078 0.758141 0.169353
O O11 0.945311 0.737065 0.985624
O O12 0.256172 0.392057 0.868201
O O13 0.619557 0.257102 0.041172
O O14 0.140365 0.779287 0.564972
O O15 0.053198 0.607939 0.975436
O O16 0.000000 0.500000 0.500000
O O17 0.759646 0.175965 0.870256
O O18 0.000000 0.000000 0.000000
#
# Coordination Sequence:
#
# PCOD9045318 Si02
#       8
#     2   2   2   2   2   2   2   2
#     4  12  22  41  72 106 142 183 228 280 344 430
#     4  12  29  49  69  98 138 185 245 295 342 408
#     4  11  24  44  70 101 142 179 224 289 353 415
#     4  12  25  45  72 104 145 186 232 282 354 423
#     4  11  24  45  69 102 143 181 226 284 352 422
#     4  10  24  39  69 110 145 173 223 283 354 419
#     4  12  28  48  70  98 133 185 243 292 346 413
#     4  12  23  43  73 103 138 182 227 282 356 425
#
# _framework density 21.068524
#
# number of rings (size 3 to 8) (size 9 to 14) (size 15 to 20)
#    0.000    0.500    5.000    2.625   10.500    1.500 
#    0.000    3.750    0.000    0.000    0.000    0.000 
#    0.000    0.000    0.000    0.000    0.000    0.000 
#
# Total GULP energy -89535.509057 kJ/mol
# GULP energy per Si atom -5595.969316 kJ/mol
# Density = 2.102057 g / cm^3
# Si number density = 21.068524 Si / 1000 Ang^3
#
#
#
# Elastic Constant Matrix: (Units=GPa)
#
#
# Indices 1 2 3 4 5 6 
#
# 1 122.1003 35.7761 34.0413 -11.2502 -14.8323 -5.6773
# 2 35.7761 128.6863 47.5650 -8.8591 -10.2532 -5.4896
# 3 34.0413 47.5650 54.4996 -14.2392 -13.6547 10.1591
# 4 -11.2502 -8.8591 -14.2392 35.1193 2.1446 1.4487
# 5 -14.8323 -10.2532 -13.6547 2.1446 37.8033 -6.7942
# 6 -5.6773 -5.4896 10.1591 1.4487 -6.7942 40.3399
#
#
#
# Elastic Compliance Matrix: (Units=1/GPa)
#
#
# Indices 1 2 3 4 5 6 
#
# 1 0.010497 -0.000234 -0.006267 0.000477 0.002377 0.003407
# 2 -0.000234 0.012355 -0.012091 -0.002048 -0.000140 0.004743
# 3 -0.006267 -0.012091 0.039343 0.011035 0.005713 -0.011870
# 4 0.000477 -0.002048 0.011035 0.032685 0.001046 -0.003988
# 5 0.002377 -0.000140 0.005713 0.001046 0.030053 0.003901
# 6 0.003407 0.004743 -0.011870 -0.003988 0.003901 0.029704
#
#
# Mechanical properties :
#
#
# Convention : Reuss Voigt Hill
#
# Bulk Modulus (GPa) = 39.98361 60.00565 49.99463
# Shear Modulus (GPa) = 24.98019 35.17942 30.07980
#
# Velocity S-wave (km/s) = 3.44708 4.09071 3.78261
# Velocity P-wave (km/s) = 5.90443 7.13126 6.54664
#
# Compressibility (1/GPa) = 0.02501025
#
# Stress axis : x y z
#
# Youngs Moduli (GPa) = 95.26594 80.93676 25.41747
#
# Poissons Ratio (x) = 0.01896 0.15929
# Poissons Ratio (y) = 0.02232 0.30732
# Poissons Ratio (z) = 0.59704 0.97861
#
# Static dielectric constant tensor:
#      x y z
#    x 1.784890 -0.010500 -0.029390 
#    y -0.010500 1.771610 0.022990 
#    z -0.029390 0.022990 1.749990 
# 
# From -- ./inp_files/188012.got.cif
#   From: 2010.05.17/outbox.cif.g08.bks.cpg/sg2_95_cif.got.tgz:188012.got - 2010.06.03 11:33:40.
