data_PCOD9045871
_publ_section_title
;
Structure prediction by ZEFSAII (Michael W. Deem and Ramdas Pophale) SiO2 
 PCOD9045871
Probable space group: P -1
;
_chemical_formula_sum "Si O2"
_cell_formula_units_Z 16
_cell_length_a 14.965905
_cell_length_b 23.630914
_cell_length_c 8.580785
_cell_angle_alpha 137.175117
_cell_angle_beta 140.337804
_cell_angle_gamma 20.283353
_cell_volume 670.569222
_symmetry_space_group_name_H-M "P -1"
_symmetry_group_IT_number 2
_symmetry_cell_setting 'triclinic'
loop_
_space_group_symop_operation_xyz
x,y,z
-x,-y,-z
loop_
_atom_site_type_symbol
_atom_site_label
_atom_site_fract_x
_atom_site_fract_y
_atom_site_fract_z
Si Si1 0.805245 0.343854 0.303422
Si Si2 0.868556 0.697501 0.505610
Si Si3 0.217811 0.814802 0.904831
Si Si4 0.659101 0.945600 0.950202
Si Si5 0.321562 0.370830 0.044589
Si Si6 0.244768 0.707270 0.216579
Si Si7 0.556431 0.676178 0.387225
Si Si8 0.260909 0.288560 0.086483
O O1 0.498761 0.536451 0.305905
O O2 0.026595 0.303669 0.505904
O O3 0.882897 0.227240 0.281686
O O4 0.788759 0.319571 0.053100
O O5 0.712241 0.839816 0.696827
O O6 0.706176 0.699253 0.237263
O O7 0.154716 0.520211 0.608429
O O8 0.388836 0.735757 0.816322
O O9 0.432369 0.722699 0.146814
O O10 0.000000 0.000000 0.000000
O O11 0.950823 0.840824 0.167259
O O12 0.500000 0.000000 0.000000
O O13 0.463088 0.114244 0.949198
O O14 0.064329 0.560560 0.035100
O O15 0.282398 0.357009 0.138177
O O16 0.340996 0.748689 0.370649
O O17 0.626307 0.734679 0.644353
#
# Coordination Sequence:
#
# PCOD9045871 Si02
#       8
#     2   2   2   2   2   2   2   2
#     4   8  16  35  61  87 114 153 206 251 297 351
#     4   9  20  41  68  88 115 164 212 246 306 360
#     4  11  23  36  62  96 122 155 210 252 294 361
#     4  11  23  33  57  95 127 152 207 252 297 356
#     4  10  24  43  63  87 127 165 200 249 307 367
#     4   8  16  34  59  86 115 155 198 253 299 354
#     4   9  20  41  69  87 115 162 209 248 304 363
#     4  10  24  42  61  89 126 163 197 250 313 360
#
# _framework density 23.860323999999999
#
# number of rings (size 3 to 8) (size 9 to 14) (size 15 to 20)
#    0.000    2.500    0.000    2.250   10.500    2.000 
#    0.000    0.000    0.000    3.000    0.000    0.000 
#    0.000    0.000    0.000    0.000    0.000    0.000 
#
# Total GULP energy -89454.464385 kJ/mol
# GULP energy per Si atom -5590.904024 kJ/mol
# Density = 2.380602 g / cm^3
# Si number density = 23.860324 Si / 1000 Ang^3
#
#
#
# Elastic Constant Matrix: (Units=GPa)
#
#
# Indices 1 2 3 4 5 6 
#
# 1 97.3829 44.1202 -9.3014 7.2565 20.8095 -10.7947
# 2 44.1202 117.4344 20.0079 28.7453 12.7483 -11.8081
# 3 -9.3014 20.0079 66.7273 14.3878 3.9655 -0.5780
# 4 7.2565 28.7453 14.3878 28.2047 0.6409 -1.6477
# 5 20.8095 12.7483 3.9655 0.6409 21.7204 3.4216
# 6 -10.7947 -11.8081 -0.5780 -1.6477 3.4216 38.5409
#
#
#
# Elastic Compliance Matrix: (Units=1/GPa)
#
#
# Indices 1 2 3 4 5 6 
#
# 1 0.016625 -0.004679 0.004945 -0.001430 -0.014758 0.004546
# 2 -0.004679 0.014239 -0.002099 -0.011991 -0.003582 0.002826
# 3 0.004945 -0.002099 0.018524 -0.008353 -0.006842 0.001270
# 4 -0.001430 -0.011991 -0.008353 0.051942 0.008835 -0.002763
# 5 -0.014758 -0.003582 -0.006842 0.008835 0.064959 -0.010723
# 6 0.004546 0.002826 0.001270 -0.002763 -0.010723 0.028938
#
#
# Mechanical properties :
#
#
# Convention : Reuss Voigt Hill
#
# Bulk Modulus (GPa) = 21.87124 43.46644 32.66884
# Shear Modulus (GPa) = 23.34977 32.80775 28.07876
#
# Velocity S-wave (km/s) = 3.13166 3.71211 3.43417
# Velocity P-wave (km/s) = 4.71833 6.05224 5.42643
#
# Compressibility (1/GPa) = 0.04572214
#
# Stress axis : x y z
#
# Youngs Moduli (GPa) = 60.14924 70.22860 53.98486
#
# Poissons Ratio (x) = 0.32863 -0.26698
# Poissons Ratio (y) = 0.28146 0.11331
# Poissons Ratio (z) = -0.29746 0.14741
#
# Static dielectric constant tensor:
#      x y z
#    x 1.953730 0.016180 0.010300 
#    y 0.016180 1.901170 -0.004540 
#    z 0.010300 -0.004540 1.961700 
# 
# From -- ./inp_files/320334.got.cif
#   From: 2010.05.17/outbox.cif.g08.bks.cpg/sg2_161_cif.got.tgz:320334.got - 2010.06.03 11:33:40.
