data_PCOD9045102
_publ_section_title
;
Structure prediction by ZEFSAII (Michael W. Deem and Ramdas Pophale) SiO2 
 PCOD9045102
Probable space group: P -1
;
_chemical_formula_sum "Si O2"
_cell_formula_units_Z 16
_cell_length_a 11.810787
_cell_length_b 9.587602
_cell_length_c 9.554545
_cell_angle_alpha 45.370249
_cell_angle_beta 85.648496
_cell_angle_gamma 75.271833
_cell_volume 736.326966
_symmetry_space_group_name_H-M "P -1"
_symmetry_group_IT_number 2
_symmetry_cell_setting 'triclinic'
loop_
_space_group_symop_operation_xyz
x,y,z
-x,-y,-z
loop_
_atom_site_type_symbol
_atom_site_label
_atom_site_fract_x
_atom_site_fract_y
_atom_site_fract_z
Si Si1 0.082593 0.599017 0.331135
Si Si2 0.569035 0.337567 0.995080
Si Si3 0.744525 0.882935 0.762721
Si Si4 0.298552 0.378021 0.306537
Si Si5 0.420626 0.404804 0.678162
Si Si6 0.060755 0.442534 0.883170
Si Si7 0.466922 0.077500 0.686496
Si Si8 0.165825 0.736365 0.491313
O O1 0.204646 0.429540 0.402886
O O2 0.113900 0.758859 0.321668
O O3 0.000000 0.500000 0.500000
O O4 0.018633 0.647090 0.153229
O O5 0.588162 0.108334 0.205755
O O6 0.500000 0.500000 0.000000
O O7 0.683751 0.408582 0.896944
O O8 0.487175 0.358189 0.851560
O O9 0.741621 0.744782 0.725410
O O10 0.608456 0.992651 0.736790
O O11 0.811472 0.054252 0.609460
O O12 0.815409 0.728338 0.982313
O O13 0.423022 0.240333 0.451738
O O14 0.500000 0.500000 0.500000
O O15 0.419009 0.195335 0.750644
O O16 0.293416 0.566502 0.592022
O O17 0.086058 0.639883 0.668089
O O18 0.000000 0.500000 0.000000
#
# Coordination Sequence:
#
# PCOD9045102 Si02
#       8
#     2   2   2   2   2   2   2   2
#     4  10  23  49  71  93 137 182 229 289 336 393
#     4  12  26  40  66 103 144 183 222 274 341 416
#     4  12  25  41  74 103 137 180 229 279 347 410
#     4  12  24  46  68 103 143 178 225 288 341 403
#     4  12  22  44  69  99 147 181 216 281 345 416
#     4  11  25  47  70  97 138 178 233 291 331 400
#     4  12  25  43  69 104 143 182 224 273 352 417
#     4  11  24  44  73 101 134 183 227 282 347 400
#
# _framework density 21.729475000000001
#
# number of rings (size 3 to 8) (size 9 to 14) (size 15 to 20)
#    0.000    0.500    6.250    1.500    1.750    1.000 
#    0.000    0.000    0.000    0.000    0.000    0.000 
#    0.000    0.000    0.000    0.000    0.000    0.000 
#
# Total GULP energy -89482.177915 kJ/mol
# GULP energy per Si atom -5592.636120 kJ/mol
# Density = 2.168002 g / cm^3
# Si number density = 21.729475 Si / 1000 Ang^3
#
#
#
# Elastic Constant Matrix: (Units=GPa)
#
#
# Indices 1 2 3 4 5 6 
#
# 1 86.4352 25.9060 25.0264 1.1583 -2.0746 9.4887
# 2 25.9060 107.2603 25.9577 3.5044 -11.6592 29.4906
# 3 25.0264 25.9577 71.7982 1.2757 -3.5094 8.8012
# 4 1.1583 3.5044 1.2757 41.2397 8.0832 -5.8585
# 5 -2.0746 -11.6592 -3.5094 8.0832 39.0219 0.3047
# 6 9.4887 29.4906 8.8012 -5.8585 0.3047 39.6843
#
#
#
# Elastic Compliance Matrix: (Units=1/GPa)
#
#
# Indices 1 2 3 4 5 6 
#
# 1 0.013391 -0.002108 -0.003815 -0.000150 -0.000223 -0.000810
# 2 -0.002108 0.013742 -0.002778 -0.003269 0.004496 -0.009609
# 3 -0.003815 -0.002778 0.016382 -0.000367 0.000522 -0.000715
# 4 -0.000150 -0.003269 -0.000367 0.026769 -0.006614 0.006549
# 5 -0.000223 0.004496 0.000522 -0.006614 0.028411 -0.004598
# 6 -0.000810 -0.009609 -0.000715 0.006549 -0.004598 0.033694
#
#
# Mechanical properties :
#
#
# Convention : Reuss Voigt Hill
#
# Bulk Modulus (GPa) = 38.29320 46.58597 42.43959
# Shear Modulus (GPa) = 31.54703 36.56274 34.05488
#
# Velocity S-wave (km/s) = 3.81439 4.10644 3.96311
# Velocity P-wave (km/s) = 6.08773 6.63094 6.36513
#
# Compressibility (1/GPa) = 0.02611430
#
# Stress axis : x y z
#
# Youngs Moduli (GPa) = 74.67616 72.76988 61.04435
#
# Poissons Ratio (x) = 0.15338 0.23286
# Poissons Ratio (y) = 0.15740 0.16957
# Poissons Ratio (z) = 0.28486 0.20214
#
# Static dielectric constant tensor:
#      x y z
#    x 1.815410 0.015130 0.003370 
#    y 0.015130 1.782450 0.012230 
#    z 0.003370 0.012230 1.796650 
# 
# From -- ./inp_files/242080.got.cif
#   From: 2010.05.17/outbox.cif.g08.bks.cpg/sg2_122_cif.got.tgz:242080.got - 2010.06.03 11:33:40.
