data_PCOD9045601
_publ_section_title
;
Structure prediction by ZEFSAII (Michael W. Deem and Ramdas Pophale) SiO2 
 PCOD9045601
Probable space group: P -1
;
_chemical_formula_sum "Si O2"
_cell_formula_units_Z 16
_cell_length_a 9.610509
_cell_length_b 6.468201
_cell_length_c 26.629549
_cell_angle_alpha 133.047517
_cell_angle_beta 142.802261
_cell_angle_gamma 46.803119
_cell_volume 693.237827
_symmetry_space_group_name_H-M "P -1"
_symmetry_group_IT_number 2
_symmetry_cell_setting 'triclinic'
loop_
_space_group_symop_operation_xyz
x,y,z
-x,-y,-z
loop_
_atom_site_type_symbol
_atom_site_label
_atom_site_fract_x
_atom_site_fract_y
_atom_site_fract_z
Si Si1 0.057765 0.577688 0.586507
Si Si2 0.402087 0.966866 0.134850
Si Si3 0.635117 0.413768 0.472306
Si Si4 0.802271 0.820154 0.789325
Si Si5 0.956878 0.432028 0.033315
Si Si6 0.256454 0.429541 0.905131
Si Si7 0.243033 0.805138 0.357117
Si Si8 0.551857 0.135777 0.679560
O O1 0.908202 0.414104 0.550848
O O2 0.000000 0.500000 0.500000
O O3 0.338840 0.444813 0.660573
O O4 0.944867 0.929409 0.622687
O O5 0.652285 0.820756 0.153078
O O6 0.403450 0.083622 0.211010
O O7 0.246330 0.736621 0.055994
O O8 0.220785 0.230387 0.094442
O O9 0.500000 0.500000 0.500000
O O10 0.497593 0.677684 0.438327
O O11 0.589653 0.106824 0.394474
O O12 0.822252 0.498729 0.718553
O O13 0.059903 0.731992 0.877548
O O14 0.728140 0.073918 0.768001
O O15 0.852477 0.650960 0.087560
O O16 0.000000 0.500000 0.000000
O O17 0.500000 0.500000 0.000000
O O18 0.289609 0.918571 0.334514
#
# Coordination Sequence:
#
# PCOD9045601 Si02
#       8
#     2   2   2   2   2   2   2   2
#     4  12  23  41  70  96 126 169 221 269 315 386
#     4   9  19  38  59  87 125 162 209 257 313 382
#     4  11  21  42  68  92 128 168 213 269 322 375
#     4  10  24  41  62  90 134 175 207 268 330 386
#     4   9  18  34  62  96 122 157 205 264 315 371
#     4   9  19  40  66  92 124 164 214 264 312 378
#     4  11  24  42  60  95 136 166 213 273 326 378
#     4  11  24  41  62  95 129 170 212 266 328 382
#
# _framework density 23.080100999999999
#
# number of rings (size 3 to 8) (size 9 to 14) (size 15 to 20)
#    0.000    1.750    2.500    2.250    0.000    4.500 
#    0.000    2.500    0.000    0.000    0.000    0.000 
#    0.000    0.000    0.000    0.000    0.000    0.000 
#
# Total GULP energy -89332.455005 kJ/mol
# GULP energy per Si atom -5583.278438 kJ/mol
# Density = 2.302757 g / cm^3
# Si number density = 23.080101 Si / 1000 Ang^3
#
#
#
# Elastic Constant Matrix: (Units=GPa)
#
#
# Indices 1 2 3 4 5 6 
#
# 1 155.0750 58.1822 40.7231 -20.1320 -41.6206 -18.6417
# 2 58.1822 109.3221 39.1155 -7.1654 -22.5004 -23.2021
# 3 40.7231 39.1155 70.1955 -20.4285 -17.1755 -6.0066
# 4 -20.1320 -7.1654 -20.4285 41.5979 9.9819 -7.5925
# 5 -41.6206 -22.5004 -17.1755 9.9819 46.2978 2.0884
# 6 -18.6417 -23.2021 -6.0066 -7.5925 2.0884 47.0192
#
#
#
# Elastic Compliance Matrix: (Units=1/GPa)
#
#
# Indices 1 2 3 4 5 6 
#
# 1 0.010416 -0.002766 -0.001921 0.002506 0.006648 0.002629
# 2 -0.002766 0.014042 -0.005642 -0.001375 0.002326 0.004787
# 3 -0.001921 -0.005642 0.021352 0.008270 0.001650 0.000444
# 4 0.002506 -0.001375 0.008270 0.030800 -0.002279 0.006446
# 5 0.006648 0.002326 0.001650 -0.002279 0.029705 0.002307
# 6 0.002629 0.004787 0.000444 0.006446 0.002307 0.025668
#
#
# Mechanical properties :
#
#
# Convention : Reuss Voigt Hill
#
# Bulk Modulus (GPa) = 39.75452 67.84825 53.80138
# Shear Modulus (GPa) = 31.05088 40.08776 35.56932
#
# Velocity S-wave (km/s) = 3.67188 4.17213 3.92998
# Velocity P-wave (km/s) = 5.93624 7.25738 6.62980
#
# Compressibility (1/GPa) = 0.02515437
#
# Stress axis : x y z
#
# Youngs Moduli (GPa) = 96.00349 71.21293 46.83310
#
# Poissons Ratio (x) = 0.19697 0.08995
# Poissons Ratio (y) = 0.26553 0.26422
# Poissons Ratio (z) = 0.18439 0.40177
#
# Static dielectric constant tensor:
#      x y z
#    x 1.860510 0.002660 -0.026140 
#    y 0.002660 1.899200 0.051750 
#    z -0.026140 0.051750 1.981640 
# 
# From -- ./inp_files/55392.got.cif
#   From: 2010.05.17/outbox.cif.g08.bks.cpg/sg2_28_cif.got.tgz:55392.got - 2010.06.03 11:33:40.
