data_PCOD9045806
_publ_section_title
;
Structure prediction by ZEFSAII (Michael W. Deem and Ramdas Pophale) SiO2 
 PCOD9045806
Probable space group: P -1
;
_chemical_formula_sum "Si O2"
_cell_formula_units_Z 14
_cell_length_a 9.742038
_cell_length_b 8.980566
_cell_length_c 9.328822
_cell_angle_alpha 103.940658
_cell_angle_beta 120.337695
_cell_angle_gamma 46.763074
_cell_volume 505.961552
_symmetry_space_group_name_H-M "P -1"
_symmetry_group_IT_number 2
_symmetry_cell_setting 'triclinic'
loop_
_space_group_symop_operation_xyz
x,y,z
-x,-y,-z
loop_
_atom_site_type_symbol
_atom_site_label
_atom_site_fract_x
_atom_site_fract_y
_atom_site_fract_z
Si Si1 0.836058 0.373769 0.856741
Si Si2 0.144249 0.591934 0.634493
Si Si3 0.567411 0.118573 0.712270
Si Si4 0.035808 0.463981 0.814632
Si Si5 0.372672 0.742275 0.790636
Si Si6 0.298748 0.011426 0.575877
Si Si7 0.500000 0.000000 0.000000
Si Si8 0.000000 0.000000 0.000000
O O1 0.603828 0.514823 0.837713
O O2 0.935687 0.143573 0.855131
O O3 0.839200 0.475987 0.741419
O O4 0.970435 0.390299 0.043595
O O5 0.357297 0.363483 0.645231
O O6 0.043446 0.547312 0.689906
O O7 0.222293 0.706299 0.764624
O O8 0.939690 0.769181 0.471941
O O9 0.480573 0.018760 0.726254
O O10 0.763998 0.070081 0.882600
O O11 0.652001 0.027120 0.575749
O O12 0.250460 0.230116 0.905481
O O13 0.308059 0.843469 0.620979
O O14 0.411630 0.877314 0.918777
#
# Coordination Sequence:
#
# PCOD9045806 Si02
#       8
#     2   2   2   2   2   2   1   1
#     4  10  24  43  71 106 154 192 251 321 384 462
#     4  12  25  50  77 114 150 210 265 322 377 482
#     4  11  27  48  79 113 155 207 263 321 392 465
#     4  10  24  41  70 108 148 200 249 312 393 452
#     4  11  25  49  73 114 154 199 264 316 394 468
#     4  11  27  50  77 109 161 212 253 325 394 464
#     4  10  24  42  72 110 152 198 242 334 382 460
#     4  12  24  48  76 114 148 200 262 320 382 456
#
# _framework density 27.670086000000001
#
# number of rings (size 3 to 8) (size 9 to 14) (size 15 to 20)
#    0.000    1.143    1.429    2.571   12.000    5.143 
#    2.571    0.000    0.000    0.000    0.000    0.000 
#    0.000    0.000    0.000    0.000    0.000    0.000 
#
# Total GULP energy -78008.600456 kJ/mol
# GULP energy per Si atom -5572.042890 kJ/mol
# Density = 2.760711 g / cm^3
# Si number density = 27.670086 Si / 1000 Ang^3
#
#
#
# Elastic Constant Matrix: (Units=GPa)
#
#
# Indices 1 2 3 4 5 6 
#
# 1 132.0681 22.9913 32.0978 8.9281 23.3444 29.6958
# 2 22.9913 140.8621 21.1531 -10.8756 9.3140 10.1791
# 3 32.0978 21.1531 69.9979 -14.5085 28.8598 -3.0158
# 4 8.9281 -10.8756 -14.5085 37.4980 -2.6055 -4.5810
# 5 23.3444 9.3140 28.8598 -2.6055 46.6738 6.5619
# 6 29.6958 10.1791 -3.0158 -4.5810 6.5619 46.2100
#
#
#
# Elastic Compliance Matrix: (Units=1/GPa)
#
#
# Indices 1 2 3 4 5 6 
#
# 1 0.011784 -0.000792 -0.006534 -0.006647 -0.000892 -0.008357
# 2 -0.000792 0.007688 -0.001762 0.001608 0.000206 -0.001169
# 3 -0.006534 -0.001762 0.025961 0.011311 -0.013104 0.009263
# 4 -0.006647 0.001608 0.011311 0.033901 -0.003291 0.008483
# 5 -0.000892 0.000206 -0.013104 -0.003291 0.030449 -0.004977
# 6 -0.008357 -0.001169 0.009263 0.008483 -0.004977 0.029421
#
#
# Mechanical properties :
#
#
# Convention : Reuss Voigt Hill
#
# Bulk Modulus (GPa) = 36.68898 55.04583 45.86740
# Shear Modulus (GPa) = 30.03635 43.85540 36.94588
#
# Velocity S-wave (km/s) = 3.29829 3.98545 3.65804
# Velocity P-wave (km/s) = 5.27193 6.41211 5.86977
#
# Compressibility (1/GPa) = 0.02725614
#
# Stress axis : x y z
#
# Youngs Moduli (GPa) = 84.86207 130.07130 38.51960
#
# Poissons Ratio (x) = 0.10307 0.25169
# Poissons Ratio (y) = 0.06725 0.06786
# Poissons Ratio (z) = 0.55450 0.22915
#
# Static dielectric constant tensor:
#      x y z
#    x 1.963690 0.128460 0.151170 
#    y 0.128460 2.058020 -0.172590 
#    z 0.151170 -0.172590 1.924640 
# 
# From -- ./inp_files/241977.got.cif
#   From: 2010.05.17/outbox.cif.g08.bks.cpg/sg2_121_cif.got.tgz:241977.got - 2010.06.03 11:33:40.
