data_PCOD9045370
_publ_section_title
;
Structure prediction by ZEFSAII (Michael W. Deem and Ramdas Pophale) SiO2 
 PCOD9045370
Probable space group: P -1
;
_chemical_formula_sum "Si O2"
_cell_formula_units_Z 16
_cell_length_a 17.684718
_cell_length_b 9.013828
_cell_length_c 5.363545
_cell_angle_alpha 50.449836
_cell_angle_beta 84.206550
_cell_angle_gamma 71.098961
_cell_volume 617.170110
_symmetry_space_group_name_H-M "P -1"
_symmetry_group_IT_number 2
_symmetry_cell_setting 'triclinic'
loop_
_space_group_symop_operation_xyz
x,y,z
-x,-y,-z
loop_
_atom_site_type_symbol
_atom_site_label
_atom_site_fract_x
_atom_site_fract_y
_atom_site_fract_z
Si Si1 0.622833 0.974789 0.619297
Si Si2 0.505428 0.184989 0.010291
Si Si3 0.235745 0.360471 0.276688
Si Si4 0.250910 0.630389 0.375691
Si Si5 0.022089 0.100217 0.634219
Si Si6 0.111619 0.474359 0.814556
Si Si7 0.830709 0.902326 0.131478
Si Si8 0.593243 0.391851 0.373281
O O1 0.638117 0.188124 0.420207
O O2 0.702878 0.779720 0.791635
O O3 0.573773 0.022429 0.324352
O O4 0.563262 0.917695 0.894755
O O5 0.538625 0.296182 0.665350
O O6 0.457796 0.392909 0.965916
O O7 0.258843 0.546189 0.180042
O O8 0.236239 0.192991 0.661528
O O9 0.144316 0.442362 0.119477
O O10 0.181595 0.548494 0.591063
O O11 0.339397 0.558674 0.538289
O O12 0.213943 0.870235 0.183803
O O13 0.115057 0.072319 0.681416
O O14 0.970953 0.340918 0.384344
O O15 0.000000 0.000000 0.500000
O O16 0.000000 0.000000 0.000000
O O17 0.115161 0.263389 0.907022
#
# Coordination Sequence:
#
# PCOD9045370 Si02
#       8
#     2   2   2   2   2   2   2   2
#     4  11  23  42  64  94 131 171 227 280 350 415
#     4  10  24  40  62  94 130 170 223 285 347 420
#     4  11  26  42  67 100 132 181 225 291 345 426
#     4  11  24  44  65  97 137 174 229 287 347 422
#     4  12  27  47  78 110 150 193 240 297 360 423
#     4  11  25  45  71 100 139 182 236 282 354 417
#     4  11  25  45  71 100 139 183 234 284 354 417
#     4  11  23  40  66  92 127 176 224 280 351 414
#
# _framework density 25.924782
#
# number of rings (size 3 to 8) (size 9 to 14) (size 15 to 20)
#    0.000    1.000    1.250    4.125    3.500   13.500 
#    0.000    0.000    0.000    0.000    0.000    0.000 
#    0.000    0.000    0.000    0.000    0.000    0.000 
#
# Total GULP energy -89457.750649 kJ/mol
# GULP energy per Si atom -5591.109416 kJ/mol
# Density = 2.586578 g / cm^3
# Si number density = 25.924782 Si / 1000 Ang^3
#
#
#
# Elastic Constant Matrix: (Units=GPa)
#
#
# Indices 1 2 3 4 5 6 
#
# 1 73.1540 4.9765 10.8384 -7.3721 6.5371 5.3411
# 2 4.9765 108.0853 23.1715 -19.9725 12.2123 19.3286
# 3 10.8384 23.1715 94.6208 -25.4238 -0.3096 2.1751
# 4 -7.3721 -19.9725 -25.4238 45.5934 -1.0010 8.8085
# 5 6.5371 12.2123 -0.3096 -1.0010 48.7142 -5.9207
# 6 5.3411 19.3286 2.1751 8.8085 -5.9207 40.8843
#
#
#
# Elastic Compliance Matrix: (Units=1/GPa)
#
#
# Indices 1 2 3 4 5 6 
#
# 1 0.014503 0.000929 -0.001095 0.002709 -0.002522 -0.003225
# 2 0.000929 0.012553 -0.001299 0.006371 -0.004116 -0.007955
# 3 -0.001095 -0.001299 0.012836 0.006672 0.000535 -0.001286
# 4 0.002709 0.006371 0.006672 0.030903 -0.002590 -0.010754
# 5 -0.002522 -0.004116 0.000535 -0.002590 0.022587 0.006076
# 6 -0.003225 -0.007955 -0.001286 -0.010754 0.006076 0.031907
#
#
# Mechanical properties :
#
#
# Convention : Reuss Voigt Hill
#
# Bulk Modulus (GPa) = 27.05521 39.31476 33.18499
# Shear Modulus (GPa) = 35.57755 42.82997 39.20376
#
# Velocity S-wave (km/s) = 3.70853 4.06900 3.89294
# Velocity P-wave (km/s) = 5.36621 6.10520 5.74760
#
# Compressibility (1/GPa) = 0.03696145
#
# Stress axis : x y z
#
# Youngs Moduli (GPa) = 68.95297 79.66441 77.90615
#
# Poissons Ratio (x) = -0.07403 0.08531
# Poissons Ratio (y) = -0.06407 0.10121
# Poissons Ratio (z) = 0.07550 0.10349
#
# Static dielectric constant tensor:
#      x y z
#    x 1.993960 -0.057360 -0.062700 
#    y -0.057360 2.231270 0.142590 
#    z -0.062700 0.142590 2.107410 
# 
# From -- ./inp_files/106092.got.cif
#   From: 2010.05.17/outbox.cif.g08.bks.cpg/sg2_54_cif.got.tgz:106092.got - 2010.06.03 11:33:40.
