data_PCOD9045200
_publ_section_title
;
Structure prediction by ZEFSAII (Michael W. Deem and Ramdas Pophale) SiO2 
 PCOD9045200
Probable space group: P -1
;
_chemical_formula_sum "Si O2"
_cell_formula_units_Z 16
_cell_length_a 16.700737
_cell_length_b 8.728845
_cell_length_c 9.186520
_cell_angle_alpha 52.367234
_cell_angle_beta 53.845116
_cell_angle_gamma 49.522282
_cell_volume 763.928567
_symmetry_space_group_name_H-M "P -1"
_symmetry_group_IT_number 2
_symmetry_cell_setting 'triclinic'
loop_
_space_group_symop_operation_xyz
x,y,z
-x,-y,-z
loop_
_atom_site_type_symbol
_atom_site_label
_atom_site_fract_x
_atom_site_fract_y
_atom_site_fract_z
Si Si1 0.991709 0.744099 0.544496
Si Si2 0.246285 0.659419 0.829132
Si Si3 0.041846 0.661652 0.210177
Si Si4 0.407711 0.055985 0.685020
Si Si5 0.178431 0.752968 0.518095
Si Si6 0.608407 0.820091 0.065134
Si Si7 0.708455 0.099907 0.905690
Si Si8 0.796823 0.935277 0.193855
O O1 0.934716 0.585552 0.691783
O O2 0.044646 0.719933 0.341437
O O3 0.091224 0.673908 0.595133
O O4 0.900475 0.988043 0.529541
O O5 0.230341 0.665373 0.669618
O O6 0.337348 0.420439 0.916217
O O7 0.266564 0.854112 0.758333
O O8 0.128415 0.705507 0.998980
O O9 0.915892 0.796111 0.213407
O O10 0.421548 0.187988 0.728166
O O11 0.285950 0.173409 0.673965
O O12 0.500000 0.000000 0.500000
O O13 0.396540 0.856532 0.898792
O O14 0.271988 0.733220 0.311629
O O15 0.500000 0.000000 0.000000
O O16 0.698403 0.915841 0.924089
O O17 0.805843 0.003173 0.977944
#
# Coordination Sequence:
#
# PCOD9045200 Si02
#       8
#     2   2   2   2   2   2   2   2
#     4  10  24  36  57  88 135 173 204 244 302 374
#     4  12  23  37  67  93 128 165 208 257 308 370
#     4  11  22  41  58  95 129 178 203 240 309 383
#     4   8  20  43  67  86 115 165 209 255 316 366
#     4  11  22  37  56  94 129 163 207 260 304 362
#     4   9  22  44  65  91 117 161 208 268 313 367
#     4   8  21  40  62  86 124 160 205 255 319 366
#     4   9  21  38  65  92 127 163 209 254 301 379
#
# _framework density 20.944365000000001
#
# number of rings (size 3 to 8) (size 9 to 14) (size 15 to 20)
#    1.500    0.500    1.250    1.875    7.000    1.500 
#    4.500    6.250    0.000    0.000    0.000    0.000 
#    0.000    0.000    0.000    0.000    0.000    0.000 
#
# Total GULP energy -89075.505727 kJ/mol
# GULP energy per Si atom -5567.219108 kJ/mol
# Density = 2.089670 g / cm^3
# Si number density = 20.944365 Si / 1000 Ang^3
#
#
#
# Elastic Constant Matrix: (Units=GPa)
#
#
# Indices 1 2 3 4 5 6 
#
# 1 65.6323 40.6557 7.8678 0.6278 28.3638 3.6024
# 2 40.6557 68.9601 -3.5821 0.8266 10.9788 -13.0909
# 3 7.8678 -3.5821 58.8021 17.4770 -5.8419 -4.1049
# 4 0.6278 0.8266 17.4770 21.8009 -6.6859 5.4639
# 5 28.3638 10.9788 -5.8419 -6.6859 30.9925 1.0290
# 6 3.6024 -13.0909 -4.1049 5.4639 1.0290 19.4508
#
#
#
# Elastic Compliance Matrix: (Units=1/GPa)
#
#
# Indices 1 2 3 4 5 6 
#
# 1 0.067249 -0.043401 -0.025078 0.018389 -0.045280 -0.049728
# 2 -0.043401 0.047956 0.021490 -0.024409 0.019836 0.050656
# 3 -0.025078 0.021490 0.035280 -0.032964 0.013712 0.035088
# 4 0.018389 -0.024409 -0.032964 0.087557 0.006209 -0.051715
# 5 -0.045280 0.019836 0.013712 0.006209 0.069966 0.019184
# 6 -0.049728 0.050656 0.035088 -0.051715 0.019184 0.115632
#
#
# Mechanical properties :
#
#
# Convention : Reuss Voigt Hill
#
# Bulk Modulus (GPa) = 17.69678 31.47527 24.58602
# Shear Modulus (GPa) = 9.32049 24.34569 16.83309
#
# Velocity S-wave (km/s) = 2.11182 3.41309 2.83804
# Velocity P-wave (km/s) = 3.79660 5.53109 4.74379
#
# Compressibility (1/GPa) = 0.05650746
#
# Stress axis : x y z
#
# Youngs Moduli (GPa) = 14.87010 20.85261 28.34465
#
# Poissons Ratio (x) = 0.90503 0.71082
# Poissons Ratio (y) = 0.64538 -0.60913
# Poissons Ratio (z) = 0.37291 -0.44813
#
# Static dielectric constant tensor:
#      x y z
#    x 1.760880 0.009860 -0.000140 
#    y 0.009860 1.783110 -0.019440 
#    z -0.000140 -0.019440 1.785940 
# 
# From -- ./inp_files/328375.got.cif
#   From: 2010.05.17/outbox.cif.g08.bks.cpg/sg2_165_cif.got.tgz:328375.got - 2010.06.03 11:33:40.
