data_PCOD9045769
_publ_section_title
;
Structure prediction by ZEFSAII (Michael W. Deem and Ramdas Pophale) SiO2 
 PCOD9045769
Probable space group: P -1
;
_chemical_formula_sum "Si O2"
_cell_formula_units_Z 16
_cell_length_a 11.900034
_cell_length_b 9.664867
_cell_length_c 11.535388
_cell_angle_alpha 54.785117
_cell_angle_beta 95.765203
_cell_angle_gamma 129.831889
_cell_volume 752.034382
_symmetry_space_group_name_H-M "P -1"
_symmetry_group_IT_number 2
_symmetry_cell_setting 'triclinic'
loop_
_space_group_symop_operation_xyz
x,y,z
-x,-y,-z
loop_
_atom_site_type_symbol
_atom_site_label
_atom_site_fract_x
_atom_site_fract_y
_atom_site_fract_z
Si Si1 0.759475 0.493172 0.938923
Si Si2 0.053192 0.362288 0.583422
Si Si3 0.992031 0.790592 0.603776
Si Si4 0.382457 0.831023 0.416760
Si Si5 0.466938 0.371714 0.840574
Si Si6 0.356142 0.090765 0.455596
Si Si7 0.135158 0.116563 0.056574
Si Si8 0.448857 0.031656 0.859438
O O1 0.598969 0.422199 0.913060
O O2 0.833280 0.680065 0.962062
O O3 0.883665 0.621878 0.782412
O O4 0.700708 0.237634 0.076684
O O5 0.225998 0.555920 0.571832
O O6 0.000000 0.500000 0.500000
O O7 0.078010 0.332380 0.468798
O O8 0.931782 0.104625 0.759429
O O9 0.173860 0.914564 0.565203
O O10 0.000000 0.000000 0.500000
O O11 0.540510 0.919370 0.446672
O O12 0.359173 0.997033 0.377836
O O13 0.408383 0.842894 0.277629
O O14 0.555964 0.635530 0.677643
O O15 0.425161 0.200578 0.812044
O O16 0.304074 0.242455 0.954842
O O17 0.000000 0.000000 0.000000
O O18 0.500000 0.000000 0.000000
#
# Coordination Sequence:
#
# PCOD9045769 Si02
#       8
#     2   2   2   2   2   2   2   2
#     4  11  24  44  70  97 135 177 228 278 336 414
#     4  12  25  42  71 102 133 182 232 285 327 412
#     4  12  23  45  71 101 131 176 233 278 341 402
#     4  11  25  44  67  98 138 176 225 274 344 398
#     4  11  23  43  70  97 134 176 228 276 338 406
#     4  11  24  44  69  99 135 179 219 281 338 405
#     4  12  27  44  66 101 141 179 223 284 352 408
#     4  10  24  41  68  99 129 175 223 279 327 409
#
# _framework density 21.275624000000001
#
# number of rings (size 3 to 8) (size 9 to 14) (size 15 to 20)
#    0.000    0.750    3.750    3.375    5.250    2.500 
#    0.000    1.250    0.000    0.000    0.000    0.000 
#    0.000    0.000    0.000    0.000    0.000    0.000 
#
# Total GULP energy -89453.297803 kJ/mol
# GULP energy per Si atom -5590.831113 kJ/mol
# Density = 2.122720 g / cm^3
# Si number density = 21.275624 Si / 1000 Ang^3
#
#
#
# Elastic Constant Matrix: (Units=GPa)
#
#
# Indices 1 2 3 4 5 6 
#
# 1 101.5348 62.9116 36.8657 0.8672 -26.7758 -1.4133
# 2 62.9116 153.4440 60.1571 -15.0668 -1.1503 -29.6285
# 3 36.8657 60.1571 103.5845 -19.2603 -28.9813 -8.8116
# 4 0.8672 -15.0668 -19.2603 39.7712 -3.3741 1.7461
# 5 -26.7758 -1.1503 -28.9813 -3.3741 33.6416 -5.1732
# 6 -1.4133 -29.6285 -8.8116 1.7461 -5.1732 51.8098
#
#
#
# Elastic Compliance Matrix: (Units=1/GPa)
#
#
# Indices 1 2 3 4 5 6 
#
# 1 0.019083 -0.009518 0.003092 -0.000963 0.017020 -0.002664
# 2 -0.009518 0.014666 -0.008368 0.000337 -0.013426 0.005352
# 3 0.003092 -0.008368 0.021059 0.008736 0.021302 0.000713
# 4 -0.000963 0.000337 0.008736 0.030305 0.010062 0.001636
# 5 0.017020 -0.013426 0.021302 0.010062 0.062529 0.002314
# 6 -0.002664 0.005352 0.000713 0.001636 0.002314 0.022587
#
#
# Mechanical properties :
#
#
# Convention : Reuss Voigt Hill
#
# Bulk Modulus (GPa) = 39.65241 75.38134 57.51688
# Shear Modulus (GPa) = 24.01282 38.28646 31.14964
#
# Velocity S-wave (km/s) = 3.36319 4.24671 3.83051
# Velocity P-wave (km/s) = 5.81028 7.71711 6.83056
#
# Compressibility (1/GPa) = 0.02521915
#
# Stress axis : x y z
#
# Youngs Moduli (GPa) = 52.40293 68.18529 47.48667
#
# Poissons Ratio (x) = 0.64896 -0.14683
# Poissons Ratio (y) = 0.49875 0.39739
# Poissons Ratio (z) = -0.16203 0.57061
#
# Static dielectric constant tensor:
#      x y z
#    x 1.777330 0.000160 -0.030920 
#    y 0.000160 1.822460 0.016830 
#    z -0.030920 0.016830 1.781180 
# 
# From -- ./inp_files/419179.got.cif
#   From: 2010.05.17/outbox.cif.g08.bks.cpg/sg2_210_cif.got.tgz:419179.got - 2010.06.03 11:33:40.
