data_PCOD9045021
_publ_section_title
;
Structure prediction by ZEFSAII (Michael W. Deem and Ramdas Pophale) SiO2 
 PCOD9045021
Probable space group: P -1
;
_chemical_formula_sum "Si O2"
_cell_formula_units_Z 16
_cell_length_a 28.270692
_cell_length_b 11.280589
_cell_length_c 5.317651
_cell_angle_alpha 119.700584
_cell_angle_beta 53.605095
_cell_angle_gamma 141.626007
_cell_volume 845.865783
_symmetry_space_group_name_H-M "P -1"
_symmetry_group_IT_number 2
_symmetry_cell_setting 'triclinic'
loop_
_space_group_symop_operation_xyz
x,y,z
-x,-y,-z
loop_
_atom_site_type_symbol
_atom_site_label
_atom_site_fract_x
_atom_site_fract_y
_atom_site_fract_z
Si Si1 0.588619 0.212087 0.987920
Si Si2 0.374733 0.214749 0.638951
Si Si3 0.909688 0.408536 0.240806
Si Si4 0.535535 0.413715 0.550710
Si Si5 0.164722 0.615692 0.059070
Si Si6 0.694486 0.373688 0.329617
Si Si7 0.239305 0.968831 0.477963
Si Si8 0.317847 0.335308 0.318393
O O1 0.643367 0.264788 0.630510
O O2 0.571140 0.346460 0.205226
O O3 0.637042 0.256069 0.140624
O O4 0.500000 0.000000 0.000000
O O5 0.436926 0.247235 0.674139
O O6 0.434098 0.391134 0.443899
O O7 0.312324 0.023547 0.474381
O O8 0.320576 0.243642 0.971963
O O9 0.900318 0.477366 0.603173
O O10 0.844832 0.179229 0.254926
O O11 0.877064 0.440273 0.138451
O O12 0.000000 0.500000 0.000000
O O13 0.585306 0.484851 0.727288
O O14 0.221392 0.842663 0.164627
O O15 0.224605 0.586667 0.881342
O O16 0.717727 0.571941 0.478205
O O17 0.270676 0.166346 0.495592
#
# Coordination Sequence:
#
# PCOD9045021 Si02
#       8
#     2   2   2   2   2   2   2   2
#     4  11  23  37  52  81 114 167 203 249 298 340
#     4  10  17  34  52  77 112 152 204 248 287 337
#     4  10  21  41  66  94 122 145 187 240 301 367
#     4   9  20  31  49  76 111 156 205 248 290 323
#     4  10  22  39  63  94 115 154 191 236 305 352
#     4  11  23  40  59  81 123 155 202 246 295 358
#     4   9  22  33  60  90 112 152 196 238 301 341
#     4  10  19  36  55  82 116 161 202 246 294 342
#
# _framework density 18.91553
#
# number of rings (size 3 to 8) (size 9 to 14) (size 15 to 20)
#    0.750    1.250    1.250    2.625    1.750    1.000 
#    0.000    0.000    0.000    1.500    0.000    0.000 
#    0.000    0.000    0.000    0.000    0.000    0.000 
#
# Total GULP energy -89123.427604 kJ/mol
# GULP energy per Si atom -5570.214225 kJ/mol
# Density = 1.887248 g / cm^3
# Si number density = 18.915530 Si / 1000 Ang^3
#
#
#
# Elastic Constant Matrix: (Units=GPa)
#
#
# Indices 1 2 3 4 5 6 
#
# 1 86.4317 16.6273 35.8982 -7.1743 -1.7234 -0.1233
# 2 16.6273 33.7862 8.8206 -14.6940 -8.0211 4.7262
# 3 35.8982 8.8206 90.4547 -17.0357 1.7486 -7.8469
# 4 -7.1743 -14.6940 -17.0357 20.9942 4.5134 -2.1765
# 5 -1.7234 -8.0211 1.7486 4.5134 38.5181 0.1705
# 6 -0.1233 4.7262 -7.8469 -2.1765 0.1705 13.1372
#
#
#
# Elastic Compliance Matrix: (Units=1/GPa)
#
#
# Indices 1 2 3 4 5 6 
#
# 1 0.015390 -0.008222 -0.006604 -0.006044 -0.000007 -0.001843
# 2 -0.008222 0.049775 0.003482 0.032446 0.006084 -0.010608
# 3 -0.006604 0.003482 0.017422 0.016031 -0.002292 0.011777
# 4 -0.006044 0.032446 0.016031 0.083372 -0.004063 0.011711
# 5 -0.000007 0.006084 -0.002292 -0.004063 0.027829 -0.004592
# 6 -0.001843 -0.010608 0.011777 0.011711 -0.004592 0.088953
#
#
# Mechanical properties :
#
#
# Convention : Reuss Voigt Hill
#
# Bulk Modulus (GPa) = 16.69499 37.04053 26.86776
# Shear Modulus (GPa) = 15.36599 24.48501 19.92550
#
# Velocity S-wave (km/s) = 2.85326 3.60174 3.24912
# Velocity P-wave (km/s) = 4.43847 6.07629 5.32078
#
# Compressibility (1/GPa) = 0.05989822
#
# Stress axis : x y z
#
# Youngs Moduli (GPa) = 64.97727 20.09055 57.39977
#
# Poissons Ratio (x) = 0.16519 0.37907
# Poissons Ratio (y) = 0.53426 -0.19988
# Poissons Ratio (z) = 0.42911 -0.06996
#
# Static dielectric constant tensor:
#      x y z
#    x 1.723840 -0.010310 0.035220 
#    y -0.010310 1.673300 0.008690 
#    z 0.035220 0.008690 1.686310 
# 
# From -- ./inp_files/126755.got.cif
#   From: 2010.05.17/outbox.cif.g08.bks.cpg/sg2_64_cif.got.tgz:126755.got - 2010.06.03 11:33:40.
