data_PCOD9045259
_publ_section_title
;
Structure prediction by ZEFSAII (Michael W. Deem and Ramdas Pophale) SiO2 
 PCOD9045259
Probable space group: P -1
;
_chemical_formula_sum "Si O2"
_cell_formula_units_Z 14
_cell_length_a 18.336471
_cell_length_b 8.190787
_cell_length_c 9.219030
_cell_angle_alpha 66.309444
_cell_angle_beta 28.958105
_cell_angle_gamma 59.283860
_cell_volume 572.938829
_symmetry_space_group_name_H-M "P -1"
_symmetry_group_IT_number 2
_symmetry_cell_setting 'triclinic'
loop_
_space_group_symop_operation_xyz
x,y,z
-x,-y,-z
loop_
_atom_site_type_symbol
_atom_site_label
_atom_site_fract_x
_atom_site_fract_y
_atom_site_fract_z
Si Si1 0.096713 0.663091 0.314739
Si Si2 0.365913 0.677718 0.251361
Si Si3 0.713680 0.910819 0.903100
Si Si4 0.481603 0.688431 0.370687
Si Si5 0.017233 0.568565 0.191701
Si Si6 0.737449 0.074630 0.091564
Si Si7 0.004045 0.263580 0.113545
O O1 0.099400 0.498267 0.480184
O O2 0.909139 0.807419 0.594926
O O3 0.127505 0.606006 0.111522
O O4 0.226909 0.750532 0.106434
O O5 0.411594 0.667908 0.344407
O O6 0.187415 0.666250 0.558294
O O7 0.347396 0.890211 0.150220
O O8 0.500000 0.500000 0.000000
O O9 0.631885 0.758545 0.059856
O O10 0.672876 0.970933 0.120046
O O11 0.500000 0.500000 0.500000
O O12 0.365730 0.858873 0.610303
O O13 0.078462 0.398014 0.027778
O O14 0.952795 0.741854 0.130040
O O15 0.913318 0.939450 0.886022
#
# Coordination Sequence:
#
# PCOD9045259 Si02
#       7
#     2   2   2   2   2   2   2
#     4  11  23  42  73 106 144 186 245 297 358 431
#     4  12  28  49  74 104 152 195 249 296 370 438
#     4  12  26  48  74 108 148 197 243 301 372 432
#     4  12  31  49  74 107 151 197 245 302 373 435
#     4  10  24  38  69 107 144 181 239 301 360 420
#     4  12  25  48  76 107 147 190 245 303 363 438
#     4  11  24  45  71 109 141 189 244 307 356 428
#
# _framework density 24.435417999999999
#
# number of rings (size 3 to 8) (size 9 to 14) (size 15 to 20)
#    0.000    0.571    2.857    3.857   10.000    3.429 
#    0.000    0.000    0.000    0.000    0.000    0.000 
#    0.000    0.000    0.000    0.000    0.000    0.000 
#
# Total GULP energy -78271.493220 kJ/mol
# GULP energy per Si atom -5590.820944 kJ/mol
# Density = 2.437980 g / cm^3
# Si number density = 24.435418 Si / 1000 Ang^3
#
#
#
# Elastic Constant Matrix: (Units=GPa)
#
#
# Indices 1 2 3 4 5 6 
#
# 1 157.3391 43.5311 40.7802 5.4273 35.2489 -6.5496
# 2 43.5311 94.2019 48.4544 -13.6137 0.5284 -16.7209
# 3 40.7802 48.4544 104.0771 16.4881 0.0771 -12.9402
# 4 5.4273 -13.6137 16.4881 42.5463 2.8060 7.1910
# 5 35.2489 0.5284 0.0771 2.8060 44.6388 -11.5500
# 6 -6.5496 -16.7209 -12.9402 7.1910 -11.5500 39.7139
#
#
#
# Elastic Compliance Matrix: (Units=1/GPa)
#
#
# Indices 1 2 3 4 5 6 
#
# 1 0.009842 -0.003941 -0.002328 -0.000516 -0.008510 -0.003176
# 2 -0.003941 0.018422 -0.007898 0.008563 0.003396 0.003970
# 3 -0.002328 -0.007898 0.016242 -0.009500 0.003629 0.004358
# 4 -0.000516 0.008563 -0.009500 0.031249 -0.003240 -0.006176
# 5 -0.008510 0.003396 0.003629 -0.003240 0.032164 0.011150
# 6 -0.003176 0.003970 0.004358 -0.006176 0.011150 0.032109
#
#
# Mechanical properties :
#
#
# Convention : Reuss Voigt Hill
#
# Bulk Modulus (GPa) = 61.83821 69.01660 65.42740
# Shear Modulus (GPa) = 28.77652 40.23662 34.50657
#
# Velocity S-wave (km/s) = 3.43542 4.06230 3.76194
# Velocity P-wave (km/s) = 6.41076 7.09287 6.76043
#
# Compressibility (1/GPa) = 0.01617123
#
# Stress axis : x y z
#
# Youngs Moduli (GPa) = 101.60921 54.28217 61.56908
#
# Poissons Ratio (x) = 0.21392 0.14336
# Poissons Ratio (y) = 0.40043 0.48628
# Poissons Ratio (z) = 0.23659 0.42872
#
# Static dielectric constant tensor:
#      x y z
#    x 1.914650 -0.006720 0.011340 
#    y -0.006720 2.013420 0.006140 
#    z 0.011340 0.006140 1.941950 
# 
# From -- ./inp_files/328648.got.cif
#   From: 2010.05.17/outbox.cif.g08.bks.cpg/sg2_165_cif.got.tgz:328648.got - 2010.06.03 11:33:40.
