data_PCOD9045553
_publ_section_title
;
Structure prediction by ZEFSAII (Michael W. Deem and Ramdas Pophale) SiO2 
 PCOD9045553
Probable space group: P -1
;
_chemical_formula_sum "Si O2"
_cell_formula_units_Z 13
_cell_length_a 8.208347
_cell_length_b 14.658148
_cell_length_c 8.394123
_cell_angle_alpha 78.014694
_cell_angle_beta 100.165966
_cell_angle_gamma 144.424856
_cell_volume 574.712880
_symmetry_space_group_name_H-M "P -1"
_symmetry_group_IT_number 2
_symmetry_cell_setting 'triclinic'
loop_
_space_group_symop_operation_xyz
x,y,z
-x,-y,-z
loop_
_atom_site_type_symbol
_atom_site_label
_atom_site_fract_x
_atom_site_fract_y
_atom_site_fract_z
Si Si1 0.370213 0.225517 0.128448
Si Si2 0.651699 0.617457 0.334047
Si Si3 0.173763 0.832576 0.537736
Si Si4 0.882586 0.411337 0.343311
Si Si5 0.577935 0.281403 0.812684
Si Si6 0.119990 0.987971 0.663318
Si Si7 0.500000 0.500000 0.000000
O O1 0.568919 0.296434 0.287819
O O2 0.057194 0.066984 0.190646
O O3 0.481175 0.217757 0.999107
O O4 0.401890 0.346335 0.038467
O O5 0.500000 0.500000 0.500000
O O6 0.543646 0.674032 0.281150
O O7 0.981464 0.766016 0.375503
O O8 0.576770 0.528720 0.194255
O O9 0.111935 0.698220 0.624723
O O10 0.079853 0.863934 0.644426
O O11 0.500000 0.000000 0.500000
O O12 0.000000 0.500000 0.500000
O O13 0.089430 0.555142 0.200755
O O14 0.442682 0.149684 0.709707
O O15 0.000000 0.000000 0.500000
#
# Coordination Sequence:
#
# PCOD9045553 Si02
#       7
#     2   2   2   2   2   2   1
#     4  11  25  44  70 101 142 181 236 291 358 419
#     4  11  21  42  71 101 140 183 242 288 352 425
#     4  12  25  42  71 106 142 184 238 294 362 423
#     4  12  25  44  71 102 141 185 236 293 351 424
#     4  11  24  43  69 100 140 186 233 293 352 419
#     4  12  24  44  71 101 138 184 236 289 352 427
#     4  10  24  40  72 106 132 182 240 292 346 420
#
# _framework density 22.619993000000001
#
# number of rings (size 3 to 8) (size 9 to 14) (size 15 to 20)
#    0.000    0.615    3.077    5.538    2.154    0.000 
#    0.000    0.769    0.000    0.000    0.000    0.000 
#    0.000    0.000    0.000    0.000    0.000    0.000 
#
# Total GULP energy -72488.075317 kJ/mol
# GULP energy per Si atom -5576.005794 kJ/mol
# Density = 2.256851 g / cm^3
# Si number density = 22.619993 Si / 1000 Ang^3
#
#
#
# Elastic Constant Matrix: (Units=GPa)
#
#
# Indices 1 2 3 4 5 6 
#
# 1 31.6750 20.8061 -0.2566 -10.2513 -7.6529 -1.9938
# 2 20.8061 107.0124 23.9179 18.9868 -15.4063 0.1161
# 3 -0.2566 23.9179 97.8383 15.7866 -26.3733 -0.7298
# 4 -10.2513 18.9868 15.7866 27.5242 -6.2116 2.0432
# 5 -7.6529 -15.4063 -26.3733 -6.2116 34.7172 1.4696
# 6 -1.9938 0.1161 -0.7298 2.0432 1.4696 51.9793
#
#
#
# Elastic Compliance Matrix: (Units=1/GPa)
#
#
# Indices 1 2 3 4 5 6 
#
# 1 0.055278 -0.015163 0.002033 0.032739 0.012836 0.000533
# 2 -0.015163 0.015296 -0.001381 -0.015490 -0.000374 -0.000016
# 3 0.002033 -0.001381 0.013804 -0.004056 0.009590 0.000163
# 4 0.032739 -0.015490 -0.004056 0.063614 0.008708 -0.001513
# 5 0.012836 -0.000374 0.009590 0.008708 0.040347 -0.000855
# 6 0.000533 -0.000016 0.000163 -0.001513 -0.000855 0.019345
#
#
# Mechanical properties :
#
#
# Convention : Reuss Voigt Hill
#
# Bulk Modulus (GPa) = 18.06464 36.16227 27.11345
# Shear Modulus (GPa) = 19.59577 35.64803 27.62190
#
# Velocity S-wave (km/s) = 2.94650 3.97413 3.49825
# Velocity P-wave (km/s) = 4.42485 6.08932 5.32255
#
# Compressibility (1/GPa) = 0.05535677
#
# Stress axis : x y z
#
# Youngs Moduli (GPa) = 18.09052 65.37681 72.44049
#
# Poissons Ratio (x) = 0.99132 -0.14729
# Poissons Ratio (y) = 0.27431 0.10002
# Poissons Ratio (z) = -0.03678 0.09026
#
# Static dielectric constant tensor:
#      x y z
#    x 1.863620 0.026370 -0.051590 
#    y 0.026370 1.854110 0.001270 
#    z -0.051590 0.001270 1.848220 
# 
# From -- ./inp_files/152943.got.cif
#   From: 2010.05.17/outbox.cif.g08.bks.cpg/sg2_77_cif.got.tgz:152943.got - 2010.06.03 11:33:40.
