data_PCOD9045782
_publ_section_title
;
Structure prediction by ZEFSAII (Michael W. Deem and Ramdas Pophale) SiO2 
 PCOD9045782
Probable space group: P -1
;
_chemical_formula_sum "Si O2"
_cell_formula_units_Z 14
_cell_length_a 19.369506
_cell_length_b 8.016767
_cell_length_c 18.652325
_cell_angle_alpha 36.874130
_cell_angle_beta 20.801579
_cell_angle_gamma 35.604113
_cell_volume 587.570579
_symmetry_space_group_name_H-M "P -1"
_symmetry_group_IT_number 2
_symmetry_cell_setting 'triclinic'
loop_
_space_group_symop_operation_xyz
x,y,z
-x,-y,-z
loop_
_atom_site_type_symbol
_atom_site_label
_atom_site_fract_x
_atom_site_fract_y
_atom_site_fract_z
Si Si1 0.836980 0.608540 0.917720
Si Si2 0.046443 0.073443 0.535772
Si Si3 0.679360 0.112237 0.530202
Si Si4 0.994729 0.662773 0.305627
Si Si5 0.869180 0.613806 0.159889
Si Si6 0.562283 0.261419 0.811324
Si Si7 0.363718 0.849537 0.878619
O O1 0.933399 0.447775 0.805638
O O2 0.970752 0.445094 0.910318
O O3 0.597942 0.641805 0.132555
O O4 0.872290 0.925400 0.770936
O O5 0.975069 0.394030 0.463219
O O6 0.184634 0.052727 0.479013
O O7 0.208291 0.866487 0.394162
O O8 0.710599 0.428436 0.389608
O O9 0.464486 0.050177 0.758124
O O10 0.794891 0.938649 0.407757
O O11 0.179352 0.766333 0.123464
O O12 0.740860 0.947448 0.156611
O O13 0.000000 0.500000 0.000000
O O14 0.518128 0.543754 0.807506
O O15 0.500000 0.000000 0.000000
#
# Coordination Sequence:
#
# PCOD9045782 Si02
#       7
#     2   2   2   2   2   2   2
#     4  10  24  41  69  91 132 171 215 265 319 377
#     4  11  23  40  65 100 133 169 212 259 330 384
#     4  11  25  41  67  95 131 173 213 268 320 375
#     4  11  22  41  64  99 129 169 212 264 326 383
#     4  11  24  47  65  92 130 173 220 265 320 375
#     4  11  23  42  66 101 129 167 212 266 323 386
#     4  11  24  43  65  93 132 167 218 264 317 380
#
# _framework density 23.826924999999999
#
# number of rings (size 3 to 8) (size 9 to 14) (size 15 to 20)
#    0.000    1.143    4.286    2.143    4.000    2.857 
#    0.000    3.571    0.000    0.000    0.000    0.000 
#    0.000    0.000    0.000    0.000    0.000    0.000 
#
# Total GULP energy -78378.825678 kJ/mol
# GULP energy per Si atom -5598.487548 kJ/mol
# Density = 2.377269 g / cm^3
# Si number density = 23.826925 Si / 1000 Ang^3
#
#
#
# Elastic Constant Matrix: (Units=GPa)
#
#
# Indices 1 2 3 4 5 6 
#
# 1 86.9036 5.4741 20.6300 -19.0140 -12.9404 -9.8310
# 2 5.4741 111.5818 10.8865 -20.1825 5.0489 -7.4617
# 3 20.6300 10.8865 85.1868 -11.0335 -30.8447 -5.5523
# 4 -19.0140 -20.1825 -11.0335 32.7596 3.6470 4.2297
# 5 -12.9404 5.0489 -30.8447 3.6470 40.2563 5.4143
# 6 -9.8310 -7.4617 -5.5523 4.2297 5.4143 25.8964
#
#
#
# Elastic Compliance Matrix: (Units=1/GPa)
#
#
# Indices 1 2 3 4 5 6 
#
# 1 0.014210 0.000991 -0.001608 0.007617 0.002028 0.003667
# 2 0.000991 0.010597 -0.001778 0.006530 -0.003324 0.002677
# 3 -0.001608 -0.001778 0.017266 0.002427 0.012781 -0.000489
# 4 0.007617 0.006530 0.002427 0.039942 0.000037 -0.001238
# 5 0.002028 -0.003324 0.012781 0.000037 0.036380 -0.005060
# 6 0.003667 0.002677 -0.000489 -0.001238 -0.005060 0.041934
#
#
# Mechanical properties :
#
#
# Convention : Reuss Voigt Hill
#
# Bulk Modulus (GPa) = 26.82145 39.73927 33.28036
# Shear Modulus (GPa) = 28.16166 36.22790 32.19478
#
# Velocity S-wave (km/s) = 3.44164 3.90354 3.67985
# Velocity P-wave (km/s) = 5.20331 6.08534 5.66153
#
# Compressibility (1/GPa) = 0.03728359
#
# Stress axis : x y z
#
# Youngs Moduli (GPa) = 70.37442 94.36303 57.91794
#
# Poissons Ratio (x) = -0.09351 0.09313
# Poissons Ratio (y) = -0.06974 0.10296
# Poissons Ratio (z) = 0.11316 0.16775
#
# Static dielectric constant tensor:
#      x y z
#    x 1.959920 0.030200 -0.014380 
#    y 0.030200 1.872850 0.030800 
#    z -0.014380 0.030800 1.959680 
# 
# From -- ./inp_files/253837.got.cif
#   From: 2010.05.17/outbox.cif.g08.bks.cpg/sg2_127_cif.got.tgz:253837.got - 2010.06.03 11:33:40.
