data_PCOD9045970
_publ_section_title
;
Structure prediction by ZEFSAII (Michael W. Deem and Ramdas Pophale) SiO2 
 PCOD9045970
Probable space group: P -1
;
_chemical_formula_sum "Si O2"
_cell_formula_units_Z 16
_cell_length_a 8.770422
_cell_length_b 12.304548
_cell_length_c 8.849023
_cell_angle_alpha 102.227835
_cell_angle_beta 128.200585
_cell_angle_gamma 73.398667
_cell_volume 718.385629
_symmetry_space_group_name_H-M "P -1"
_symmetry_group_IT_number 2
_symmetry_cell_setting 'triclinic'
loop_
_space_group_symop_operation_xyz
x,y,z
-x,-y,-z
loop_
_atom_site_type_symbol
_atom_site_label
_atom_site_fract_x
_atom_site_fract_y
_atom_site_fract_z
Si Si1 0.744132 0.987451 0.980857
Si Si2 0.962459 0.632550 0.716321
Si Si3 0.133202 0.812460 0.063657
Si Si4 0.778778 0.227852 0.565071
Si Si5 0.406413 0.407377 0.325157
Si Si6 0.674840 0.556751 0.060852
Si Si7 0.698773 0.008380 0.315644
Si Si8 0.168739 0.255802 0.651139
O O1 0.745927 0.010418 0.167300
O O2 0.761247 0.100423 0.934254
O O3 0.537604 0.954035 0.803268
O O4 0.926660 0.888429 0.019379
O O5 0.774057 0.620905 0.697610
O O6 0.891152 0.683425 0.525966
O O7 0.117073 0.513728 0.769743
O O8 0.082470 0.717339 0.896018
O O9 0.247371 0.760400 0.267779
O O10 0.586406 0.299683 0.387738
O O11 0.974884 0.268711 0.642653
O O12 0.799335 0.096359 0.493596
O O13 0.500000 0.500000 0.500000
O O14 0.330732 0.447629 0.124660
O O15 0.668897 0.685003 0.151102
O O16 0.500000 0.500000 0.000000
O O17 0.758482 0.878611 0.367453
#
# Coordination Sequence:
#
# PCOD9045970 Si02
#       8
#     2   2   2   2   2   2   2   2
#     4  10  24  42  65  94 140 178 227 268 333 393
#     4  12  26  45  71  99 135 174 227 283 340 396
#     4  11  24  42  67  98 139 177 223 276 337 394
#     4  12  25  43  69 102 140 180 225 274 335 403
#     4  12  26  46  72 101 136 176 227 282 342 395
#     4  12  27  48  73  98 133 177 229 282 339 400
#     4  11  25  42  68  98 140 181 227 270 333 402
#     4  12  26  44  70 101 136 179 228 275 337 403
#
# _framework density 22.272161000000001
#
# number of rings (size 3 to 8) (size 9 to 14) (size 15 to 20)
#    0.000    0.500    1.250    6.375   10.500    0.500 
#    0.000    0.000    0.000    0.000    0.000    0.000 
#    0.000    0.000    0.000    0.000    0.000    0.000 
#
# Total GULP energy -89691.993603 kJ/mol
# GULP energy per Si atom -5605.749600 kJ/mol
# Density = 2.222147 g / cm^3
# Si number density = 22.272161 Si / 1000 Ang^3
#
#
#
# Elastic Constant Matrix: (Units=GPa)
#
#
# Indices 1 2 3 4 5 6 
#
# 1 76.0642 35.7817 25.3590 -7.7257 6.5252 26.6293
# 2 35.7817 80.3229 22.7582 10.9700 -9.1567 14.5348
# 3 25.3590 22.7582 108.2094 1.9304 -23.1931 27.1438
# 4 -7.7257 10.9700 1.9304 50.9828 5.5065 -0.6391
# 5 6.5252 -9.1567 -23.1931 5.5065 41.6557 -8.9704
# 6 26.6293 14.5348 27.1438 -0.6391 -8.9704 32.4719
#
#
#
# Elastic Compliance Matrix: (Units=1/GPa)
#
#
# Indices 1 2 3 4 5 6 
#
# 1 0.027713 -0.010732 -0.002323 0.007780 -0.013217 -0.019479
# 2 -0.010732 0.018525 -0.000460 -0.006307 0.006908 0.002677
# 3 -0.002323 -0.000460 0.013012 -0.001502 0.006180 -0.007089
# 4 0.007780 -0.006307 -0.001502 0.022948 -0.007308 -0.003868
# 5 -0.013217 0.006908 0.006180 -0.007308 0.034584 0.011991
# 6 -0.019479 0.002677 -0.007089 -0.003868 0.011991 0.054734
#
#
# Mechanical properties :
#
#
# Convention : Reuss Voigt Hill
#
# Bulk Modulus (GPa) = 31.03490 48.04380 39.53935
# Shear Modulus (GPa) = 23.89093 37.06860 30.47976
#
# Velocity S-wave (km/s) = 3.27873 4.08407 3.70336
# Velocity P-wave (km/s) = 5.31960 6.62250 6.00648
#
# Compressibility (1/GPa) = 0.03222179
#
# Stress axis : x y z
#
# Youngs Moduli (GPa) = 36.08426 53.98098 76.85336
#
# Poissons Ratio (x) = 0.57930 0.17852
# Poissons Ratio (y) = 0.38724 0.03532
# Poissons Ratio (z) = 0.08382 0.02481
#
# Static dielectric constant tensor:
#      x y z
#    x 1.784580 -0.029480 0.009390 
#    y -0.029480 1.841620 0.002820 
#    z 0.009390 0.002820 1.774250 
# 
# From -- ./inp_files/187968.got.cif
#   From: 2010.05.17/outbox.cif.g08.bks.cpg/sg2_94_cif.got.tgz:187968.got - 2010.06.03 11:33:40.
