data_PCOD9045730
_publ_section_title
;
Structure prediction by ZEFSAII (Michael W. Deem and Ramdas Pophale) SiO2 
 PCOD9045730
Probable space group: P -1
;
_chemical_formula_sum "Si O2"
_cell_formula_units_Z 16
_cell_length_a 5.368570
_cell_length_b 12.395623
_cell_length_c 19.549279
_cell_angle_alpha 146.433324
_cell_angle_beta 85.265982
_cell_angle_gamma 95.572657
_cell_volume 715.897012
_symmetry_space_group_name_H-M "P -1"
_symmetry_group_IT_number 2
_symmetry_cell_setting 'triclinic'
loop_
_space_group_symop_operation_xyz
x,y,z
-x,-y,-z
loop_
_atom_site_type_symbol
_atom_site_label
_atom_site_fract_x
_atom_site_fract_y
_atom_site_fract_z
Si Si1 0.915930 0.661943 0.354643
Si Si2 0.784522 0.332900 0.773436
Si Si3 0.718957 0.050365 0.862207
Si Si4 0.553663 0.403826 0.149827
Si Si5 0.422627 0.865034 0.498272
Si Si6 0.248733 0.112345 0.083225
Si Si7 0.496054 0.911720 0.250657
Si Si8 0.125803 0.337836 0.955427
O O1 0.786119 0.452672 0.221939
O O2 0.682493 0.757889 0.445713
O O3 0.009528 0.744406 0.322119
O O4 0.176712 0.718801 0.417341
O O5 0.528521 0.389909 0.770829
O O6 0.748718 0.182841 0.756243
O O7 0.850097 0.548410 0.913967
O O8 0.555593 0.983708 0.764841
O O9 0.974073 0.137533 0.869583
O O10 0.761221 0.894822 0.838201
O O11 0.613665 0.241694 0.005336
O O12 0.319393 0.317061 0.153771
O O13 0.500000 0.000000 0.500000
O O14 0.376265 0.977481 0.629933
O O15 0.500000 0.000000 0.000000
O O16 0.000000 0.000000 0.000000
O O17 0.632773 0.721108 0.121674
O O18 0.000000 0.500000 0.000000
#
# Coordination Sequence:
#
# PCOD9045730 Si02
#       8
#     2   2   2   2   2   2   2   2
#     4  12  25  42  65  94 125 181 227 272 317 383
#     4  12  22  38  62  98 133 170 217 269 338 396
#     4  11  23  39  63  97 135 171 210 272 344 403
#     4  11  22  42  67  96 133 168 225 276 331 397
#     4  12  27  42  64  89 136 181 233 265 317 387
#     4  10  24  41  67  98 134 174 213 271 338 404
#     4  12  26  39  60  96 139 179 214 274 330 402
#     4  12  23  34  62  98 140 171 210 261 345 413
#
# _framework density 22.349581000000001
#
# number of rings (size 3 to 8) (size 9 to 14) (size 15 to 20)
#    0.000    0.500    6.250    2.250    7.000    0.000 
#    0.000    0.000    0.000    1.500    0.000    0.000 
#    0.000    0.000    0.000    0.000    0.000    0.000 
#
# Total GULP energy -89138.109964 kJ/mol
# GULP energy per Si atom -5571.131873 kJ/mol
# Density = 2.229871 g / cm^3
# Si number density = 22.349581 Si / 1000 Ang^3
#
#
#
# Elastic Constant Matrix: (Units=GPa)
#
#
# Indices 1 2 3 4 5 6 
#
# 1 117.7870 23.5824 28.4383 -9.0587 22.9345 6.1040
# 2 23.5824 110.5645 26.7316 -28.3246 12.8639 6.6573
# 3 28.4383 26.7316 104.3901 -22.5327 23.7113 -5.8669
# 4 -9.0587 -28.3246 -22.5327 25.5964 -2.9377 3.0163
# 5 22.9345 12.8639 23.7113 -2.9377 37.6442 1.0815
# 6 6.1040 6.6573 -5.8669 3.0163 1.0815 28.5713
#
#
#
# Elastic Compliance Matrix: (Units=1/GPa)
#
#
# Indices 1 2 3 4 5 6 
#
# 1 0.010132 -0.000833 -0.001288 0.001222 -0.004919 -0.002178
# 2 -0.000833 0.013696 0.000536 0.015489 -0.003174 -0.004418
# 3 -0.001288 0.000536 0.014063 0.011415 -0.007426 0.002114
# 4 0.001222 0.015489 0.011415 0.066772 -0.007779 -0.008281
# 5 -0.004919 -0.003174 -0.007426 -0.007779 0.034723 -0.000227
# 6 -0.002178 -0.004418 0.002114 -0.008281 -0.000227 0.037812
#
#
# Mechanical properties :
#
#
# Convention : Reuss Voigt Hill
#
# Bulk Modulus (GPa) = 28.80199 54.47179 41.63689
# Shear Modulus (GPa) = 26.04944 35.29499 30.67221
#
# Velocity S-wave (km/s) = 3.41771 3.97826 3.70859
# Velocity P-wave (km/s) = 5.33754 6.74741 6.08346
#
# Compressibility (1/GPa) = 0.03471982
#
# Stress axis : x y z
#
# Youngs Moduli (GPa) = 98.69350 73.01400 71.10998
#
# Poissons Ratio (x) = 0.06083 0.09161
# Poissons Ratio (y) = 0.08223 -0.03810
# Poissons Ratio (z) = 0.12714 -0.03912
#
# Static dielectric constant tensor:
#      x y z
#    x 2.045270 -0.136680 0.115500 
#    y -0.136680 1.920300 -0.033400 
#    z 0.115500 -0.033400 1.989280 
# 
# From -- ./inp_files/549313.got.cif
#   From: 2010.05.17/outbox.cif.g08.bks.cpg/sg2_275_cif.got.tgz:549313.got - 2010.06.03 11:33:40.
