data_PCOD9045814
_publ_section_title
;
Structure prediction by ZEFSAII (Michael W. Deem and Ramdas Pophale) SiO2 
 PCOD9045814
Probable space group: P -1
;
_chemical_formula_sum "Si O2"
_cell_formula_units_Z 14
_cell_length_a 5.221988
_cell_length_b 12.564455
_cell_length_c 10.685305
_cell_angle_alpha 109.735663
_cell_angle_beta 108.119433
_cell_angle_gamma 92.438165
_cell_volume 618.582291
_symmetry_space_group_name_H-M "P -1"
_symmetry_group_IT_number 2
_symmetry_cell_setting 'triclinic'
loop_
_space_group_symop_operation_xyz
x,y,z
-x,-y,-z
loop_
_atom_site_type_symbol
_atom_site_label
_atom_site_fract_x
_atom_site_fract_y
_atom_site_fract_z
Si Si1 0.554086 0.134086 0.589602
Si Si2 0.753534 0.933505 0.019132
Si Si3 0.554947 0.316184 0.204569
Si Si4 0.251987 0.430731 0.013276
Si Si5 0.834305 0.816881 0.231401
Si Si6 0.450703 0.681096 0.525706
Si Si7 0.096564 0.460202 0.362022
O O1 0.418123 0.166723 0.711346
O O2 0.440443 0.211350 0.498550
O O3 0.880374 0.168648 0.647712
O O4 0.500000 0.000000 0.500000
O O5 0.856883 0.914657 0.167157
O O6 0.618646 0.804974 0.907918
O O7 0.500000 0.000000 0.000000
O O8 0.000000 0.000000 0.000000
O O9 0.843808 0.384669 0.222967
O O10 0.664346 0.285211 0.346254
O O11 0.357209 0.403761 0.158342
O O12 0.194387 0.307063 0.887381
O O13 0.500000 0.500000 0.000000
O O14 0.000000 0.500000 0.000000
O O15 0.243000 0.584118 0.382623
O O16 0.681807 0.617061 0.595341
O O17 0.000000 0.500000 0.500000
#
# Coordination Sequence:
#
# PCOD9045814 Si02
#       7
#     2   2   2   2   2   2   2
#     4  12  28  47  73 103 148 197 244 299 364 435
#     4  11  26  46  76 100 139 188 236 306 357 423
#     4  10  25  42  70 104 137 182 247 288 363 438
#     4  11  26  45  73 104 144 189 228 301 370 429
#     4  11  27  48  69 108 144 182 250 291 364 435
#     4  10  24  41  71 102 142 188 240 295 366 428
#     4   9  21  41  65 101 138 177 238 291 358 427
#
# _framework density 22.632397000000001
#
# number of rings (size 3 to 8) (size 9 to 14) (size 15 to 20)
#    0.000    1.429    0.000    2.143   14.000    6.857 
#    0.000    0.000    0.000    0.000    0.000    0.000 
#    0.000    0.000    0.000    0.000    0.000    0.000 
#
# Total GULP energy -78057.680684 kJ/mol
# GULP energy per Si atom -5575.548620 kJ/mol
# Density = 2.258088 g / cm^3
# Si number density = 22.632397 Si / 1000 Ang^3
#
#
#
# Elastic Constant Matrix: (Units=GPa)
#
#
# Indices 1 2 3 4 5 6 
#
# 1 111.8579 43.9971 4.7362 8.1659 9.8581 5.7430
# 2 43.9971 176.9355 39.4099 -3.7649 -4.3270 12.5001
# 3 4.7362 39.4099 54.9962 6.2176 5.4522 13.6098
# 4 8.1659 -3.7649 6.2176 40.7547 8.9527 2.3151
# 5 9.8581 -4.3270 5.4522 8.9527 37.1488 3.0654
# 6 5.7430 12.5001 13.6098 2.3151 3.0654 27.9367
#
#
#
# Elastic Compliance Matrix: (Units=1/GPa)
#
#
# Indices 1 2 3 4 5 6 
#
# 1 0.010549 -0.003127 0.002181 -0.002025 -0.002884 -0.001347
# 2 -0.003127 0.007806 -0.005616 0.001753 0.002182 -0.000499
# 3 0.002181 -0.005616 0.025096 -0.003523 -0.003282 -0.009510
# 4 -0.002025 0.001753 -0.003523 0.026796 -0.005174 -0.000305
# 5 -0.002884 0.002182 -0.003282 -0.005174 0.029801 -0.001626
# 6 -0.001347 -0.000499 -0.009510 -0.000305 -0.001626 0.041132
#
#
# Mechanical properties :
#
#
# Convention : Reuss Voigt Hill
#
# Bulk Modulus (GPa) = 32.97342 57.78622 45.37982
# Shear Modulus (GPa) = 30.41108 38.21112 34.31110
#
# Velocity S-wave (km/s) = 3.66962 4.11340 3.89783
# Velocity P-wave (km/s) = 5.70575 6.93887 6.35231
#
# Compressibility (1/GPa) = 0.03032745
#
# Stress axis : x y z
#
# Youngs Moduli (GPa) = 94.79696 128.10449 39.84630
#
# Poissons Ratio (x) = 0.40062 -0.08690
# Poissons Ratio (y) = 0.29646 0.22376
# Poissons Ratio (z) = -0.20674 0.71938
#
# Static dielectric constant tensor:
#      x y z
#    x 1.802790 0.016490 0.151100 
#    y 0.016490 1.758120 -0.034490 
#    z 0.151100 -0.034490 1.817150 
# 
# From -- ./inp_files/365285.got.cif
#   From: 2010.05.17/outbox.cif.g08.bks.cpg/sg2_183_cif.got.tgz:365285.got - 2010.06.03 11:33:40.
