data_PCOD9045796
_publ_section_title
;
Structure prediction by ZEFSAII (Michael W. Deem and Ramdas Pophale) SiO2 
 PCOD9045796
Probable space group: P -1
;
_chemical_formula_sum "Si O2"
_cell_formula_units_Z 16
_cell_length_a 9.769257
_cell_length_b 11.002971
_cell_length_c 8.513251
_cell_angle_alpha 98.747604
_cell_angle_beta 108.850591
_cell_angle_gamma 122.644181
_cell_volume 665.250882
_symmetry_space_group_name_H-M "P -1"
_symmetry_group_IT_number 2
_symmetry_cell_setting 'triclinic'
loop_
_space_group_symop_operation_xyz
x,y,z
-x,-y,-z
loop_
_atom_site_type_symbol
_atom_site_label
_atom_site_fract_x
_atom_site_fract_y
_atom_site_fract_z
Si Si1 0.001657 0.459811 0.314510
Si Si2 0.373587 0.616507 0.283519
Si Si3 0.596007 0.884962 0.899010
Si Si4 0.313774 0.235359 0.343356
Si Si5 0.914594 0.063829 0.582464
Si Si6 0.965631 0.203388 0.111656
Si Si7 0.873208 0.621690 0.103763
Si Si8 0.549603 0.935914 0.242248
O O1 0.202646 0.543078 0.326234
O O2 0.900299 0.274868 0.219274
O O3 0.000000 0.500000 0.500000
O O4 0.910376 0.517097 0.189154
O O5 0.547287 0.651767 0.445472
O O6 0.430635 0.783793 0.281236
O O7 0.313144 0.502051 0.089395
O O8 0.522477 0.964719 0.792605
O O9 0.566589 0.749218 0.757059
O O10 0.819064 0.016720 0.020525
O O11 0.534774 0.862982 0.051462
O O12 0.164457 0.255769 0.242327
O O13 0.195355 0.058304 0.337972
O O14 0.080725 0.240794 0.737474
O O15 0.756592 0.045939 0.415586
O O16 0.000000 0.000000 0.500000
O O17 0.979276 0.275751 0.962212
#
# Coordination Sequence:
#
# PCOD9045796 Si02
#       8
#     2   2   2   2   2   2   2   2
#     4  11  26  43  74 100 135 186 236 287 342 421
#     4  10  24  47  66 101 143 177 236 282 353 413
#     4  11  22  40  71 104 138 181 239 290 346 413
#     4  11  25  41  72 104 139 188 227 295 349 410
#     4  11  25  43  70 104 141 185 234 281 351 422
#     4  11  23  45  71 101 141 184 238 283 352 417
#     4  11  24  44  72  96 137 187 225 283 350 406
#     4  10  24  41  70 102 144 180 233 296 344 408
#
# _framework density 24.051075999999998
#
# number of rings (size 3 to 8) (size 9 to 14) (size 15 to 20)
#    0.000    1.250    1.250    4.125    7.000    5.000 
#    0.000    2.500    2.750    0.000    0.000    0.000 
#    0.000    0.000    0.000    0.000    0.000    0.000 
#
# Total GULP energy -89555.369822 kJ/mol
# GULP energy per Si atom -5597.210614 kJ/mol
# Density = 2.399633 g / cm^3
# Si number density = 24.051076 Si / 1000 Ang^3
#
#
#
# Elastic Constant Matrix: (Units=GPa)
#
#
# Indices 1 2 3 4 5 6 
#
# 1 86.0217 15.2050 72.7437 -2.1223 -0.1428 -18.2604
# 2 15.2050 69.8395 44.0517 -10.8767 4.5221 -7.7511
# 3 72.7437 44.0517 171.0340 11.8712 8.3189 -24.4796
# 4 -2.1223 -10.8767 11.8712 50.9973 -5.1074 -1.7548
# 5 -0.1428 4.5221 8.3189 -5.1074 41.1125 2.2202
# 6 -18.2604 -7.7511 -24.4796 -1.7548 2.2202 33.4468
#
#
#
# Elastic Compliance Matrix: (Units=1/GPa)
#
#
# Indices 1 2 3 4 5 6 
#
# 1 0.019589 0.002090 -0.008480 0.003582 0.001727 0.005046
# 2 0.002090 0.018562 -0.005821 0.005426 -0.000263 0.001484
# 3 -0.008480 -0.005821 0.011749 -0.004488 -0.002462 0.002548
# 4 0.003582 0.005426 -0.004488 0.022296 0.003045 0.000895
# 5 0.001727 -0.000263 -0.002462 0.003045 0.025367 -0.002444
# 6 0.005046 0.001484 0.002548 0.000895 -0.002444 0.035071
#
#
# Mechanical properties :
#
#
# Convention : Reuss Voigt Hill
#
# Bulk Modulus (GPa) = 39.25052 65.65510 52.45281
# Shear Modulus (GPa) = 30.20256 38.10432 34.15344
#
# Velocity S-wave (km/s) = 3.54753 3.98466 3.77243
# Velocity P-wave (km/s) = 5.75630 6.96616 6.38993
#
# Compressibility (1/GPa) = 0.02547737
#
# Stress axis : x y z
#
# Youngs Moduli (GPa) = 51.04847 53.87349 85.11428
#
# Poissons Ratio (x) = -0.11261 0.72180
# Poissons Ratio (y) = -0.10670 0.49547
# Poissons Ratio (z) = 0.43291 0.31361
#
# Static dielectric constant tensor:
#      x y z
#    x 1.894690 0.037990 -0.013090 
#    y 0.037990 1.939650 0.035620 
#    z -0.013090 0.035620 1.956440 
# 
# From -- ./inp_files/189440.got.cif
#   From: 2010.05.17/outbox.cif.g08.bks.cpg/sg2_95_cif.got.tgz:189440.got - 2010.06.03 11:33:40.
