data_PCOD9045973
_publ_section_title
;
Structure prediction by ZEFSAII (Michael W. Deem and Ramdas Pophale) SiO2 
 PCOD9045973
Probable space group: P -1
;
_chemical_formula_sum "Si O2"
_cell_formula_units_Z 16
_cell_length_a 6.515242
_cell_length_b 9.187316
_cell_length_c 17.329189
_cell_angle_alpha 106.623932
_cell_angle_beta 110.779732
_cell_angle_gamma 48.404084
_cell_volume 723.368693
_symmetry_space_group_name_H-M "P -1"
_symmetry_group_IT_number 2
_symmetry_cell_setting 'triclinic'
loop_
_space_group_symop_operation_xyz
x,y,z
-x,-y,-z
loop_
_atom_site_type_symbol
_atom_site_label
_atom_site_fract_x
_atom_site_fract_y
_atom_site_fract_z
Si Si1 0.800152 0.263586 0.770018
Si Si2 0.344237 0.843750 0.530077
Si Si3 0.661811 0.469655 0.938260
Si Si4 0.293736 0.206017 0.044124
Si Si5 0.567481 0.046288 0.206036
Si Si6 0.540851 0.377578 0.330307
Si Si7 0.230775 0.424862 0.582402
Si Si8 0.496458 0.092225 0.664353
O O1 0.632656 0.375898 0.844034
O O2 0.714973 0.421565 0.715728
O O3 0.727682 0.127056 0.706965
O O4 0.129220 0.132788 0.813418
O O5 0.447421 0.686426 0.589050
O O6 0.480345 0.727522 0.450918
O O7 0.479005 0.950869 0.585341
O O8 0.000000 0.000000 0.500000
O O9 0.596912 0.669656 0.933362
O O10 0.500000 0.500000 0.000000
O O11 0.986804 0.327585 0.986135
O O12 0.313996 0.152910 0.128326
O O13 0.500000 0.000000 0.000000
O O14 0.517082 0.967577 0.261747
O O15 0.596122 0.205473 0.262591
O O16 0.782060 0.400509 0.361008
O O17 0.226470 0.306433 0.632231
O O18 0.000000 0.500000 0.500000
#
# Coordination Sequence:
#
# PCOD9045973 Si02
#       8
#     2   2   2   2   2   2   2   2
#     4  11  24  45  68  98 140 177 224 288 338 410
#     4  11  24  43  69  97 136 183 231 281 345 410
#     4  11  26  45  70 104 142 177 230 280 338 412
#     4  11  24  46  69 102 136 186 223 278 342 410
#     4  11  24  45  70  96 141 177 229 282 345 404
#     4  10  24  42  65  95 131 181 220 280 344 402
#     4  11  24  41  65  99 138 171 231 287 337 405
#     4  10  26  40  66  99 131 179 225 282 340 406
#
# _framework density 22.118735000000001
#
# number of rings (size 3 to 8) (size 9 to 14) (size 15 to 20)
#    0.000    1.250    2.500    1.500   12.250    1.500 
#    0.000    0.000    0.000    0.000    0.000    0.000 
#    0.000    0.000    0.000    0.000    0.000    0.000 
#
# Total GULP energy -89286.981644 kJ/mol
# GULP energy per Si atom -5580.436353 kJ/mol
# Density = 2.206839 g / cm^3
# Si number density = 22.118735 Si / 1000 Ang^3
#
#
#
# Elastic Constant Matrix: (Units=GPa)
#
#
# Indices 1 2 3 4 5 6 
#
# 1 40.7628 43.4254 20.3127 -5.0759 -3.0930 9.4179
# 2 43.4254 100.9932 37.0693 -16.1886 -3.4941 25.7410
# 3 20.3127 37.0693 133.9665 -18.8482 -7.2510 15.3365
# 4 -5.0759 -16.1886 -18.8482 39.5767 0.6573 -8.6105
# 5 -3.0930 -3.4941 -7.2510 0.6573 32.9941 -2.8323
# 6 9.4179 25.7410 15.3365 -8.6105 -2.8323 37.8753
#
#
#
# Elastic Compliance Matrix: (Units=1/GPa)
#
#
# Indices 1 2 3 4 5 6 
#
# 1 0.046235 -0.020166 -0.001999 -0.002751 0.002033 0.002544
# 2 -0.020166 0.021865 -0.001532 0.003809 -0.000710 -0.008412
# 3 -0.001999 -0.001532 0.008838 0.003031 0.001425 -0.001245
# 4 -0.002751 0.003809 0.003031 0.028652 0.000535 0.003421
# 5 0.002033 -0.000710 0.001425 0.000535 0.030884 0.001831
# 6 0.002544 -0.008412 -0.001245 0.003421 0.001831 0.032906
#
#
# Mechanical properties :
#
#
# Convention : Reuss Voigt Hill
#
# Bulk Modulus (GPa) = 33.84684 53.03747 43.44215
# Shear Modulus (GPa) = 22.06335 33.75024 27.90680
#
# Velocity S-wave (km/s) = 3.16174 3.91047 3.55587
# Velocity P-wave (km/s) = 5.35391 6.66481 6.04500
#
# Compressibility (1/GPa) = 0.02954486
#
# Stress axis : x y z
#
# Youngs Moduli (GPa) = 21.62865 45.73491 113.15234
#
# Poissons Ratio (x) = 0.92228 0.22616
# Poissons Ratio (y) = 0.43616 0.17335
# Poissons Ratio (z) = 0.04323 0.07006
#
# Static dielectric constant tensor:
#      x y z
#    x 1.846630 0.005160 0.026140 
#    y 0.005160 1.835320 -0.008140 
#    z 0.026140 -0.008140 1.872680 
# 
# From -- ./inp_files/548179.got.cif
#   From: 2010.05.17/outbox.cif.g08.bks.cpg/sg2_275_cif.got.tgz:548179.got - 2010.06.03 11:33:40.
