data_PCOD9045636
_publ_section_title
;
Structure prediction by ZEFSAII (Michael W. Deem and Ramdas Pophale) SiO2 
 PCOD9045636
Probable space group: P -1
;
_chemical_formula_sum "Si O2"
_cell_formula_units_Z 14
_cell_length_a 7.619794
_cell_length_b 11.762849
_cell_length_c 8.071450
_cell_angle_alpha 93.324995
_cell_angle_beta 64.501987
_cell_angle_gamma 122.508485
_cell_volume 536.198711
_symmetry_space_group_name_H-M "P -1"
_symmetry_group_IT_number 2
_symmetry_cell_setting 'triclinic'
loop_
_space_group_symop_operation_xyz
x,y,z
-x,-y,-z
loop_
_atom_site_type_symbol
_atom_site_label
_atom_site_fract_x
_atom_site_fract_y
_atom_site_fract_z
Si Si1 0.277053 0.069669 0.909208
Si Si2 0.536419 0.729831 0.462112
Si Si3 0.791450 0.554817 0.012643
Si Si4 0.683943 0.726305 0.865793
Si Si5 0.953489 0.541294 0.296906
Si Si6 0.486347 0.053582 0.326264
Si Si7 0.000190 0.788291 0.440969
O O1 0.410155 0.179497 0.715315
O O2 0.327645 0.953165 0.860207
O O3 0.363300 0.162196 0.046483
O O4 0.000000 0.000000 0.000000
O O5 0.306374 0.574147 0.536793
O O6 0.778685 0.746026 0.410912
O O7 0.484392 0.804408 0.635604
O O8 0.742637 0.668024 0.996146
O O9 0.903234 0.526556 0.805876
O O10 0.542052 0.409687 0.132851
O O11 0.938506 0.588446 0.121722
O O12 0.904276 0.786880 0.661214
O O13 0.058625 0.675073 0.380085
O O14 0.232603 0.940453 0.341392
O O15 0.500000 0.000000 0.500000
#
# Coordination Sequence:
#
# PCOD9045636 Si02
#       7
#     2   2   2   2   2   2   2
#     4  11  25  44  67  94 132 172 224 273 327 388
#     4  11  24  44  70  96 136 174 222 268 331 392
#     4  10  24  41  64  95 142 167 217 269 332 384
#     4  11  23  40  65  99 132 175 218 270 324 389
#     4  11  24  43  67 100 134 177 216 271 329 393
#     4  10  24  45  66  96 128 176 220 271 327 394
#     4  12  24  43  71  99 135 174 223 265 336 393
#
# _framework density 26.109721
#
# number of rings (size 3 to 8) (size 9 to 14) (size 15 to 20)
#    0.000    1.143    1.429    4.286   10.000    0.571 
#    0.000    1.429    0.000    0.000    0.000    0.000 
#    0.000    0.000    0.000    0.000    0.000    0.000 
#
# Total GULP energy -78528.231641 kJ/mol
# GULP energy per Si atom -5609.159403 kJ/mol
# Density = 2.605029 g / cm^3
# Si number density = 26.109721 Si / 1000 Ang^3
#
#
#
# Elastic Constant Matrix: (Units=GPa)
#
#
# Indices 1 2 3 4 5 6 
#
# 1 70.2569 15.0739 19.4886 -6.4342 -19.6472 -10.3193
# 2 15.0739 120.4345 44.0091 12.8373 -11.0584 -10.6960
# 3 19.4886 44.0091 107.1612 14.2589 -12.7664 -7.4788
# 4 -6.4342 12.8373 14.2589 53.7910 -7.3302 -16.0355
# 5 -19.6472 -11.0584 -12.7664 -7.3302 44.0625 2.1773
# 6 -10.3193 -10.6960 -7.4788 -16.0355 2.1773 26.4633
#
#
#
# Elastic Compliance Matrix: (Units=1/GPa)
#
#
# Indices 1 2 3 4 5 6 
#
# 1 0.019729 -0.000598 -0.002577 0.007511 0.008628 0.010565
# 2 -0.000598 0.010085 -0.003664 -0.000685 0.000975 0.002312
# 3 -0.002577 -0.003664 0.011710 -0.002672 0.000923 -0.000871
# 4 0.007511 -0.000685 -0.002672 0.026348 0.005928 0.017375
# 5 0.008628 0.000975 0.000923 0.005928 0.027777 0.005325
# 6 0.010565 0.002312 -0.000871 0.017375 0.005325 0.052686
#
#
# Mechanical properties :
#
#
# Convention : Reuss Voigt Hill
#
# Bulk Modulus (GPa) = 35.91193 50.55507 43.23350
# Shear Modulus (GPa) = 29.18955 39.48210 34.33583
#
# Velocity S-wave (km/s) = 3.34721 3.89287 3.63031
# Velocity P-wave (km/s) = 5.35934 6.29369 5.84521
#
# Compressibility (1/GPa) = 0.02784590
#
# Stress axis : x y z
#
# Youngs Moduli (GPa) = 50.68744 99.15746 85.39835
#
# Poissons Ratio (x) = 0.05928 0.22004
# Poissons Ratio (y) = 0.03030 0.31293
# Poissons Ratio (z) = 0.13060 0.36335
#
# Static dielectric constant tensor:
#      x y z
#    x 2.057640 0.006970 0.032330 
#    y 0.006970 1.975700 0.042200 
#    z 0.032330 0.042200 2.053070 
# 
# From -- ./inp_files/158581.got.cif
#   From: 2010.05.17/outbox.cif.g08.bks.cpg/sg2_80_cif.got.tgz:158581.got - 2010.06.03 11:33:40.
