data_PCOD9045018
_publ_section_title
;
Structure prediction by ZEFSAII (Michael W. Deem and Ramdas Pophale) SiO2 
 PCOD9045018
Probable space group: P -1
;
_chemical_formula_sum "Si O2"
_cell_formula_units_Z 13
_cell_length_a 10.631111
_cell_length_b 6.261372
_cell_length_c 10.860733
_cell_angle_alpha 79.200644
_cell_angle_beta 128.954569
_cell_angle_gamma 105.540652
_cell_volume 541.470558
_symmetry_space_group_name_H-M "P -1"
_symmetry_group_IT_number 2
_symmetry_cell_setting 'triclinic'
loop_
_space_group_symop_operation_xyz
x,y,z
-x,-y,-z
loop_
_atom_site_type_symbol
_atom_site_label
_atom_site_fract_x
_atom_site_fract_y
_atom_site_fract_z
Si Si1 0.262087 0.328550 0.875653
Si Si2 0.500000 0.000000 0.000000
Si Si3 0.054873 0.945024 0.406257
Si Si4 0.399338 0.911571 0.289742
Si Si5 0.302301 0.213034 0.375199
Si Si6 0.806751 0.470113 0.923587
Si Si7 0.332128 0.753679 0.707351
O O1 0.352605 0.931001 0.813050
O O2 0.093335 0.161601 0.760208
O O3 0.412520 0.199330 0.979494
O O4 0.232123 0.444665 0.974783
O O5 0.301229 0.511610 0.772283
O O6 0.157755 0.171801 0.389268
O O7 0.178552 0.778053 0.524857
O O8 0.000000 0.000000 0.500000
O O9 0.526015 0.778877 0.447889
O O10 0.298115 0.781160 0.129240
O O11 0.510839 0.145313 0.291624
O O12 0.278458 0.983363 0.306999
O O13 0.274966 0.399437 0.244627
O O14 0.000000 0.500000 0.000000
#
# Coordination Sequence:
#
# PCOD9045018 Si02
#       7
#     2   1   2   2   2   2   2
#     4  12  27  46  73 109 149 194 248 301 374 436
#     4  12  24  44  66 104 148 188 238 298 364 426
#     4  11  24  48  72 103 146 194 246 306 358 437
#     4  10  23  48  73 106 146 188 251 297 359 442
#     4  10  24  47  74 102 142 201 239 299 366 430
#     4  12  27  45  74 112 149 193 239 304 371 442
#     4  11  24  44  74 104 144 193 241 305 362 430
#
# _framework density 24.008690999999999
#
# number of rings (size 3 to 8) (size 9 to 14) (size 15 to 20)
#    0.000    0.923    1.538    4.154    2.154    4.923 
#    8.308    0.000    0.000    0.000    0.000    0.000 
#    0.000    0.000    0.000    0.000    0.000    0.000 
#
# Total GULP energy -72494.640841 kJ/mol
# GULP energy per Si atom -5576.510834 kJ/mol
# Density = 2.395405 g / cm^3
# Si number density = 24.008691 Si / 1000 Ang^3
#
#
#
# Elastic Constant Matrix: (Units=GPa)
#
#
# Indices 1 2 3 4 5 6 
#
# 1 99.7953 43.3154 6.5991 -11.6692 -4.2228 -6.9499
# 2 43.3154 60.0568 11.6556 -18.2403 2.0491 0.0164
# 3 6.5991 11.6556 75.8333 1.2596 2.6162 -7.5808
# 4 -11.6692 -18.2403 1.2596 50.2141 3.5124 -18.8829
# 5 -4.2228 2.0491 2.6162 3.5124 43.9225 -1.8206
# 6 -6.9499 0.0164 -7.5808 -18.8829 -1.8206 30.9975
#
#
#
# Elastic Compliance Matrix: (Units=1/GPa)
#
#
# Indices 1 2 3 4 5 6 
#
# 1 0.015192 -0.010835 0.000691 0.001073 0.002020 0.004353
# 2 -0.010835 0.027766 -0.003191 0.008519 -0.002753 0.001803
# 3 0.000691 -0.003191 0.013989 0.000024 -0.000472 0.003565
# 4 0.001073 0.008519 0.000024 0.030408 -0.001954 0.018651
# 5 0.002020 -0.002753 -0.000472 -0.001954 0.023296 0.000517
# 6 0.004353 0.001803 0.003565 0.018651 0.000517 0.045500
#
#
# Mechanical properties :
#
#
# Convention : Reuss Voigt Hill
#
# Bulk Modulus (GPa) = 33.02887 39.86950 36.44919
# Shear Modulus (GPa) = 25.91834 36.63450 31.27642
#
# Velocity S-wave (km/s) = 3.28920 3.91050 3.61323
# Velocity P-wave (km/s) = 5.31150 6.08536 5.71155
#
# Compressibility (1/GPa) = 0.03027654
#
# Stress axis : x y z
#
# Youngs Moduli (GPa) = 65.82459 36.01549 71.48272
#
# Poissons Ratio (x) = 0.39024 -0.04940
# Poissons Ratio (y) = 0.71324 0.22810
# Poissons Ratio (z) = -0.04549 0.11492
#
# Static dielectric constant tensor:
#      x y z
#    x 1.913620 0.052330 -0.008860 
#    y 0.052330 1.920850 -0.019900 
#    z -0.008860 -0.019900 1.910590 
# 
# From -- ./inp_files/411178.got.cif
#   From: 2010.05.17/outbox.cif.g08.bks.cpg/sg2_206_cif.got.tgz:411178.got - 2010.06.03 11:33:40.
