data_PCOD9045507
_publ_section_title
;
Structure prediction by ZEFSAII (Michael W. Deem and Ramdas Pophale) SiO2 
 PCOD9045507
Probable space group: P -1
;
_chemical_formula_sum "Si O2"
_cell_formula_units_Z 14
_cell_length_a 8.867655
_cell_length_b 9.448218
_cell_length_c 10.870984
_cell_angle_alpha 73.243299
_cell_angle_beta 74.905606
_cell_angle_gamma 124.480898
_cell_volume 606.596180
_symmetry_space_group_name_H-M "P -1"
_symmetry_group_IT_number 2
_symmetry_cell_setting 'triclinic'
loop_
_space_group_symop_operation_xyz
x,y,z
-x,-y,-z
loop_
_atom_site_type_symbol
_atom_site_label
_atom_site_fract_x
_atom_site_fract_y
_atom_site_fract_z
Si Si1 0.821637 0.363634 0.461816
Si Si2 0.518141 0.661946 0.339047
Si Si3 0.184566 0.001885 0.995919
Si Si4 0.795858 0.777101 0.465374
Si Si5 0.507476 0.683248 0.944524
Si Si6 0.272879 0.024468 0.390397
Si Si7 0.920232 0.415017 0.898587
O O1 0.643699 0.370571 0.521684
O O2 0.696743 0.127952 0.564377
O O3 0.000000 0.500000 0.500000
O O4 0.927295 0.441385 0.285118
O O5 0.716425 0.721556 0.356731
O O6 0.366701 0.436042 0.370425
O O7 0.617172 0.842594 0.179972
O O8 0.117999 0.786882 0.057756
O O9 0.287378 0.121387 0.071999
O O10 0.000000 0.000000 0.000000
O O11 0.039249 0.889652 0.408005
O O12 0.763304 0.920021 0.486204
O O13 0.546854 0.771928 0.776904
O O14 0.500000 0.500000 0.000000
O O15 0.295687 0.626205 0.056427
O O16 0.000000 0.500000 0.000000
#
# Coordination Sequence:
#
# PCOD9045507 Si02
#       7
#     2   2   2   2   2   2   2
#     4  12  25  45  73  99 142 188 237 295 353 421
#     4  11  24  43  71  98 139 180 237 285 358 419
#     4  12  26  46  75 105 148 190 239 298 374 431
#     4  10  24  40  70 102 132 172 240 290 340 424
#     4  12  26  46  75 105 148 190 239 298 374 431
#     4  11  24  43  71  98 139 180 237 285 358 419
#     4  12  30  48  70 109 150 189 248 303 365 437
#
# _framework density 23.079604
#
# number of rings (size 3 to 8) (size 9 to 14) (size 15 to 20)
#    0.000    0.571    1.429    5.571   12.000    0.571 
#    0.000    0.000    0.000    0.000    0.000    0.000 
#    0.000    0.000    0.000    0.000    0.000    0.000 
#
# Total GULP energy -78307.540634 kJ/mol
# GULP energy per Si atom -5593.395760 kJ/mol
# Density = 2.302707 g / cm^3
# Si number density = 23.079604 Si / 1000 Ang^3
#
#
#
# Elastic Constant Matrix: (Units=GPa)
#
#
# Indices 1 2 3 4 5 6 
#
# 1 90.1326 49.1849 3.0734 5.2474 -2.2228 -13.3512
# 2 49.1849 128.8882 36.5535 -9.5866 11.0868 -31.0494
# 3 3.0734 36.5535 130.5389 0.9570 15.0038 -10.6659
# 4 5.2474 -9.5866 0.9570 33.0903 -8.0267 11.3517
# 5 -2.2228 11.0868 15.0038 -8.0267 33.6476 -9.5995
# 6 -13.3512 -31.0494 -10.6659 11.3517 -9.5995 54.5342
#
#
#
# Elastic Compliance Matrix: (Units=1/GPa)
#
#
# Indices 1 2 3 4 5 6 
#
# 1 0.014955 -0.006171 0.001326 -0.004304 0.001869 0.001632
# 2 -0.006171 0.012219 -0.002812 0.002883 -0.001333 0.004061
# 3 0.001326 -0.002812 0.008846 -0.002207 -0.003365 0.000321
# 4 -0.004304 0.002883 -0.002207 0.035460 0.006473 -0.006086
# 5 0.001869 -0.001333 -0.003365 0.006473 0.034396 0.003748
# 6 0.001632 0.004061 0.000321 -0.006086 0.003748 0.023038
#
#
# Mechanical properties :
#
#
# Convention : Reuss Voigt Hill
#
# Bulk Modulus (GPa) = 48.29582 58.57593 53.43587
# Shear Modulus (GPa) = 33.08398 41.63761 37.36080
#
# Velocity S-wave (km/s) = 3.79023 4.25206 4.02777
# Velocity P-wave (km/s) = 6.33448 7.03859 6.69580
#
# Compressibility (1/GPa) = 0.02070573
#
# Stress axis : x y z
#
# Youngs Moduli (GPa) = 66.86538 81.84276 113.04540
#
# Poissons Ratio (x) = 0.50504 -0.14990
# Poissons Ratio (y) = 0.41262 0.31791
# Poissons Ratio (z) = -0.08866 0.23016
#
# Static dielectric constant tensor:
#      x y z
#    x 1.872250 0.083920 0.043730 
#    y 0.083920 1.900620 0.032660 
#    z 0.043730 0.032660 1.928120 
# 
# From -- ./inp_files/158064.got.cif
#   From: 2010.05.17/outbox.cif.g08.bks.cpg/sg2_80_cif.got.tgz:158064.got - 2010.06.03 11:33:40.
