data_PCOD9045757
_publ_section_title
;
Structure prediction by ZEFSAII (Michael W. Deem and Ramdas Pophale) SiO2 
 PCOD9045757
Probable space group: P -1
;
_chemical_formula_sum "Si O2"
_cell_formula_units_Z 12
_cell_length_a 5.271045
_cell_length_b 4.938346
_cell_length_c 26.135368
_cell_angle_alpha 122.032478
_cell_angle_beta 61.496984
_cell_angle_gamma 94.099088
_cell_volume 491.533764
_symmetry_space_group_name_H-M "P -1"
_symmetry_group_IT_number 2
_symmetry_cell_setting 'triclinic'
loop_
_space_group_symop_operation_xyz
x,y,z
-x,-y,-z
loop_
_atom_site_type_symbol
_atom_site_label
_atom_site_fract_x
_atom_site_fract_y
_atom_site_fract_z
Si Si1 0.634653 0.436183 0.925003
Si Si2 0.785562 0.664444 0.190756
Si Si3 0.645931 0.714592 0.849721
Si Si4 0.918543 0.223476 0.639436
Si Si5 0.279764 0.541823 0.572557
Si Si6 0.665371 0.399975 0.315519
O O1 0.518830 0.706878 0.919592
O O2 0.992057 0.385555 0.884586
O O3 0.591034 0.086031 0.873999
O O4 0.500000 0.500000 0.000000
O O5 0.510941 0.512670 0.190933
O O6 0.007076 0.450901 0.190041
O O7 0.706609 0.040764 0.252468
O O8 0.124322 0.246947 0.571881
O O9 0.030508 0.484958 0.691257
O O10 0.579465 0.343984 0.667562
O O11 0.020937 0.870502 0.620016
O O12 0.500000 0.500000 0.500000
O O13 0.445073 0.595296 0.614394
#
# Coordination Sequence:
#
# PCOD9045757 Si02
#       6
#     2   2   2   2   2   2
#     4  10  24  44  66  97 130 171 218 269 325 389
#     4  10  24  44  64  98 131 173 217 272 327 390
#     4  10  24  41  68  93 128 171 218 265 328 388
#     4  10  24  41  68  93 128 171 218 265 328 388
#     4  10  24  44  66  97 130 171 218 269 325 389
#     4  10  24  44  64  98 131 173 217 272 327 390
#
# _framework density 24.413378000000002
#
# number of rings (size 3 to 8) (size 9 to 14) (size 15 to 20)
#    2.000    0.000    0.000    2.000    4.667    4.000 
#    0.000    0.000    0.000    0.000    0.000    0.000 
#    0.000    0.000    0.000    0.000    0.000    0.000 
#
# Total GULP energy -67083.168481 kJ/mol
# GULP energy per Si atom -5590.264040 kJ/mol
# Density = 2.435781 g / cm^3
# Si number density = 24.413378 Si / 1000 Ang^3
#
#
#
# Elastic Constant Matrix: (Units=GPa)
#
#
# Indices 1 2 3 4 5 6 
#
# 1 159.6317 27.4445 29.1338 4.2008 -2.4436 -1.1586
# 2 27.4445 94.7828 -2.1247 2.1274 -1.3555 -5.9984
# 3 29.1338 -2.1247 67.9945 -15.3455 -1.1317 -2.5756
# 4 4.2008 2.1274 -15.3455 46.5978 0.0670 -1.5281
# 5 -2.4436 -1.3555 -1.1317 0.0670 16.0318 -1.4013
# 6 -1.1586 -5.9984 -2.5756 -1.5281 -1.4013 41.9466
#
#
#
# Elastic Compliance Matrix: (Units=1/GPa)
#
#
# Indices 1 2 3 4 5 6 
#
# 1 0.007355 -0.002186 -0.003622 -0.001769 0.000655 -0.000374
# 2 -0.002186 0.011329 0.001414 0.000199 0.000871 0.001683
# 3 -0.003622 0.001414 0.017763 0.006158 0.000922 0.001448
# 4 -0.001769 0.000199 0.006158 0.023679 0.000190 0.001227
# 5 0.000655 0.000871 0.000922 0.000190 0.062815 0.002305
# 6 -0.000374 0.001683 0.001448 0.001227 0.002305 0.024281
#
#
# Mechanical properties :
#
#
# Convention : Reuss Voigt Hill
#
# Bulk Modulus (GPa) = 36.15402 47.92403 42.03902
# Shear Modulus (GPa) = 30.26073 38.77894 34.51983
#
# Velocity S-wave (km/s) = 3.52449 3.98983 3.76436
# Velocity P-wave (km/s) = 5.60393 6.39515 6.01256
#
# Compressibility (1/GPa) = 0.02765944
#
# Stress axis : x y z
#
# Youngs Moduli (GPa) = 135.95924 88.26569 56.29584
#
# Poissons Ratio (x) = 0.19290 0.20393
# Poissons Ratio (y) = 0.29714 -0.07958
# Poissons Ratio (z) = 0.49250 -0.12478
#
# Static dielectric constant tensor:
#      x y z
#    x 1.895780 0.017650 -0.015300 
#    y 0.017650 1.948630 -0.112190 
#    z -0.015300 -0.112190 1.996850 
# 
# From -- ./inp_files/101914.got.cif
#   From: 2010.05.17/outbox.cif.g08.bks.cpg/sg2_51_cif.got.tgz:101914.got - 2010.06.03 11:33:40.
