data_PCOD9045142
_publ_section_title
;
Structure prediction by ZEFSAII (Michael W. Deem and Ramdas Pophale) SiO2 
 PCOD9045142
Probable space group: P -1
;
_chemical_formula_sum "Si O2"
_cell_formula_units_Z 12
_cell_length_a 7.959924
_cell_length_b 7.994987
_cell_length_c 12.387805
_cell_angle_alpha 40.517295
_cell_angle_beta 64.511647
_cell_angle_gamma 53.128463
_cell_volume 409.225939
_symmetry_space_group_name_H-M "P -1"
_symmetry_group_IT_number 2
_symmetry_cell_setting 'triclinic'
loop_
_space_group_symop_operation_xyz
x,y,z
-x,-y,-z
loop_
_atom_site_type_symbol
_atom_site_label
_atom_site_fract_x
_atom_site_fract_y
_atom_site_fract_z
Si Si1 0.006145 0.117005 0.070215
Si Si2 0.564456 0.197429 0.191714
Si Si3 0.104094 0.626487 0.756338
Si Si4 0.641245 0.840658 0.937101
Si Si5 0.246151 0.483880 0.321875
Si Si6 0.867733 0.316592 0.506298
O O1 0.815835 0.052273 0.187946
O O2 0.743220 0.505932 0.116841
O O3 0.163116 0.802691 0.127070
O O4 0.976814 0.431222 0.880932
O O5 0.467967 0.067607 0.192242
O O6 0.446945 0.260258 0.307586
O O7 0.500000 0.500000 0.000000
O O8 0.237215 0.552166 0.644927
O O9 0.842191 0.889737 0.871560
O O10 0.972140 0.970545 0.626876
O O11 0.500000 0.000000 0.000000
O O12 0.263620 0.539877 0.418141
O O13 0.069315 0.378597 0.422411
#
# Coordination Sequence:
#
# PCOD9045142 Si02
#       6
#     2   2   2   2   2   2
#     4  10  26  51  85 120 159 210 284 346 392 478
#     4  12  27  46  79 127 160 202 278 344 406 475
#     4   9  23  48  84 118 156 224 262 344 406 481
#     4  10  25  47  83 128 157 207 276 340 408 472
#     4  11  26  48  81 123 157 221 270 338 410 492
#     4  10  23  49  78 115 174 211 271 329 424 493
#
# _framework density 29.323656
#
# number of rings (size 3 to 8) (size 9 to 14) (size 15 to 20)
#    1.000    0.667    0.000    2.000    4.667    7.333 
#    3.000    7.500    3.667    8.000    0.000    0.000 
#    0.000    0.000    0.000    0.000    0.000    0.000 
#
# Total GULP energy -66985.605132 kJ/mol
# GULP energy per Si atom -5582.133761 kJ/mol
# Density = 2.925691 g / cm^3
# Si number density = 29.323656 Si / 1000 Ang^3
#
#
#
# Elastic Constant Matrix: (Units=GPa)
#
#
# Indices 1 2 3 4 5 6 
#
# 1 153.1253 77.2117 34.5416 11.3099 -20.9142 3.4371
# 2 77.2117 213.4875 99.9318 41.6612 1.6328 11.5844
# 3 34.5416 99.9318 143.4492 16.1577 1.9912 3.3708
# 4 11.3099 41.6612 16.1577 76.9069 13.7839 -9.4796
# 5 -20.9142 1.6328 1.9912 13.7839 29.2675 2.9001
# 6 3.4371 11.5844 3.3708 -9.4796 2.9001 48.3509
#
#
#
# Elastic Compliance Matrix: (Units=1/GPa)
#
#
# Indices 1 2 3 4 5 6 
#
# 1 0.009205 -0.003165 0.000014 -0.001013 0.007283 -0.000533
# 2 -0.003165 0.009012 -0.005058 -0.003535 -0.000533 -0.002243
# 3 0.000014 -0.005058 0.010397 0.000792 -0.000857 0.000693
# 4 -0.001013 -0.003535 0.000792 0.017122 -0.009117 0.004767
# 5 0.007283 -0.000533 -0.000857 -0.009117 0.044227 -0.004770
# 6 -0.000533 -0.002243 0.000693 0.004767 -0.004770 0.022430
#
#
# Mechanical properties :
#
#
# Convention : Reuss Voigt Hill
#
# Bulk Modulus (GPa) = 81.98812 103.71471 92.85142
# Shear Modulus (GPa) = 37.62957 50.79682 44.21320
#
# Velocity S-wave (km/s) = 3.58613 4.16658 3.88721
# Velocity P-wave (km/s) = 6.72068 7.65460 7.20280
#
# Compressibility (1/GPa) = 0.01219689
#
# Stress axis : x y z
#
# Youngs Moduli (GPa) = 108.63954 110.96887 96.17717
#
# Poissons Ratio (x) = 0.35116 -0.00131
# Poissons Ratio (y) = 0.34379 0.48642
# Poissons Ratio (z) = -0.00148 0.56123
#
# Static dielectric constant tensor:
#      x y z
#    x 2.475750 0.218450 0.150870 
#    y 0.218450 2.806330 0.185090 
#    z 0.150870 0.185090 2.450890 
# 
# From -- ./inp_files/512606.got.cif
#   From: 2010.05.17/outbox.cif.g08.bks.cpg/sg2_257_cif.got.tgz:512606.got - 2010.06.03 11:33:40.
