data_PCOD9045694
_publ_section_title
;
Structure prediction by ZEFSAII (Michael W. Deem and Ramdas Pophale) SiO2 
 PCOD9045694
Probable space group: P -1
;
_chemical_formula_sum "Si O2"
_cell_formula_units_Z 16
_cell_length_a 23.318809
_cell_length_b 11.882272
_cell_length_c 8.769334
_cell_angle_alpha 102.037593
_cell_angle_beta 134.317369
_cell_angle_gamma 40.898408
_cell_volume 832.332666
_symmetry_space_group_name_H-M "P -1"
_symmetry_group_IT_number 2
_symmetry_cell_setting 'triclinic'
loop_
_space_group_symop_operation_xyz
x,y,z
-x,-y,-z
loop_
_atom_site_type_symbol
_atom_site_label
_atom_site_fract_x
_atom_site_fract_y
_atom_site_fract_z
Si Si1 0.347563 0.494447 0.319094
Si Si2 0.559389 0.868439 0.736234
Si Si3 0.820825 0.705340 0.163055
Si Si4 0.979773 0.384035 0.087554
Si Si5 0.278217 0.955282 0.106509
Si Si6 0.927439 0.014382 0.233279
Si Si7 0.237508 0.184895 0.373498
Si Si8 0.101828 0.765916 0.186545
O O1 0.363312 0.350706 0.227174
O O2 0.530315 0.317471 0.608222
O O3 0.279652 0.556728 0.381465
O O4 0.215213 0.736806 0.051536
O O5 0.500000 0.000000 0.500000
O O6 0.412838 0.022436 0.623772
O O7 0.688415 0.794523 0.028748
O O8 0.000000 0.500000 0.500000
O O9 0.861745 0.575927 0.054716
O O10 0.746018 0.920615 0.036227
O O11 0.889201 0.552718 0.820492
O O12 0.977642 0.251162 0.031379
O O13 0.159312 0.217403 0.382335
O O14 0.235652 0.083891 0.214872
O O15 0.158764 0.996748 0.880260
O O16 0.000000 0.000000 0.500000
O O17 0.072675 0.804442 0.323715
O O18 0.000000 0.000000 0.000000
#
# Coordination Sequence:
#
# PCOD9045694 Si02
#       8
#     2   2   2   2   2   2   2   2
#     4  10  20  37  62  82 110 155 200 228 270 349
#     4  11  17  35  58  86 109 146 195 232 277 346
#     4  11  23  34  58  89 120 147 182 245 296 333
#     4  10  17  34  54  83 109 148 189 229 273 342
#     4  10  20  38  59  83 110 154 192 227 281 352
#     4  11  24  38  57  87 118 147 187 248 292 328
#     4   9  18  30  59  83 104 139 195 228 264 333
#     4  10  20  34  58  84 108 153 198 228 271 347
#
# _framework density 19.223085000000001
#
# number of rings (size 3 to 8) (size 9 to 14) (size 15 to 20)
#    0.000    1.750    6.250    0.375    1.750    0.000 
#    0.000    1.250    5.500    0.000    0.000    0.875 
#    0.000    0.000    0.000    0.000    0.000    0.000 
#
# Total GULP energy -89099.904640 kJ/mol
# GULP energy per Si atom -5568.744040 kJ/mol
# Density = 1.917933 g / cm^3
# Si number density = 19.223085 Si / 1000 Ang^3
#
#
#
# Elastic Constant Matrix: (Units=GPa)
#
#
# Indices 1 2 3 4 5 6 
#
# 1 89.6361 46.7046 36.4530 5.6096 46.4411 1.0840
# 2 46.7046 78.8936 27.7658 -8.2311 19.3533 8.1627
# 3 36.4530 27.7658 89.4722 3.2075 33.5222 -3.6753
# 4 5.6096 -8.2311 3.2075 26.3743 2.0059 12.9037
# 5 46.4411 19.3533 33.5222 2.0059 36.5923 -4.1873
# 6 1.0840 8.1627 -3.6753 12.9037 -4.1873 37.4578
#
#
#
# Elastic Compliance Matrix: (Units=1/GPa)
#
#
# Indices 1 2 3 4 5 6 
#
# 1 0.049264 -0.019325 0.008728 -0.013946 -0.059326 0.001814
# 2 -0.019325 0.025448 -0.006706 0.016405 0.015214 -0.009595
# 3 0.008728 -0.006706 0.019190 -0.005515 -0.024551 0.002247
# 4 -0.013946 0.016405 -0.005515 0.056999 0.008387 -0.022410
# 5 -0.059326 0.015214 -0.024551 0.008387 0.117318 0.006218
# 6 0.001814 -0.009595 0.002247 -0.022410 0.006218 0.037371
#
#
# Mechanical properties :
#
#
# Convention : Reuss Voigt Hill
#
# Bulk Modulus (GPa) = 16.86464 53.31654 35.09059
# Shear Modulus (GPa) = 13.89030 29.89012 21.89021
#
# Velocity S-wave (km/s) = 2.69101 3.94751 3.37819
# Velocity P-wave (km/s) = 4.29506 6.96943 5.78881
#
# Compressibility (1/GPa) = 0.05929565
#
# Stress axis : x y z
#
# Youngs Moduli (GPa) = 20.29861 39.29540 52.10995
#
# Poissons Ratio (x) = 0.75940 -0.45481
# Poissons Ratio (y) = 0.39228 0.34945
# Poissons Ratio (z) = -0.17716 0.26351
#
# Static dielectric constant tensor:
#      x y z
#    x 1.740990 -0.033070 0.006670 
#    y -0.033070 1.660150 -0.001970 
#    z 0.006670 -0.001970 1.719710 
# 
# From -- ./inp_files/353830.got.cif
#   From: 2010.05.17/outbox.cif.g08.bks.cpg/sg2_177_cif.got.tgz:353830.got - 2010.06.03 11:33:40.
