data_PCOD9045749
_publ_section_title
;
Structure prediction by ZEFSAII (Michael W. Deem and Ramdas Pophale) SiO2 
 PCOD9045749
Probable space group: P -1
;
_chemical_formula_sum "Si O2"
_cell_formula_units_Z 14
_cell_length_a 8.566965
_cell_length_b 10.446057
_cell_length_c 11.755035
_cell_angle_alpha 99.932624
_cell_angle_beta 38.859628
_cell_angle_gamma 109.501624
_cell_volume 615.316381
_symmetry_space_group_name_H-M "P -1"
_symmetry_group_IT_number 2
_symmetry_cell_setting 'triclinic'
loop_
_space_group_symop_operation_xyz
x,y,z
-x,-y,-z
loop_
_atom_site_type_symbol
_atom_site_label
_atom_site_fract_x
_atom_site_fract_y
_atom_site_fract_z
Si Si1 0.731880 0.994805 0.946543
Si Si2 0.095311 0.123978 0.375645
Si Si3 0.173007 0.489025 0.292774
Si Si4 0.618473 0.224374 0.719175
Si Si5 0.910744 0.837766 0.070067
Si Si6 0.936851 0.408321 0.173295
Si Si7 0.579254 0.370691 0.174161
O O1 0.901367 0.923967 0.763448
O O2 0.561046 0.904421 0.129571
O O3 0.926460 0.138086 0.902370
O O4 0.500000 0.000000 0.000000
O O5 0.394507 0.213089 0.249896
O O6 0.884706 0.204199 0.522209
O O7 0.000000 0.000000 0.500000
O O8 0.324506 0.649089 0.206991
O O9 0.996205 0.417611 0.275839
O O10 0.390612 0.431866 0.214486
O O11 0.000000 0.500000 0.500000
O O12 0.403729 0.228772 0.747008
O O13 0.995729 0.727565 0.929851
O O14 0.000000 0.000000 0.000000
O O15 0.661069 0.398357 0.265967
O O16 0.142755 0.550971 0.030687
#
# Coordination Sequence:
#
# PCOD9045749 Si02
#       7
#     2   2   2   2   2   2   2
#     4  11  23  44  72  99 142 190 233 290 362 431
#     4  12  25  45  70 107 143 185 239 303 362 434
#     4  12  25  45  70 104 145 186 239 306 364 430
#     4  11  24  45  67 104 140 183 243 292 363 431
#     4  10  24  41  68 104 135 181 239 291 355 425
#     4  11  25  47  75 103 144 192 247 300 359 444
#     4  11  25  46  73 102 140 194 245 293 371 425
#
# _framework density 22.752521999999999
#
# number of rings (size 3 to 8) (size 9 to 14) (size 15 to 20)
#    0.000    0.857    4.286    2.143    6.000    2.286 
#    2.571    0.000    0.000    0.000    0.000    0.000 
#    0.000    0.000    0.000    0.000    0.000    0.000 
#
# Total GULP energy -77952.688596 kJ/mol
# GULP energy per Si atom -5568.049185 kJ/mol
# Density = 2.270074 g / cm^3
# Si number density = 22.752522 Si / 1000 Ang^3
#
#
#
# Elastic Constant Matrix: (Units=GPa)
#
#
# Indices 1 2 3 4 5 6 
#
# 1 158.1157 48.9037 33.6569 20.6618 1.4716 48.1277
# 2 48.9037 120.3882 33.6815 9.8587 -1.9134 35.3792
# 3 33.6569 33.6815 72.9560 9.3899 0.6992 20.8787
# 4 20.6618 9.8587 9.3899 29.8007 2.6753 -0.4309
# 5 1.4716 -1.9134 0.6992 2.6753 15.7881 1.6576
# 6 48.1277 35.3792 20.8787 -0.4309 1.6576 51.9258
#
#
#
# Elastic Compliance Matrix: (Units=1/GPa)
#
#
# Indices 1 2 3 4 5 6 
#
# 1 0.010310 -0.000764 -0.001050 -0.006786 0.001056 -0.008703
# 2 -0.000764 0.011465 -0.002890 -0.002680 0.002678 -0.006049
# 3 -0.001050 -0.002890 0.017153 -0.003783 0.000048 -0.003988
# 4 -0.006786 -0.002680 -0.003783 0.041167 -0.007574 0.010220
# 5 0.001056 0.002678 0.000048 -0.007574 0.065368 -0.004973
# 6 -0.008703 -0.006049 -0.003988 0.010220 -0.004973 0.033293
#
#
# Mechanical properties :
#
#
# Convention : Reuss Voigt Hill
#
# Bulk Modulus (GPa) = 33.87483 64.88265 49.37874
# Shear Modulus (GPa) = 25.25171 35.18408 30.21790
#
# Velocity S-wave (km/s) = 3.33504 3.93667 3.64828
# Velocity P-wave (km/s) = 5.45442 7.01725 6.28460
#
# Compressibility (1/GPa) = 0.02952044
#
# Stress axis : x y z
#
# Youngs Moduli (GPa) = 96.98961 87.22024 58.29851
#
# Poissons Ratio (x) = 0.06667 0.06119
# Poissons Ratio (y) = 0.07414 0.16849
# Poissons Ratio (z) = 0.10180 0.25208
#
# Static dielectric constant tensor:
#      x y z
#    x 1.983110 -0.009980 -0.032800 
#    y -0.009980 2.043470 -0.025710 
#    z -0.032800 -0.025710 1.876840 
# 
# From -- ./inp_files/390607.got.cif
#   From: 2010.05.17/outbox.cif.g08.bks.cpg/sg2_196_cif.got.tgz:390607.got - 2010.06.03 11:33:40.
