data_PCOD9045794
_publ_section_title
;
Structure prediction by ZEFSAII (Michael W. Deem and Ramdas Pophale) SiO2 
 PCOD9045794
Probable space group: P -1
;
_chemical_formula_sum "Si O2"
_cell_formula_units_Z 16
_cell_length_a 15.660175
_cell_length_b 11.886293
_cell_length_c 8.938797
_cell_angle_alpha 106.940505
_cell_angle_beta 48.093263
_cell_angle_gamma 69.782287
_cell_volume 771.572284
_symmetry_space_group_name_H-M "P -1"
_symmetry_group_IT_number 2
_symmetry_cell_setting 'triclinic'
loop_
_space_group_symop_operation_xyz
x,y,z
-x,-y,-z
loop_
_atom_site_type_symbol
_atom_site_label
_atom_site_fract_x
_atom_site_fract_y
_atom_site_fract_z
Si Si1 0.303610 0.858941 0.241494
Si Si2 0.607275 0.482674 0.573149
Si Si3 0.113551 0.842691 0.682875
Si Si4 0.976469 0.836615 0.544570
Si Si5 0.654719 0.800859 0.312936
Si Si6 0.164153 0.290273 0.205567
Si Si7 0.463307 0.975789 0.193671
Si Si8 0.658056 0.516658 0.185733
O O1 0.251967 0.816027 0.421994
O O2 0.139319 0.001739 0.376199
O O3 0.353393 0.944175 0.287488
O O4 0.464525 0.681929 0.888175
O O5 0.773355 0.341985 0.433158
O O6 0.667793 0.474773 0.333896
O O7 0.506095 0.434883 0.660761
O O8 0.999138 0.882369 0.695117
O O9 0.000000 0.000000 0.000000
O O10 0.870824 0.801382 0.699322
O O11 0.166197 0.657863 0.179257
O O12 0.642196 0.846006 0.517033
O O13 0.636430 0.675042 0.261923
O O14 0.500000 0.000000 0.500000
O O15 0.817256 0.727826 0.002885
O O16 0.000000 0.500000 0.500000
O O17 0.348089 0.197788 0.017321
O O18 0.500000 0.000000 0.000000
#
# Coordination Sequence:
#
# PCOD9045794 Si02
#       8
#     2   2   2   2   2   2   2   2
#     4  12  26  47  73 101 144 186 234 288 351 418
#     4  11  27  44  74 104 137 191 230 291 344 421
#     4  12  29  44  70 106 139 181 234 289 351 411
#     4  12  26  47  70 100 145 182 229 294 355 412
#     4  10  24  41  70 102 135 184 232 285 339 412
#     4  11  24  43  68  99 135 182 226 288 343 408
#     4  11  24  45  68 103 135 183 236 276 348 416
#     4  11  24  47  71 101 145 181 241 280 358 414
#
# _framework density 20.736878999999998
#
# number of rings (size 3 to 8) (size 9 to 14) (size 15 to 20)
#    0.000    0.750    3.750    2.250   12.250    0.000 
#    0.000    1.250    0.000    0.000    0.000    0.000 
#    0.000    0.000    0.000    0.000    0.000    0.000 
#
# Total GULP energy -89380.145270 kJ/mol
# GULP energy per Si atom -5586.259079 kJ/mol
# Density = 2.068968 g / cm^3
# Si number density = 20.736879 Si / 1000 Ang^3
#
#
#
# Elastic Constant Matrix: (Units=GPa)
#
#
# Indices 1 2 3 4 5 6 
#
# 1 81.3885 16.7516 34.5999 7.3073 12.1369 -10.6985
# 2 16.7516 87.6514 22.7370 -2.3334 8.4215 -14.2856
# 3 34.5999 22.7370 127.2368 0.0674 33.7576 -17.6681
# 4 7.3073 -2.3334 0.0674 42.4748 -2.8399 3.8191
# 5 12.1369 8.4215 33.7576 -2.8399 38.7021 -2.5446
# 6 -10.6985 -14.2856 -17.6681 3.8191 -2.5446 32.7670
#
#
#
# Elastic Compliance Matrix: (Units=1/GPa)
#
#
# Indices 1 2 3 4 5 6 
#
# 1 0.014724 -0.001519 -0.002855 -0.002987 -0.001831 0.002812
# 2 -0.001519 0.012790 -0.000955 0.000491 -0.001147 0.004419
# 3 -0.002855 -0.000955 0.011784 -0.000571 -0.008929 0.004379
# 4 -0.002987 0.000491 -0.000571 0.024612 0.002890 -0.003713
# 5 -0.001831 -0.001147 -0.008929 0.002890 0.034428 -0.003576
# 6 0.002812 0.004419 0.004379 -0.003713 -0.003576 0.035879
#
#
# Mechanical properties :
#
#
# Convention : Reuss Voigt Hill
#
# Bulk Modulus (GPa) = 34.91432 49.38372 42.14902
# Shear Modulus (GPa) = 32.37916 37.60133 34.99025
#
# Velocity S-wave (km/s) = 3.95578 4.26286 4.11219
# Velocity P-wave (km/s) = 6.14310 6.93509 6.55107
#
# Compressibility (1/GPa) = 0.02864154
#
# Stress axis : x y z
#
# Youngs Moduli (GPa) = 67.91726 78.18405 84.86387
#
# Poissons Ratio (x) = 0.11874 0.24225
# Poissons Ratio (y) = 0.10315 0.08103
# Poissons Ratio (z) = 0.19387 0.07465
#
# Static dielectric constant tensor:
#      x y z
#    x 1.688690 -0.152040 0.056190 
#    y -0.152040 1.627720 0.084010 
#    z 0.056190 0.084010 1.698170 
# 
# From -- ./inp_files/307903.got.cif
#   From: 2010.05.17/outbox.cif.g08.bks.cpg/sg2_154_cif.got.tgz:307903.got - 2010.06.03 11:33:40.
