data_PCOD9046306
_publ_section_title
;
Structure prediction by ZEFSAII (Michael W. Deem and Ramdas Pophale) SiO2 
 PCOD9046306
Probable space group: P -1
;
_chemical_formula_sum "Si O2"
_cell_formula_units_Z 16
_cell_length_a 11.741309
_cell_length_b 5.817528
_cell_length_c 12.231553
_cell_angle_alpha 115.362402
_cell_angle_beta 71.141297
_cell_angle_gamma 109.509170
_cell_volume 695.504977
_symmetry_space_group_name_H-M "P -1"
_symmetry_group_IT_number 2
_symmetry_cell_setting 'triclinic'
loop_
_space_group_symop_operation_xyz
x,y,z
-x,-y,-z
loop_
_atom_site_type_symbol
_atom_site_label
_atom_site_fract_x
_atom_site_fract_y
_atom_site_fract_z
Si Si1 0.906850 0.301026 0.817206
Si Si2 0.529937 0.798286 0.089437
Si Si3 0.142149 0.976679 0.448796
Si Si4 0.443092 0.389817 0.736095
Si Si5 0.325801 0.791347 0.992758
Si Si6 0.974445 0.094689 0.148343
Si Si7 0.371177 0.473031 0.470746
Si Si8 0.753414 0.061518 0.363251
O O1 0.804876 0.341050 0.944916
O O2 0.982896 0.587855 0.813779
O O3 0.847281 0.178682 0.697097
O O4 0.967478 0.083409 0.817254
O O5 0.532840 0.809996 0.219464
O O6 0.417718 0.891191 0.086366
O O7 0.500000 0.500000 0.000000
O O8 0.660544 0.949416 0.030735
O O9 0.251146 0.237289 0.463026
O O10 0.165201 0.863625 0.537351
O O11 0.000000 0.000000 0.500000
O O12 0.573761 0.506157 0.664894
O O13 0.340484 0.220030 0.654465
O O14 0.381805 0.599679 0.858882
O O15 0.836138 0.050568 0.229313
O O16 0.000000 0.000000 0.000000
O O17 0.500000 0.500000 0.500000
O O18 0.325484 0.724199 0.575213
#
# Coordination Sequence:
#
# PCOD9046306 Si02
#       8
#     2   2   2   2   2   2   2   2
#     4  12  29  47  82 115 159 212 273 330 408 483
#     4   9  22  40  64 101 149 191 252 312 409 467
#     4  12  28  52  76 114 162 213 273 330 408 483
#     4  11  25  44  72 110 146 200 262 332 402 473
#     4  10  24  42  70 105 152 195 251 333 400 474
#     4  12  29  53  81 119 155 212 274 333 407 488
#     4  12  29  47  77 114 155 210 273 329 403 483
#     4  12  28  49  79 106 163 204 271 339 401 480
#
# _framework density 23.004867999999998
#
# number of rings (size 3 to 8) (size 9 to 14) (size 15 to 20)
#    0.000    0.750    2.500    2.250   15.750    1.000 
#    0.000    0.000    0.000    0.000    0.000    0.000 
#    0.000    0.000    0.000    0.000    0.000    0.000 
#
# Total GULP energy -89271.178362 kJ/mol
# GULP energy per Si atom -5579.448648 kJ/mol
# Density = 2.295251 g / cm^3
# Si number density = 23.004868 Si / 1000 Ang^3
#
#
#
# Elastic Constant Matrix: (Units=GPa)
#
#
# Indices 1 2 3 4 5 6 
#
# 1 114.8725 46.6019 42.6698 -4.7273 -4.4362 2.2359
# 2 46.6019 129.9807 36.6175 -6.1665 -6.1585 22.2743
# 3 42.6698 36.6175 119.9611 2.3559 -9.1742 3.0513
# 4 -4.7273 -6.1665 2.3559 47.1337 7.3236 -3.9247
# 5 -4.4362 -6.1585 -9.1742 7.3236 54.8385 -11.9242
# 6 2.2359 22.2743 3.0513 -3.9247 -11.9242 38.3515
#
#
#
# Elastic Compliance Matrix: (Units=1/GPa)
#
#
# Indices 1 2 3 4 5 6 
#
# 1 0.011219 -0.003424 -0.002987 0.000929 0.000281 0.001755
# 2 -0.003424 0.010466 -0.001903 0.000755 -0.000804 -0.005900
# 3 -0.002987 -0.001903 0.010103 -0.001229 0.001582 0.000842
# 4 0.000929 0.000755 -0.001229 0.021982 -0.002765 0.000995
# 5 0.000281 -0.000804 0.001582 -0.002765 0.020175 0.006314
# 6 0.001755 -0.005900 0.000842 0.000995 0.006314 0.031397
#
#
# Mechanical properties :
#
#
# Convention : Reuss Voigt Hill
#
# Bulk Modulus (GPa) = 65.96227 68.51032 67.23630
# Shear Modulus (GPa) = 39.36304 43.99309 41.67806
#
# Velocity S-wave (km/s) = 4.14100 4.37777 4.26103
# Velocity P-wave (km/s) = 7.18326 7.44303 7.31430
#
# Compressibility (1/GPa) = 0.01516018
#
# Stress axis : x y z
#
# Youngs Moduli (GPa) = 89.13633 95.54726 98.98082
#
# Poissons Ratio (x) = 0.32717 0.29562
# Poissons Ratio (y) = 0.30522 0.18835
# Poissons Ratio (z) = 0.26622 0.18182
#
# Static dielectric constant tensor:
#      x y z
#    x 1.945570 -0.062440 0.040260 
#    y -0.062440 1.990070 -0.063410 
#    z 0.040260 -0.063410 1.912550 
# 
# From -- ./inp_files/411034.got.cif
#   From: 2010.05.17/outbox.cif.g08.bks.cpg/sg2_206_cif.got.tgz:411034.got - 2010.06.03 11:33:40.
