data_PCOD9046078
_publ_section_title
;
Structure prediction by ZEFSAII (Michael W. Deem and Ramdas Pophale) SiO2 
 PCOD9046078
Probable space group: P -1
;
_chemical_formula_sum "Si O2"
_cell_formula_units_Z 16
_cell_length_a 17.087668
_cell_length_b 8.746935
_cell_length_c 8.819475
_cell_angle_alpha 98.190619
_cell_angle_beta 136.115921
_cell_angle_gamma 60.898096
_cell_volume 749.826768
_symmetry_space_group_name_H-M "P -1"
_symmetry_group_IT_number 2
_symmetry_cell_setting 'triclinic'
loop_
_space_group_symop_operation_xyz
x,y,z
-x,-y,-z
loop_
_atom_site_type_symbol
_atom_site_label
_atom_site_fract_x
_atom_site_fract_y
_atom_site_fract_z
Si Si1 0.216930 0.655602 0.087316
Si Si2 0.051296 0.063007 0.439661
Si Si3 0.526801 0.866924 0.293153
Si Si4 0.448246 0.571671 0.184354
Si Si5 0.138540 0.315328 0.716511
Si Si6 0.680626 0.603121 0.221967
Si Si7 0.301370 0.241988 0.188718
Si Si8 0.234107 0.692480 0.452034
O O1 0.346493 0.644388 0.195487
O O2 0.280100 0.437776 0.159499
O O3 0.170051 0.728518 0.201879
O O4 0.085819 0.776268 0.814775
O O5 0.135906 0.146484 0.623097
O O6 0.152311 0.883959 0.454669
O O7 0.000000 0.000000 0.500000
O O8 0.462324 0.744636 0.203294
O O9 0.583149 0.803529 0.194555
O O10 0.648686 0.808254 0.575854
O O11 0.416114 0.076285 0.219174
O O12 0.606488 0.398257 0.379113
O O13 0.382730 0.502110 0.960882
O O14 0.241635 0.356312 0.787438
O O15 0.000000 0.500000 0.500000
O O16 0.163749 0.280428 0.927571
O O17 0.763892 0.461645 0.458929
#
# Coordination Sequence:
#
# PCOD9046078 Si02
#       8
#     2   2   2   2   2   2   2   2
#     4  12  23  46  69  99 139 178 228 280 341 404
#     4  12  28  48  70  98 135 181 231 281 340 409
#     4  10  24  42  67 102 137 176 222 282 342 400
#     4  11  22  41  70 102 137 180 224 282 330 399
#     4  12  25  44  67  95 134 181 224 277 338 407
#     4  11  23  42  67 101 134 172 227 281 335 395
#     4  11  23  43  65  96 140 170 225 273 345 397
#     4  11  24  43  70 101 136 177 229 278 336 406
#
# _framework density 21.338260999999999
#
# number of rings (size 3 to 8) (size 9 to 14) (size 15 to 20)
#    0.000    0.750    5.000    3.750    5.250    1.500 
#    2.250    3.750    0.000    0.000    0.000    0.000 
#    0.000    0.000    0.000    0.000    0.000    0.000 
#
# Total GULP energy -89168.204191 kJ/mol
# GULP energy per Si atom -5573.012762 kJ/mol
# Density = 2.128969 g / cm^3
# Si number density = 21.338261 Si / 1000 Ang^3
#
#
#
# Elastic Constant Matrix: (Units=GPa)
#
#
# Indices 1 2 3 4 5 6 
#
# 1 42.6555 9.4252 24.1847 22.8907 -6.2389 -10.1985
# 2 9.4252 96.0620 24.1399 15.5753 1.5765 -18.7240
# 3 24.1847 24.1399 101.4153 6.5147 -15.4887 11.5756
# 4 22.8907 15.5753 6.5147 36.0381 -6.7536 -3.2014
# 5 -6.2389 1.5765 -15.4887 -6.7536 26.8899 2.4572
# 6 -10.1985 -18.7240 11.5756 -3.2014 2.4572 18.7463
#
#
#
# Elastic Compliance Matrix: (Units=1/GPa)
#
#
# Indices 1 2 3 4 5 6 
#
# 1 0.093452 0.031679 -0.041896 -0.061912 -0.029141 0.101599
# 2 0.031679 0.028793 -0.022170 -0.027034 -0.019159 0.057577
# 3 -0.041896 -0.022170 0.034376 0.028848 0.024514 -0.064449
# 4 -0.061912 -0.027034 0.028848 0.072676 0.028470 -0.069817
# 5 -0.029141 -0.019159 0.024514 0.028470 0.057648 -0.052822
# 6 0.101599 0.057577 -0.064449 -0.069817 -0.052822 0.200923
#
#
# Mechanical properties :
#
#
# Convention : Reuss Voigt Hill
#
# Bulk Modulus (GPa) = 10.88769 39.51472 25.20121
# Shear Modulus (GPa) = 8.57256 28.49373 18.53315
#
# Velocity S-wave (km/s) = 2.00653 3.65819 2.95030
# Velocity P-wave (km/s) = 3.23755 6.03337 4.84166
#
# Compressibility (1/GPa) = 0.09184684
#
# Stress axis : x y z
#
# Youngs Moduli (GPa) = 10.70073 34.73037 29.09032
#
# Poissons Ratio (x) = -1.10022 1.21877
# Poissons Ratio (y) = -0.33899 0.64492
# Poissons Ratio (z) = 0.44832 0.76996
#
# Static dielectric constant tensor:
#      x y z
#    x 1.821670 -0.006810 0.006720 
#    y -0.006810 1.769460 0.021470 
#    z 0.006720 0.021470 1.918950 
# 
# From -- ./inp_files/329227.got.cif
#   From: 2010.05.17/outbox.cif.g08.bks.cpg/sg2_165_cif.got.tgz:329227.got - 2010.06.03 11:33:40.
