data_PCOD9046902
_publ_section_title
;
Structure prediction by ZEFSAII (Michael W. Deem and Ramdas Pophale) SiO2 
 PCOD9046902
Probable space group: P -1
;
_chemical_formula_sum "Si O2"
_cell_formula_units_Z 10
_cell_length_a 19.250025
_cell_length_b 4.898423
_cell_length_c 5.402936
_cell_angle_alpha 51.985618
_cell_angle_beta 71.883548
_cell_angle_gamma 69.667863
_cell_volume 373.123328
_symmetry_space_group_name_H-M "P -1"
_symmetry_group_IT_number 2
_symmetry_cell_setting 'triclinic'
loop_
_space_group_symop_operation_xyz
x,y,z
-x,-y,-z
loop_
_atom_site_type_symbol
_atom_site_label
_atom_site_fract_x
_atom_site_fract_y
_atom_site_fract_z
Si Si1 0.252412 0.004056 0.824738
Si Si2 0.842122 0.485144 0.031479
Si Si3 0.349639 0.517397 0.339023
Si Si4 0.452917 0.003908 0.800563
Si Si5 0.051927 0.143189 0.555031
O O1 0.184598 0.331401 0.780285
O O2 0.313710 0.173100 0.514885
O O3 0.224087 0.688782 0.899205
O O4 0.283831 0.845749 0.147053
O O5 0.915824 0.174939 0.120747
O O6 0.870499 0.782462 0.679261
O O7 0.389416 0.370795 0.636264
O O8 0.414556 0.663273 0.042925
O O9 0.500000 0.000000 0.500000
O O10 0.500000 0.000000 0.000000
O O11 0.000000 0.500000 0.500000
O O12 0.000000 0.000000 0.500000
#
# Coordination Sequence:
#
# PCOD9046902 Si02
#       5
#     2   2   2   2   2
#     4  11  24  43  66 100 135 184 233 292 355 422
#     4  12  24  43  67  95 136 178 229 288 351 422
#     4  10  24  43  69 102 140 184 238 294 354 430
#     4  11  24  44  71 105 144 190 239 300 365 432
#     4  12  24  41  65  96 131 176 227 286 349 420
#
# _framework density 26.800789000000002
#
# number of rings (size 3 to 8) (size 9 to 14) (size 15 to 20)
#    0.000    0.800    0.000    7.200    0.000    6.400 
#    0.000    0.000    0.000    0.000    0.000    0.000 
#    0.000    0.000    0.000    0.000    0.000    0.000 
#
# Total GULP energy -55848.420504 kJ/mol
# GULP energy per Si atom -5584.842050 kJ/mol
# Density = 2.673979 g / cm^3
# Si number density = 26.800789 Si / 1000 Ang^3
#
#
#
# Elastic Constant Matrix: (Units=GPa)
#
#
# Indices 1 2 3 4 5 6 
#
# 1 132.1132 45.8895 73.1130 -0.8320 -22.1742 14.8407
# 2 45.8895 122.2003 25.9209 -13.5374 -10.2469 17.8455
# 3 73.1130 25.9209 188.1348 -22.6749 -26.0181 12.7171
# 4 -0.8320 -13.5374 -22.6749 34.8092 -5.5960 9.1328
# 5 -22.1742 -10.2469 -26.0181 -5.5960 86.7710 -23.2389
# 6 14.8407 17.8455 12.7171 9.1328 -23.2389 42.4958
#
#
#
# Elastic Compliance Matrix: (Units=1/GPa)
#
#
# Indices 1 2 3 4 5 6 
#
# 1 0.011321 -0.003733 -0.004226 -0.003839 0.001005 0.000253
# 2 -0.003733 0.010736 0.000981 0.005973 -0.000337 -0.004966
# 3 -0.004226 0.000981 0.007864 0.006108 0.001278 -0.001903
# 4 -0.003839 0.005973 0.006108 0.037880 0.001191 -0.010486
# 5 0.001005 -0.000337 0.001278 0.001191 0.014029 0.006824
# 6 0.000253 -0.004966 -0.001903 -0.010486 0.006824 0.032083
#
#
# Mechanical properties :
#
#
# Convention : Reuss Voigt Hill
#
# Bulk Modulus (GPa) = 62.64030 81.36614 72.00322
# Shear Modulus (GPa) = 37.54000 52.65019 45.09509
#
# Velocity S-wave (km/s) = 3.74666 4.43708 4.10640
# Velocity P-wave (km/s) = 6.49153 7.52833 7.02907
#
# Compressibility (1/GPa) = 0.01596416
#
# Stress axis : x y z
#
# Youngs Moduli (GPa) = 88.33454 93.14637 127.16109
#
# Poissons Ratio (x) = 0.34769 0.53737
# Poissons Ratio (y) = 0.32973 -0.12469
# Poissons Ratio (z) = 0.37329 -0.09133
#
# Static dielectric constant tensor:
#      x y z
#    x 2.720870 -0.009110 -0.528110 
#    y -0.009110 2.155800 -0.058690 
#    z -0.528110 -0.058690 2.563770 
# 
# From -- ./inp_files/8228.got.cif
#   From: 2010.05.17/outbox.cif.g08.bks.cpg/sg2_5_cif.got.tgz:8228.got - 2010.06.03 11:33:40.
