data_PCOD9046624
_publ_section_title
;
Structure prediction by ZEFSAII (Michael W. Deem and Ramdas Pophale) SiO2 
 PCOD9046624
Probable space group: P -1
;
_chemical_formula_sum "Si O2"
_cell_formula_units_Z 16
_cell_length_a 11.601185
_cell_length_b 13.250118
_cell_length_c 11.202491
_cell_angle_alpha 140.084807
_cell_angle_beta 100.068236
_cell_angle_gamma 110.468852
_cell_volume 699.671333
_symmetry_space_group_name_H-M "P -1"
_symmetry_group_IT_number 2
_symmetry_cell_setting 'triclinic'
loop_
_space_group_symop_operation_xyz
x,y,z
-x,-y,-z
loop_
_atom_site_type_symbol
_atom_site_label
_atom_site_fract_x
_atom_site_fract_y
_atom_site_fract_z
Si Si1 0.689046 0.112247 0.015893
Si Si2 0.295286 0.337492 0.556474
Si Si3 0.334818 0.601210 0.577779
Si Si4 0.094619 0.245546 0.674624
Si Si5 0.442628 0.548591 0.147431
Si Si6 0.499303 0.056646 0.414602
Si Si7 0.026761 0.769876 0.944644
Si Si8 0.088151 0.616323 0.249602
O O1 0.532589 0.823786 0.757043
O O2 0.629681 0.121022 0.882427
O O3 0.697199 0.256998 0.245970
O O4 0.879049 0.218333 0.139590
O O5 0.312183 0.460758 0.555753
O O6 0.202254 0.321184 0.640805
O O7 0.503821 0.509833 0.787702
O O8 0.157370 0.049854 0.250057
O O9 0.179671 0.395266 0.269231
O O10 0.958163 0.246489 0.618193
O O11 0.252676 0.434829 0.974125
O O12 0.000000 0.000000 0.500000
O O13 0.551209 0.813803 0.450382
O O14 0.500000 0.500000 0.000000
O O15 0.699201 0.206931 0.543641
O O16 0.500000 0.000000 0.500000
O O17 0.012128 0.615295 0.897544
O O18 0.000000 0.500000 0.000000
#
# Coordination Sequence:
#
# PCOD9046624 Si02
#       8
#     2   2   2   2   2   2   2   2
#     4  11  25  46  72 102 142 185 240 302 348 434
#     4  11  25  45  72  97 145 191 235 299 353 430
#     4  11  26  48  69 103 144 188 247 290 359 426
#     4  11  25  42  66 107 144 183 232 290 366 429
#     4  10  24  43  66 101 142 184 230 292 350 431
#     4  12  25  43  74 103 140 190 236 293 367 424
#     4  12  24  47  71 103 141 186 245 293 359 424
#     4  12  24  41  71 104 143 182 235 298 354 434
#
# _framework density 22.867881000000001
#
# number of rings (size 3 to 8) (size 9 to 14) (size 15 to 20)
#    0.000    0.750    3.750    3.000    7.000    0.500 
#    2.250    0.000    0.000    0.000    0.000    0.000 
#    0.000    0.000    0.000    0.000    0.000    0.000 
#
# Total GULP energy -89189.802375 kJ/mol
# GULP energy per Si atom -5574.362648 kJ/mol
# Density = 2.281583 g / cm^3
# Si number density = 22.867881 Si / 1000 Ang^3
#
#
#
# Elastic Constant Matrix: (Units=GPa)
#
#
# Indices 1 2 3 4 5 6 
#
# 1 76.8055 13.9803 7.7214 12.4151 4.0280 -9.0221
# 2 13.9803 139.1229 16.9406 25.0887 10.6328 -15.7534
# 3 7.7214 16.9406 74.0897 5.1218 12.1883 -6.7274
# 4 12.4151 25.0887 5.1218 32.6045 2.3112 -0.5960
# 5 4.0280 10.6328 12.1883 2.3112 35.6418 -0.3190
# 6 -9.0221 -15.7534 -6.7274 -0.5960 -0.3190 31.2594
#
#
#
# Elastic Compliance Matrix: (Units=1/GPa)
#
#
# Indices 1 2 3 4 5 6 
#
# 1 0.014449 0.000122 -0.000626 -0.005349 -0.001073 0.003984
# 2 0.000122 0.009134 -0.000927 -0.006713 -0.001948 0.004291
# 3 -0.000626 -0.000927 0.014832 -0.001004 -0.004637 0.002478
# 4 -0.005349 -0.006713 -0.001004 0.037917 0.000452 -0.004415
# 5 -0.001073 -0.001948 -0.004637 0.000452 0.030298 -0.001972
# 6 0.003984 0.004291 0.002478 -0.004415 -0.001972 0.035732
#
#
# Mechanical properties :
#
#
# Convention : Reuss Voigt Hill
#
# Bulk Modulus (GPa) = 28.12694 40.81140 34.46917
# Shear Modulus (GPa) = 31.83195 36.65954 34.24575
#
# Velocity S-wave (km/s) = 3.73499 4.00822 3.87401
# Velocity P-wave (km/s) = 5.56118 6.26948 5.92592
#
# Compressibility (1/GPa) = 0.03555311
#
# Stress axis : x y z
#
# Youngs Moduli (GPa) = 69.20657 109.48379 67.42352
#
# Poissons Ratio (x) = -0.01334 0.04219
# Poissons Ratio (y) = -0.00844 0.06250
# Poissons Ratio (z) = 0.04330 0.10150
#
# Static dielectric constant tensor:
#      x y z
#    x 1.954530 -0.040190 -0.046990 
#    y -0.040190 1.801970 -0.058530 
#    z -0.046990 -0.058530 1.773730 
# 
# From -- ./inp_files/429117.got.cif
#   From: 2010.05.17/outbox.cif.g08.bks.cpg/sg2_215_cif.got.tgz:429117.got - 2010.06.03 11:33:40.
