data_PCOD9046201
_publ_section_title
;
Structure prediction by ZEFSAII (Michael W. Deem and Ramdas Pophale) SiO2 
 PCOD9046201
Probable space group: P -1
;
_chemical_formula_sum "Si O2"
_cell_formula_units_Z 16
_cell_length_a 11.581193
_cell_length_b 24.764939
_cell_length_c 10.445618
_cell_angle_alpha 147.225147
_cell_angle_beta 132.824457
_cell_angle_gamma 24.665973
_cell_volume 627.893467
_symmetry_space_group_name_H-M "P -1"
_symmetry_group_IT_number 2
_symmetry_cell_setting 'triclinic'
loop_
_space_group_symop_operation_xyz
x,y,z
-x,-y,-z
loop_
_atom_site_type_symbol
_atom_site_label
_atom_site_fract_x
_atom_site_fract_y
_atom_site_fract_z
Si Si1 0.453203 0.420568 0.507539
Si Si2 0.352132 0.692941 0.006461
Si Si3 0.346846 0.901098 0.306159
Si Si4 0.935775 0.677675 0.243827
Si Si5 0.881196 0.777688 0.118353
Si Si6 0.427710 0.239784 0.248864
Si Si7 0.935936 0.890713 0.765398
Si Si8 0.464351 0.646257 0.280948
O O1 0.296832 0.397974 0.369541
O O2 0.628399 0.334507 0.605958
O O3 0.710934 0.276772 0.309271
O O4 0.279635 0.618582 0.758713
O O5 0.231025 0.858273 0.183259
O O6 0.292072 0.732386 0.191013
O O7 0.708645 0.514668 0.893101
O O8 0.707808 0.716097 0.196310
O O9 0.245257 0.043582 0.610266
O O10 0.209694 0.994718 0.249526
O O11 0.818053 0.768469 0.194262
O O12 0.894360 0.794197 0.539002
O O13 0.742913 0.772140 0.905949
O O14 0.232051 0.578963 0.961528
O O15 0.448180 0.285079 0.489052
O O16 0.747051 0.042230 0.035746
#
# Coordination Sequence:
#
# PCOD9046201 Si02
#       8
#     2   2   2   2   2   2   2   2
#     4   9  21  34  56  72 103 141 172 208 242 305
#     4  10  20  35  50  79 104 134 174 201 266 302
#     4  11  19  31  57  78 105 128 165 231 249 290
#     4   9  17  32  56  75 103 133 169 219 245 298
#     4  10  17  34  55  84  95 131 178 209 253 295
#     4  10  18  32  60  72 106 126 184 204 246 302
#     4  10  17  34  55  84  95 131 178 209 253 295
#     4   9  21  34  56  72 103 141 172 208 242 305
#
# _framework density 25.482030000000002
#
# number of rings (size 3 to 8) (size 9 to 14) (size 15 to 20)
#    0.750    1.500    2.500    3.000    0.000    0.000 
#    0.000    3.750    0.000    3.000    0.000    0.000 
#    0.000    0.000    0.000    0.000    0.000    0.000 
#
# Total GULP energy -89358.634230 kJ/mol
# GULP energy per Si atom -5584.914639 kJ/mol
# Density = 2.542403 g / cm^3
# Si number density = 25.482030 Si / 1000 Ang^3
#
#
#
# Elastic Constant Matrix: (Units=GPa)
#
#
# Indices 1 2 3 4 5 6 
#
# 1 89.3319 12.5413 22.5411 3.8548 7.0455 -4.9957
# 2 12.5413 37.5815 10.7651 -7.7523 -0.7268 -9.5964
# 3 22.5411 10.7651 106.8166 -11.5908 -0.2820 3.1747
# 4 3.8548 -7.7523 -11.5908 21.5929 -11.0802 -5.9194
# 5 7.0455 -0.7268 -0.2820 -11.0802 47.1608 8.5430
# 6 -4.9957 -9.5964 3.1747 -5.9194 8.5430 18.3226
#
#
#
# Elastic Compliance Matrix: (Units=1/GPa)
#
#
# Indices 1 2 3 4 5 6 
#
# 1 0.013416 -0.004967 -0.003210 -0.007724 -0.004101 0.001029
# 2 -0.004967 0.040105 -0.001297 0.022805 0.001939 0.026339
# 3 -0.003210 -0.001297 0.010968 0.006608 0.002531 -0.002500
# 4 -0.007724 0.022805 0.006608 0.073813 0.014191 0.025923
# 5 -0.004101 0.001939 0.002531 0.014191 0.026720 -0.008415
# 6 0.001029 0.026339 -0.002500 0.025923 -0.008415 0.081384
#
#
# Mechanical properties :
#
#
# Convention : Reuss Voigt Hill
#
# Bulk Modulus (GPa) = 21.95825 36.15833 29.05829
# Shear Modulus (GPa) = 17.82309 29.94075 23.88192
#
# Velocity S-wave (km/s) = 2.64756 3.43151 3.06470
# Velocity P-wave (km/s) = 4.24051 5.47000 4.89402
#
# Compressibility (1/GPa) = 0.04554098
#
# Stress axis : x y z
#
# Youngs Moduli (GPa) = 74.53869 24.93447 91.17446
#
# Poissons Ratio (x) = 0.12385 0.29267
# Poissons Ratio (y) = 0.37025 0.11823
# Poissons Ratio (z) = 0.23927 0.03233
#
# Static dielectric constant tensor:
#      x y z
#    x 2.013510 -0.016400 0.057680 
#    y -0.016400 2.059140 0.010260 
#    z 0.057680 0.010260 2.035920 
# 
# From -- ./inp_files/254601.got.cif
#   From: 2010.05.17/outbox.cif.g08.bks.cpg/sg2_128_cif.got.tgz:254601.got - 2010.06.03 11:33:40.
