data_PCOD9046783
_publ_section_title
;
Structure prediction by ZEFSAII (Michael W. Deem and Ramdas Pophale) SiO2 
 PCOD9046783
Probable space group: P -1
;
_chemical_formula_sum "Si O2"
_cell_formula_units_Z 15
_cell_length_a 7.591720
_cell_length_b 11.951846
_cell_length_c 11.326044
_cell_angle_alpha 38.397784
_cell_angle_beta 98.397473
_cell_angle_gamma 85.649874
_cell_volume 600.411512
_symmetry_space_group_name_H-M "P -1"
_symmetry_group_IT_number 2
_symmetry_cell_setting 'triclinic'
loop_
_space_group_symop_operation_xyz
x,y,z
-x,-y,-z
loop_
_atom_site_type_symbol
_atom_site_label
_atom_site_fract_x
_atom_site_fract_y
_atom_site_fract_z
Si Si1 0.592361 0.702507 0.463838
Si Si2 0.196131 0.492283 0.825169
Si Si3 0.159649 0.646342 0.107099
Si Si4 0.000000 0.000000 0.000000
Si Si5 0.502679 0.094630 0.189703
Si Si6 0.995144 0.327877 0.556890
Si Si7 0.175334 0.838799 0.703249
Si Si8 0.345721 0.848768 0.103663
O O1 0.646140 0.513980 0.705301
O O2 0.798580 0.726189 0.439101
O O3 0.490748 0.711788 0.319237
O O4 0.470998 0.891859 0.359842
O O5 0.217267 0.651664 0.783196
O O6 0.996658 0.452983 0.843239
O O7 0.181550 0.579157 0.621985
O O8 0.343351 0.290749 0.029581
O O9 0.153515 0.788591 0.100688
O O10 0.145601 0.768053 0.889484
O O11 0.961807 0.144658 0.759275
O O12 0.779273 0.966504 0.994428
O O13 0.652158 0.085484 0.315590
O O14 0.574853 0.115502 0.043691
O O15 0.000000 0.500000 0.500000
O O16 0.000000 0.000000 0.500000
#
# Coordination Sequence:
#
# PCOD9046783 Si02
#       8
#     2   2   2   1   2   2   2   2
#     4  11  22  43  67  96 140 183 216 283 345 406
#     4  11  24  44  70  97 136 178 226 284 342 401
#     4  10  24  43  68 101 132 174 235 279 342 408
#     4  12  24  38  64 100 134 178 238 266 348 412
#     4  11  24  43  67  98 135 179 227 280 346 401
#     4  11  24  42  67  98 140 181 231 284 345 412
#     4  11  24  46  72  94 132 179 231 281 341 406
#     4  11  24  38  67  96 141 178 227 274 344 409
#
# _framework density 24.982863999999999
#
# number of rings (size 3 to 8) (size 9 to 14) (size 15 to 20)
#    0.000    1.067    1.333    5.600    5.600    2.133 
#    0.000    5.333    0.000    0.000    0.000    0.000 
#    0.000    0.000    0.000    0.000    0.000    0.000 
#
# Total GULP energy -83656.498367 kJ/mol
# GULP energy per Si atom -5577.099891 kJ/mol
# Density = 2.492600 g / cm^3
# Si number density = 24.982864 Si / 1000 Ang^3
#
#
#
# Elastic Constant Matrix: (Units=GPa)
#
#
# Indices 1 2 3 4 5 6 
#
# 1 41.0507 21.9032 13.0106 11.0865 21.7006 12.9903
# 2 21.9032 131.8730 66.5398 -10.1766 25.2381 19.5169
# 3 13.0106 66.5398 214.4734 1.3939 40.7118 10.2513
# 4 11.0865 -10.1766 1.3939 47.6545 6.3689 8.8796
# 5 21.7006 25.2381 40.7118 6.3689 50.2604 -1.1990
# 6 12.9903 19.5169 10.2513 8.8796 -1.1990 30.8031
#
#
#
# Elastic Compliance Matrix: (Units=1/GPa)
#
#
# Indices 1 2 3 4 5 6 
#
# 1 0.040815 -0.002647 0.002572 -0.004782 -0.018146 -0.015720
# 2 -0.002647 0.011232 -0.002406 0.004777 -0.003314 -0.006706
# 3 0.002572 -0.002406 0.006288 -0.000300 -0.005000 -0.001762
# 4 -0.004782 0.004777 -0.000300 0.025135 -0.003475 -0.008291
# 5 -0.018146 -0.003314 -0.005000 -0.003475 0.034214 0.013750
# 6 -0.015720 -0.006706 -0.001762 -0.008291 0.013750 0.046854
#
#
# Mechanical properties :
#
#
# Convention : Reuss Voigt Hill
#
# Bulk Modulus (GPa) = 18.73530 65.58937 42.16234
# Shear Modulus (GPa) = 26.69656 44.80650 35.75153
#
# Velocity S-wave (km/s) = 3.27248 4.23956 3.78702
# Velocity P-wave (km/s) = 4.66845 7.09055 6.00293
#
# Compressibility (1/GPa) = 0.05337518
#
# Stress axis : x y z
#
# Youngs Moduli (GPa) = 24.50055 89.03337 159.02940
#
# Poissons Ratio (x) = 0.23564 -0.40904
# Poissons Ratio (y) = 0.06484 0.38255
# Poissons Ratio (z) = -0.06302 0.21417
#
# Static dielectric constant tensor:
#      x y z
#    x 2.197970 -0.052990 0.003050 
#    y -0.052990 2.118160 -0.127370 
#    z 0.003050 -0.127370 2.106530 
# 
# From -- ./inp_files/388881.got.cif
#   From: 2010.05.17/outbox.cif.g08.bks.cpg/sg2_195_cif.got.tgz:388881.got - 2010.06.03 11:33:40.
