data_PCOD9046920
_publ_section_title
;
Structure prediction by ZEFSAII (Michael W. Deem and Ramdas Pophale) SiO2 
 PCOD9046920
Probable space group: P -1
;
_chemical_formula_sum "Si O2"
_cell_formula_units_Z 16
_cell_length_a 8.908502
_cell_length_b 12.023640
_cell_length_c 7.446250
_cell_angle_alpha 97.189142
_cell_angle_beta 51.555327
_cell_angle_gamma 83.568037
_cell_volume 600.987533
_symmetry_space_group_name_H-M "P -1"
_symmetry_group_IT_number 2
_symmetry_cell_setting 'triclinic'
loop_
_space_group_symop_operation_xyz
x,y,z
-x,-y,-z
loop_
_atom_site_type_symbol
_atom_site_label
_atom_site_fract_x
_atom_site_fract_y
_atom_site_fract_z
Si Si1 0.163850 0.998794 0.698685
Si Si2 0.097203 0.769658 0.694291
Si Si3 0.460556 0.030728 0.772421
Si Si4 0.118478 0.796620 0.255381
Si Si5 0.195815 0.383256 0.140178
Si Si6 0.467719 0.386402 0.601681
Si Si7 0.561664 0.806758 0.855121
Si Si8 0.055787 0.405955 0.777067
O O1 0.294592 0.051335 0.749908
O O2 0.010060 0.083898 0.705155
O O3 0.075451 0.896360 0.820568
O O4 0.344258 0.931234 0.422486
O O5 0.079557 0.782981 0.492926
O O6 0.316749 0.697882 0.567404
O O7 0.937230 0.699920 0.855873
O O8 0.533287 0.892509 0.723946
O O9 0.383379 0.105186 0.019725
O O10 0.049735 0.697498 0.176775
O O11 0.345969 0.788163 0.047594
O O12 0.290741 0.315590 0.233779
O O13 0.047681 0.508566 0.287379
O O14 0.373929 0.394988 0.875017
O O15 0.500000 0.500000 0.500000
O O16 0.290331 0.355648 0.613586
O O17 0.000000 0.500000 0.000000
#
# Coordination Sequence:
#
# PCOD9046920 Si02
#       8
#     2   2   2   2   2   2   2   2
#     4  11  25  44  70 108 146 194 246 294 370 434
#     4  12  25  46  74 110 150 194 241 306 369 436
#     4  10  24  43  69 104 147 197 237 301 361 435
#     4  12  26  44  73 105 150 197 243 305 365 433
#     4  11  24  46  75 103 146 190 244 301 364 433
#     4  11  23  49  74 105 142 189 244 305 362 434
#     4  11  24  45  70 105 150 191 244 299 361 437
#     4  10  26  46  71 103 140 190 247 303 360 435
#
# _framework density 26.622847
#
# number of rings (size 3 to 8) (size 9 to 14) (size 15 to 20)
#    0.000    1.000    3.750    1.125   10.500    3.500 
#    0.000    0.000    0.000    0.000    0.000    0.000 
#    0.000    0.000    0.000    0.000    0.000    0.000 
#
# Total GULP energy -89622.204646 kJ/mol
# GULP energy per Si atom -5601.387790 kJ/mol
# Density = 2.656225 g / cm^3
# Si number density = 26.622847 Si / 1000 Ang^3
#
#
#
# Elastic Constant Matrix: (Units=GPa)
#
#
# Indices 1 2 3 4 5 6 
#
# 1 149.4616 53.4217 53.3862 4.2763 -20.2339 -26.3008
# 2 53.4217 148.7645 30.7671 -15.3977 -20.9481 -22.7459
# 3 53.3862 30.7671 79.6261 -19.8805 -15.4486 -4.7066
# 4 4.2763 -15.3977 -19.8805 43.5338 -3.0237 -11.0204
# 5 -20.2339 -20.9481 -15.4486 -3.0237 57.9326 -0.6291
# 6 -26.3008 -22.7459 -4.7066 -11.0204 -0.6291 68.7148
#
#
#
# Elastic Compliance Matrix: (Units=1/GPa)
#
#
# Indices 1 2 3 4 5 6 
#
# 1 0.010692 -0.002420 -0.007108 -0.004574 0.000748 0.002078
# 2 -0.002420 0.008811 -0.000085 0.004171 0.002565 0.002677
# 3 -0.007108 -0.000085 0.020678 0.010453 0.003551 0.000377
# 4 -0.004574 0.004171 0.010453 0.031344 0.004393 0.005413
# 5 0.000748 0.002565 0.003551 0.004393 0.019651 0.002263
# 6 0.002078 0.002677 0.000377 0.005413 0.002263 0.017149
#
#
# Mechanical properties :
#
#
# Convention : Reuss Voigt Hill
#
# Bulk Modulus (GPa) = 47.71889 72.55580 60.13735
# Shear Modulus (GPa) = 37.16494 50.05472 43.60983
#
# Velocity S-wave (km/s) = 3.74033 4.34076 4.05169
# Velocity P-wave (km/s) = 6.05115 7.24123 6.67277
#
# Compressibility (1/GPa) = 0.02095606
#
# Stress axis : x y z
#
# Youngs Moduli (GPa) = 93.52561 113.49728 48.36070
#
# Poissons Ratio (x) = 0.27467 0.34374
# Poissons Ratio (y) = 0.22634 0.00409
# Poissons Ratio (z) = 0.66476 0.00960
#
# Static dielectric constant tensor:
#      x y z
#    x 2.033760 -0.026860 0.071210 
#    y -0.026860 2.062470 0.061860 
#    z 0.071210 0.061860 2.190430 
# 
# From -- ./inp_files/187287.got.cif
#   From: 2010.05.17/outbox.cif.g08.bks.cpg/sg2_94_cif.got.tgz:187287.got - 2010.06.03 11:33:40.
