data_PCOD9046023
_publ_section_title
;
Structure prediction by ZEFSAII (Michael W. Deem and Ramdas Pophale) SiO2 
 PCOD9046023
Probable space group: P -1
;
_chemical_formula_sum "Si O2"
_cell_formula_units_Z 14
_cell_length_a 13.299403
_cell_length_b 20.066198
_cell_length_c 8.004217
_cell_angle_alpha 42.681025
_cell_angle_beta 45.954935
_cell_angle_gamma 21.669274
_cell_volume 534.082252
_symmetry_space_group_name_H-M "P -1"
_symmetry_group_IT_number 2
_symmetry_cell_setting 'triclinic'
loop_
_space_group_symop_operation_xyz
x,y,z
-x,-y,-z
loop_
_atom_site_type_symbol
_atom_site_label
_atom_site_fract_x
_atom_site_fract_y
_atom_site_fract_z
Si Si1 0.123510 0.290062 0.439637
Si Si2 0.500000 0.500000 0.500000
Si Si3 0.241652 0.861279 0.344141
Si Si4 0.069766 0.245526 0.213953
Si Si5 0.707379 0.698664 0.252465
Si Si6 0.550395 0.143117 0.422415
Si Si7 0.645245 0.443567 0.763229
Si Si8 0.000000 0.000000 0.000000
O O1 0.149077 0.241502 0.310209
O O2 0.391177 0.159043 0.468084
O O3 0.950659 0.493975 0.263993
O O4 0.927951 0.327748 0.685261
O O5 0.705328 0.338194 0.726322
O O6 0.752445 0.411901 0.289000
O O7 0.442833 0.830421 0.206359
O O8 0.440450 0.642959 0.527689
O O9 0.000000 0.000000 0.500000
O O10 0.091099 0.956508 0.170394
O O11 0.230746 0.048121 0.367067
O O12 0.189293 0.253182 0.935449
O O13 0.649521 0.688788 0.520678
O O14 0.710884 0.120260 0.167906
O O15 0.500000 0.500000 0.000000
#
# Coordination Sequence:
#
# PCOD9046023 Si02
#       8
#     2   1   2   2   2   2   2   1
#     4  10  24  45  65 104 142 190 237 290 381 427
#     4  10  24  42  66 106 138 182 236 282 374 406
#     4  11  24  45  69 105 140 188 241 289 367 426
#     4  11  24  44  71 101 142 187 245 305 350 441
#     4  11  24  45  70 104 146 185 242 303 364 437
#     4  12  25  43  71 107 139 193 243 299 366 425
#     4  10  24  44  70 101 141 185 233 297 354 429
#     4  12  26  46  72 104 152 186 240 306 356 446
#
# _framework density 26.213190999999998
#
# number of rings (size 3 to 8) (size 9 to 14) (size 15 to 20)
#    0.000    1.143    1.429    3.429    2.000    8.000 
#    0.000    0.000    0.000    0.000    0.000    0.000 
#    0.000    0.000    0.000    0.000    0.000    0.000 
#
# Total GULP energy -78012.173567 kJ/mol
# GULP energy per Si atom -5572.298112 kJ/mol
# Density = 2.615353 g / cm^3
# Si number density = 26.213191 Si / 1000 Ang^3
#
#
#
# Elastic Constant Matrix: (Units=GPa)
#
#
# Indices 1 2 3 4 5 6 
#
# 1 109.8868 5.9473 37.1164 12.1462 2.6930 -34.5194
# 2 5.9473 85.0468 25.0948 15.1225 -11.0025 -25.1785
# 3 37.1164 25.0948 142.6965 48.6326 8.3126 -18.8594
# 4 12.1462 15.1225 48.6326 43.0320 -3.0374 -9.6434
# 5 2.6930 -11.0025 8.3126 -3.0374 53.5476 12.5806
# 6 -34.5194 -25.1785 -18.8594 -9.6434 12.5806 58.9704
#
#
#
# Elastic Compliance Matrix: (Units=1/GPa)
#
#
# Indices 1 2 3 4 5 6 
#
# 1 0.012223 0.001857 -0.002532 0.000334 -0.001591 0.007532
# 2 0.001857 0.014503 -0.001475 -0.002485 0.001548 0.006071
# 3 -0.002532 -0.001475 0.012644 -0.013175 -0.002983 0.000414
# 4 0.000334 -0.002485 -0.013175 0.039291 0.003611 0.000576
# 5 -0.001591 0.001548 -0.002983 0.003611 0.020939 -0.005101
# 6 0.007532 0.006071 0.000414 0.000576 -0.005101 0.025274
#
#
# Mechanical properties :
#
#
# Convention : Reuss Voigt Hill
#
# Bulk Modulus (GPa) = 28.51263 52.66079 40.58671
# Shear Modulus (GPa) = 35.49522 49.07477 42.28500
#
# Velocity S-wave (km/s) = 3.68380 4.33152 4.02072
# Velocity P-wave (km/s) = 5.38467 6.71931 6.08867
#
# Compressibility (1/GPa) = 0.03507218
#
# Stress axis : x y z
#
# Youngs Moduli (GPa) = 81.81249 68.95158 79.08616
#
# Poissons Ratio (x) = -0.12804 0.20021
# Poissons Ratio (y) = -0.15192 0.11662
# Poissons Ratio (z) = 0.20711 0.10167
#
# Static dielectric constant tensor:
#      x y z
#    x 1.504050 -0.135560 -0.118720 
#    y -0.135560 1.901660 -0.055880 
#    z -0.118720 -0.055880 2.007860 
# 
# From -- ./inp_files/319998.got.cif
#   From: 2010.05.17/outbox.cif.g08.bks.cpg/sg2_160_cif.got.tgz:319998.got - 2010.06.03 11:33:40.
