data_PCOD9046570
_publ_section_title
;
Structure prediction by ZEFSAII (Michael W. Deem and Ramdas Pophale) SiO2 
 PCOD9046570
Probable space group: P -1
;
_chemical_formula_sum "Si O2"
_cell_formula_units_Z 14
_cell_length_a 15.688141
_cell_length_b 9.461468
_cell_length_c 12.642769
_cell_angle_alpha 34.878030
_cell_angle_beta 144.879441
_cell_angle_gamma 123.488303
_cell_volume 575.364961
_symmetry_space_group_name_H-M "P -1"
_symmetry_group_IT_number 2
_symmetry_cell_setting 'triclinic'
loop_
_space_group_symop_operation_xyz
x,y,z
-x,-y,-z
loop_
_atom_site_type_symbol
_atom_site_label
_atom_site_fract_x
_atom_site_fract_y
_atom_site_fract_z
Si Si1 0.206254 0.557944 0.757327
Si Si2 0.248122 0.058594 0.515172
Si Si3 0.624248 0.258300 0.707342
Si Si4 0.378904 0.267566 0.904408
Si Si5 0.657703 0.731978 0.716833
Si Si6 0.092612 0.196804 0.975339
Si Si7 0.182688 0.464518 0.379099
O O1 0.147447 0.875887 0.495061
O O2 0.097974 0.375143 0.770592
O O3 0.316235 0.440120 0.839971
O O4 0.288859 0.490005 0.000880
O O5 0.430790 0.854737 0.828318
O O6 0.257004 0.275397 0.305415
O O7 0.203700 0.206955 0.489592
O O8 0.500000 0.500000 0.500000
O O9 0.521029 0.210526 0.533970
O O10 0.769150 0.333413 0.768719
O O11 0.674259 0.987773 0.988259
O O12 0.304299 0.410006 0.633767
O O13 0.725319 0.938227 0.716952
O O14 0.990620 0.414110 0.822568
O O15 0.000000 0.000000 0.000000
#
# Coordination Sequence:
#
# PCOD9046570 Si02
#       7
#     2   2   2   2   2   2   2
#     4  10  24  43  64  97 136 180 221 271 339 390
#     4  11  23  41  68 104 130 177 222 285 338 389
#     4  11  22  43  68 101 132 177 215 281 340 384
#     4  11  24  39  69 102 135 176 223 280 333 400
#     4   9  23  44  66  94 139 169 231 268 333 404
#     4  10  25  48  66  97 136 185 223 277 334 403
#     4  12  25  42  71 101 141 171 228 279 335 405
#
# _framework density 24.332384000000001
#
# number of rings (size 3 to 8) (size 9 to 14) (size 15 to 20)
#    0.857    0.571    2.857    2.571    4.000    4.000 
#    2.571    0.000    0.000    0.000    0.000    0.000 
#    0.000    0.000    0.000    0.000    0.000    0.000 
#
# Total GULP energy -78061.623609 kJ/mol
# GULP energy per Si atom -5575.830258 kJ/mol
# Density = 2.427700 g / cm^3
# Si number density = 24.332384 Si / 1000 Ang^3
#
#
#
# Elastic Constant Matrix: (Units=GPa)
#
#
# Indices 1 2 3 4 5 6 
#
# 1 99.2324 41.3120 22.3968 -28.0794 -3.7840 -30.1996
# 2 41.3120 119.7252 23.4157 -21.7366 5.9618 -4.7373
# 3 22.3968 23.4157 45.4867 2.2355 -7.1032 -13.5305
# 4 -28.0794 -21.7366 2.2355 34.7131 3.2442 -7.3536
# 5 -3.7840 5.9618 -7.1032 3.2442 38.8526 -9.9854
# 6 -30.1996 -4.7373 -13.5305 -7.3536 -9.9854 45.7954
#
#
#
# Elastic Compliance Matrix: (Units=1/GPa)
#
#
# Indices 1 2 3 4 5 6 
#
# 1 0.024759 -0.002996 -0.005281 0.022070 0.004967 0.019084
# 2 -0.002996 0.011646 -0.006271 0.005097 -0.004359 -0.002756
# 3 -0.005281 -0.006271 0.031181 -0.009860 0.008338 0.005316
# 4 0.022070 0.005097 -0.009860 0.054914 0.000395 0.021072
# 5 0.004967 -0.004359 0.008338 0.000395 0.031524 0.012226
# 6 0.019084 -0.002756 0.005316 0.021072 0.012226 0.041756
#
#
# Mechanical properties :
#
#
# Convention : Reuss Voigt Hill
#
# Bulk Modulus (GPa) = 25.98044 48.74369 37.36206
# Shear Modulus (GPa) = 21.03446 35.69355 28.36400
#
# Velocity S-wave (km/s) = 2.94337 3.83419 3.41792
# Velocity P-wave (km/s) = 4.71717 6.29899 5.56457
#
# Compressibility (1/GPa) = 0.03849050
#
# Stress axis : x y z
#
# Youngs Moduli (GPa) = 40.38969 85.86660 32.07092
#
# Poissons Ratio (x) = 0.25723 0.16936
# Poissons Ratio (y) = 0.12099 0.20112
# Poissons Ratio (z) = 0.21330 0.53847
#
# Static dielectric constant tensor:
#      x y z
#    x 1.940800 0.023530 -0.008720 
#    y 0.023530 2.020550 0.041130 
#    z -0.008720 0.041130 1.955800 
# 
# From -- ./inp_files/446692.got.cif
#   From: 2010.05.17/outbox.cif.g08.bks.cpg/sg2_224_cif.got.tgz:446692.got - 2010.06.03 11:33:40.
