data_PCOD9046443
_publ_section_title
;
Structure prediction by ZEFSAII (Michael W. Deem and Ramdas Pophale) SiO2 
 PCOD9046443
Probable space group: P -1
;
_chemical_formula_sum "Si O2"
_cell_formula_units_Z 13
_cell_length_a 8.525906
_cell_length_b 5.709816
_cell_length_c 17.566327
_cell_angle_alpha 57.823220
_cell_angle_beta 126.377817
_cell_angle_gamma 121.781084
_cell_volume 554.166190
_symmetry_space_group_name_H-M "P -1"
_symmetry_group_IT_number 2
_symmetry_cell_setting 'triclinic'
loop_
_space_group_symop_operation_xyz
x,y,z
-x,-y,-z
loop_
_atom_site_type_symbol
_atom_site_label
_atom_site_fract_x
_atom_site_fract_y
_atom_site_fract_z
Si Si1 0.995481 0.880643 0.742636
Si Si2 0.663398 0.326140 0.710489
Si Si3 0.322626 0.443020 0.694231
Si Si4 0.675500 0.241973 0.053159
Si Si5 0.666589 0.202977 0.569372
Si Si6 0.548809 0.713375 0.861408
Si Si7 0.000000 0.500000 0.500000
O O1 0.887529 0.562731 0.732721
O O2 0.119082 0.841152 0.859566
O O3 0.816168 0.024518 0.674846
O O4 0.157054 0.119203 0.695407
O O5 0.516896 0.446890 0.700099
O O6 0.580129 0.288845 0.607277
O O7 0.655853 0.022999 0.800099
O O8 0.398832 0.520287 0.787995
O O9 0.187431 0.635786 0.592226
O O10 0.584206 0.259109 0.108125
O O11 0.700888 0.541972 0.964643
O O12 0.500000 0.000000 0.000000
O O13 0.823092 0.459620 0.522444
O O14 0.500000 0.000000 0.500000
#
# Coordination Sequence:
#
# PCOD9046443 Si02
#       7
#     2   2   2   2   2   2   1
#     4  11  25  42  72 102 139 186 237 288 356 421
#     4  12  25  44  71 105 142 188 233 299 351 424
#     4  11  24  48  68 104 145 186 238 298 352 422
#     4  11  23  44  74 105 142 191 237 293 356 419
#     4  11  26  46  68 104 146 183 237 295 354 425
#     4  11  23  43  74 100 146 187 235 296 353 415
#     4  10  24  42  72  98 136 184 234 282 356 418
#
# _framework density 23.458666999999998
#
# number of rings (size 3 to 8) (size 9 to 14) (size 15 to 20)
#    0.000    0.923    3.077    2.769    4.308    4.308 
#    0.000    9.231    0.000    0.000    0.000    0.000 
#    0.000    0.000    0.000    0.000    0.000    0.000 
#
# Total GULP energy -72418.383633 kJ/mol
# GULP energy per Si atom -5570.644895 kJ/mol
# Density = 2.340527 g / cm^3
# Si number density = 23.458667 Si / 1000 Ang^3
#
#
#
# Elastic Constant Matrix: (Units=GPa)
#
#
# Indices 1 2 3 4 5 6 
#
# 1 88.4660 36.0002 46.5302 17.9845 -26.0128 7.1482
# 2 36.0002 115.5065 11.6760 13.0377 -17.4018 25.0519
# 3 46.5302 11.6760 112.3809 35.0975 -0.8722 -14.8548
# 4 17.9845 13.0377 35.0975 44.7906 -4.9653 -7.9549
# 5 -26.0128 -17.4018 -0.8722 -4.9653 53.5576 0.1314
# 6 7.1482 25.0519 -14.8548 -7.9549 0.1314 30.4474
#
#
#
# Elastic Compliance Matrix: (Units=1/GPa)
#
#
# Indices 1 2 3 4 5 6 
#
# 1 0.020270 -0.002409 -0.008764 -0.000889 0.008855 -0.007323
# 2 -0.002409 0.012753 -0.000535 -0.004034 0.002619 -0.011254
# 3 -0.008764 -0.000535 0.016158 -0.008060 -0.004935 0.008296
# 4 -0.000889 -0.004034 -0.008060 0.031687 0.001044 0.007870
# 5 0.008855 0.002619 -0.004935 0.001044 0.023856 -0.006471
# 6 -0.007323 -0.011254 0.008296 0.007870 -0.006471 0.049954
#
#
# Mechanical properties :
#
#
# Convention : Reuss Voigt Hill
#
# Bulk Modulus (GPa) = 38.81120 56.08513 47.44817
# Shear Modulus (GPa) = 26.78364 40.56891 33.67627
#
# Velocity S-wave (km/s) = 3.38263 4.16309 3.79299
# Velocity P-wave (km/s) = 5.64240 6.86064 6.28112
#
# Compressibility (1/GPa) = 0.02576576
#
# Stress axis : x y z
#
# Youngs Moduli (GPa) = 49.33454 78.41254 61.88866
#
# Poissons Ratio (x) = 0.18889 0.54237
# Poissons Ratio (y) = 0.11884 0.03311
# Poissons Ratio (z) = 0.43235 0.04195
#
# Static dielectric constant tensor:
#      x y z
#    x 1.406580 0.313380 -0.396990 
#    y 0.313380 1.678360 0.208230 
#    z -0.396990 0.208230 1.605570 
# 
# From -- ./inp_files/32683.got.cif
#   From: 2010.05.17/outbox.cif.g08.bks.cpg/sg2_17_cif.got.tgz:32683.got - 2010.06.03 11:33:40.
