data_PCOD9046928
_publ_section_title
;
Structure prediction by ZEFSAII (Michael W. Deem and Ramdas Pophale) SiO2 
 PCOD9046928
Probable space group: P -1
;
_chemical_formula_sum "Si O2"
_cell_formula_units_Z 16
_cell_length_a 5.140036
_cell_length_b 11.376131
_cell_length_c 12.683017
_cell_angle_alpha 70.906009
_cell_angle_beta 106.935184
_cell_angle_gamma 105.463172
_cell_volume 658.279174
_symmetry_space_group_name_H-M "P -1"
_symmetry_group_IT_number 2
_symmetry_cell_setting 'triclinic'
loop_
_space_group_symop_operation_xyz
x,y,z
-x,-y,-z
loop_
_atom_site_type_symbol
_atom_site_label
_atom_site_fract_x
_atom_site_fract_y
_atom_site_fract_z
Si Si1 0.922738 0.191296 0.084504
Si Si2 0.309387 0.504576 0.575886
Si Si3 0.359247 0.238743 0.738335
Si Si4 0.700035 0.282564 0.333918
Si Si5 0.742374 0.956089 0.718345
Si Si6 0.531773 0.360082 0.077429
Si Si7 0.137215 0.876074 0.134337
Si Si8 0.975866 0.875386 0.461745
O O1 0.687875 0.275008 0.045468
O O2 0.977773 0.103421 0.215655
O O3 0.220173 0.284689 0.081416
O O4 0.879659 0.108940 0.996969
O O5 0.500000 0.500000 0.500000
O O6 0.317593 0.382012 0.683590
O O7 0.402489 0.631858 0.615276
O O8 0.000000 0.500000 0.500000
O O9 0.674069 0.229966 0.799122
O O10 0.151543 0.168223 0.824596
O O11 0.274367 0.174183 0.632897
O O12 0.489283 0.152876 0.322231
O O13 0.714158 0.361150 0.204958
O O14 0.967126 0.237672 0.425500
O O15 0.696384 0.004073 0.816347
O O16 0.784871 0.075396 0.610985
O O17 0.500000 0.500000 0.000000
O O18 0.000000 0.000000 0.500000
#
# Coordination Sequence:
#
# PCOD9046928 Si02
#       8
#     2   2   2   2   2   2   2   2
#     4  11  24  45  72 101 141 180 237 282 348 409
#     4  12  27  46  70 100 143 181 237 287 342 417
#     4  11  25  44  66 106 138 184 235 280 349 414
#     4  11  25  44  72 101 143 184 229 289 349 412
#     4  10  24  43  69 107 138 184 231 285 350 415
#     4  11  26  47  69 104 138 186 234 284 342 414
#     4  11  24  44  73 101 145 179 231 285 346 415
#     4  11  22  40  70 100 141 181 229 289 347 416
#
# _framework density 24.305796000000001
#
# number of rings (size 3 to 8) (size 9 to 14) (size 15 to 20)
#    0.000    1.000    1.250    4.125    7.000    5.000 
#    0.000    6.250    0.000    0.000    0.000    0.000 
#    0.000    0.000    0.000    0.000    0.000    0.000 
#
# Total GULP energy -89554.033275 kJ/mol
# GULP energy per Si atom -5597.127080 kJ/mol
# Density = 2.425048 g / cm^3
# Si number density = 24.305796 Si / 1000 Ang^3
#
#
#
# Elastic Constant Matrix: (Units=GPa)
#
#
# Indices 1 2 3 4 5 6 
#
# 1 99.1420 21.9610 20.8781 -2.5597 -4.1427 -14.7294
# 2 21.9610 96.7945 29.9757 0.6864 -12.9397 -19.0030
# 3 20.8781 29.9757 130.3619 5.7463 1.7175 -10.8851
# 4 -2.5597 0.6864 5.7463 54.0115 -15.0368 -4.0512
# 5 -4.1427 -12.9397 1.7175 -15.0368 31.0697 0.8264
# 6 -14.7294 -19.0030 -10.8851 -4.0512 0.8264 37.3316
#
#
#
# Elastic Compliance Matrix: (Units=1/GPa)
#
#
# Indices 1 2 3 4 5 6 
#
# 1 0.011270 -0.001246 -0.001306 0.001413 0.001646 0.003549
# 2 -0.001246 0.013382 -0.002591 0.002283 0.006504 0.005669
# 3 -0.001306 -0.002591 0.008627 -0.001607 -0.002523 0.000563
# 4 0.001413 0.002283 -0.001607 0.022300 0.011930 0.003407
# 5 0.001646 0.006504 -0.002523 0.011930 0.040931 0.003613
# 6 0.003549 0.005669 0.000563 0.003407 0.003613 0.031527
#
#
# Mechanical properties :
#
#
# Convention : Reuss Voigt Hill
#
# Bulk Modulus (GPa) = 43.48946 52.43645 47.96296
# Shear Modulus (GPa) = 34.24960 41.38146 37.81553
#
# Velocity S-wave (km/s) = 3.75789 4.13065 3.94867
# Velocity P-wave (km/s) = 6.06304 6.66110 6.36909
#
# Compressibility (1/GPa) = 0.02299408
#
# Stress axis : x y z
#
# Youngs Moduli (GPa) = 88.73093 74.72528 115.91660
#
# Poissons Ratio (x) = 0.09310 0.15140
# Poissons Ratio (y) = 0.11055 0.30029
# Poissons Ratio (z) = 0.11590 0.19358
#
# Static dielectric constant tensor:
#      x y z
#    x 1.946680 -0.020120 -0.011520 
#    y -0.020120 1.930520 -0.014570 
#    z -0.011520 -0.014570 1.988340 
# 
# From -- ./inp_files/364125.got.cif
#   From: 2010.05.17/outbox.cif.g08.bks.cpg/sg2_183_cif.got.tgz:364125.got - 2010.06.03 11:33:40.
