data_PCOD9046437
_publ_section_title
;
Structure prediction by ZEFSAII (Michael W. Deem and Ramdas Pophale) SiO2 
 PCOD9046437
Probable space group: P -1
;
_chemical_formula_sum "Si O2"
_cell_formula_units_Z 14
_cell_length_a 14.754614
_cell_length_b 12.771220
_cell_length_c 21.457225
_cell_angle_alpha 19.171717
_cell_angle_beta 29.293667
_cell_angle_gamma 36.117915
_cell_volume 646.473141
_symmetry_space_group_name_H-M "P -1"
_symmetry_group_IT_number 2
_symmetry_cell_setting 'triclinic'
loop_
_space_group_symop_operation_xyz
x,y,z
-x,-y,-z
loop_
_atom_site_type_symbol
_atom_site_label
_atom_site_fract_x
_atom_site_fract_y
_atom_site_fract_z
Si Si1 0.564355 0.150827 0.212670
Si Si2 0.026228 0.871287 0.254789
Si Si3 0.111064 0.937039 0.375502
Si Si4 0.321275 0.191050 0.987072
Si Si5 0.286203 0.115312 0.298853
Si Si6 0.912181 0.811701 0.218010
Si Si7 0.350560 0.929266 0.574614
O O1 0.463150 0.016158 0.286367
O O2 0.707041 0.923443 0.282905
O O3 0.405028 0.171002 0.348964
O O4 0.676189 0.496977 0.939789
O O5 0.018269 0.894572 0.172057
O O6 0.000000 0.500000 0.500000
O O7 0.851628 0.029415 0.300133
O O8 0.213584 0.040804 0.076336
O O9 0.098640 0.564741 0.575138
O O10 0.905885 0.004093 0.483746
O O11 0.184530 0.131217 0.162099
O O12 0.252458 0.011074 0.306632
O O13 0.362778 0.570886 0.743986
O O14 0.500000 0.000000 0.000000
O O15 0.000000 0.000000 0.000000
O O16 0.500000 0.000000 0.500000
#
# Coordination Sequence:
#
# PCOD9046437 Si02
#       7
#     2   2   2   2   2   2   2
#     4  11  23  44  67 102 131 177 227 278 350 408
#     4  12  26  46  70 101 142 189 228 291 354 407
#     4  11  23  45  67  98 134 178 227 282 344 407
#     4  12  26  45  70 102 139 182 237 287 346 415
#     4  10  24  42  72  94 135 177 221 284 345 413
#     4  12  25  42  69  99 138 175 228 283 340 413
#     4  12  24  43  72 100 138 179 234 286 340 421
#
# _framework density 21.655964999999998
#
# number of rings (size 3 to 8) (size 9 to 14) (size 15 to 20)
#    0.000    0.571    4.286    3.857    0.000    2.857 
#    0.000    0.000    0.000    0.000    0.000    0.000 
#    0.000    0.000    0.000    0.000    0.000    0.000 
#
# Total GULP energy -78368.156818 kJ/mol
# GULP energy per Si atom -5597.725487 kJ/mol
# Density = 2.160668 g / cm^3
# Si number density = 21.655965 Si / 1000 Ang^3
#
#
#
# Elastic Constant Matrix: (Units=GPa)
#
#
# Indices 1 2 3 4 5 6 
#
# 1 195.0643 32.9340 41.1756 1.5385 -37.1438 18.5190
# 2 32.9340 55.0568 15.0228 -6.1534 -11.0503 -0.6900
# 3 41.1756 15.0228 95.9609 10.7486 -6.8944 9.3115
# 4 1.5385 -6.1534 10.7486 28.4246 14.2994 9.6034
# 5 -37.1438 -11.0503 -6.8944 14.2994 48.1085 2.9333
# 6 18.5190 -0.6900 9.3115 9.6034 2.9333 35.9906
#
#
#
# Elastic Compliance Matrix: (Units=1/GPa)
#
#
# Indices 1 2 3 4 5 6 
#
# 1 0.007415 -0.003118 -0.001733 -0.002112 0.005591 -0.003319
# 2 -0.003118 0.021456 -0.002682 0.005119 0.000536 0.001300
# 3 -0.001733 -0.002682 0.012425 -0.005633 0.001562 -0.000998
# 4 -0.002112 0.005119 -0.005633 0.049410 -0.015382 -0.009288
# 5 0.005591 0.000536 0.001562 -0.015382 0.030120 -0.001621
# 6 -0.003319 0.001300 -0.000998 -0.009288 -0.001621 0.032386
#
#
# Mechanical properties :
#
#
# Convention : Reuss Voigt Hill
#
# Bulk Modulus (GPa) = 38.12627 58.26075 48.19351
# Shear Modulus (GPa) = 28.24501 39.63471 33.93986
#
# Velocity S-wave (km/s) = 3.61537 4.28272 3.96312
# Velocity P-wave (km/s) = 5.92212 7.17056 6.57603
#
# Compressibility (1/GPa) = 0.02622863
#
# Stress axis : x y z
#
# Youngs Moduli (GPa) = 134.85849 46.60683 80.48568
#
# Poissons Ratio (x) = 0.14533 0.13951
# Poissons Ratio (y) = 0.42052 0.21587
# Poissons Ratio (z) = 0.23375 0.12500
#
# Static dielectric constant tensor:
#      x y z
#    x 1.771270 0.004040 0.080360 
#    y 0.004040 1.812850 0.046120 
#    z 0.080360 0.046120 1.565650 
# 
# From -- ./inp_files/156674.got.cif
#   From: 2010.05.17/outbox.cif.g08.bks.cpg/sg2_79_cif.got.tgz:156674.got - 2010.06.03 11:33:40.
