data_PCOD9046550
_publ_section_title
;
Structure prediction by ZEFSAII (Michael W. Deem and Ramdas Pophale) SiO2 
 PCOD9046550
Probable space group: P -1
;
_chemical_formula_sum "Si O2"
_cell_formula_units_Z 12
_cell_length_a 7.434261
_cell_length_b 9.514821
_cell_length_c 15.850751
_cell_angle_alpha 50.718628
_cell_angle_beta 42.323821
_cell_angle_gamma 83.562531
_cell_volume 426.802810
_symmetry_space_group_name_H-M "P -1"
_symmetry_group_IT_number 2
_symmetry_cell_setting 'triclinic'
loop_
_space_group_symop_operation_xyz
x,y,z
-x,-y,-z
loop_
_atom_site_type_symbol
_atom_site_label
_atom_site_fract_x
_atom_site_fract_y
_atom_site_fract_z
Si Si1 0.595901 0.236419 0.759192
Si Si2 0.240177 0.750085 0.107873
Si Si3 0.926465 0.259267 0.444906
Si Si4 0.326825 0.836165 0.707594
Si Si5 0.536960 0.452652 0.297860
Si Si6 0.746778 0.840902 0.314326
O O1 0.599557 0.215636 0.868466
O O2 0.324329 0.281383 0.828481
O O3 0.000000 0.500000 0.500000
O O4 0.499969 0.983184 0.866415
O O5 0.119809 0.490670 0.223707
O O6 0.940401 0.766199 0.227978
O O7 0.594651 0.246214 0.591887
O O8 0.212607 0.326926 0.389045
O O9 0.681642 0.994224 0.586093
O O10 0.199886 0.577193 0.822735
O O11 0.500000 0.000000 0.500000
O O12 0.089454 0.888985 0.810951
O O13 0.383497 0.304943 0.495689
#
# Coordination Sequence:
#
# PCOD9046550 Si02
#       6
#     2   2   2   2   2   2
#     4  10  20  34  59  85 112 154 189 237 290 342
#     4  10  19  35  55  87 117 148 190 236 293 333
#     4   9  19  30  58  83 118 149 190 236 277 344
#     4   8  17  31  54  83 112 157 184 232 285 328
#     4  10  17  34  56  80 113 157 190 223 290 335
#     4   9  18  32  56  83 118 147 183 241 279 334
#
# _framework density 28.116029000000001
#
# number of rings (size 3 to 8) (size 9 to 14) (size 15 to 20)
#    1.000    1.667    1.667    1.000    0.000    0.000 
#    0.000    1.667    0.000    1.000    8.667    0.000 
#    0.000    0.000    0.000    0.000    0.000    0.000 
#
# Total GULP energy -66811.491040 kJ/mol
# GULP energy per Si atom -5567.624253 kJ/mol
# Density = 2.805204 g / cm^3
# Si number density = 28.116029 Si / 1000 Ang^3
#
#
#
# Elastic Constant Matrix: (Units=GPa)
#
#
# Indices 1 2 3 4 5 6 
#
# 1 122.9503 2.1015 -16.3403 20.1739 8.0813 7.6176
# 2 2.1015 139.4962 28.6146 -21.9277 8.7137 -21.2382
# 3 -16.3403 28.6146 108.2155 -12.1299 23.2759 -14.1307
# 4 20.1739 -21.9277 -12.1299 56.0569 -6.9373 3.3721
# 5 8.0813 8.7137 23.2759 -6.9373 32.4852 -8.0008
# 6 7.6176 -21.2382 -14.1307 3.3721 -8.0008 39.9544
#
#
#
# Elastic Compliance Matrix: (Units=1/GPa)
#
#
# Indices 1 2 3 4 5 6 
#
# 1 0.009556 -0.001248 0.002086 -0.003946 -0.004973 -0.002411
# 2 -0.001248 0.008639 -0.001776 0.003319 0.000989 0.004120
# 3 0.002086 -0.001776 0.011979 0.000044 -0.008314 0.001226
# 4 -0.003946 0.003319 0.000044 0.021080 0.004993 0.001753
# 5 -0.004973 0.000989 -0.008314 0.004993 0.040301 0.006182
# 6 -0.002411 0.004120 0.001226 0.001753 0.006182 0.029202
#
#
# Mechanical properties :
#
#
# Convention : Reuss Voigt Hill
#
# Bulk Modulus (GPa) = 35.34067 44.37929 39.85998
# Shear Modulus (GPa) = 37.86033 49.45172 43.65602
#
# Velocity S-wave (km/s) = 3.67355 4.19841 3.94472
# Velocity P-wave (km/s) = 5.53084 6.27063 5.91232
#
# Compressibility (1/GPa) = 0.02829601
#
# Stress axis : x y z
#
# Youngs Moduli (GPa) = 104.65035 115.75573 83.48279
#
# Poissons Ratio (x) = 0.14452 -0.17410
# Poissons Ratio (y) = 0.13065 0.14823
# Poissons Ratio (z) = -0.21825 0.20553
#
# Static dielectric constant tensor:
#      x y z
#    x 2.283260 0.097230 -0.028380 
#    y 0.097230 2.356980 0.036540 
#    z -0.028380 0.036540 2.500040 
# 
# From -- ./inp_files/558929.got.cif
#   From: 2010.05.17/outbox.cif.g08.bks.cpg/sg2_280_cif.got.tgz:558929.got - 2010.06.03 11:33:40.
