data_PCOD9046494
_publ_section_title
;
Structure prediction by ZEFSAII (Michael W. Deem and Ramdas Pophale) SiO2 
 PCOD9046494
Probable space group: P -1
;
_chemical_formula_sum "Si O2"
_cell_formula_units_Z 15
_cell_length_a 11.330085
_cell_length_b 5.966005
_cell_length_c 12.434936
_cell_angle_alpha 68.424251
_cell_angle_beta 75.329231
_cell_angle_gamma 53.969654
_cell_volume 631.359818
_symmetry_space_group_name_H-M "P -1"
_symmetry_group_IT_number 2
_symmetry_cell_setting 'triclinic'
loop_
_space_group_symop_operation_xyz
x,y,z
-x,-y,-z
loop_
_atom_site_type_symbol
_atom_site_label
_atom_site_fract_x
_atom_site_fract_y
_atom_site_fract_z
Si Si1 0.918357 0.416346 0.119994
Si Si2 0.012163 0.470813 0.325093
Si Si3 0.590713 0.571199 0.384820
Si Si4 0.844457 0.221669 0.837012
Si Si5 0.413865 0.809115 0.168217
Si Si6 0.804423 0.934591 0.469337
Si Si7 0.661706 0.588622 0.005074
Si Si8 0.500000 0.000000 0.500000
O O1 0.943003 0.475136 0.225766
O O2 0.752696 0.580767 0.089473
O O3 0.999021 0.074309 0.147061
O O4 0.000000 0.500000 0.000000
O O5 0.134340 0.537476 0.256815
O O6 0.095726 0.177039 0.427007
O O7 0.898958 0.719612 0.388894
O O8 0.500000 0.500000 0.500000
O O9 0.503871 0.657634 0.280009
O O10 0.581371 0.838303 0.395758
O O11 0.745197 0.266575 0.396712
O O12 0.735744 0.174638 0.801644
O O13 0.771264 0.318148 0.954113
O O14 0.383489 0.124289 0.101439
O O15 0.518167 0.618952 0.078863
O O16 0.660254 0.925828 0.521045
#
# Coordination Sequence:
#
# PCOD9046494 Si02
#       8
#     2   2   2   2   2   2   2   1
#     4  12  25  44  70 102 142 181 235 290 354 424
#     4  11  27  46  70 103 147 185 239 291 353 428
#     4  10  25  43  72 103 136 179 237 289 356 415
#     4  12  25  43  73  99 139 191 227 294 355 420
#     4  11  26  46  69 104 142 182 238 292 351 426
#     4  10  26  48  68 106 138 189 237 289 358 416
#     4  11  26  46  69 104 143 184 234 292 353 429
#     4  10  24  42  74  96 138 180 226 298 346 418
#
# _framework density 23.758244999999999
#
# number of rings (size 3 to 8) (size 9 to 14) (size 15 to 20)
#    0.000    1.067    2.667    0.800   14.933    0.000 
#    2.400    2.667    0.000    0.000    0.000    0.000 
#    0.000    0.000    0.000    0.000    0.000    0.000 
#
# Total GULP energy -83672.725896 kJ/mol
# GULP energy per Si atom -5578.181726 kJ/mol
# Density = 2.370417 g / cm^3
# Si number density = 23.758245 Si / 1000 Ang^3
#
#
#
# Elastic Constant Matrix: (Units=GPa)
#
#
# Indices 1 2 3 4 5 6 
#
# 1 52.4702 -4.5885 32.7968 -6.7544 -2.0601 -21.3917
# 2 -4.5885 87.2717 51.6387 11.4917 22.3106 -19.7517
# 3 32.7968 51.6387 144.0507 -6.7486 34.2464 -5.7922
# 4 -6.7544 11.4917 -6.7486 35.2246 -7.0667 1.7426
# 5 -2.0601 22.3106 34.2464 -7.0667 37.1405 5.2119
# 6 -21.3917 -19.7517 -5.7922 1.7426 5.2119 27.4235
#
#
#
# Elastic Compliance Matrix: (Units=1/GPa)
#
#
# Indices 1 2 3 4 5 6 
#
# 1 0.070725 0.042208 -0.025671 -0.011569 -0.011623 0.083092
# 2 0.042208 0.050038 -0.020261 -0.020150 -0.022732 0.070286
# 3 -0.025671 -0.020261 0.019538 0.006598 -0.001722 -0.030582
# 4 -0.011569 -0.020150 0.006598 0.038721 0.016643 -0.027767
# 5 -0.011623 -0.022732 -0.001722 0.016643 0.049787 -0.036323
# 6 0.083092 0.070286 -0.030582 -0.027767 -0.036323 0.154112
#
#
# Mechanical properties :
#
#
# Convention : Reuss Voigt Hill
#
# Bulk Modulus (GPa) = 7.52698 49.27628 28.40163
# Shear Modulus (GPa) = 11.50342 33.55410 22.52876
#
# Velocity S-wave (km/s) = 2.20281 3.76215 3.08271
# Velocity P-wave (km/s) = 3.10562 6.29742 4.96499
#
# Compressibility (1/GPa) = 0.13285546
#
# Stress axis : x y z
#
# Youngs Moduli (GPa) = 14.13920 19.98479 51.18138
#
# Poissons Ratio (x) = -0.84353 1.31386
# Poissons Ratio (y) = -0.59679 1.03697
# Poissons Ratio (z) = 0.36296 0.40491
#
# Static dielectric constant tensor:
#      x y z
#    x 1.930850 0.028540 -0.024740 
#    y 0.028540 1.981070 -0.012190 
#    z -0.024740 -0.012190 1.882820 
# 
# From -- ./inp_files/410047.got.cif
#   From: 2010.05.17/outbox.cif.g08.bks.cpg/sg2_206_cif.got.tgz:410047.got - 2010.06.03 11:33:40.
