data_PCOD9046975
_publ_section_title
;
Structure prediction by ZEFSAII (Michael W. Deem and Ramdas Pophale) SiO2 
 PCOD9046975
Probable space group: P -1
;
_chemical_formula_sum "Si O2"
_cell_formula_units_Z 14
_cell_length_a 9.612551
_cell_length_b 9.640970
_cell_length_c 8.440807
_cell_angle_alpha 47.259615
_cell_angle_beta 102.150026
_cell_angle_gamma 95.702454
_cell_volume 560.610020
_symmetry_space_group_name_H-M "P -1"
_symmetry_group_IT_number 2
_symmetry_cell_setting 'triclinic'
loop_
_space_group_symop_operation_xyz
x,y,z
-x,-y,-z
loop_
_atom_site_type_symbol
_atom_site_label
_atom_site_fract_x
_atom_site_fract_y
_atom_site_fract_z
Si Si1 0.919626 0.895753 0.419475
Si Si2 0.039020 0.721199 0.303722
Si Si3 0.426047 0.587301 0.254895
Si Si4 0.370949 0.205132 0.453275
Si Si5 0.333165 0.886224 0.221370
Si Si6 0.344085 0.290380 0.020518
Si Si7 0.959585 0.522175 0.154424
O O1 0.754459 0.912581 0.416017
O O2 0.945503 0.891336 0.237887
O O3 0.988537 0.683052 0.614658
O O4 0.000000 0.000000 0.500000
O O5 0.201127 0.771334 0.340577
O O6 0.000000 0.500000 0.500000
O O7 0.024005 0.697109 0.127521
O O8 0.500000 0.500000 0.500000
O O9 0.322689 0.424952 0.311779
O O10 0.365726 0.793739 0.129914
O O11 0.533020 0.608328 0.119501
O O12 0.522705 0.154679 0.609157
O O13 0.383268 0.203634 0.268673
O O14 0.304896 0.110508 0.045917
O O15 0.208736 0.434194 0.898841
O O16 0.000000 0.500000 0.000000
#
# Coordination Sequence:
#
# PCOD9046975 Si02
#       7
#     2   2   2   2   2   2   2
#     4  11  24  47  74 106 141 193 246 297 366 443
#     4  10  24  44  74 101 144 199 238 297 365 435
#     4  10  24  43  70 100 140 188 238 300 368 437
#     4  11  24  46  72 104 147 192 238 300 369 439
#     4  11  25  46  73 106 146 191 249 298 363 440
#     4  12  25  45  70 110 143 190 245 307 367 435
#     4  11  25  46  71 102 149 189 245 300 371 433
#
# _framework density 24.972792999999999
#
# number of rings (size 3 to 8) (size 9 to 14) (size 15 to 20)
#    0.000    1.143    1.429    3.857   12.000    0.571 
#    2.571    0.000    0.000    0.000    0.000    0.000 
#    0.000    0.000    0.000    0.000    0.000    0.000 
#
# Total GULP energy -78155.167451 kJ/mol
# GULP energy per Si atom -5582.511961 kJ/mol
# Density = 2.491595 g / cm^3
# Si number density = 24.972793 Si / 1000 Ang^3
#
#
#
# Elastic Constant Matrix: (Units=GPa)
#
#
# Indices 1 2 3 4 5 6 
#
# 1 163.0655 24.1381 21.1850 19.0070 -17.4675 18.7071
# 2 24.1381 174.5265 15.7595 18.8258 -15.3254 -3.6814
# 3 21.1850 15.7595 38.9537 2.5181 -0.6294 -4.1673
# 4 19.0070 18.8258 2.5181 42.1344 -3.1947 -2.3718
# 5 -17.4675 -15.3254 -0.6294 -3.1947 25.4885 7.3452
# 6 18.7071 -3.6814 -4.1673 -2.3718 7.3452 49.3674
#
#
#
# Elastic Compliance Matrix: (Units=1/GPa)
#
#
# Indices 1 2 3 4 5 6 
#
# 1 0.008374 0.000113 -0.004783 -0.003305 0.006633 -0.004714
# 2 0.000113 0.006539 -0.002529 -0.002562 0.003756 -0.000451
# 3 -0.004783 -0.002529 0.029654 0.001392 -0.005329 0.004987
# 4 -0.003305 -0.002562 0.001392 0.026341 -0.001226 0.002627
# 5 0.006633 0.003756 -0.005329 -0.001226 0.048627 -0.009977
# 6 -0.004714 -0.000451 0.004987 0.002627 -0.009977 0.024041
#
#
# Mechanical properties :
#
#
# Convention : Reuss Voigt Hill
#
# Bulk Modulus (GPa) = 33.14764 55.41231 44.27998
# Shear Modulus (GPa) = 29.75675 44.42893 37.09284
#
# Velocity S-wave (km/s) = 3.45565 4.22251 3.85818
# Velocity P-wave (km/s) = 5.40596 6.78307 6.13328
#
# Compressibility (1/GPa) = 0.03016806
#
# Stress axis : x y z
#
# Youngs Moduli (GPa) = 119.42191 152.92464 33.72282
#
# Poissons Ratio (x) = -0.01732 0.16131
# Poissons Ratio (y) = -0.01353 0.08529
# Poissons Ratio (z) = 0.57124 0.38675
#
# Static dielectric constant tensor:
#      x y z
#    x 1.869400 0.138590 0.262410 
#    y 0.138590 1.784630 -0.352610 
#    z 0.262410 -0.352610 1.403440 
# 
# From -- ./inp_files/156962.got.cif
#   From: 2010.05.17/outbox.cif.g08.bks.cpg/sg2_79_cif.got.tgz:156962.got - 2010.06.03 11:33:40.
