data_PCOD9046763
_publ_section_title
;
Structure prediction by ZEFSAII (Michael W. Deem and Ramdas Pophale) SiO2 
 PCOD9046763
Probable space group: P -1
;
_chemical_formula_sum "Si O2"
_cell_formula_units_Z 14
_cell_length_a 7.972979
_cell_length_b 8.572154
_cell_length_c 15.532416
_cell_angle_alpha 133.558437
_cell_angle_beta 54.736312
_cell_angle_gamma 128.768165
_cell_volume 579.478065
_symmetry_space_group_name_H-M "P -1"
_symmetry_group_IT_number 2
_symmetry_cell_setting 'triclinic'
loop_
_space_group_symop_operation_xyz
x,y,z
-x,-y,-z
loop_
_atom_site_type_symbol
_atom_site_label
_atom_site_fract_x
_atom_site_fract_y
_atom_site_fract_z
Si Si1 0.239357 0.751916 0.465042
Si Si2 0.026990 0.497388 0.856803
Si Si3 0.150596 0.499311 0.632357
Si Si4 0.172996 0.121674 0.752783
Si Si5 0.152793 0.003323 0.039854
Si Si6 0.557070 0.796759 0.527610
Si Si7 0.428244 0.541717 0.943232
O O1 0.418672 0.679049 0.435860
O O2 0.017534 0.559960 0.420289
O O3 0.194982 0.921429 0.612413
O O4 0.335552 0.932835 0.425933
O O5 0.810126 0.448911 0.960990
O O6 0.015909 0.509367 0.761255
O O7 0.101123 0.288440 0.776363
O O8 0.189186 0.760421 0.932970
O O9 0.370873 0.727502 0.631502
O O10 0.258494 0.305039 0.540447
O O11 0.383153 0.314550 0.812270
O O12 0.993269 0.007336 0.837035
O O13 0.380918 0.225130 0.058068
O O14 0.000000 0.000000 0.000000
O O15 0.500000 0.500000 0.000000
#
# Coordination Sequence:
#
# PCOD9046763 Si02
#       7
#     2   2   2   2   2   2   2
#     4  11  24  45  69 101 141 181 220 285 339 402
#     4  11  25  43  67  98 140 173 223 285 327 411
#     4  11  24  46  68 103 140 180 228 278 341 401
#     4  11  25  43  66 101 138 171 228 276 337 410
#     4  11  23  45  68 101 130 174 228 279 339 405
#     4  10  24  43  67  99 137 180 234 272 332 410
#     4  11  23  43  69  98 130 173 222 280 340 393
#
# _framework density 24.159675
#
# number of rings (size 3 to 8) (size 9 to 14) (size 15 to 20)
#    0.000    1.143    4.286    2.571    2.000    6.857 
#    2.571    0.000    0.000    0.000    0.000    0.000 
#    0.000    0.000    0.000    0.000    0.000    0.000 
#
# Total GULP energy -78328.467817 kJ/mol
# GULP energy per Si atom -5594.890558 kJ/mol
# Density = 2.410469 g / cm^3
# Si number density = 24.159675 Si / 1000 Ang^3
#
#
#
# Elastic Constant Matrix: (Units=GPa)
#
#
# Indices 1 2 3 4 5 6 
#
# 1 90.0241 19.7293 24.1230 9.7651 7.5067 -2.3498
# 2 19.7293 172.2388 45.9128 -8.4109 2.3085 23.7522
# 3 24.1230 45.9128 137.4887 -4.7281 8.3124 8.9402
# 4 9.7651 -8.4109 -4.7281 31.9025 -5.3191 5.9112
# 5 7.5067 2.3085 8.3124 -5.3191 33.4200 2.5253
# 6 -2.3498 23.7522 8.9402 5.9112 2.5253 47.9014
#
#
#
# Elastic Compliance Matrix: (Units=1/GPa)
#
#
# Indices 1 2 3 4 5 6 
#
# 1 0.012941 -0.001574 -0.001907 -0.005724 -0.003436 0.002659
# 2 -0.001574 0.007109 -0.001821 0.002946 0.001063 -0.003682
# 3 -0.001907 -0.001821 0.008392 0.001294 -0.001263 -0.000850
# 4 -0.005724 0.002946 0.001294 0.036520 0.007092 -0.006863
# 5 -0.003436 0.001063 -0.001263 0.007092 0.032293 -0.003037
# 6 0.002659 -0.003682 -0.000850 -0.006863 -0.003037 0.023998
#
#
# Mechanical properties :
#
#
# Convention : Reuss Voigt Hill
#
# Bulk Modulus (GPa) = 56.06182 64.36463 60.21323
# Shear Modulus (GPa) = 36.28349 43.31054 39.79702
#
# Velocity S-wave (km/s) = 3.87954 4.23860 4.06304
# Velocity P-wave (km/s) = 6.58201 7.11712 6.85479
#
# Compressibility (1/GPa) = 0.01783745
#
# Stress axis : x y z
#
# Youngs Moduli (GPa) = 77.27442 140.66590 119.15777
#
# Poissons Ratio (x) = 0.22143 0.22722
# Poissons Ratio (y) = 0.12164 0.21703
# Poissons Ratio (z) = 0.14735 0.25620
#
# Static dielectric constant tensor:
#      x y z
#    x 1.996610 -0.026930 -0.024240 
#    y -0.026930 1.890170 -0.025180 
#    z -0.024240 -0.025180 1.904000 
# 
# From -- ./inp_files/203859.got.cif
#   From: 2010.05.17/outbox.cif.g08.bks.cpg/sg2_102_cif.got.tgz:203859.got - 2010.06.03 11:33:40.
