data_PCOD9046404
_publ_section_title
;
Structure prediction by ZEFSAII (Michael W. Deem and Ramdas Pophale) SiO2 
 PCOD9046404
Probable space group: P -1
;
_chemical_formula_sum "Si O2"
_cell_formula_units_Z 14
_cell_length_a 6.570257
_cell_length_b 14.689514
_cell_length_c 15.046422
_cell_angle_alpha 27.727078
_cell_angle_beta 80.409436
_cell_angle_gamma 95.008396
_cell_volume 572.350715
_symmetry_space_group_name_H-M "P -1"
_symmetry_group_IT_number 2
_symmetry_cell_setting 'triclinic'
loop_
_space_group_symop_operation_xyz
x,y,z
-x,-y,-z
loop_
_atom_site_type_symbol
_atom_site_label
_atom_site_fract_x
_atom_site_fract_y
_atom_site_fract_z
Si Si1 0.245497 0.182267 0.896936
Si Si2 0.175564 0.578311 0.503508
Si Si3 0.878009 0.884060 0.701684
Si Si4 0.289980 0.530218 0.289765
Si Si5 0.000000 0.500000 0.000000
Si Si6 0.500000 0.000000 0.000000
Si Si7 0.852287 0.959426 0.269963
Si Si8 0.625968 0.248977 0.086288
O O1 0.265083 0.402965 0.663564
O O2 0.529287 0.259884 0.839018
O O3 0.227612 0.984070 0.009119
O O4 0.071567 0.095323 0.068337
O O5 0.000000 0.500000 0.500000
O O6 0.987184 0.539852 0.628387
O O7 0.374343 0.831975 0.245727
O O8 0.036320 0.020600 0.657230
O O9 0.862543 0.642209 0.912049
O O10 0.623319 0.866659 0.743410
O O11 0.000000 0.000000 0.500000
O O12 0.391588 0.608601 0.116810
O O13 0.290715 0.306554 0.512782
O O14 0.162376 0.597994 0.993999
O O15 0.687001 0.068874 0.195201
#
# Coordination Sequence:
#
# PCOD9046404 Si02
#       8
#     2   2   2   2   1   1   2   2
#     4  12  26  47  70 108 140 189 244 291 359 429
#     4  12  27  46  70 103 140 184 236 296 363 426
#     4  11  24  44  69 105 142 184 237 290 358 421
#     4  12  25  44  72 100 141 188 234 298 353 421
#     4  10  24  42  72 102 138 184 230 296 344 428
#     4  12  26  46  74 104 144 184 236 298 356 426
#     4  11  25  44  70 104 141 187 240 290 355 424
#     4  11  24  46  70 104 144 187 238 294 354 428
#
# _framework density 24.460526999999999
#
# number of rings (size 3 to 8) (size 9 to 14) (size 15 to 20)
#    0.000    0.571    5.714    1.714    0.000    7.429 
#    0.000    0.000    0.000    0.000    0.000    0.000 
#    0.000    0.000    0.000    0.000    0.000    0.000 
#
# Total GULP energy -77983.321279 kJ/mol
# GULP energy per Si atom -5570.237234 kJ/mol
# Density = 2.440485 g / cm^3
# Si number density = 24.460527 Si / 1000 Ang^3
#
#
#
# Elastic Constant Matrix: (Units=GPa)
#
#
# Indices 1 2 3 4 5 6 
#
# 1 104.2938 50.7924 60.7151 6.5932 10.4837 -28.6654
# 2 50.7924 111.7467 46.2729 -0.4140 -9.2880 -11.3186
# 3 60.7151 46.2729 159.4322 4.0174 -0.0512 -17.2742
# 4 6.5932 -0.4140 4.0174 60.5514 -19.2070 0.4520
# 5 10.4837 -9.2880 -0.0512 -19.2070 35.6489 1.1542
# 6 -28.6654 -11.3186 -17.2742 0.4520 1.1542 64.9569
#
#
#
# Elastic Compliance Matrix: (Units=1/GPa)
#
#
# Indices 1 2 3 4 5 6 
#
# 1 0.018366 -0.006843 -0.004235 -0.005009 -0.010083 0.006000
# 2 -0.006843 0.013131 -0.001421 0.003226 0.007210 -0.001260
# 3 -0.004235 -0.001421 0.008300 0.000218 0.001002 0.000072
# 4 -0.005009 0.003226 0.000218 0.021514 0.013969 -0.001988
# 5 -0.010083 0.007210 0.001002 0.013969 0.040544 -0.003744
# 6 0.006000 -0.001260 0.000072 -0.001988 -0.003744 0.017922
#
#
# Mechanical properties :
#
#
# Convention : Reuss Voigt Hill
#
# Bulk Modulus (GPa) = 67.56963 76.78149 72.17556
# Shear Modulus (GPa) = 33.39859 46.74426 40.07142
#
# Velocity S-wave (km/s) = 3.69915 4.37625 4.05187
# Velocity P-wave (km/s) = 6.77708 7.54941 7.17365
#
# Compressibility (1/GPa) = 0.01479955
#
# Stress axis : x y z
#
# Youngs Moduli (GPa) = 54.44973 76.15541 120.48391
#
# Poissons Ratio (x) = 0.52113 0.51023
# Poissons Ratio (y) = 0.37260 0.17116
# Poissons Ratio (z) = 0.23059 0.10819
#
# Static dielectric constant tensor:
#      x y z
#    x 2.129010 -0.065110 -0.010270 
#    y -0.065110 2.114400 -0.106740 
#    z -0.010270 -0.106740 2.010800 
# 
# From -- ./inp_files/11476.got.cif
#   From: 2010.05.17/outbox.cif.g08.bks.cpg/sg2_6_cif.got.tgz:11476.got - 2010.06.03 11:33:40.
