data_PCOD9046886
_publ_section_title
;
Structure prediction by ZEFSAII (Michael W. Deem and Ramdas Pophale) SiO2 
 PCOD9046886
Probable space group: P -1
;
_chemical_formula_sum "Si O2"
_cell_formula_units_Z 15
_cell_length_a 6.652647
_cell_length_b 12.028401
_cell_length_c 13.006822
_cell_angle_alpha 99.426223
_cell_angle_beta 136.501384
_cell_angle_gamma 68.329830
_cell_volume 656.925487
_symmetry_space_group_name_H-M "P -1"
_symmetry_group_IT_number 2
_symmetry_cell_setting 'triclinic'
loop_
_space_group_symop_operation_xyz
x,y,z
-x,-y,-z
loop_
_atom_site_type_symbol
_atom_site_label
_atom_site_fract_x
_atom_site_fract_y
_atom_site_fract_z
Si Si1 0.858184 0.195637 0.666357
Si Si2 0.500000 0.000000 0.000000
Si Si3 0.732484 0.992817 0.680524
Si Si4 0.468822 0.865698 0.164843
Si Si5 0.300129 0.561624 0.834924
Si Si6 0.627967 0.736931 0.903582
Si Si7 0.685926 0.758435 0.692106
Si Si8 0.680107 0.338232 0.827093
O O1 0.970849 0.057735 0.738317
O O2 0.612839 0.208438 0.487938
O O3 0.687358 0.286587 0.707561
O O4 0.166536 0.207848 0.738014
O O5 0.350355 0.966034 0.048349
O O6 0.416142 0.142458 0.030353
O O7 0.552686 0.071777 0.722368
O O8 0.500000 0.000000 0.500000
O O9 0.844919 0.856317 0.739600
O O10 0.307330 0.768580 0.105307
O O11 0.418106 0.664707 0.853205
O O12 0.388547 0.456878 0.766170
O O13 0.937927 0.626269 0.740563
O O14 0.500000 0.500000 0.000000
O O15 0.573433 0.769856 0.768730
O O16 0.989861 0.646659 0.035570
#
# Coordination Sequence:
#
# PCOD9046886 Si02
#       8
#     2   1   2   2   2   2   2   2
#     4  10  24  43  69 101 141 177 220 278 345 402
#     4  12  24  40  70 108 130 176 224 280 352 398
#     4   9  21  40  63  97 141 175 216 269 338 409
#     4  11  23  40  69 100 137 175 221 280 338 406
#     4  12  27  45  71  95 133 181 233 277 331 396
#     4  12  26  43  71 101 134 172 227 284 338 401
#     4  11  25  42  67 103 135 178 224 280 337 401
#     4  11  25  45  68  96 136 182 228 276 331 400
#
# _framework density 22.833642000000001
#
# number of rings (size 3 to 8) (size 9 to 14) (size 15 to 20)
#    0.000    1.067    4.000    1.200    1.867    6.400 
#    0.000    1.333    0.000    0.000    0.000    0.000 
#    0.000    0.000    0.000    0.000    0.000    0.000 
#
# Total GULP energy -83751.978093 kJ/mol
# GULP energy per Si atom -5583.465206 kJ/mol
# Density = 2.278167 g / cm^3
# Si number density = 22.833642 Si / 1000 Ang^3
#
#
#
# Elastic Constant Matrix: (Units=GPa)
#
#
# Indices 1 2 3 4 5 6 
#
# 1 108.7079 32.3391 25.7953 1.1915 -21.6189 -4.4950
# 2 32.3391 101.0111 14.2304 -1.1086 -13.5120 -16.1607
# 3 25.7953 14.2304 76.0750 -1.8995 -27.1368 -0.5467
# 4 1.1915 -1.1086 -1.8995 26.5366 -2.7396 0.5888
# 5 -21.6189 -13.5120 -27.1368 -2.7396 35.7957 0.5524
# 6 -4.4950 -16.1607 -0.5467 0.5888 0.5524 47.0509
#
#
#
# Elastic Compliance Matrix: (Units=1/GPa)
#
#
# Indices 1 2 3 4 5 6 
#
# 1 0.011330 -0.002781 -0.001741 -0.000291 0.004450 0.000058
# 2 -0.002781 0.011779 -0.000311 0.000773 0.002533 0.003737
# 3 -0.001741 -0.000311 0.018531 0.002749 0.013094 -0.000246
# 4 -0.000291 0.000773 0.002749 0.038463 0.005148 -0.000272
# 5 0.004450 0.002533 0.013094 0.005148 0.041886 0.000891
# 6 0.000058 0.003737 -0.000246 -0.000272 0.000891 0.022533
#
#
# Mechanical properties :
#
#
# Convention : Reuss Voigt Hill
#
# Bulk Modulus (GPa) = 31.27462 47.83596 39.55529
# Shear Modulus (GPa) = 30.33131 36.10526 33.21828
#
# Velocity S-wave (km/s) = 3.64862 3.98078 3.81832
# Velocity P-wave (km/s) = 5.61038 6.49031 6.06632
#
# Compressibility (1/GPa) = 0.03197481
#
# Stress axis : x y z
#
# Youngs Moduli (GPa) = 88.26216 84.89599 53.96373
#
# Poissons Ratio (x) = 0.23606 0.09395
# Poissons Ratio (y) = 0.24542 0.01678
# Poissons Ratio (z) = 0.15367 0.02639
#
# Static dielectric constant tensor:
#      x y z
#    x 1.837470 -0.004010 -0.015160 
#    y -0.004010 1.854490 -0.015930 
#    z -0.015160 -0.015930 1.790520 
# 
# From -- ./inp_files/118300.got.cif
#   From: 2010.05.17/outbox.cif.g08.bks.cpg/sg2_60_cif.got.tgz:118300.got - 2010.06.03 11:33:40.
