data_PCOD9046189
_publ_section_title
;
Structure prediction by ZEFSAII (Michael W. Deem and Ramdas Pophale) SiO2 
 PCOD9046189
Probable space group: P -1
;
_chemical_formula_sum "Si O2"
_cell_formula_units_Z 12
_cell_length_a 10.190259
_cell_length_b 9.034314
_cell_length_c 19.174341
_cell_angle_alpha 43.358423
_cell_angle_beta 153.950133
_cell_angle_gamma 128.573601
_cell_volume 529.638207
_symmetry_space_group_name_H-M "P -1"
_symmetry_group_IT_number 2
_symmetry_cell_setting 'triclinic'
loop_
_space_group_symop_operation_xyz
x,y,z
-x,-y,-z
loop_
_atom_site_type_symbol
_atom_site_label
_atom_site_fract_x
_atom_site_fract_y
_atom_site_fract_z
Si Si1 0.529543 0.243953 0.952912
Si Si2 0.967392 0.420490 0.432239
Si Si3 0.898483 0.647896 0.747104
Si Si4 0.106146 0.721433 0.019901
Si Si5 0.462383 0.960511 0.624285
Si Si6 0.409768 0.738057 0.289861
O O1 0.219693 0.388422 0.765656
O O2 0.660914 0.318383 0.916824
O O3 0.765677 0.277692 0.115947
O O4 0.500000 0.000000 0.000000
O O5 0.000000 0.500000 0.500000
O O6 0.285668 0.365232 0.566265
O O7 0.773147 0.214371 0.413498
O O8 0.675021 0.863269 0.557765
O O9 0.782804 0.457651 0.708380
O O10 0.896114 0.509715 0.864235
O O11 0.226269 0.854683 0.097159
O O12 0.787967 0.839319 0.804918
O O13 0.509343 0.099775 0.668141
#
# Coordination Sequence:
#
# PCOD9046189 Si02
#       6
#     2   2   2   2   2   2
#     4  12  25  44  65 102 135 174 225 281 329 392
#     4  12  23  43  68  99 134 176 221 275 328 392
#     4  10  24  42  68  97 132 176 224 268 329 399
#     4  10  24  43  69  94 135 169 230 266 334 387
#     4  12  24  44  70  98 137 178 216 275 337 394
#     4  10  24  44  67 100 137 171 224 273 331 397
#
# _framework density 22.656973000000001
#
# number of rings (size 3 to 8) (size 9 to 14) (size 15 to 20)
#    1.000    0.000    3.333    3.000    4.667    0.667 
#    0.000    0.833    0.000    0.000    0.000    0.000 
#    0.000    0.000    0.000    0.000    0.000    0.000 
#
# Total GULP energy -66930.314708 kJ/mol
# GULP energy per Si atom -5577.526226 kJ/mol
# Density = 2.260540 g / cm^3
# Si number density = 22.656973 Si / 1000 Ang^3
#
#
#
# Elastic Constant Matrix: (Units=GPa)
#
#
# Indices 1 2 3 4 5 6 
#
# 1 21.7706 0.7474 5.6587 3.2619 4.1554 -21.4371
# 2 0.7474 147.8233 42.0236 29.3795 -7.0431 -12.2726
# 3 5.6587 42.0236 159.8070 -6.0271 4.6065 -6.1121
# 4 3.2619 29.3795 -6.0271 50.3241 2.4729 -7.9567
# 5 4.1554 -7.0431 4.6065 2.4729 24.5576 -2.8085
# 6 -21.4371 -12.2726 -6.1121 -7.9567 -2.8085 34.6662
#
#
#
# Elastic Compliance Matrix: (Units=1/GPa)
#
#
# Indices 1 2 3 4 5 6 
#
# 1 0.125946 0.006000 -0.002688 0.000992 -0.010158 0.078938
# 2 0.006000 0.009189 -0.002715 -0.005368 0.003301 0.005520
# 3 -0.002688 -0.002715 0.007187 0.002573 -0.002038 -0.000931
# 4 0.000992 -0.005368 0.002573 0.024143 -0.004121 0.004374
# 5 -0.010158 0.003301 -0.002038 -0.004121 0.043856 -0.002865
# 6 0.078938 0.005520 -0.000931 0.004374 -0.002865 0.080223
#
#
# Mechanical properties :
#
#
# Convention : Reuss Voigt Hill
#
# Bulk Modulus (GPa) = 6.96794 47.36227 27.16511
# Shear Modulus (GPa) = 14.82851 40.64098 27.73475
#
# Velocity S-wave (km/s) = 2.56105 4.23987 3.50253
# Velocity P-wave (km/s) = 3.43910 6.70209 5.32661
#
# Compressibility (1/GPa) = 0.14351435
#
# Stress axis : x y z
#
# Youngs Moduli (GPa) = 7.93993 108.82740 139.14130
#
# Poissons Ratio (x) = -0.65295 0.37402
# Poissons Ratio (y) = -0.04764 0.37781
# Poissons Ratio (z) = 0.02134 0.29550
#
# Static dielectric constant tensor:
#      x y z
#    x 1.811610 -0.030910 -0.054890 
#    y -0.030910 1.672490 0.065690 
#    z -0.054890 0.065690 1.910830 
# 
# From -- ./inp_files/144791.got.cif
#   From: 2010.05.17/outbox.cif.g08.bks.cpg/sg2_73_cif.got.tgz:144791.got - 2010.06.03 11:33:40.
