data_PCOD9046728
_publ_section_title
;
Structure prediction by ZEFSAII (Michael W. Deem and Ramdas Pophale) SiO2 
 PCOD9046728
Probable space group: P -1
;
_chemical_formula_sum "Si O2"
_cell_formula_units_Z 16
_cell_length_a 16.824573
_cell_length_b 22.666533
_cell_length_c 5.580241
_cell_angle_alpha 117.200701
_cell_angle_beta 62.322924
_cell_angle_gamma 158.107889
_cell_volume 700.475288
_symmetry_space_group_name_H-M "P -1"
_symmetry_group_IT_number 2
_symmetry_cell_setting 'triclinic'
loop_
_space_group_symop_operation_xyz
x,y,z
-x,-y,-z
loop_
_atom_site_type_symbol
_atom_site_label
_atom_site_fract_x
_atom_site_fract_y
_atom_site_fract_z
Si Si1 0.406948 0.883704 0.220068
Si Si2 0.811051 0.029411 0.250605
Si Si3 0.081226 0.645475 0.840211
Si Si4 0.672788 0.295791 0.678011
Si Si5 0.061895 0.077055 0.803941
Si Si6 0.834714 0.692339 0.385578
Si Si7 0.143265 0.819245 0.873648
Si Si8 0.540915 0.586445 0.287485
O O1 0.353964 0.779383 0.227536
O O2 0.500000 0.000000 0.500000
O O3 0.626516 0.019199 0.011204
O O4 0.202496 0.759723 0.108051
O O5 0.819108 0.108679 0.273739
O O6 0.962349 0.135726 0.463131
O O7 0.568998 0.844960 0.300416
O O8 0.930403 0.058049 0.962448
O O9 0.210902 0.665288 0.630169
O O10 0.100740 0.712323 0.723473
O O11 0.834255 0.459165 0.856118
O O12 0.316905 0.263482 0.768528
O O13 0.000000 0.000000 0.500000
O O14 0.000000 0.000000 0.000000
O O15 0.692888 0.655535 0.403886
O O16 0.685905 0.552913 0.525247
O O17 0.935528 0.709664 0.088706
O O18 0.500000 0.500000 0.000000
#
# Coordination Sequence:
#
# PCOD9046728 Si02
#       8
#     2   2   2   2   2   2   2   2
#     4  11  22  39  66  97 136 188 238 285 353 428
#     4  11  24  45  66 105 134 189 234 294 364 436
#     4  11  23  42  64 103 134 187 230 296 360 417
#     4  10  24  43  67  93 146 179 231 298 358 427
#     4  12  27  48  76 105 149 187 238 302 378 448
#     4  11  22  40  74  98 143 176 248 299 352 431
#     4  11  23  37  71  99 138 180 248 286 352 432
#     4  11  23  45  72 101 132 188 236 296 360 432
#
# _framework density 22.841633999999999
#
# number of rings (size 3 to 8) (size 9 to 14) (size 15 to 20)
#    0.000    1.000    3.750    2.250    5.250    1.000 
#    2.250    0.000    0.000    0.000    0.000    0.000 
#    0.000    0.000    0.000    0.000    0.000    0.000 
#
# Total GULP energy -89304.088993 kJ/mol
# GULP energy per Si atom -5581.505562 kJ/mol
# Density = 2.278965 g / cm^3
# Si number density = 22.841634 Si / 1000 Ang^3
#
#
#
# Elastic Constant Matrix: (Units=GPa)
#
#
# Indices 1 2 3 4 5 6 
#
# 1 62.0320 32.2437 9.8502 16.0158 8.1512 -4.0191
# 2 32.2437 179.3999 11.8326 -5.8494 22.8454 -7.8065
# 3 9.8502 11.8326 48.4414 3.5205 12.5553 -1.1044
# 4 16.0158 -5.8494 3.5205 42.6426 6.3154 -2.0924
# 5 8.1512 22.8454 12.5553 6.3154 31.4221 -5.0341
# 6 -4.0191 -7.8065 -1.1044 -2.0924 -5.0341 44.0939
#
#
#
# Elastic Compliance Matrix: (Units=1/GPa)
#
#
# Indices 1 2 3 4 5 6 
#
# 1 0.020614 -0.003782 -0.002726 -0.008032 0.000232 0.000786
# 2 -0.003782 0.006964 0.000059 0.003084 -0.004644 0.000506
# 3 -0.002726 0.000059 0.023443 0.000381 -0.008883 -0.000647
# 4 -0.008032 0.003084 0.000381 0.027743 -0.005810 0.000477
# 5 0.000232 -0.004644 -0.008883 -0.005810 0.040389 0.003312
# 6 0.000786 0.000506 -0.000647 0.000477 0.003312 0.023225
#
#
# Mechanical properties :
#
#
# Convention : Reuss Voigt Hill
#
# Bulk Modulus (GPa) = 26.23133 44.19183 35.21158
# Shear Modulus (GPa) = 29.76481 39.36152 34.56316
#
# Velocity S-wave (km/s) = 3.61376 4.15569 3.89416
# Velocity P-wave (km/s) = 5.37785 6.51271 5.97230
#
# Compressibility (1/GPa) = 0.03812235
#
# Stress axis : x y z
#
# Youngs Moduli (GPa) = 48.51124 143.59527 42.65601
#
# Poissons Ratio (x) = 0.54313 0.11629
# Poissons Ratio (y) = 0.18349 -0.00253
# Poissons Ratio (z) = 0.13226 -0.00850
#
# Static dielectric constant tensor:
#      x y z
#    x 1.908370 0.029480 -0.021970 
#    y 0.029480 1.883030 -0.057990 
#    z -0.021970 -0.057990 1.963410 
# 
# From -- ./inp_files/112973.got.cif
#   From: 2010.05.17/outbox.cif.g08.bks.cpg/sg2_57_cif.got.tgz:112973.got - 2010.06.03 11:33:40.
