data_PCOD9046384
_publ_section_title
;
Structure prediction by ZEFSAII (Michael W. Deem and Ramdas Pophale) SiO2 
 PCOD9046384
Probable space group: P -1
;
_chemical_formula_sum "Si O2"
_cell_formula_units_Z 10
_cell_length_a 10.313390
_cell_length_b 8.345770
_cell_length_c 10.544014
_cell_angle_alpha 100.245423
_cell_angle_beta 25.059055
_cell_angle_gamma 92.076678
_cell_volume 360.888901
_symmetry_space_group_name_H-M "P -1"
_symmetry_group_IT_number 2
_symmetry_cell_setting 'triclinic'
loop_
_space_group_symop_operation_xyz
x,y,z
-x,-y,-z
loop_
_atom_site_type_symbol
_atom_site_label
_atom_site_fract_x
_atom_site_fract_y
_atom_site_fract_z
Si Si1 0.570752 0.738997 0.203688
Si Si2 0.039817 0.786265 0.291993
Si Si3 0.375356 0.893429 0.793855
Si Si4 0.786897 0.354264 0.285567
Si Si5 0.287676 0.325686 0.221857
O O1 0.277576 0.694310 0.520439
O O2 0.573973 0.928820 0.262382
O O3 0.595175 0.727877 0.030407
O O4 0.873219 0.615132 0.993946
O O5 0.737734 0.765208 0.477196
O O6 0.859932 0.807787 0.591001
O O7 0.164142 0.915560 0.113443
O O8 0.392928 0.654873 0.987437
O O9 0.203850 0.808374 0.831910
O O10 0.500000 0.500000 0.500000
O O11 0.000000 0.500000 0.500000
#
# Coordination Sequence:
#
# PCOD9046384 Si02
#       5
#     2   2   2   2   2
#     4  12  26  45  71 100 137 180 225 276 341 396
#     4  10  24  42  71  98 139 174 224 270 342 391
#     4  11  24  45  72 101 137 175 224 280 334 407
#     4  12  27  44  71  99 138 176 229 280 338 398
#     4  11  25  42  68 100 142 176 221 277 335 404
#
# _framework density 27.709354999999999
#
# number of rings (size 3 to 8) (size 9 to 14) (size 15 to 20)
#    0.000    0.800    0.000    6.000    8.400    4.800 
#    0.000    0.000    0.000    0.000    0.000    0.000 
#    0.000    0.000    0.000    0.000    0.000    0.000 
#
# Total GULP energy -55936.288111 kJ/mol
# GULP energy per Si atom -5593.628811 kJ/mol
# Density = 2.764629 g / cm^3
# Si number density = 27.709355 Si / 1000 Ang^3
#
#
#
# Elastic Constant Matrix: (Units=GPa)
#
#
# Indices 1 2 3 4 5 6 
#
# 1 101.2568 15.9360 59.5918 5.1218 -19.8532 -3.4365
# 2 15.9360 68.0499 33.7027 -15.8708 24.2656 -15.3898
# 3 59.5918 33.7027 136.9048 -32.5983 -17.6269 -11.0922
# 4 5.1218 -15.8708 -32.5983 58.0279 -10.2424 9.5627
# 5 -19.8532 24.2656 -17.6269 -10.2424 76.7423 -11.2810
# 6 -3.4365 -15.3898 -11.0922 9.5627 -11.2810 36.3922
#
#
#
# Elastic Compliance Matrix: (Units=1/GPa)
#
#
# Indices 1 2 3 4 5 6 
#
# 1 0.015086 -0.002007 -0.007053 -0.005539 0.002264 0.000583
# 2 -0.002007 0.021581 -0.004708 0.001310 -0.007541 0.004820
# 3 -0.007053 -0.004708 0.013964 0.007757 0.004026 0.000809
# 4 -0.005539 0.001310 0.007757 0.023385 0.002624 -0.002936
# 5 0.002264 -0.007541 0.004026 0.002624 0.017725 0.003057
# 6 0.000583 0.004820 0.000809 -0.002936 0.003057 0.031538
#
#
# Mechanical properties :
#
#
# Convention : Reuss Voigt Hill
#
# Bulk Modulus (GPa) = 43.29683 58.29696 50.79689
# Shear Modulus (GPa) = 31.54311 47.36454 39.45382
#
# Velocity S-wave (km/s) = 3.37761 4.13889 3.77748
# Velocity P-wave (km/s) = 5.55610 6.62759 6.11536
#
# Compressibility (1/GPa) = 0.02309638
#
# Stress axis : x y z
#
# Youngs Moduli (GPa) = 66.28485 46.33637 71.61265
#
# Poissons Ratio (x) = 0.09300 0.50507
# Poissons Ratio (y) = 0.13304 0.33713
# Poissons Ratio (z) = 0.46750 0.21814
#
# Static dielectric constant tensor:
#      x y z
#    x 2.123960 -0.052680 0.003660 
#    y -0.052680 2.157560 0.089900 
#    z 0.003660 0.089900 2.127360 
# 
# From -- ./inp_files/838.got.cif
#   From: 2010.05.17/outbox.cif.g08.bks.cpg/sg2_1_cif.got.tgz:838.got - 2010.06.03 11:33:40.
