data_PCOD9046599
_publ_section_title
;
Structure prediction by ZEFSAII (Michael W. Deem and Ramdas Pophale) SiO2 
 PCOD9046599
Probable space group: P -1
;
_chemical_formula_sum "Si O2"
_cell_formula_units_Z 14
_cell_length_a 16.261138
_cell_length_b 16.030583
_cell_length_c 8.694378
_cell_angle_alpha 134.719020
_cell_angle_beta 133.749768
_cell_angle_gamma 23.445756
_cell_volume 632.232614
_symmetry_space_group_name_H-M "P -1"
_symmetry_group_IT_number 2
_symmetry_cell_setting 'triclinic'
loop_
_space_group_symop_operation_xyz
x,y,z
-x,-y,-z
loop_
_atom_site_type_symbol
_atom_site_label
_atom_site_fract_x
_atom_site_fract_y
_atom_site_fract_z
Si Si1 0.154340 0.658045 0.577865
Si Si2 0.849993 0.745214 0.131293
Si Si3 0.984545 0.037870 0.710808
Si Si4 0.242936 0.267770 0.517170
Si Si5 0.863296 0.906985 0.804182
Si Si6 0.404352 0.685947 0.225272
Si Si7 0.481193 0.991581 0.202141
O O1 0.398955 0.420550 0.579321
O O2 0.004084 0.712439 0.345484
O O3 0.069634 0.713346 0.713141
O O4 0.119616 0.821641 0.692479
O O5 0.661311 0.887440 0.192018
O O6 0.000000 0.500000 0.000000
O O7 0.712158 0.893859 0.995085
O O8 0.754608 0.222790 0.730887
O O9 0.000000 0.000000 0.500000
O O10 0.074016 0.084570 0.945350
O O11 0.241740 0.127318 0.353254
O O12 0.374998 0.206576 0.749126
O O13 0.000000 0.500000 0.500000
O O14 0.357515 0.192573 0.408223
O O15 0.720524 0.116825 0.789729
O O16 0.500000 0.500000 0.000000
#
# Coordination Sequence:
#
# PCOD9046599 Si02
#       7
#     2   2   2   2   2   2   2
#     4  11  23  43  70  95 134 180 225 272 335 412
#     4  11  24  42  66  99 136 178 223 284 337 402
#     4  11  25  44  65 102 140 166 224 287 336 398
#     4  11  24  44  67 100 136 178 225 285 340 399
#     4  11  23  43  71  96 135 175 225 280 332 413
#     4  11  21  44  72 100 128 183 229 268 342 414
#     4  10  24  43  65  95 135 176 229 276 338 402
#
# _framework density 22.143750000000001
#
# number of rings (size 3 to 8) (size 9 to 14) (size 15 to 20)
#    0.000    1.143    4.286    1.714    4.000    2.857 
#    0.000    0.000    0.000    0.000    0.000    0.000 
#    0.000    0.000    0.000    0.000    0.000    0.000 
#
# Total GULP energy -78162.321106 kJ/mol
# GULP energy per Si atom -5583.022936 kJ/mol
# Density = 2.209335 g / cm^3
# Si number density = 22.143750 Si / 1000 Ang^3
#
#
#
# Elastic Constant Matrix: (Units=GPa)
#
#
# Indices 1 2 3 4 5 6 
#
# 1 77.7777 32.1836 31.7028 2.8633 -9.7927 -18.9497
# 2 32.1836 157.1221 48.6641 -22.6813 -8.4937 -34.3077
# 3 31.7028 48.6641 126.4204 -33.4106 -10.3132 -5.4494
# 4 2.8633 -22.6813 -33.4106 46.2671 1.3121 4.0097
# 5 -9.7927 -8.4937 -10.3132 1.3121 40.9862 3.9413
# 6 -18.9497 -34.3077 -5.4494 4.0097 3.9413 24.1332
#
#
#
# Elastic Compliance Matrix: (Units=1/GPa)
#
#
# Indices 1 2 3 4 5 6 
#
# 1 0.019297 0.000305 -0.005912 -0.006673 0.001953 0.015040
# 2 0.000305 0.010656 -0.003099 0.001718 0.000062 0.014392
# 3 -0.005912 -0.003099 0.012656 0.008624 0.001612 -0.007886
# 4 -0.006673 0.001718 0.008624 0.029588 0.000548 -0.005855
# 5 0.001953 0.000062 0.001612 0.000548 0.025484 -0.002266
# 6 0.015040 0.014392 -0.007886 -0.005855 -0.002266 0.073269
#
#
# Mechanical properties :
#
#
# Convention : Reuss Voigt Hill
#
# Bulk Modulus (GPa) = 39.68792 65.15789 52.42290
# Shear Modulus (GPa) = 25.41149 38.86195 32.13672
#
# Velocity S-wave (km/s) = 3.39125 4.19380 3.81370
# Velocity P-wave (km/s) = 5.77026 7.27595 6.56640
#
# Compressibility (1/GPa) = 0.02519659
#
# Stress axis : x y z
#
# Youngs Moduli (GPa) = 51.82174 93.84668 79.01168
#
# Poissons Ratio (x) = -0.02862 0.46715
# Poissons Ratio (y) = -0.01580 0.24484
# Poissons Ratio (z) = 0.30639 0.29080
#
# Static dielectric constant tensor:
#      x y z
#    x 1.862560 0.009880 -0.027940 
#    y 0.009880 1.827710 -0.009170 
#    z -0.027940 -0.009170 1.895760 
# 
# From -- ./inp_files/47445.got.cif
#   From: 2010.05.17/outbox.cif.g08.bks.cpg/sg2_24_cif.got.tgz:47445.got - 2010.06.03 11:33:40.
