data_PCOD9046230
_publ_section_title
;
Structure prediction by ZEFSAII (Michael W. Deem and Ramdas Pophale) SiO2 
 PCOD9046230
Probable space group: P -1
;
_chemical_formula_sum "Si O2"
_cell_formula_units_Z 16
_cell_length_a 11.384311
_cell_length_b 5.378740
_cell_length_c 14.770342
_cell_angle_alpha 109.927063
_cell_angle_beta 120.299751
_cell_angle_gamma 98.064453
_cell_volume 677.644580
_symmetry_space_group_name_H-M "P -1"
_symmetry_group_IT_number 2
_symmetry_cell_setting 'triclinic'
loop_
_space_group_symop_operation_xyz
x,y,z
-x,-y,-z
loop_
_atom_site_type_symbol
_atom_site_label
_atom_site_fract_x
_atom_site_fract_y
_atom_site_fract_z
Si Si1 0.702112 0.258740 0.218908
Si Si2 0.130598 0.892665 0.900081
Si Si3 0.915883 0.995329 0.708557
Si Si4 0.533651 0.615794 0.127559
Si Si5 0.387239 0.378247 0.357935
Si Si6 0.917330 0.710861 0.485879
Si Si7 0.312855 0.883171 0.139818
Si Si8 0.831888 0.445889 0.790383
O O1 0.801722 0.261728 0.168698
O O2 0.570361 0.357631 0.152406
O O3 0.777867 0.511198 0.351083
O O4 0.657545 0.942929 0.206722
O O5 0.069464 0.080051 0.833238
O O6 0.977617 0.730940 0.876155
O O7 0.248810 0.982102 0.038359
O O8 0.773463 0.798782 0.684884
O O9 0.906678 0.814919 0.594466
O O10 0.878832 0.270165 0.709923
O O11 0.397635 0.679887 0.121659
O O12 0.500000 0.500000 0.000000
O O13 0.500000 0.500000 0.500000
O O14 0.335048 0.585636 0.301731
O O15 0.415930 0.158373 0.273128
O O16 0.000000 0.500000 0.500000
O O17 0.000000 0.000000 0.500000
O O18 0.182892 0.697591 0.134867
#
# Coordination Sequence:
#
# PCOD9046230 Si02
#       8
#     2   2   2   2   2   2   2   2
#     4  12  27  46  74 109 151 200 251 312 378 456
#     4  11  23  44  72 102 147 182 246 310 378 441
#     4  10  24  42  69 103 141 189 243 305 374 446
#     4  12  28  48  72 109 148 204 251 309 377 455
#     4  10  25  45  69 100 142 188 241 307 369 444
#     4  12  25  44  72 109 147 194 248 307 384 448
#     4  11  26  44  73 104 145 194 251 308 377 453
#     4  10  24  44  71 107 138 192 247 310 380 440
#
# _framework density 23.611197000000001
#
# number of rings (size 3 to 8) (size 9 to 14) (size 15 to 20)
#    0.000    1.000    2.500    2.250    7.000    8.500 
#    0.000    0.000    0.000    0.000    0.000    0.000 
#    0.000    0.000    0.000    0.000    0.000    0.000 
#
# Total GULP energy -89162.368445 kJ/mol
# GULP energy per Si atom -5572.648028 kJ/mol
# Density = 2.355746 g / cm^3
# Si number density = 23.611197 Si / 1000 Ang^3
#
#
#
# Elastic Constant Matrix: (Units=GPa)
#
#
# Indices 1 2 3 4 5 6 
#
# 1 104.8425 26.3578 30.5912 0.0332 -14.8578 -17.2981
# 2 26.3578 68.3750 14.6939 5.5831 -1.2273 -15.7545
# 3 30.5912 14.6939 108.8996 -15.5814 -6.4060 -13.3187
# 4 0.0332 5.5831 -15.5814 31.7469 -8.5142 1.2462
# 5 -14.8578 -1.2273 -6.4060 -8.5142 45.3542 4.8614
# 6 -17.2981 -15.7545 -13.3187 1.2462 4.8614 50.3763
#
#
#
# Elastic Compliance Matrix: (Units=1/GPa)
#
#
# Indices 1 2 3 4 5 6 
#
# 1 0.011939 -0.003584 -0.002393 0.000251 0.003307 0.002021
# 2 -0.003584 0.017674 -0.001671 -0.004696 -0.002262 0.004190
# 3 -0.002393 -0.001671 0.011238 0.006241 0.001790 0.001300
# 4 0.000251 -0.004696 0.006241 0.037603 0.008050 -0.001439
# 5 0.003307 -0.002262 0.001790 0.008050 0.025018 -0.001712
# 6 0.002021 0.004190 0.001300 -0.001439 -0.001712 0.022399
#
#
# Mechanical properties :
#
#
# Convention : Reuss Voigt Hill
#
# Bulk Modulus (GPa) = 39.12877 47.26697 43.19787
# Shear Modulus (GPa) = 33.40366 39.52710 36.46538
#
# Velocity S-wave (km/s) = 3.76538 4.09599 3.93416
# Velocity P-wave (km/s) = 5.95921 6.51398 6.24276
#
# Compressibility (1/GPa) = 0.02555664
#
# Stress axis : x y z
#
# Youngs Moduli (GPa) = 83.75757 56.58081 88.98727
#
# Poissons Ratio (x) = 0.20277 0.21292
# Poissons Ratio (y) = 0.30016 0.14866
# Poissons Ratio (z) = 0.20041 0.09452
#
# Static dielectric constant tensor:
#      x y z
#    x 1.607690 -0.573840 0.059130 
#    y -0.573840 1.066950 0.187590 
#    z 0.059130 0.187590 1.760160 
# 
# From -- ./inp_files/511273.got.cif
#   From: 2010.05.17/outbox.cif.g08.bks.cpg/sg2_256_cif.got.tgz:511273.got - 2010.06.03 11:33:40.
