data_PCOD9046941
_publ_section_title
;
Structure prediction by ZEFSAII (Michael W. Deem and Ramdas Pophale) SiO2 
 PCOD9046941
Probable space group: P -1
;
_chemical_formula_sum "Si O2"
_cell_formula_units_Z 14
_cell_length_a 11.489256
_cell_length_b 11.462713
_cell_length_c 8.111141
_cell_angle_alpha 73.324163
_cell_angle_beta 89.935764
_cell_angle_gamma 145.779308
_cell_volume 516.069461
_symmetry_space_group_name_H-M "P -1"
_symmetry_group_IT_number 2
_symmetry_cell_setting 'triclinic'
loop_
_space_group_symop_operation_xyz
x,y,z
-x,-y,-z
loop_
_atom_site_type_symbol
_atom_site_label
_atom_site_fract_x
_atom_site_fract_y
_atom_site_fract_z
Si Si1 0.133689 0.054011 0.337492
Si Si2 0.253719 0.868156 0.939672
Si Si3 0.702088 0.032807 0.621117
Si Si4 0.906514 0.754772 0.964176
Si Si5 0.471555 0.718639 0.063333
Si Si6 0.207545 0.659956 0.698794
Si Si7 0.421736 0.445698 0.712298
O O1 0.091719 0.875064 0.453275
O O2 0.093643 0.109183 0.163863
O O3 0.398589 0.312622 0.280804
O O4 0.000000 0.000000 0.500000
O O5 0.256262 0.783177 0.816123
O O6 0.147771 0.905451 0.884825
O O7 0.514912 0.146856 0.877969
O O8 0.041418 0.625923 0.153134
O O9 0.447302 0.800145 0.628118
O O10 0.792091 0.246676 0.490476
O O11 0.651372 0.934042 0.842154
O O12 0.747888 0.521799 0.945886
O O13 0.809482 0.690808 0.175537
O O14 0.549375 0.662602 0.167209
O O15 0.500000 0.500000 0.500000
#
# Coordination Sequence:
#
# PCOD9046941 Si02
#       7
#     2   2   2   2   2   2   2
#     4  11  22  39  70 100 133 177 216 278 342 407
#     4  11  24  43  70 101 127 180 231 272 336 394
#     4  11  21  45  68  92 139 182 214 277 348 377
#     4  11  22  47  67  98 144 168 218 286 340 401
#     4  11  23  41  71  95 135 179 215 280 339 399
#     4  10  24  43  69  95 135 179 228 284 318 401
#     4  11  24  41  65 101 136 176 215 271 349 405
#
# _framework density 27.128132000000001
#
# number of rings (size 3 to 8) (size 9 to 14) (size 15 to 20)
#    0.000    1.143    4.286    1.714    4.000    2.857 
#    0.000    0.000    0.000    0.000    0.000    0.000 
#    0.000    0.000    0.000    0.000    0.000    0.000 
#
# Total GULP energy -78041.058670 kJ/mol
# GULP energy per Si atom -5574.361334 kJ/mol
# Density = 2.706639 g / cm^3
# Si number density = 27.128132 Si / 1000 Ang^3
#
#
#
# Elastic Constant Matrix: (Units=GPa)
#
#
# Indices 1 2 3 4 5 6 
#
# 1 132.6915 -10.1879 27.2863 -4.0432 20.9227 -4.5175
# 2 -10.1879 159.4909 -5.5895 -17.7086 6.0048 -25.4831
# 3 27.2863 -5.5895 104.9557 2.5025 26.9711 -4.3900
# 4 -4.0432 -17.7086 2.5025 21.7304 -4.2771 -3.9227
# 5 20.9227 6.0048 26.9711 -4.2771 51.9593 -5.5734
# 6 -4.5175 -25.4831 -4.3900 -3.9227 -5.5734 22.1282
#
#
#
# Elastic Compliance Matrix: (Units=1/GPa)
#
#
# Indices 1 2 3 4 5 6 
#
# 1 0.008497 0.001384 -0.001508 0.002984 -0.002232 0.002996
# 2 0.001384 0.009697 0.000348 0.010654 0.000469 0.013525
# 3 -0.001508 0.000348 0.011428 -0.002291 -0.005493 0.000570
# 4 0.002984 0.010654 -0.002291 0.061292 0.006475 0.024920
# 5 -0.002232 0.000469 -0.005493 0.006475 0.024142 0.006224
# 6 0.002996 0.013525 0.000570 0.024920 0.006224 0.067477
#
#
# Mechanical properties :
#
#
# Convention : Reuss Voigt Hill
#
# Bulk Modulus (GPa) = 33.25490 46.68399 39.96945
# Shear Modulus (GPa) = 26.02681 44.87217 35.44949
#
# Velocity S-wave (km/s) = 3.10078 4.07145 3.61881
# Velocity P-wave (km/s) = 5.01048 6.27283 5.67685
#
# Compressibility (1/GPa) = 0.03007075
#
# Stress axis : x y z
#
# Youngs Moduli (GPa) = 117.68200 103.12670 87.50208
#
# Poissons Ratio (x) = -0.14274 0.13193
# Poissons Ratio (y) = -0.16288 -0.03042
# Poissons Ratio (z) = 0.17743 -0.03586
#
# Static dielectric constant tensor:
#      x y z
#    x 2.155920 -0.126960 -0.073720 
#    y -0.126960 2.448670 0.109720 
#    z -0.073720 0.109720 2.187230 
# 
# From -- ./inp_files/257571.got.cif
#   From: 2010.05.17/outbox.cif.g08.bks.cpg/sg2_129_cif.got.tgz:257571.got - 2010.06.03 11:33:40.
