data_PCOD9046331
_publ_section_title
;
Structure prediction by ZEFSAII (Michael W. Deem and Ramdas Pophale) SiO2 
 PCOD9046331
Probable space group: P -1
;
_chemical_formula_sum "Si O2"
_cell_formula_units_Z 16
_cell_length_a 11.323317
_cell_length_b 20.561768
_cell_length_c 20.791548
_cell_angle_alpha 19.920152
_cell_angle_beta 30.643139
_cell_angle_gamma 41.072326
_cell_volume 797.365147
_symmetry_space_group_name_H-M "P -1"
_symmetry_group_IT_number 2
_symmetry_cell_setting 'triclinic'
loop_
_space_group_symop_operation_xyz
x,y,z
-x,-y,-z
loop_
_atom_site_type_symbol
_atom_site_label
_atom_site_fract_x
_atom_site_fract_y
_atom_site_fract_z
Si Si1 0.364572 0.077948 0.718676
Si Si2 0.078598 0.368623 0.531421
Si Si3 0.381497 0.283573 0.222559
Si Si4 0.917950 0.938987 0.780225
Si Si5 0.185357 0.693541 0.080204
Si Si6 0.740138 0.682738 0.223175
Si Si7 0.835710 0.999788 0.516622
Si Si8 0.598683 0.011358 0.065363
O O1 0.246370 0.246901 0.596654
O O2 0.618341 0.082094 0.562686
O O3 0.188035 0.869665 0.964993
O O4 0.401857 0.059830 0.794051
O O5 0.223682 0.514846 0.270762
O O6 0.000000 0.500000 0.500000
O O7 0.822057 0.218936 0.764737
O O8 0.153620 0.133911 0.508289
O O9 0.255097 0.225853 0.263830
O O10 0.500000 0.500000 0.000000
O O11 0.621378 0.224859 0.144317
O O12 0.012554 0.870680 0.733279
O O13 0.858419 0.771519 0.017839
O O14 0.666706 0.982113 0.839060
O O15 0.926968 0.614088 0.242145
O O16 0.500000 0.500000 0.500000
O O17 0.674897 0.860867 0.123525
O O18 0.000000 0.000000 0.500000
#
# Coordination Sequence:
#
# PCOD9046331 Si02
#       8
#     2   2   2   2   2   2   2   2
#     4  11  21  44  69 105 134 182 231 300 356 410
#     4  12  24  38  69 106 139 181 231 288 364 427
#     4   9  22  39  68  98 132 177 235 290 351 415
#     4  10  24  42  70  96 135 190 228 286 363 411
#     4  11  24  44  66 100 142 175 239 291 349 425
#     4  12  27  44  64  99 143 190 235 283 350 435
#     4   9  19  42  71  99 137 184 229 300 353 418
#     4  12  23  42  71  95 147 179 233 294 354 426
#
# _framework density 20.066089999999999
#
# number of rings (size 3 to 8) (size 9 to 14) (size 15 to 20)
#    0.750    0.500    3.750    2.250    3.500    0.500 
#    2.250    0.000    0.000    5.250    0.000    0.000 
#    0.000    0.000    0.000    0.000    0.000    0.000 
#
# Total GULP energy -89092.243317 kJ/mol
# GULP energy per Si atom -5568.265207 kJ/mol
# Density = 2.002042 g / cm^3
# Si number density = 20.066090 Si / 1000 Ang^3
#
#
#
# Elastic Constant Matrix: (Units=GPa)
#
#
# Indices 1 2 3 4 5 6 
#
# 1 83.7896 29.3434 47.1820 -6.0639 -2.6439 0.0207
# 2 29.3434 69.3887 31.1341 0.5315 7.3862 7.3058
# 3 47.1820 31.1341 116.6750 2.2047 -2.1859 4.7112
# 4 -6.0639 0.5315 2.2047 33.2359 5.4305 -0.5730
# 5 -2.6439 7.3862 -2.1859 5.4305 43.6225 -1.5562
# 6 0.0207 7.3058 4.7112 -0.5730 -1.5562 38.7708
#
#
#
# Elastic Compliance Matrix: (Units=1/GPa)
#
#
# Indices 1 2 3 4 5 6 
#
# 1 0.017215 -0.005054 -0.005725 0.003428 0.001248 0.001739
# 2 -0.005054 0.018560 -0.002835 -0.000492 -0.003648 -0.003304
# 3 -0.005725 -0.002835 0.011732 -0.001945 0.000932 -0.000880
# 4 0.003428 -0.000492 -0.001945 0.031466 -0.003701 0.000644
# 5 0.001248 -0.003648 0.000932 -0.003701 0.024178 0.001489
# 6 0.001739 -0.003304 -0.000880 0.000644 0.001489 0.026590
#
#
# Mechanical properties :
#
#
# Convention : Reuss Voigt Hill
#
# Bulk Modulus (GPa) = 49.30617 53.90802 51.60709
# Shear Modulus (GPa) = 30.53846 33.93876 32.23861
#
# Velocity S-wave (km/s) = 3.90538 4.11706 4.01262
# Velocity P-wave (km/s) = 6.70531 7.03732 6.87332
#
# Compressibility (1/GPa) = 0.02028144
#
# Stress axis : x y z
#
# Youngs Moduli (GPa) = 58.08898 53.87792 85.23710
#
# Poissons Ratio (x) = 0.27227 0.48795
# Poissons Ratio (y) = 0.29355 0.24163
# Poissons Ratio (z) = 0.33254 0.15273
#
# Static dielectric constant tensor:
#      x y z
#    x 1.733400 0.017440 -0.005940 
#    y 0.017440 1.703720 0.032240 
#    z -0.005940 0.032240 1.754780 
# 
# From -- ./inp_files/596214.got.cif
#   From: 2010.05.17/outbox.cif.g08.bks.cpg/sg2_299_cif.got.tgz:596214.got - 2010.06.03 11:33:40.
