data_PCOD9046290
_publ_section_title
;
Structure prediction by ZEFSAII (Michael W. Deem and Ramdas Pophale) SiO2 
 PCOD9046290
Probable space group: P -1
;
_chemical_formula_sum "Si O2"
_cell_formula_units_Z 14
_cell_length_a 9.497132
_cell_length_b 10.098275
_cell_length_c 9.176439
_cell_angle_alpha 94.815480
_cell_angle_beta 135.764181
_cell_angle_gamma 101.584937
_cell_volume 567.030589
_symmetry_space_group_name_H-M "P -1"
_symmetry_group_IT_number 2
_symmetry_cell_setting 'triclinic'
loop_
_space_group_symop_operation_xyz
x,y,z
-x,-y,-z
loop_
_atom_site_type_symbol
_atom_site_label
_atom_site_fract_x
_atom_site_fract_y
_atom_site_fract_z
Si Si1 0.893859 0.615599 0.316351
Si Si2 0.495082 0.376892 0.653700
Si Si3 0.425712 0.079488 0.121774
Si Si4 0.147480 0.913942 0.654986
Si Si5 0.532963 0.336608 0.020734
Si Si6 0.105680 0.649588 0.177922
Si Si7 0.264476 0.283917 0.208693
O O1 0.005728 0.745984 0.517579
O O2 0.057049 0.620517 0.308915
O O3 0.726347 0.696832 0.607435
O O4 0.756436 0.456804 0.256632
O O5 0.646630 0.308485 0.674665
O O6 0.583811 0.550473 0.712840
O O7 0.518215 0.344442 0.836236
O O8 0.976366 0.745489 0.033863
O O9 0.644717 0.047106 0.300063
O O10 0.510639 0.189452 0.059006
O O11 0.350563 0.166102 0.195608
O O12 0.227818 0.956094 0.884201
O O13 0.000000 0.000000 0.500000
O O14 0.311870 0.356610 0.905808
O O15 0.000000 0.500000 0.000000
#
# Coordination Sequence:
#
# PCOD9046290 Si02
#       7
#     2   2   2   2   2   2   2
#     4  11  20  37  66  90 130 159 199 259 313 353
#     4  10  21  33  59  90 133 156 199 249 316 357
#     4  11  23  40  67  91 122 163 216 254 304 366
#     4  11  23  41  62  91 119 171 213 251 296 384
#     4  11  20  38  60 100 130 150 197 277 310 349
#     4  10  17  34  55  86 121 168 195 238 293 388
#     4  10  18  36  58  87 120 169 201 238 301 384
#
# _framework density 24.690024999999999
#
# number of rings (size 3 to 8) (size 9 to 14) (size 15 to 20)
#    0.000    1.429    5.714    1.714    0.000    0.571 
#    2.571    0.000    0.000    8.571    0.000    0.000 
#    0.000    0.000    0.000    0.000    0.000    0.000 
#
# Total GULP energy -78197.560911 kJ/mol
# GULP energy per Si atom -5585.540065 kJ/mol
# Density = 2.463383 g / cm^3
# Si number density = 24.690025 Si / 1000 Ang^3
#
#
#
# Elastic Constant Matrix: (Units=GPa)
#
#
# Indices 1 2 3 4 5 6 
#
# 1 102.7157 22.2671 38.5222 4.2244 -8.6607 -31.0588
# 2 22.2671 70.5022 40.9792 14.4589 -6.3117 -21.6106
# 3 38.5222 40.9792 123.0282 31.0313 -20.0633 -1.1605
# 4 4.2244 14.4589 31.0313 45.1124 -12.2410 5.1855
# 5 -8.6607 -6.3117 -20.0633 -12.2410 36.8207 -3.1085
# 6 -31.0588 -21.6106 -1.1605 5.1855 -3.1085 43.9678
#
#
#
# Elastic Compliance Matrix: (Units=1/GPa)
#
#
# Indices 1 2 3 4 5 6 
#
# 1 0.014749 0.001650 -0.004888 0.000791 0.002295 0.011170
# 2 0.001650 0.022234 -0.006760 -0.003992 0.000236 0.012402
# 3 -0.004888 -0.006760 0.013682 -0.005361 0.002894 -0.005577
# 4 0.000791 -0.003992 -0.005361 0.029185 0.005898 -0.004570
# 5 0.002295 0.000236 0.002894 0.005898 0.031559 0.003349
# 6 0.011170 0.012402 -0.005577 -0.004570 0.003349 0.037359
#
#
# Mechanical properties :
#
#
# Convention : Reuss Voigt Hill
#
# Bulk Modulus (GPa) = 32.60649 55.53147 44.06898
# Shear Modulus (GPa) = 27.93509 38.14535 33.04022
#
# Velocity S-wave (km/s) = 3.36733 3.93487 3.66211
# Velocity P-wave (km/s) = 5.32480 6.57150 5.98072
#
# Compressibility (1/GPa) = 0.03066874
#
# Stress axis : x y z
#
# Youngs Moduli (GPa) = 67.79898 44.97703 73.09068
#
# Poissons Ratio (x) = -0.07419 0.35724
# Poissons Ratio (y) = -0.11184 0.49408
# Poissons Ratio (z) = 0.33138 0.30404
#
# Static dielectric constant tensor:
#      x y z
#    x 2.021990 -0.030350 0.060730 
#    y -0.030350 2.021370 -0.041770 
#    z 0.060730 -0.041770 2.041980 
# 
# From -- ./inp_files/203375.got.cif
#   From: 2010.05.17/outbox.cif.g08.bks.cpg/sg2_102_cif.got.tgz:203375.got - 2010.06.03 11:33:40.
