data_PCOD9046209
_publ_section_title
;
Structure prediction by ZEFSAII (Michael W. Deem and Ramdas Pophale) SiO2 
 PCOD9046209
Probable space group: P -1
;
_chemical_formula_sum "Si O2"
_cell_formula_units_Z 15
_cell_length_a 15.367869
_cell_length_b 12.268332
_cell_length_c 9.185931
_cell_angle_alpha 94.321170
_cell_angle_beta 60.647430
_cell_angle_gamma 40.524607
_cell_volume 600.202482
_symmetry_space_group_name_H-M "P -1"
_symmetry_group_IT_number 2
_symmetry_cell_setting 'triclinic'
loop_
_space_group_symop_operation_xyz
x,y,z
-x,-y,-z
loop_
_atom_site_type_symbol
_atom_site_label
_atom_site_fract_x
_atom_site_fract_y
_atom_site_fract_z
Si Si1 0.911177 0.050781 0.233899
Si Si2 0.433824 0.684626 0.260219
Si Si3 0.762238 0.159969 0.844983
Si Si4 0.167329 0.557817 0.037658
Si Si5 0.922521 0.422740 0.202117
Si Si6 0.500000 0.000000 0.000000
Si Si7 0.889389 0.662876 0.453222
Si Si8 0.540575 0.179004 0.186655
O O1 0.997068 0.059479 0.276120
O O2 0.025376 0.814636 0.143353
O O3 0.625929 0.312388 0.537038
O O4 0.000000 0.000000 0.000000
O O5 0.205213 0.908286 0.355501
O O6 0.554014 0.680228 0.184205
O O7 0.633297 0.407442 0.988982
O O8 0.585993 0.245181 0.069167
O O9 0.150566 0.505096 0.898792
O O10 0.036210 0.622864 0.281918
O O11 0.928745 0.535391 0.282487
O O12 0.705624 0.577522 0.486275
O O13 0.201798 0.095315 0.961394
O O14 0.397734 0.045577 0.238580
O O15 0.522686 0.095954 0.079907
O O16 0.000000 0.500000 0.500000
#
# Coordination Sequence:
#
# PCOD9046209 Si02
#       8
#     2   2   2   2   2   1   2   2
#     4  11  25  44  69 100 146 187 246 302 365 438
#     4  10  25  44  65 104 139 187 247 303 362 435
#     4  10  24  42  68  99 140 191 241 304 362 433
#     4  11  27  43  71 105 144 193 241 303 368 438
#     4  11  26  47  70 110 145 193 242 301 367 444
#     4  10  24  44  68 112 134 186 240 302 356 432
#     4  11  24  47  70 104 147 185 245 300 365 438
#     4  11  25  43  78 104 146 192 245 302 368 437
#
# _framework density 24.991568999999998
#
# number of rings (size 3 to 8) (size 9 to 14) (size 15 to 20)
#    0.000    1.333    1.333    1.600   13.067    1.067 
#    0.000    2.000    0.000    0.000    0.000    0.000 
#    0.000    0.000    0.000    0.000    0.000    0.000 
#
# Total GULP energy -83610.592092 kJ/mol
# GULP energy per Si atom -5574.039473 kJ/mol
# Density = 2.493469 g / cm^3
# Si number density = 24.991569 Si / 1000 Ang^3
#
#
#
# Elastic Constant Matrix: (Units=GPa)
#
#
# Indices 1 2 3 4 5 6 
#
# 1 164.7172 61.6668 60.4146 -34.0208 -5.5076 2.8332
# 2 61.6668 83.1594 51.8062 -36.0076 -8.0595 18.7663
# 3 60.4146 51.8062 113.9117 -38.6675 -14.5466 7.2341
# 4 -34.0208 -36.0076 -38.6675 48.9549 8.2312 -10.9629
# 5 -5.5076 -8.0595 -14.5466 8.2312 46.4184 -15.9474
# 6 2.8332 18.7663 7.2341 -10.9629 -15.9474 23.6503
#
#
#
# Elastic Compliance Matrix: (Units=1/GPa)
#
#
# Indices 1 2 3 4 5 6 
#
# 1 0.009385 -0.006460 -0.001738 0.001552 0.001271 0.006110
# 2 -0.006460 0.027928 -0.006159 0.007727 -0.006101 -0.020035
# 3 -0.001738 -0.006159 0.014971 0.006834 0.004516 0.006729
# 4 0.001552 0.007727 0.006834 0.034257 0.000208 0.007612
# 5 0.001271 -0.006101 0.004516 0.000208 0.030172 0.023749
# 6 0.006110 -0.020035 0.006729 0.007612 0.023749 0.074933
#
#
# Mechanical properties :
#
#
# Convention : Reuss Voigt Hill
#
# Bulk Modulus (GPa) = 42.42859 78.84039 60.63449
# Shear Modulus (GPa) = 21.90885 36.33143 29.12014
#
# Velocity S-wave (km/s) = 2.96404 3.81694 3.41720
# Velocity P-wave (km/s) = 5.35986 7.14427 6.31541
#
# Compressibility (1/GPa) = 0.02356902
#
# Stress axis : x y z
#
# Youngs Moduli (GPa) = 106.55157 35.80587 66.79506
#
# Poissons Ratio (x) = 0.23131 0.11611
# Poissons Ratio (y) = 0.68835 0.41141
# Poissons Ratio (z) = 0.18522 0.22054
#
# Static dielectric constant tensor:
#      x y z
#    x 2.026960 -0.144840 -0.142040 
#    y -0.144840 2.200660 0.214800 
#    z -0.142040 0.214800 2.213680 
# 
# From -- ./inp_files/305340.got.cif
#   From: 2010.05.17/outbox.cif.g08.bks.cpg/sg2_153_cif.got.tgz:305340.got - 2010.06.03 11:33:40.
