data_PCOD9046776
_publ_section_title
;
Structure prediction by ZEFSAII (Michael W. Deem and Ramdas Pophale) SiO2 
 PCOD9046776
Probable space group: P -1
;
_chemical_formula_sum "Si O2"
_cell_formula_units_Z 13
_cell_length_a 6.996363
_cell_length_b 9.590913
_cell_length_c 8.823603
_cell_angle_alpha 96.111590
_cell_angle_beta 98.454856
_cell_angle_gamma 69.074772
_cell_volume 546.084154
_symmetry_space_group_name_H-M "P -1"
_symmetry_group_IT_number 2
_symmetry_cell_setting 'triclinic'
loop_
_space_group_symop_operation_xyz
x,y,z
-x,-y,-z
loop_
_atom_site_type_symbol
_atom_site_label
_atom_site_fract_x
_atom_site_fract_y
_atom_site_fract_z
Si Si1 0.319395 0.151857 0.536362
Si Si2 0.179207 0.859703 0.192923
Si Si3 0.047086 0.539539 0.762730
Si Si4 0.397753 0.270182 0.879954
Si Si5 0.287552 0.471541 0.470035
Si Si6 0.179338 0.153781 0.062987
Si Si7 0.000000 0.000000 0.500000
O O1 0.341943 0.189521 0.718451
O O2 0.332794 0.293148 0.463516
O O3 0.109556 0.121397 0.486984
O O4 0.500000 0.000000 0.500000
O O5 0.378531 0.726879 0.137930
O O6 0.222608 0.004831 0.147275
O O7 0.142161 0.885622 0.369065
O O8 0.970125 0.857847 0.091993
O O9 0.215745 0.430010 0.880680
O O10 0.165314 0.537545 0.617829
O O11 0.865470 0.477077 0.685061
O O12 0.948715 0.702120 0.839136
O O13 0.376456 0.183098 0.018412
O O14 0.500000 0.500000 0.500000
#
# Coordination Sequence:
#
# PCOD9046776 Si02
#       7
#     2   2   2   2   2   2   1
#     4  11  23  39  71 105 135 185 237 295 350 413
#     4  11  25  41  71 101 138 188 232 296 352 418
#     4  10  24  43  68 100 140 184 233 289 361 418
#     4  11  23  43  65 101 135 185 237 287 353 424
#     4  10  24  46  69 104 145 187 239 292 358 428
#     4  11  24  45  65 101 143 181 234 292 356 422
#     4  12  22  44  70 104 144 178 240 294 348 422
#
# _framework density 23.805854
#
# number of rings (size 3 to 8) (size 9 to 14) (size 15 to 20)
#    0.000    1.231    3.077    1.846    0.000    9.231 
#    0.000    0.000    0.000    0.000    0.000    0.000 
#    0.000    0.000    0.000    0.000    0.000    0.000 
#
# Total GULP energy -72484.489461 kJ/mol
# GULP energy per Si atom -5575.729959 kJ/mol
# Density = 2.375167 g / cm^3
# Si number density = 23.805854 Si / 1000 Ang^3
#
#
#
# Elastic Constant Matrix: (Units=GPa)
#
#
# Indices 1 2 3 4 5 6 
#
# 1 150.3821 25.3728 9.5153 -14.7473 -19.8489 6.4413
# 2 25.3728 95.4131 8.3948 11.2479 -11.2861 -6.8027
# 3 9.5153 8.3948 36.9882 1.0803 -16.4768 -7.2923
# 4 -14.7473 11.2479 1.0803 29.4432 -3.1152 -0.5427
# 5 -19.8489 -11.2861 -16.4768 -3.1152 31.2200 6.6141
# 6 6.4413 -6.8027 -7.2923 -0.5427 6.6141 34.5733
#
#
#
# Elastic Compliance Matrix: (Units=1/GPa)
#
#
# Indices 1 2 3 4 5 6 
#
# 1 0.008528 -0.002493 0.000208 0.005780 0.005856 -0.003065
# 2 -0.002493 0.012216 -0.000937 -0.005703 0.001272 0.002338
# 3 0.000208 -0.000937 0.035983 0.001125 0.018064 0.003929
# 4 0.005780 -0.005703 0.001125 0.039659 0.006720 -0.002625
# 5 0.005856 0.001272 0.018064 0.006720 0.047700 -0.006051
# 6 -0.003065 0.002338 0.003929 -0.002625 -0.006051 0.031900
#
#
# Mechanical properties :
#
#
# Convention : Reuss Voigt Hill
#
# Bulk Modulus (GPa) = 19.88784 41.03880 30.46332
# Shear Modulus (GPa) = 25.10141 35.01400 30.05770
#
# Velocity S-wave (km/s) = 3.25071 3.83928 3.55719
# Velocity P-wave (km/s) = 4.73939 6.07699 5.44939
#
# Compressibility (1/GPa) = 0.05028197
#
# Stress axis : x y z
#
# Youngs Moduli (GPa) = 117.25608 81.86181 27.79065
#
# Poissons Ratio (x) = 0.20411 -0.00577
# Poissons Ratio (y) = 0.29236 0.02604
# Poissons Ratio (z) = -0.02434 0.07670
#
# Static dielectric constant tensor:
#      x y z
#    x 1.910430 -0.033390 0.033740 
#    y -0.033390 1.955990 -0.056240 
#    z 0.033740 -0.056240 1.920140 
# 
# From -- ./inp_files/131013.got.cif
#   From: 2010.05.17/outbox.cif.g08.bks.cpg/sg2_66_cif.got.tgz:131013.got - 2010.06.03 11:33:40.
