data_PCOD9046237
_publ_section_title
;
Structure prediction by ZEFSAII (Michael W. Deem and Ramdas Pophale) SiO2 
 PCOD9046237
Probable space group: P -1
;
_chemical_formula_sum "Si O2"
_cell_formula_units_Z 14
_cell_length_a 9.520777
_cell_length_b 9.656562
_cell_length_c 8.999961
_cell_angle_alpha 49.575418
_cell_angle_beta 60.741503
_cell_angle_gamma 70.314704
_cell_volume 549.288491
_symmetry_space_group_name_H-M "P -1"
_symmetry_group_IT_number 2
_symmetry_cell_setting 'triclinic'
loop_
_space_group_symop_operation_xyz
x,y,z
-x,-y,-z
loop_
_atom_site_type_symbol
_atom_site_label
_atom_site_fract_x
_atom_site_fract_y
_atom_site_fract_z
Si Si1 0.758548 0.938743 0.384079
Si Si2 0.396874 0.007975 0.269491
Si Si3 0.360279 0.335170 0.574426
Si Si4 0.913330 0.524683 0.871781
Si Si5 0.083899 0.850704 0.391070
Si Si6 0.604695 0.625802 0.140607
Si Si7 0.125234 0.824456 0.057896
O O1 0.762445 0.750998 0.418813
O O2 0.930860 0.981984 0.338275
O O3 0.636878 0.927798 0.589227
O O4 0.728292 0.096699 0.168682
O O5 0.510215 0.829301 0.346699
O O6 0.225371 0.945050 0.337513
O O7 0.447457 0.170565 0.022937
O O8 0.455620 0.496973 0.336849
O O9 0.305435 0.380978 0.739016
O O10 0.928007 0.351441 0.878501
O O11 0.997670 0.691481 0.632794
O O12 0.727229 0.561219 0.992342
O O13 0.000000 0.500000 0.000000
O O14 0.154126 0.784254 0.242743
O O15 0.000000 0.000000 0.000000
#
# Coordination Sequence:
#
# PCOD9046237 Si02
#       7
#     2   2   2   2   2   2   2
#     4  11  23  44  72 103 147 183 243 299 361 426
#     4  12  24  47  74 107 145 196 241 299 366 435
#     4  11  26  48  69 104 144 200 243 298 358 438
#     4  12  25  43  72 107 147 189 239 302 365 427
#     4  11  24  44  72 107 145 183 244 298 370 424
#     4  11  26  46  72 100 148 194 248 294 362 436
#     4  10  24  42  69 106 146 187 231 299 367 433
#
# _framework density 25.487514999999998
#
# number of rings (size 3 to 8) (size 9 to 14) (size 15 to 20)
#    0.000    0.857    1.429    5.143    8.000    0.571 
#    7.714    0.000    0.000    0.000    0.000    0.000 
#    0.000    0.000    0.000    0.000    0.000    0.000 
#
# Total GULP energy -78419.753570 kJ/mol
# GULP energy per Si atom -5601.410969 kJ/mol
# Density = 2.542950 g / cm^3
# Si number density = 25.487515 Si / 1000 Ang^3
#
#
#
# Elastic Constant Matrix: (Units=GPa)
#
#
# Indices 1 2 3 4 5 6 
#
# 1 88.8824 23.3510 25.2164 2.3671 -8.6950 3.1789
# 2 23.3510 132.6925 57.0168 10.6873 1.0468 14.8994
# 3 25.2164 57.0168 241.9593 2.3777 4.1873 8.9734
# 4 2.3671 10.6873 2.3777 46.0924 10.6011 2.8602
# 5 -8.6950 1.0468 4.1873 10.6011 27.8944 1.9723
# 6 3.1789 14.8994 8.9734 2.8602 1.9723 44.5210
#
#
#
# Elastic Compliance Matrix: (Units=1/GPa)
#
#
# Indices 1 2 3 4 5 6 
#
# 1 0.012456 -0.001688 -0.000958 -0.001236 0.004578 -0.000255
# 2 -0.001688 0.009047 -0.001853 -0.001829 0.000279 -0.002429
# 3 -0.000958 -0.001853 0.004693 0.000507 -0.001109 -0.000241
# 4 -0.001236 -0.001829 0.000507 0.024405 -0.009629 -0.000543
# 5 0.004578 0.000279 -0.001109 -0.009629 0.041191 -0.001403
# 6 -0.000255 -0.002429 -0.000241 -0.000543 -0.001403 0.023438
#
#
# Mechanical properties :
#
#
# Convention : Reuss Voigt Hill
#
# Bulk Modulus (GPa) = 58.14752 74.96698 66.55725
# Shear Modulus (GPa) = 38.47315 47.56489 43.01902
#
# Velocity S-wave (km/s) = 3.88943 4.32464 4.11280
# Velocity P-wave (km/s) = 6.56002 7.37657 6.98025
#
# Compressibility (1/GPa) = 0.01719764
#
# Stress axis : x y z
#
# Youngs Moduli (GPa) = 80.28276 110.53062 213.10594
#
# Poissons Ratio (x) = 0.18662 0.20414
# Poissons Ratio (y) = 0.13555 0.39484
# Poissons Ratio (z) = 0.07690 0.20479
#
# Static dielectric constant tensor:
#      x y z
#    x 2.094300 -0.038590 -0.004840 
#    y -0.038590 2.019120 0.044150 
#    z -0.004840 0.044150 2.003710 
# 
# From -- ./inp_files/241897.got.cif
#   From: 2010.05.17/outbox.cif.g08.bks.cpg/sg2_121_cif.got.tgz:241897.got - 2010.06.03 11:33:40.
