data_PCOD9046730
_publ_section_title
;
Structure prediction by ZEFSAII (Michael W. Deem and Ramdas Pophale) SiO2 
 PCOD9046730
Probable space group: P -1
;
_chemical_formula_sum "Si O2"
_cell_formula_units_Z 14
_cell_length_a 12.532884
_cell_length_b 7.121491
_cell_length_c 12.529170
_cell_angle_alpha 100.307685
_cell_angle_beta 132.283703
_cell_angle_gamma 50.218637
_cell_volume 570.162479
_symmetry_space_group_name_H-M "P -1"
_symmetry_group_IT_number 2
_symmetry_cell_setting 'triclinic'
loop_
_space_group_symop_operation_xyz
x,y,z
-x,-y,-z
loop_
_atom_site_type_symbol
_atom_site_label
_atom_site_fract_x
_atom_site_fract_y
_atom_site_fract_z
Si Si1 0.665124 0.786050 0.885276
Si Si2 0.287813 0.879867 0.706953
Si Si3 0.905752 0.379674 0.189127
Si Si4 0.411379 0.264493 0.405414
Si Si5 0.084821 0.525838 0.452856
Si Si6 0.581500 0.640800 0.185552
Si Si7 0.789208 0.185695 0.586241
O O1 0.450345 0.888884 0.787312
O O2 0.686668 0.721403 0.768643
O O3 0.629540 0.041185 0.918562
O O4 0.834633 0.517834 0.041123
O O5 0.407704 0.597625 0.819370
O O6 0.194071 0.886377 0.534175
O O7 0.094286 0.154433 0.664003
O O8 0.714506 0.567351 0.162774
O O9 0.075926 0.367923 0.345061
O O10 0.013151 0.074386 0.242513
O O11 0.259519 0.547314 0.397637
O O12 0.595920 0.237470 0.498152
O O13 0.500000 0.000000 0.500000
O O14 0.297012 0.404331 0.630242
O O15 0.000000 0.500000 0.500000
#
# Coordination Sequence:
#
# PCOD9046730 Si02
#       7
#     2   2   2   2   2   2   2
#     4  11  23  40  57  84 128 154 188 242 293 343
#     4  11  20  36  60  88 115 158 199 234 278 343
#     4  11  22  38  57  90 126 157 181 237 298 344
#     4  10  22  43  65  82 105 151 203 247 292 336
#     4  10  17  34  56  82 120 152 194 230 276 336
#     4  11  21  36  60  87 123 159 198 225 280 353
#     4  10  21  39  62  86 112 146 201 248 280 339
#
# _framework density 24.554404999999999
#
# number of rings (size 3 to 8) (size 9 to 14) (size 15 to 20)
#    0.000    1.429    5.714    2.571    0.000    1.143 
#    0.000    0.714    0.000    0.000    0.000    0.000 
#    0.000    0.000    0.000    0.000    0.000    0.000 
#
# Total GULP energy -78371.729737 kJ/mol
# GULP energy per Si atom -5597.980696 kJ/mol
# Density = 2.449852 g / cm^3
# Si number density = 24.554405 Si / 1000 Ang^3
#
#
#
# Elastic Constant Matrix: (Units=GPa)
#
#
# Indices 1 2 3 4 5 6 
#
# 1 52.3406 24.0115 12.4233 5.8191 -16.7687 18.8123
# 2 24.0115 177.7934 39.3750 -17.0596 -28.5991 19.7305
# 3 12.4233 39.3750 119.3420 -8.9437 -43.0927 4.9339
# 4 5.8191 -17.0596 -8.9437 25.3313 9.7654 -10.2574
# 5 -16.7687 -28.5991 -43.0927 9.7654 44.6204 -6.8503
# 6 18.8123 19.7305 4.9339 -10.2574 -6.8503 47.3942
#
#
#
# Elastic Compliance Matrix: (Units=1/GPa)
#
#
# Indices 1 2 3 4 5 6 
#
# 1 0.031491 -0.002742 0.001767 -0.019380 0.013918 -0.013725
# 2 -0.002742 0.006927 -0.001220 0.004149 0.001233 -0.000592
# 3 0.001767 -0.001220 0.013145 -0.001581 0.012918 -0.000037
# 4 -0.019380 0.004149 -0.001581 0.059261 -0.016578 0.016559
# 5 0.013918 0.001233 0.012918 -0.016578 0.043824 -0.004636
# 6 -0.013725 -0.000592 -0.000037 0.016559 -0.004636 0.029712
#
#
# Mechanical properties :
#
#
# Convention : Reuss Voigt Hill
#
# Bulk Modulus (GPa) = 21.19796 55.67729 38.43762
# Shear Modulus (GPa) = 24.45318 41.71361 33.08339
#
# Velocity S-wave (km/s) = 3.15918 4.12615 3.67461
# Velocity P-wave (km/s) = 4.68604 6.73977 5.80446
#
# Compressibility (1/GPa) = 0.04717435
#
# Stress axis : x y z
#
# Youngs Moduli (GPa) = 31.75555 144.36223 76.07328
#
# Poissons Ratio (x) = 0.39582 -0.13443
# Poissons Ratio (y) = 0.08707 0.09277
# Poissons Ratio (z) = -0.05612 0.17605
#
# Static dielectric constant tensor:
#      x y z
#    x 2.071750 -0.001810 0.005680 
#    y -0.001810 1.965030 -0.019760 
#    z 0.005680 -0.019760 1.924280 
# 
# From -- ./inp_files/419458.got.cif
#   From: 2010.05.17/outbox.cif.g08.bks.cpg/sg2_210_cif.got.tgz:419458.got - 2010.06.03 11:33:40.
