data_PCOD9046778
_publ_section_title
;
Structure prediction by ZEFSAII (Michael W. Deem and Ramdas Pophale) SiO2 
 PCOD9046778
Probable space group: P -1
;
_chemical_formula_sum "Si O2"
_cell_formula_units_Z 12
_cell_length_a 9.146969
_cell_length_b 5.752627
_cell_length_c 10.796704
_cell_angle_alpha 102.954210
_cell_angle_beta 56.038782
_cell_angle_gamma 105.387840
_cell_volume 452.257040
_symmetry_space_group_name_H-M "P -1"
_symmetry_group_IT_number 2
_symmetry_cell_setting 'triclinic'
loop_
_space_group_symop_operation_xyz
x,y,z
-x,-y,-z
loop_
_atom_site_type_symbol
_atom_site_label
_atom_site_fract_x
_atom_site_fract_y
_atom_site_fract_z
Si Si1 0.577288 0.773238 0.586952
Si Si2 0.202862 0.850226 0.810923
Si Si3 0.900103 0.713608 0.242220
Si Si4 0.371065 0.133434 0.996517
Si Si5 0.643208 0.509872 0.751460
Si Si6 0.856079 0.151226 0.634657
O O1 0.387942 0.838133 0.645912
O O2 0.723784 0.720964 0.413283
O O3 0.547042 0.558483 0.676008
O O4 0.674250 0.981521 0.657885
O O5 0.108663 0.567718 0.827565
O O6 0.111632 0.063228 0.819192
O O7 0.260702 0.946404 0.931853
O O8 0.078168 0.779401 0.250002
O O9 0.492574 0.335935 0.879307
O O10 0.282436 0.276998 0.161223
O O11 0.500000 0.000000 0.000000
O O12 0.816932 0.396659 0.621592
O O13 0.000000 0.000000 0.500000
#
# Coordination Sequence:
#
# PCOD9046778 Si02
#       6
#     2   2   2   2   2   2
#     4  11  23  42  72 100 135 188 237 281 340 423
#     4  12  24  45  66 106 139 185 228 296 348 408
#     4  11  28  41  68 104 153 175 225 289 369 407
#     4  11  23  42  71 101 132 181 246 291 329 416
#     4  11  22  41  74  99 131 180 250 282 333 402
#     4  10  24  43  68 100 141 188 230 278 347 428
#
# _framework density 26.533584999999999
#
# number of rings (size 3 to 8) (size 9 to 14) (size 15 to 20)
#    0.000    1.000    3.333    2.000    9.333    1.333 
#    0.000    1.667    0.000    0.000    0.000    0.000 
#    0.000    0.000    0.000    0.000    0.000    0.000 
#
# Total GULP energy -67096.596237 kJ/mol
# GULP energy per Si atom -5591.383020 kJ/mol
# Density = 2.647319 g / cm^3
# Si number density = 26.533585 Si / 1000 Ang^3
#
#
#
# Elastic Constant Matrix: (Units=GPa)
#
#
# Indices 1 2 3 4 5 6 
#
# 1 112.8469 67.6057 -2.5526 26.9771 18.9602 9.1409
# 2 67.6057 161.7181 48.0012 29.8219 22.7056 5.0825
# 3 -2.5526 48.0012 83.3515 14.1384 8.2234 14.4546
# 4 26.9771 29.8219 14.1384 50.8956 9.5443 10.8350
# 5 18.9602 22.7056 8.2234 9.5443 53.1168 8.5789
# 6 9.1409 5.0825 14.4546 10.8350 8.5789 55.1493
#
#
#
# Elastic Compliance Matrix: (Units=1/GPa)
#
#
# Indices 1 2 3 4 5 6 
#
# 1 0.014487 -0.006490 0.005516 -0.004584 -0.002101 -0.002021
# 2 -0.006490 0.011318 -0.006706 -0.001529 -0.001586 0.002337
# 3 0.005516 -0.006706 0.017287 -0.002793 -0.000601 -0.004185
# 4 -0.004584 -0.001529 -0.002793 0.024619 -0.001214 -0.003015
# 5 -0.002101 -0.001586 -0.000601 -0.001214 0.020948 -0.002368
# 6 -0.002021 0.002337 -0.004185 -0.003015 -0.002368 0.020310
#
#
# Mechanical properties :
#
#
# Convention : Reuss Voigt Hill
#
# Bulk Modulus (GPa) = 36.05772 64.89169 50.47471
# Shear Modulus (GPa) = 37.43245 48.15649 42.79447
#
# Velocity S-wave (km/s) = 3.76008 4.26482 4.02038
# Velocity P-wave (km/s) = 5.69824 6.98291 6.37303
#
# Compressibility (1/GPa) = 0.02773331
#
# Stress axis : x y z
#
# Youngs Moduli (GPa) = 69.02775 88.35127 57.84599
#
# Poissons Ratio (x) = 0.57338 -0.31910
# Poissons Ratio (y) = 0.44797 0.38794
# Poissons Ratio (z) = -0.38079 0.59252
#
# Static dielectric constant tensor:
#      x y z
#    x 2.029980 0.017650 -0.057980 
#    y 0.017650 2.325680 0.008400 
#    z -0.057980 0.008400 2.083510 
# 
# From -- ./inp_files/23106.got.cif
#   From: 2010.05.17/outbox.cif.g08.bks.cpg/sg2_12_cif.got.tgz:23106.got - 2010.06.03 11:33:40.
