data_PCOD9046690
_publ_section_title
;
Structure prediction by ZEFSAII (Michael W. Deem and Ramdas Pophale) SiO2 
 PCOD9046690
Probable space group: P -1
;
_chemical_formula_sum "Si O2"
_cell_formula_units_Z 16
_cell_length_a 8.052076
_cell_length_b 8.901093
_cell_length_c 13.506591
_cell_angle_alpha 77.613525
_cell_angle_beta 132.724052
_cell_angle_gamma 104.118296
_cell_volume 688.042177
_symmetry_space_group_name_H-M "P -1"
_symmetry_group_IT_number 2
_symmetry_cell_setting 'triclinic'
loop_
_space_group_symop_operation_xyz
x,y,z
-x,-y,-z
loop_
_atom_site_type_symbol
_atom_site_label
_atom_site_fract_x
_atom_site_fract_y
_atom_site_fract_z
Si Si1 0.939630 0.768030 0.125680
Si Si2 0.593444 0.850187 0.141831
Si Si3 0.822852 0.137597 0.140697
Si Si4 0.419041 0.475746 0.733549
Si Si5 0.436160 0.935234 0.371975
Si Si6 0.259034 0.206088 0.173773
Si Si7 0.875995 0.434385 0.215908
Si Si8 0.676347 0.629743 0.498168
O O1 0.741706 0.794639 0.118913
O O2 0.952142 0.584291 0.159421
O O3 0.177156 0.852560 0.254995
O O4 0.866767 0.813903 0.980282
O O5 0.524277 0.697761 0.200233
O O6 0.768062 0.004329 0.220180
O O7 0.355982 0.911233 0.013054
O O8 0.739698 0.297478 0.117922
O O9 0.070156 0.166074 0.188760
O O10 0.625174 0.616041 0.792198
O O11 0.264267 0.519164 0.754472
O O12 0.288504 0.450932 0.581022
O O13 0.586839 0.796546 0.432703
O O14 0.500000 0.000000 0.500000
O O15 0.444875 0.088214 0.284092
O O16 0.089580 0.357143 0.350642
O O17 0.500000 0.500000 0.500000
#
# Coordination Sequence:
#
# PCOD9046690 Si02
#       8
#     2   2   2   2   2   2   2   2
#     4  11  24  45  73 102 147 188 236 299 356 422
#     4  10  24  43  67 100 148 183 232 290 372 411
#     4  11  23  41  72 103 142 184 236 296 356 424
#     4  11  26  46  70 103 145 186 238 293 358 429
#     4  12  26  45  71 104 146 186 236 294 356 418
#     4  12  26  44  75 111 141 185 248 294 354 420
#     4  11  24  46  70 101 145 189 236 293 366 420
#     4  12  25  45  73 103 141 192 241 291 353 430
#
# _framework density 23.254387999999999
#
# number of rings (size 3 to 8) (size 9 to 14) (size 15 to 20)
#    0.000    0.750    2.500    4.500    1.750    5.000 
#    0.000    1.250    0.000    0.000    0.000    0.000 
#    0.000    0.000    0.000    0.000    0.000    0.000 
#
# Total GULP energy -89343.065857 kJ/mol
# GULP energy per Si atom -5583.941616 kJ/mol
# Density = 2.320146 g / cm^3
# Si number density = 23.254388 Si / 1000 Ang^3
#
#
#
# Elastic Constant Matrix: (Units=GPa)
#
#
# Indices 1 2 3 4 5 6 
#
# 1 44.7636 39.8412 13.0219 -4.2765 -1.5995 -5.3214
# 2 39.8412 184.4748 37.2678 -13.1897 -10.1172 10.6322
# 3 13.0219 37.2678 104.3629 -4.5431 -1.1872 0.8494
# 4 -4.2765 -13.1897 -4.5431 41.3069 -3.7031 -0.7637
# 5 -1.5995 -10.1172 -1.1872 -3.7031 28.7245 7.4124
# 6 -5.3214 10.6322 0.8494 -0.7637 7.4124 38.5892
#
#
#
# Elastic Compliance Matrix: (Units=1/GPa)
#
#
# Indices 1 2 3 4 5 6 
#
# 1 0.029235 -0.006468 -0.001383 0.000725 -0.002236 0.006288
# 2 -0.006468 0.007709 -0.001797 0.001837 0.003447 -0.003602
# 3 -0.001383 -0.001797 0.010410 0.000407 -0.000262 0.000134
# 4 0.000725 0.001837 0.000407 0.025274 0.004146 -0.000711
# 5 -0.002236 0.003447 -0.000262 0.004146 0.038644 -0.008593
# 6 0.006288 -0.003602 0.000134 -0.000711 -0.008593 0.029407
#
#
# Mechanical properties :
#
#
# Convention : Reuss Voigt Hill
#
# Bulk Modulus (GPa) = 35.64114 57.09591 46.36852
# Shear Modulus (GPa) = 29.52844 37.95548 33.74196
#
# Velocity S-wave (km/s) = 3.56729 4.04441 3.81332
# Velocity P-wave (km/s) = 5.68571 6.81291 6.27468
#
# Compressibility (1/GPa) = 0.02805746
#
# Stress axis : x y z
#
# Youngs Moduli (GPa) = 34.20514 129.72376 96.06155
#
# Poissons Ratio (x) = 0.83902 0.13288
# Poissons Ratio (y) = 0.22123 0.17265
# Poissons Ratio (z) = 0.04732 0.23315
#
# Static dielectric constant tensor:
#      x y z
#    x 1.880140 0.034610 -0.051090 
#    y 0.034610 2.040410 -0.048920 
#    z -0.051090 -0.048920 1.948860 
# 
# From -- ./inp_files/494773.got.cif
#   From: 2010.05.17/outbox.cif.g08.bks.cpg/sg2_248_cif.got.tgz:494773.got - 2010.06.03 11:33:40.
