data_PCOD9046104
_publ_section_title
;
Structure prediction by ZEFSAII (Michael W. Deem and Ramdas Pophale) SiO2 
 PCOD9046104
Probable space group: P -1
;
_chemical_formula_sum "Si O2"
_cell_formula_units_Z 14
_cell_length_a 6.232024
_cell_length_b 19.580547
_cell_length_c 5.599003
_cell_angle_alpha 60.236925
_cell_angle_beta 99.780974
_cell_angle_gamma 112.513200
_cell_volume 547.725963
_symmetry_space_group_name_H-M "P -1"
_symmetry_group_IT_number 2
_symmetry_cell_setting 'triclinic'
loop_
_space_group_symop_operation_xyz
x,y,z
-x,-y,-z
loop_
_atom_site_type_symbol
_atom_site_label
_atom_site_fract_x
_atom_site_fract_y
_atom_site_fract_z
Si Si1 0.739134 0.673292 0.602360
Si Si2 0.031884 0.104044 0.076551
Si Si3 0.634543 0.958329 0.424172
Si Si4 0.370614 0.565490 0.389912
Si Si5 0.900751 0.258640 0.820711
Si Si6 0.577776 0.812141 0.362628
Si Si7 0.052621 0.426741 0.879290
O O1 0.567327 0.646124 0.390384
O O2 0.634008 0.733592 0.621356
O O3 0.994475 0.720910 0.462213
O O4 0.773513 0.594122 0.870707
O O5 0.189254 0.070247 0.332933
O O6 0.180137 0.133568 0.812915
O O7 0.784616 0.029382 0.143178
O O8 0.987230 0.183880 0.046437
O O9 0.496684 0.872516 0.411399
O O10 0.500000 0.000000 0.500000
O O11 0.500000 0.500000 0.500000
O O12 0.210631 0.575102 0.124997
O O13 0.186291 0.519641 0.641864
O O14 0.624512 0.222585 0.810771
O O15 0.995179 0.345789 0.830844
#
# Coordination Sequence:
#
# PCOD9046104 Si02
#       7
#     2   2   2   2   2   2   2
#     4  11  24  43  67 100 134 185 226 278 346 402
#     4  10  24  42  67  93 138 175 230 280 345 403
#     4  11  24  43  67 100 132 178 232 282 346 406
#     4  11  23  44  67  98 137 175 228 285 336 404
#     4  11  23  42  65 100 131 176 232 280 336 408
#     4  11  24  43  68  96 138 180 229 281 343 410
#     4  11  24  42  68  94 139 176 229 279 339 407
#
# _framework density 25.560227000000001
#
# number of rings (size 3 to 8) (size 9 to 14) (size 15 to 20)
#    0.000    1.143    2.857    2.571    0.000   10.857 
#    0.000    0.000    0.000    0.000    0.000    0.000 
#    0.000    0.000    0.000    0.000    0.000    0.000 
#
# Total GULP energy -78214.140584 kJ/mol
# GULP energy per Si atom -5586.724327 kJ/mol
# Density = 2.550205 g / cm^3
# Si number density = 25.560227 Si / 1000 Ang^3
#
#
#
# Elastic Constant Matrix: (Units=GPa)
#
#
# Indices 1 2 3 4 5 6 
#
# 1 129.4934 42.9371 25.3111 -9.1103 23.4198 -17.7072
# 2 42.9371 104.9509 -9.9920 -5.5730 0.2702 -25.7920
# 3 25.3111 -9.9920 45.6339 -16.9185 18.2263 -8.0208
# 4 -9.1103 -5.5730 -16.9185 32.5920 -1.9924 8.1778
# 5 23.4198 0.2702 18.2263 -1.9924 41.5359 -17.7469
# 6 -17.7072 -25.7920 -8.0208 8.1778 -17.7469 51.0355
#
#
#
# Elastic Compliance Matrix: (Units=1/GPa)
#
#
# Indices 1 2 3 4 5 6 
#
# 1 0.011348 -0.005593 -0.006526 -0.001133 -0.004039 -0.001138
# 2 -0.005593 0.014424 0.007528 0.003225 0.002915 0.007029
# 3 -0.006526 0.007528 0.039312 0.019027 -0.012581 0.000295
# 4 -0.001133 0.003225 0.019027 0.041614 -0.007961 -0.005209
# 5 -0.004039 0.002915 -0.012581 -0.007961 0.036649 0.012114
# 6 -0.001138 0.007029 0.000295 -0.005209 0.012114 0.027845
#
#
# Mechanical properties :
#
#
# Convention : Reuss Voigt Hill
#
# Bulk Modulus (GPa) = 17.88853 44.06563 30.97708
# Shear Modulus (GPa) = 25.12446 39.82083 32.47265
#
# Velocity S-wave (km/s) = 3.13861 3.95133 3.56819
# Velocity P-wave (km/s) = 4.48868 6.17209 5.39643
#
# Compressibility (1/GPa) = 0.05590173
#
# Stress axis : x y z
#
# Youngs Moduli (GPa) = 88.12377 69.32721 25.43732
#
# Poissons Ratio (x) = 0.38777 0.16600
# Poissons Ratio (y) = 0.49290 -0.19148
# Poissons Ratio (z) = 0.57507 -0.52188
#
# Static dielectric constant tensor:
#      x y z
#    x 2.087840 0.040440 -0.006170 
#    y 0.040440 2.077780 0.020640 
#    z -0.006170 0.020640 2.082640 
# 
# From -- ./inp_files/7423.got.cif
#   From: 2010.05.17/outbox.cif.g08.bks.cpg/sg2_4_cif.got.tgz:7423.got - 2010.06.03 11:33:40.
