data_PCOD9046710
_publ_section_title
;
Structure prediction by ZEFSAII (Michael W. Deem and Ramdas Pophale) SiO2 
 PCOD9046710
Probable space group: P -1
;
_chemical_formula_sum "Si O2"
_cell_formula_units_Z 14
_cell_length_a 6.680918
_cell_length_b 20.634814
_cell_length_c 9.905688
_cell_angle_alpha 147.190015
_cell_angle_beta 48.659594
_cell_angle_gamma 122.047143
_cell_volume 554.543902
_symmetry_space_group_name_H-M "P -1"
_symmetry_group_IT_number 2
_symmetry_cell_setting 'triclinic'
loop_
_space_group_symop_operation_xyz
x,y,z
-x,-y,-z
loop_
_atom_site_type_symbol
_atom_site_label
_atom_site_fract_x
_atom_site_fract_y
_atom_site_fract_z
Si Si1 0.363306 0.662973 0.963092
Si Si2 0.418785 0.625426 0.184311
Si Si3 0.575725 0.734814 0.554995
Si Si4 0.808622 0.593424 0.433643
Si Si5 0.892879 0.117927 0.879829
Si Si6 0.965406 0.106001 0.382035
Si Si7 0.437346 0.040237 0.443874
O O1 0.611868 0.662373 0.748852
O O2 0.199333 0.549268 0.789911
O O3 0.460858 0.635250 0.023819
O O4 0.179813 0.785618 0.273625
O O5 0.570985 0.719257 0.370269
O O6 0.101259 0.639869 0.377887
O O7 0.500000 0.500000 0.000000
O O8 0.686813 0.619692 0.385552
O O9 0.770585 0.837178 0.689397
O O10 0.274699 0.768260 0.791797
O O11 0.190378 0.139149 0.734861
O O12 0.702429 0.061024 0.754127
O O13 0.938556 0.012492 0.786058
O O14 0.728296 0.077118 0.333224
O O15 0.500000 0.000000 0.500000
#
# Coordination Sequence:
#
# PCOD9046710 Si02
#       7
#     2   2   2   2   2   2   2
#     4  11  25  48  72 103 144 187 237 290 361 417
#     4  12  25  48  73 104 145 187 235 295 357 424
#     4  12  26  44  72 106 145 185 240 293 350 431
#     4  11  26  48  71 106 144 188 234 299 352 425
#     4  10  24  43  67 103 140 186 241 284 356 426
#     4  11  24  44  70  99 143 190 226 297 352 418
#     4   9  22  43  65  98 139 185 233 296 346 414
#
# _framework density 25.245971000000001
#
# number of rings (size 3 to 8) (size 9 to 14) (size 15 to 20)
#    0.000    1.143    2.857    1.714   10.000    2.286 
#    2.571    0.000    0.000    0.000    0.000    0.000 
#    0.000    0.000    0.000    0.000    0.000    0.000 
#
# Total GULP energy -78334.731480 kJ/mol
# GULP energy per Si atom -5595.337963 kJ/mol
# Density = 2.518851 g / cm^3
# Si number density = 25.245971 Si / 1000 Ang^3
#
#
#
# Elastic Constant Matrix: (Units=GPa)
#
#
# Indices 1 2 3 4 5 6 
#
# 1 161.7936 33.0323 37.3308 -11.2744 0.0608 5.2828
# 2 33.0323 77.6859 -6.7297 -9.4504 -5.8661 3.2646
# 3 37.3308 -6.7297 44.2448 -11.0234 -8.1104 3.6246
# 4 -11.2744 -9.4504 -11.0234 44.9268 -4.4524 -3.1865
# 5 0.0608 -5.8661 -8.1104 -4.4524 37.8528 4.9911
# 6 5.2828 3.2646 3.6246 -3.1865 4.9911 33.2546
#
#
#
# Elastic Compliance Matrix: (Units=1/GPa)
#
#
# Indices 1 2 3 4 5 6 
#
# 1 0.009369 -0.005243 -0.009657 -0.001401 -0.003116 0.000412
# 2 -0.005243 0.017040 0.009458 0.004982 0.005555 -0.002227
# 3 -0.009657 0.009458 0.036901 0.009419 0.011046 -0.004172
# 4 -0.001401 0.004982 0.009419 0.025862 0.005793 0.000316
# 5 -0.003116 0.005555 0.011046 0.005793 0.031038 -0.005358
# 6 0.000412 -0.002227 -0.004172 0.000316 -0.005358 0.031513
#
#
# Mechanical properties :
#
#
# Convention : Reuss Voigt Hill
#
# Bulk Modulus (GPa) = 19.07450 45.66568 32.37009
# Shear Modulus (GPa) = 27.76472 37.87959 32.82215
#
# Velocity S-wave (km/s) = 3.31987 3.87773 3.60959
# Velocity P-wave (km/s) = 4.71882 6.17872 5.49745
#
# Compressibility (1/GPa) = 0.05242602
#
# Stress axis : x y z
#
# Youngs Moduli (GPa) = 106.73006 58.68457 27.09959
#
# Poissons Ratio (x) = 0.30771 0.26169
# Poissons Ratio (y) = 0.55963 -0.25630
# Poissons Ratio (z) = 1.03066 -0.55503
#
# Static dielectric constant tensor:
#      x y z
#    x 1.975720 0.031930 0.039640 
#    y 0.031930 2.017840 0.012990 
#    z 0.039640 0.012990 2.044600 
# 
# From -- ./inp_files/141672.got.cif
#   From: 2010.05.17/outbox.cif.g08.bks.cpg/sg2_71_cif.got.tgz:141672.got - 2010.06.03 11:33:40.
