data_PCOD9046842
_publ_section_title
;
Structure prediction by ZEFSAII (Michael W. Deem and Ramdas Pophale) SiO2 
 PCOD9046842
Probable space group: P -1
;
_chemical_formula_sum "Si O2"
_cell_formula_units_Z 16
_cell_length_a 24.921878
_cell_length_b 8.333753
_cell_length_c 7.098006
_cell_angle_alpha 57.207939
_cell_angle_beta 98.076970
_cell_angle_gamma 136.181505
_cell_volume 774.670576
_symmetry_space_group_name_H-M "P -1"
_symmetry_group_IT_number 2
_symmetry_cell_setting 'triclinic'
loop_
_space_group_symop_operation_xyz
x,y,z
-x,-y,-z
loop_
_atom_site_type_symbol
_atom_site_label
_atom_site_fract_x
_atom_site_fract_y
_atom_site_fract_z
Si Si1 0.989507 0.198402 0.564218
Si Si2 0.387360 0.336276 0.519066
Si Si3 0.718912 0.714516 0.809712
Si Si4 0.474166 0.142338 0.983359
Si Si5 0.121326 0.473949 0.128625
Si Si6 0.430748 0.645195 0.740650
Si Si7 0.107399 0.682660 0.619907
Si Si8 0.706370 0.257012 0.981617
O O1 0.929020 0.203022 0.457666
O O2 0.067185 0.396886 0.327922
O O3 0.032137 0.363716 0.679628
O O4 0.934752 0.857011 0.764058
O O5 0.333256 0.333587 0.360602
O O6 0.479668 0.588578 0.306517
O O7 0.401769 0.459460 0.656637
O O8 0.337706 0.001116 0.721178
O O9 0.807741 0.072168 0.624417
O O10 0.656724 0.544254 0.068589
O O11 0.738969 0.547345 0.890276
O O12 0.372919 0.898759 0.091196
O O13 0.514675 0.304366 0.100114
O O14 0.500000 0.000000 0.000000
O O15 0.128690 0.647893 0.853839
O O16 0.214841 0.649139 0.118964
O O17 0.500000 0.000000 0.500000
#
# Coordination Sequence:
#
# PCOD9046842 Si02
#       8
#     2   2   2   2   2   2   2   2
#     4  10  24  43  68  95 127 166 205 260 322 386
#     4  11  23  41  64  90 126 167 211 260 315 371
#     4  11  23  41  63  94 131 165 210 262 311 372
#     4  11  21  41  64  87 128 167 210 258 314 368
#     4  11  23  42  66  96 131 160 210 262 318 377
#     4  11  21  40  66  89 126 171 211 257 309 372
#     4  11  22  43  69  93 128 167 209 255 321 380
#     4  12  22  40  65  91 128 169 205 263 315 364
#
# _framework density 20.653939000000001
#
# number of rings (size 3 to 8) (size 9 to 14) (size 15 to 20)
#    0.000    1.000    6.250    1.125    1.750    0.500 
#    0.000    7.500    0.000    0.000    0.000    0.000 
#    0.000    0.000    0.000    0.000    0.000    0.000 
#
# Total GULP energy -89255.635773 kJ/mol
# GULP energy per Si atom -5578.477236 kJ/mol
# Density = 2.060693 g / cm^3
# Si number density = 20.653939 Si / 1000 Ang^3
#
#
#
# Elastic Constant Matrix: (Units=GPa)
#
#
# Indices 1 2 3 4 5 6 
#
# 1 84.6096 21.8753 24.5881 7.3297 -1.5839 30.0203
# 2 21.8753 57.8706 16.6532 -5.3867 2.2507 8.3719
# 3 24.5881 16.6532 79.4650 -7.0157 0.2023 6.0550
# 4 7.3297 -5.3867 -7.0157 37.8594 4.7032 -5.4065
# 5 -1.5839 2.2507 0.2023 4.7032 32.1760 -15.3723
# 6 30.0203 8.3719 6.0550 -5.4065 -15.3723 31.3763
#
#
#
# Elastic Compliance Matrix: (Units=1/GPa)
#
#
# Indices 1 2 3 4 5 6 
#
# 1 0.025503 -0.004260 -0.005575 -0.009380 -0.010985 -0.029186
# 2 -0.004260 0.020282 -0.002498 0.003367 -0.002919 -0.001704
# 3 -0.005575 -0.002498 0.014835 0.003943 0.001376 0.004491
# 4 -0.009380 0.003367 0.003943 0.031196 0.001020 0.013190
# 5 -0.010985 -0.002919 0.001376 0.001020 0.046917 0.034185
# 6 -0.029186 -0.001704 0.004491 0.013190 0.034185 0.078406
#
#
# Mechanical properties :
#
#
# Convention : Reuss Voigt Hill
#
# Bulk Modulus (GPa) = 27.81198 38.68650 33.24924
# Shear Modulus (GPa) = 19.70138 30.87089 25.28613
#
# Velocity S-wave (km/s) = 3.09185 3.87029 3.50276
# Velocity P-wave (km/s) = 5.12259 6.22444 5.70020
#
# Compressibility (1/GPa) = 0.03595573
#
# Stress axis : x y z
#
# Youngs Moduli (GPa) = 39.21121 49.30384 67.40817
#
# Poissons Ratio (x) = 0.21002 0.37578
# Poissons Ratio (y) = 0.16703 0.16838
# Poissons Ratio (z) = 0.21859 0.12316
#
# Static dielectric constant tensor:
#      x y z
#    x 1.787420 0.019460 0.032160 
#    y 0.019460 1.761410 0.006420 
#    z 0.032160 0.006420 1.822570 
# 
# From -- ./inp_files/126377.got.cif
#   From: 2010.05.17/outbox.cif.g08.bks.cpg/sg2_64_cif.got.tgz:126377.got - 2010.06.03 11:33:40.
