data_PCOD9046754
_publ_section_title
;
Structure prediction by ZEFSAII (Michael W. Deem and Ramdas Pophale) SiO2 
 PCOD9046754
Probable space group: P -1
;
_chemical_formula_sum "Si O2"
_cell_formula_units_Z 16
_cell_length_a 7.058754
_cell_length_b 10.213038
_cell_length_c 11.938100
_cell_angle_alpha 117.212075
_cell_angle_beta 89.297393
_cell_angle_gamma 80.809119
_cell_volume 751.977267
_symmetry_space_group_name_H-M "P -1"
_symmetry_group_IT_number 2
_symmetry_cell_setting 'triclinic'
loop_
_space_group_symop_operation_xyz
x,y,z
-x,-y,-z
loop_
_atom_site_type_symbol
_atom_site_label
_atom_site_fract_x
_atom_site_fract_y
_atom_site_fract_z
Si Si1 0.790588 0.551702 0.071706
Si Si2 0.670225 0.858740 0.929378
Si Si3 0.088268 0.092824 0.274193
Si Si4 0.799038 0.874785 0.188020
Si Si5 0.507599 0.403777 0.610369
Si Si6 0.830166 0.413109 0.438759
Si Si7 0.464236 0.076408 0.409474
Si Si8 0.493621 0.420507 0.124991
O O1 0.796912 0.715594 0.186990
O O2 0.715364 0.422573 0.092488
O O3 0.632626 0.579457 0.984991
O O4 0.000000 0.500000 0.000000
O O5 0.808569 0.884314 0.836184
O O6 0.566649 0.714590 0.856925
O O7 0.775437 0.847151 0.044638
O O8 0.500000 0.000000 0.000000
O O9 0.253979 0.078534 0.360911
O O10 0.925091 0.240317 0.353337
O O11 0.987351 0.948639 0.226069
O O12 0.620091 0.991631 0.286739
O O13 0.682089 0.444709 0.554735
O O14 0.306381 0.517701 0.635407
O O15 0.484735 0.245821 0.499700
O O16 0.560121 0.423111 0.746377
O O17 0.000000 0.500000 0.500000
O O18 0.500000 0.000000 0.500000
#
# Coordination Sequence:
#
# PCOD9046754 Si02
#       8
#     2   2   2   2   2   2   2   2
#     4  10  24  45  69  97 133 180 235 281 334 411
#     4  11  24  42  72 101 137 175 222 294 359 398
#     4  12  25  44  70 106 143 181 232 288 350 422
#     4  11  25  45  69 105 134 179 235 283 351 412
#     4  11  24  42  68  97 141 176 222 283 337 409
#     4  11  23  41  67  99 134 175 225 274 342 406
#     4  12  26  46  67 100 142 191 230 282 343 410
#     4  10  24  43  67  98 133 180 223 280 340 405
#
# _framework density 21.277239000000002
#
# number of rings (size 3 to 8) (size 9 to 14) (size 15 to 20)
#    0.000    1.000    3.750    1.875    5.250    5.500 
#    2.250    0.000    0.000    0.000    0.000    0.000 
#    0.000    0.000    0.000    0.000    0.000    0.000 
#
# Total GULP energy -89317.604288 kJ/mol
# GULP energy per Si atom -5582.350268 kJ/mol
# Density = 2.122881 g / cm^3
# Si number density = 21.277239 Si / 1000 Ang^3
#
#
#
# Elastic Constant Matrix: (Units=GPa)
#
#
# Indices 1 2 3 4 5 6 
#
# 1 136.9665 65.4490 35.1950 15.9090 -3.5406 37.9642
# 2 65.4490 78.4153 25.3850 15.2284 9.2112 19.3342
# 3 35.1950 25.3850 83.7862 11.7203 3.3193 12.0101
# 4 15.9090 15.2284 11.7203 39.6840 4.9264 2.0550
# 5 -3.5406 9.2112 3.3193 4.9264 28.3996 15.0921
# 6 37.9642 19.3342 12.0101 2.0550 15.0921 35.8885
#
#
#
# Elastic Compliance Matrix: (Units=1/GPa)
#
#
# Indices 1 2 3 4 5 6 
#
# 1 0.021663 -0.013218 -0.001926 -0.004367 0.020462 -0.023506
# 2 -0.013218 0.024722 -0.002084 -0.002357 -0.012632 0.006808
# 3 -0.001926 -0.002084 0.013913 -0.002462 -0.000055 -0.001332
# 4 -0.004367 -0.002357 -0.002462 0.029276 -0.009333 0.008961
# 5 0.020462 -0.012632 -0.000055 -0.009333 0.065778 -0.041949
# 6 -0.023506 0.006808 -0.001332 0.008961 -0.041949 0.066635
#
#
# Mechanical properties :
#
#
# Convention : Reuss Voigt Hill
#
# Bulk Modulus (GPa) = 38.69330 61.24733 49.97032
# Shear Modulus (GPa) = 18.86392 32.33701 25.60046
#
# Velocity S-wave (km/s) = 2.98077 3.90268 3.47246
# Velocity P-wave (km/s) = 5.48375 7.01112 6.29394
#
# Compressibility (1/GPa) = 0.02584427
#
# Stress axis : x y z
#
# Youngs Moduli (GPa) = 46.16061 40.44915 71.87622
#
# Poissons Ratio (x) = 0.53465 0.13841
# Poissons Ratio (y) = 0.61015 0.14977
# Poissons Ratio (z) = 0.08889 0.08428
#
# Static dielectric constant tensor:
#      x y z
#    x 1.762570 0.042110 0.013470 
#    y 0.042110 1.838420 -0.025700 
#    z 0.013470 -0.025700 1.807510 
# 
# From -- ./inp_files/365196.got.cif
#   From: 2010.05.17/outbox.cif.g08.bks.cpg/sg2_183_cif.got.tgz:365196.got - 2010.06.03 11:33:40.
