data_PCOD9046493
_publ_section_title
;
Structure prediction by ZEFSAII (Michael W. Deem and Ramdas Pophale) SiO2 
 PCOD9046493
Probable space group: P -1
;
_chemical_formula_sum "Si O2"
_cell_formula_units_Z 14
_cell_length_a 21.679380
_cell_length_b 7.661783
_cell_length_c 11.237723
_cell_angle_alpha 41.340441
_cell_angle_beta 27.770423
_cell_angle_gamma 49.906273
_cell_volume 573.223756
_symmetry_space_group_name_H-M "P -1"
_symmetry_group_IT_number 2
_symmetry_cell_setting 'triclinic'
loop_
_space_group_symop_operation_xyz
x,y,z
-x,-y,-z
loop_
_atom_site_type_symbol
_atom_site_label
_atom_site_fract_x
_atom_site_fract_y
_atom_site_fract_z
Si Si1 0.935167 0.928048 0.788252
Si Si2 0.719294 0.670828 0.432535
Si Si3 0.825011 0.406457 0.613876
Si Si4 0.199628 0.594594 0.789356
Si Si5 0.839291 0.855141 0.530588
Si Si6 0.552292 0.142476 0.218477
Si Si7 0.639925 0.664930 0.158961
O O1 0.892590 0.130202 0.656408
O O2 0.062113 0.035277 0.589856
O O3 0.810669 0.918422 0.099478
O O4 0.921119 0.619326 0.929701
O O5 0.804900 0.525912 0.456888
O O6 0.697127 0.479755 0.453078
O O7 0.577172 0.750818 0.676530
O O8 0.890796 0.617856 0.485696
O O9 0.670202 0.353800 0.941429
O O10 0.254520 0.507638 0.865400
O O11 0.174700 0.897447 0.660259
O O12 0.702846 0.752753 0.880776
O O13 0.500000 0.000000 0.500000
O O14 0.620253 0.934457 0.125746
O O15 0.500000 0.500000 0.500000
#
# Coordination Sequence:
#
# PCOD9046493 Si02
#       7
#     2   2   2   2   2   2   2
#     4  10  24  47  70  96 137 186 226 273 333 409
#     4  10  24  42  74  93 132 178 237 264 339 402
#     4  12  24  43  71 102 132 183 226 280 333 404
#     4  10  24  46  67 100 134 179 220 281 336 396
#     4  12  28  42  69 107 138 172 230 282 341 394
#     4  12  20  47  69  95 133 181 225 273 333 406
#     4  12  27  44  72 101 140 176 223 286 343 396
#
# _framework density 24.423272999999998
#
# number of rings (size 3 to 8) (size 9 to 14) (size 15 to 20)
#    0.857    0.000    4.286    3.000    2.000    2.857 
#    0.000    0.000    0.000    0.000    0.000    0.000 
#    0.000    0.000    0.000    0.000    0.000    0.000 
#
# Total GULP energy -78314.179025 kJ/mol
# GULP energy per Si atom -5593.869930 kJ/mol
# Density = 2.436768 g / cm^3
# Si number density = 24.423273 Si / 1000 Ang^3
#
#
#
# Elastic Constant Matrix: (Units=GPa)
#
#
# Indices 1 2 3 4 5 6 
#
# 1 54.2645 35.1006 23.3598 -19.4446 0.2560 -18.1804
# 2 35.1006 113.1283 14.1621 -13.0512 -2.6838 -14.2739
# 3 23.3598 14.1621 106.5324 -15.1527 -9.1516 -13.6650
# 4 -19.4446 -13.0512 -15.1527 30.5381 -4.6938 -4.2136
# 5 0.2560 -2.6838 -9.1516 -4.6938 48.3181 -4.0975
# 6 -18.1804 -14.2739 -13.6650 -4.2136 -4.0975 48.1465
#
#
#
# Elastic Compliance Matrix: (Units=1/GPa)
#
#
# Indices 1 2 3 4 5 6 
#
# 1 0.035308 -0.006645 -0.002095 0.020692 0.002139 0.012761
# 2 -0.006645 0.011125 0.000327 0.000967 0.000897 0.001043
# 3 -0.002095 0.000327 0.011214 0.005262 0.002936 0.003199
# 4 0.020692 0.000967 0.005262 0.052099 0.007254 0.014771
# 5 0.002139 0.000897 0.002936 0.007254 0.022372 0.004446
# 6 0.012761 0.001043 0.003199 0.014771 0.004446 0.028477
#
#
# Mechanical properties :
#
#
# Convention : Reuss Voigt Hill
#
# Bulk Modulus (GPa) = 24.49782 46.57447 35.53614
# Shear Modulus (GPa) = 26.17420 38.82071 32.49746
#
# Velocity S-wave (km/s) = 3.27722 3.99117 3.65169
# Velocity P-wave (km/s) = 4.93685 6.35220 5.68871
#
# Compressibility (1/GPa) = 0.04081996
#
# Stress axis : x y z
#
# Youngs Moduli (GPa) = 28.32216 89.88916 89.17599
#
# Poissons Ratio (x) = 0.59730 0.18683
# Poissons Ratio (y) = 0.18820 -0.02912
# Poissons Ratio (z) = 0.05934 -0.02936
#
# Static dielectric constant tensor:
#      x y z
#    x 1.935830 -0.001540 -0.002800 
#    y -0.001540 1.977920 0.040600 
#    z -0.002800 0.040600 2.010000 
# 
# From -- ./inp_files/469743.got.cif
#   From: 2010.05.17/outbox.cif.g08.bks.cpg/sg2_235_cif.got.tgz:469743.got - 2010.06.03 11:33:40.
