data_PCOD9046604
_publ_section_title
;
Structure prediction by ZEFSAII (Michael W. Deem and Ramdas Pophale) SiO2 
 PCOD9046604
Probable space group: P -1
;
_chemical_formula_sum "Si O2"
_cell_formula_units_Z 16
_cell_length_a 16.594376
_cell_length_b 5.186560
_cell_length_c 9.968739
_cell_angle_alpha 63.627188
_cell_angle_beta 118.706169
_cell_angle_gamma 100.549376
_cell_volume 673.712780
_symmetry_space_group_name_H-M "P -1"
_symmetry_group_IT_number 2
_symmetry_cell_setting 'triclinic'
loop_
_space_group_symop_operation_xyz
x,y,z
-x,-y,-z
loop_
_atom_site_type_symbol
_atom_site_label
_atom_site_fract_x
_atom_site_fract_y
_atom_site_fract_z
Si Si1 0.246890 0.219432 0.699544
Si Si2 0.203842 0.816828 0.991502
Si Si3 0.477100 0.336666 0.384171
Si Si4 0.276059 0.187544 0.179786
Si Si5 0.199455 0.113720 0.409668
Si Si6 0.073864 0.636896 0.123602
Si Si7 0.452262 0.320848 0.888249
Si Si8 0.928563 0.351205 0.574223
O O1 0.266386 0.100987 0.592138
O O2 0.342491 0.306437 0.819286
O O3 0.168771 0.468778 0.558935
O O4 0.202116 0.987090 0.812628
O O5 0.213042 0.478956 0.037662
O O6 0.116819 0.876623 0.007547
O O7 0.281034 0.966150 0.111115
O O8 0.500000 0.500000 0.500000
O O9 0.370962 0.331257 0.258489
O O10 0.530362 0.501948 0.273789
O O11 0.500000 0.000000 0.500000
O O12 0.242715 0.015539 0.325495
O O13 0.164176 0.433214 0.270016
O O14 0.105856 0.965012 0.414625
O O15 0.039990 0.679741 0.238269
O O16 0.000000 0.500000 0.000000
O O17 0.500000 0.500000 0.000000
O O18 0.500000 0.000000 0.000000
O O19 0.000000 0.500000 0.500000
#
# Coordination Sequence:
#
# PCOD9046604 Si02
#       8
#     2   2   2   2   2   2   2   2
#     4  11  27  43  71 101 145 186 237 297 358 427
#     4  11  24  43  68  99 128 188 224 288 349 415
#     4  12  25  41  71 103 136 183 236 292 356 433
#     4  11  23  45  67  96 139 174 235 283 350 420
#     4  10  24  43  67  96 139 184 235 287 359 417
#     4  10  24  43  65  96 135 180 236 295 348 421
#     4  12  27  48  73 110 149 192 243 303 370 434
#     4  11  26  43  68 100 139 189 236 293 355 428
#
# _framework density 23.748991
#
# number of rings (size 3 to 8) (size 9 to 14) (size 15 to 20)
#    0.000    1.000    1.250    3.750    8.750    2.500 
#    0.000    0.000    0.000    0.000    0.000    0.000 
#    0.000    0.000    0.000    0.000    0.000    0.000 
#
# Total GULP energy -89369.961272 kJ/mol
# GULP energy per Si atom -5585.622579 kJ/mol
# Density = 2.369494 g / cm^3
# Si number density = 23.748991 Si / 1000 Ang^3
#
#
#
# Elastic Constant Matrix: (Units=GPa)
#
#
# Indices 1 2 3 4 5 6 
#
# 1 81.1857 16.8010 37.6434 -18.1660 -4.2339 22.1991
# 2 16.8010 127.9119 42.3400 -0.7672 -0.8398 1.3046
# 3 37.6434 42.3400 125.1419 -2.0614 -19.2813 2.9379
# 4 -18.1660 -0.7672 -2.0614 53.3953 11.5009 -0.1517
# 5 -4.2339 -0.8398 -19.2813 11.5009 42.8377 -5.3919
# 6 22.1991 1.3046 2.9379 -0.1517 -5.3919 41.0846
#
#
#
# Elastic Compliance Matrix: (Units=1/GPa)
#
#
# Indices 1 2 3 4 5 6 
#
# 1 0.019477 -0.000462 -0.005957 0.007230 -0.004039 -0.010587
# 2 -0.000462 0.008885 -0.003063 0.000129 -0.001282 0.000018
# 3 -0.005957 -0.003063 0.011580 -0.002850 0.005735 0.003230
# 4 0.007230 0.000129 -0.002850 0.022621 -0.007214 -0.004570
# 5 -0.004039 -0.001282 0.005735 -0.007214 0.028127 0.005478
# 6 -0.010587 0.000018 0.003230 -0.004570 0.005478 0.030531
#
#
# Mechanical properties :
#
#
# Convention : Reuss Voigt Hill
#
# Bulk Modulus (GPa) = 47.66907 58.64535 53.15721
# Shear Modulus (GPa) = 33.97281 43.29385 38.63333
#
# Velocity S-wave (km/s) = 3.78629 4.27426 4.03766
# Velocity P-wave (km/s) = 6.26341 7.00761 6.64593
#
# Compressibility (1/GPa) = 0.02097796
#
# Stress axis : x y z
#
# Youngs Moduli (GPa) = 51.34259 112.55488 86.35498
#
# Poissons Ratio (x) = 0.05195 0.51444
# Poissons Ratio (y) = 0.02370 0.26451
# Poissons Ratio (z) = 0.30586 0.34476
#
# Static dielectric constant tensor:
#      x y z
#    x 2.017990 -0.017720 -0.022080 
#    y -0.017720 1.959500 0.045740 
#    z -0.022080 0.045740 1.836070 
# 
# From -- ./inp_files/56461.got.cif
#   From: 2010.05.17/outbox.cif.g08.bks.cpg/sg2_29_cif.got.tgz:56461.got - 2010.06.03 11:33:40.
