data_PCOD9046957
_publ_section_title
;
Structure prediction by ZEFSAII (Michael W. Deem and Ramdas Pophale) SiO2 
 PCOD9046957
Probable space group: P -1
;
_chemical_formula_sum "Si O2"
_cell_formula_units_Z 16
_cell_length_a 11.805330
_cell_length_b 12.820847
_cell_length_c 13.106772
_cell_angle_alpha 142.915640
_cell_angle_beta 41.880823
_cell_angle_gamma 110.736453
_cell_volume 641.282211
_symmetry_space_group_name_H-M "P -1"
_symmetry_group_IT_number 2
_symmetry_cell_setting 'triclinic'
loop_
_space_group_symop_operation_xyz
x,y,z
-x,-y,-z
loop_
_atom_site_type_symbol
_atom_site_label
_atom_site_fract_x
_atom_site_fract_y
_atom_site_fract_z
Si Si1 0.015168 0.817115 0.702700
Si Si2 0.603950 0.916404 0.027273
Si Si3 0.245010 0.215509 0.631631
Si Si4 0.180614 0.652936 0.045793
Si Si5 0.472158 0.727022 0.798296
Si Si6 0.742524 0.796431 0.158955
Si Si7 0.718298 0.405235 0.835898
Si Si8 0.855011 0.270374 0.241923
O O1 0.112408 0.784548 0.500897
O O2 0.189615 0.691990 0.577138
O O3 0.852394 0.758543 0.755948
O O4 0.878147 0.062144 0.024980
O O5 0.470797 0.999961 0.285242
O O6 0.554023 0.124282 0.160879
O O7 0.524135 0.815160 0.929251
O O8 0.263791 0.412177 0.768108
O O9 0.163737 0.235145 0.815076
O O10 0.070262 0.232222 0.690707
O O11 0.268627 0.737441 0.972717
O O12 0.260402 0.656538 0.107933
O O13 0.676812 0.478797 0.461368
O O14 0.500000 0.000000 0.500000
O O15 0.749710 0.593025 0.963562
O O16 0.907145 0.799902 0.982959
O O17 0.500000 0.500000 0.000000
#
# Coordination Sequence:
#
# PCOD9046957 Si02
#       8
#     2   2   2   2   2   2   2   2
#     4  11  25  44  69 100 135 180 230 286 338 412
#     4  11  26  43  67 101 141 177 229 281 338 412
#     4  10  24  43  69  98 136 178 228 279 336 410
#     4  10  24  44  69  98 135 180 227 278 341 405
#     4  11  26  43  68 102 138 180 227 281 344 406
#     4  11  24  42  68 101 135 179 229 279 343 411
#     4  11  24  43  69  98 138 177 227 284 341 409
#     4  11  25  44  70  99 135 179 234 279 346 408
#
# _framework density 24.950016000000002
#
# number of rings (size 3 to 8) (size 9 to 14) (size 15 to 20)
#    0.000    1.250    0.000    3.750   10.500   11.500 
#    0.000    0.000    0.000    0.000    0.000    0.000 
#    0.000    0.000    0.000    0.000    0.000    0.000 
#
# Total GULP energy -89577.215280 kJ/mol
# GULP energy per Si atom -5598.575955 kJ/mol
# Density = 2.489323 g / cm^3
# Si number density = 24.950016 Si / 1000 Ang^3
#
#
#
# Elastic Constant Matrix: (Units=GPa)
#
#
# Indices 1 2 3 4 5 6 
#
# 1 131.2949 24.1575 23.0840 -10.2812 10.5790 2.3100
# 2 24.1575 80.2580 20.5600 -1.9862 16.3313 -3.5226
# 3 23.0840 20.5600 81.2672 -12.2444 4.3159 -9.1625
# 4 -10.2812 -1.9862 -12.2444 33.5265 -6.3642 -8.7055
# 5 10.5790 16.3313 4.3159 -6.3642 29.0080 -5.2608
# 6 2.3100 -3.5226 -9.1625 -8.7055 -5.2608 28.5826
#
#
#
# Elastic Compliance Matrix: (Units=1/GPa)
#
#
# Indices 1 2 3 4 5 6 
#
# 1 0.008533 -0.001738 -0.001897 0.001062 -0.001897 -0.001538
# 2 -0.001738 0.015488 -0.003594 -0.002942 -0.008479 -0.001560
# 3 -0.001897 -0.003594 0.015563 0.007520 0.003431 0.007621
# 4 0.001062 -0.002942 0.007520 0.039089 0.011630 0.016008
# 5 -0.001897 -0.008479 0.003431 0.011630 0.044133 0.011873
# 6 -0.001538 -0.001560 0.007621 0.016008 0.011873 0.044422
#
#
# Mechanical properties :
#
#
# Convention : Reuss Voigt Hill
#
# Bulk Modulus (GPa) = 39.79704 47.60257 43.69980
# Shear Modulus (GPa) = 26.30759 33.22465 29.76612
#
# Velocity S-wave (km/s) = 3.25069 3.65313 3.45777
# Velocity P-wave (km/s) = 5.48404 6.07573 5.78745
#
# Compressibility (1/GPa) = 0.02512750
#
# Stress axis : x y z
#
# Youngs Moduli (GPa) = 117.19639 64.56798 64.25499
#
# Poissons Ratio (x) = 0.11219 0.12188
# Poissons Ratio (y) = 0.20363 0.23090
# Poissons Ratio (z) = 0.22230 0.23203
#
# Static dielectric constant tensor:
#      x y z
#    x 2.034040 0.007900 -0.032380 
#    y 0.007900 1.952860 0.034960 
#    z -0.032380 0.034960 1.945400 
# 
# From -- ./inp_files/522573.got.cif
#   From: 2010.05.17/outbox.cif.g08.bks.cpg/sg2_262_cif.got.tgz:522573.got - 2010.06.03 11:33:40.
