data_PCOD9046869
_publ_section_title
;
Structure prediction by ZEFSAII (Michael W. Deem and Ramdas Pophale) SiO2 
 PCOD9046869
Probable space group: P -1
;
_chemical_formula_sum "Si O2"
_cell_formula_units_Z 16
_cell_length_a 18.788391
_cell_length_b 9.046867
_cell_length_c 6.176490
_cell_angle_alpha 68.113514
_cell_angle_beta 63.932432
_cell_angle_gamma 109.578582
_cell_volume 701.024973
_symmetry_space_group_name_H-M "P -1"
_symmetry_group_IT_number 2
_symmetry_cell_setting 'triclinic'
loop_
_space_group_symop_operation_xyz
x,y,z
-x,-y,-z
loop_
_atom_site_type_symbol
_atom_site_label
_atom_site_fract_x
_atom_site_fract_y
_atom_site_fract_z
Si Si1 0.691036 0.267383 0.580915
Si Si2 0.661795 0.970742 0.484522
Si Si3 0.844069 0.618748 0.865077
Si Si4 0.640292 0.496513 0.780312
Si Si5 0.497003 0.419260 0.316931
Si Si6 0.038691 0.711496 0.727349
Si Si7 0.792449 0.871823 0.547694
Si Si8 0.176720 0.705201 0.235505
O O1 0.628189 0.078175 0.614381
O O2 0.636316 0.318817 0.786785
O O3 0.761085 0.249039 0.654065
O O4 0.759675 0.452782 0.228308
O O5 0.581214 0.811842 0.511507
O O6 0.698771 0.880938 0.655398
O O7 0.756908 0.131976 0.125771
O O8 0.819713 0.768588 0.742366
O O9 0.848572 0.498507 0.721687
O O10 0.947906 0.718195 0.792205
O O11 0.553423 0.493301 0.790850
O O12 0.749545 0.706038 0.500853
O O13 0.603534 0.470650 0.090104
O O14 0.500000 0.500000 0.500000
O O15 0.090169 0.715744 0.431605
O O16 0.115155 0.896778 0.680442
O O17 0.000000 0.500000 0.000000
#
# Coordination Sequence:
#
# PCOD9046869 Si02
#       8
#     2   2   2   2   2   2   2   2
#     4  11  22  45  69  97 140 180 234 274 335 411
#     4  10  24  43  69 103 132 186 225 277 347 403
#     4  11  24  41  66 100 133 183 232 283 334 396
#     4  10  24  43  68  99 137 180 220 283 341 404
#     4  10  24  43  69 104 138 171 224 282 342 409
#     4  12  23  43  66  97 140 179 231 287 333 402
#     4  11  23  42  67  98 134 179 228 276 349 396
#     4  11  22  43  68  94 138 182 225 281 343 400
#
# _framework density 22.823726000000001
#
# number of rings (size 3 to 8) (size 9 to 14) (size 15 to 20)
#    0.000    1.250    3.750    1.500    3.500    2.500 
#    0.000    4.375    0.000    0.000    0.000    0.000 
#    0.000    0.000    0.000    0.000    0.000    0.000 
#
# Total GULP energy -89168.949588 kJ/mol
# GULP energy per Si atom -5573.059349 kJ/mol
# Density = 2.277178 g / cm^3
# Si number density = 22.823726 Si / 1000 Ang^3
#
#
#
# Elastic Constant Matrix: (Units=GPa)
#
#
# Indices 1 2 3 4 5 6 
#
# 1 98.5036 44.8143 28.4338 -10.8066 3.5722 6.8214
# 2 44.8143 172.4198 46.0939 1.0033 -13.0326 4.1308
# 3 28.4338 46.0939 58.7630 0.1202 -3.7222 -13.2000
# 4 -10.8066 1.0033 0.1202 34.6053 -2.5823 -0.7652
# 5 3.5722 -13.0326 -3.7222 -2.5823 23.9702 -3.1681
# 6 6.8214 4.1308 -13.2000 -0.7652 -3.1681 34.8506
#
#
#
# Elastic Compliance Matrix: (Units=1/GPa)
#
#
# Indices 1 2 3 4 5 6 
#
# 1 0.013988 -0.002109 -0.006603 0.003997 -0.004528 -0.005313
# 2 -0.002109 0.008209 -0.005743 -0.000670 0.003492 -0.002433
# 3 -0.006603 -0.005743 0.027837 -0.001431 0.003725 0.012824
# 4 0.003997 -0.000670 -0.001431 0.030313 0.002031 -0.000395
# 5 -0.004528 0.003492 0.003725 0.002031 0.045895 0.006100
# 6 -0.005313 -0.002433 0.012824 -0.000395 0.006100 0.035425
#
#
# Mechanical properties :
#
#
# Convention : Reuss Voigt Hill
#
# Bulk Modulus (GPa) = 47.33694 63.15226 55.24460
# Shear Modulus (GPa) = 25.30148 32.70818 29.00483
#
# Velocity S-wave (km/s) = 3.33312 3.78971 3.56872
# Velocity P-wave (km/s) = 5.96642 6.84681 6.42172
#
# Compressibility (1/GPa) = 0.02112515
#
# Stress axis : x y z
#
# Youngs Moduli (GPa) = 71.49110 121.81266 35.92400
#
# Poissons Ratio (x) = 0.25687 0.23719
# Poissons Ratio (y) = 0.15076 0.20631
# Poissons Ratio (z) = 0.47202 0.69956
#
# Static dielectric constant tensor:
#      x y z
#    x 1.874200 0.062190 0.125620 
#    y 0.062190 2.008380 0.243850 
#    z 0.125620 0.243850 2.527640 
# 
# From -- ./inp_files/106492.got.cif
#   From: 2010.05.17/outbox.cif.g08.bks.cpg/sg2_54_cif.got.tgz:106492.got - 2010.06.03 11:33:40.
