data_PCOD9046615
_publ_section_title
;
Structure prediction by ZEFSAII (Michael W. Deem and Ramdas Pophale) SiO2 
 PCOD9046615
Probable space group: P -1
;
_chemical_formula_sum "Si O2"
_cell_formula_units_Z 16
_cell_length_a 11.949468
_cell_length_b 13.536757
_cell_length_c 11.691006
_cell_angle_alpha 20.942311
_cell_angle_beta 80.057285
_cell_angle_gamma 79.177197
_cell_volume 663.889809
_symmetry_space_group_name_H-M "P -1"
_symmetry_group_IT_number 2
_symmetry_cell_setting 'triclinic'
loop_
_space_group_symop_operation_xyz
x,y,z
-x,-y,-z
loop_
_atom_site_type_symbol
_atom_site_label
_atom_site_fract_x
_atom_site_fract_y
_atom_site_fract_z
Si Si1 0.031960 0.931901 0.437368
Si Si2 0.472118 0.418634 0.909323
Si Si3 0.274562 0.096811 0.234050
Si Si4 0.096454 0.511883 0.184013
Si Si5 0.426637 0.783629 0.313210
Si Si6 0.918189 0.748355 0.291208
Si Si7 0.320577 0.714605 0.817748
Si Si8 0.275385 0.315410 0.790702
O O1 0.167591 0.915354 0.420732
O O2 0.000000 0.000000 0.500000
O O3 0.980627 0.655436 0.704554
O O4 0.971090 0.192093 0.096465
O O5 0.492029 0.619156 0.581807
O O6 0.383366 0.582284 0.835838
O O7 0.408791 0.168078 0.138219
O O8 0.582603 0.306976 0.079436
O O9 0.275129 0.021106 0.453612
O O10 0.229630 0.368667 0.870136
O O11 0.117205 0.325997 0.494312
O O12 0.214297 0.566673 0.043630
O O13 0.363718 0.552732 0.500374
O O14 0.500000 0.000000 0.000000
O O15 0.329721 0.001304 0.147283
O O16 0.809122 0.739181 0.237075
O O17 0.000000 0.500000 0.500000
O O18 0.000000 0.000000 0.000000
#
# Coordination Sequence:
#
# PCOD9046615 Si02
#       8
#     2   2   2   2   2   2   2   2
#     4  12  25  43  71 106 144 178 233 287 354 421
#     4  10  24  43  66 100 137 185 226 286 352 419
#     4  11  22  41  69  96 134 177 228 282 348 419
#     4  12  27  45  71 108 139 189 230 294 355 423
#     4  11  24  44  68 100 131 179 235 286 343 412
#     4  12  26  49  70 103 143 186 238 290 356 422
#     4  11  23  43  66  99 141 178 229 283 358 420
#     4  11  24  43  70  97 131 180 229 285 346 406
#
# _framework density 24.100386
#
# number of rings (size 3 to 8) (size 9 to 14) (size 15 to 20)
#    0.000    0.750    2.500    4.875    3.500    1.000 
#    0.000    0.000    0.000    0.000    0.000    0.000 
#    0.000    0.000    0.000    0.000    0.000    0.000 
#
# Total GULP energy -89172.072441 kJ/mol
# GULP energy per Si atom -5573.254528 kJ/mol
# Density = 2.404553 g / cm^3
# Si number density = 24.100386 Si / 1000 Ang^3
#
#
#
# Elastic Constant Matrix: (Units=GPa)
#
#
# Indices 1 2 3 4 5 6 
#
# 1 137.7505 48.8234 59.5345 18.4266 -27.8212 39.1604
# 2 48.8234 91.2255 63.8895 8.8633 -8.5141 27.0510
# 3 59.5345 63.8895 166.7941 30.5092 -35.6891 28.5678
# 4 18.4266 8.8633 30.5092 56.7873 -1.2839 5.9497
# 5 -27.8212 -8.5141 -35.6891 -1.2839 51.3545 6.6573
# 6 39.1604 27.0510 28.5678 5.9497 6.6573 46.3653
#
#
#
# Elastic Compliance Matrix: (Units=1/GPa)
#
#
# Indices 1 2 3 4 5 6 
#
# 1 0.013192 -0.003393 0.000676 -0.002835 0.008333 -0.010411
# 2 -0.003393 0.017456 -0.005664 0.001756 -0.002355 -0.003716
# 3 0.000676 -0.005664 0.011245 -0.004709 0.007734 -0.004701
# 4 -0.002835 0.001756 -0.004709 0.020451 -0.004300 0.002265
# 5 0.008333 -0.002355 0.007734 -0.004300 0.030715 -0.014287
# 6 -0.010411 -0.003716 -0.004701 0.002265 -0.014287 0.037187
#
#
# Mechanical properties :
#
#
# Convention : Reuss Voigt Hill
#
# Bulk Modulus (GPa) = 39.79198 82.25165 61.02181
# Shear Modulus (GPa) = 32.17799 45.80293 38.99046
#
# Velocity S-wave (km/s) = 3.65796 4.36421 4.02660
# Velocity P-wave (km/s) = 5.86410 7.71997 6.85513
#
# Compressibility (1/GPa) = 0.02513069
#
# Stress axis : x y z
#
# Youngs Moduli (GPa) = 75.80324 57.28674 88.92804
#
# Poissons Ratio (x) = 0.19439 -0.06009
# Poissons Ratio (y) = 0.25722 0.50367
# Poissons Ratio (z) = -0.05122 0.32446
#
# Static dielectric constant tensor:
#      x y z
#    x 1.985390 -0.157900 0.103660 
#    y -0.157900 2.004560 -0.140170 
#    z 0.103660 -0.140170 2.008870 
# 
# From -- ./inp_files/433630.got.cif
#   From: 2010.05.17/outbox.cif.g08.bks.cpg/sg2_217_cif.got.tgz:433630.got - 2010.06.03 11:33:40.
