data_PCOD9046138
_publ_section_title
;
Structure prediction by ZEFSAII (Michael W. Deem and Ramdas Pophale) SiO2 
 PCOD9046138
Probable space group: P -1
;
_chemical_formula_sum "Si O2"
_cell_formula_units_Z 12
_cell_length_a 12.187814
_cell_length_b 8.920138
_cell_length_c 9.658299
_cell_angle_alpha 149.549778
_cell_angle_beta 105.477396
_cell_angle_gamma 82.718480
_cell_volume 501.239121
_symmetry_space_group_name_H-M "P -1"
_symmetry_group_IT_number 2
_symmetry_cell_setting 'triclinic'
loop_
_space_group_symop_operation_xyz
x,y,z
-x,-y,-z
loop_
_atom_site_type_symbol
_atom_site_label
_atom_site_fract_x
_atom_site_fract_y
_atom_site_fract_z
Si Si1 0.577341 0.250849 0.823213
Si Si2 0.015167 0.929361 0.261176
Si Si3 0.020237 0.421043 0.287325
Si Si4 0.202935 0.624237 0.194182
Si Si5 0.721723 0.432822 0.527534
Si Si6 0.392693 0.019390 0.079747
O O1 0.703343 0.375252 0.894685
O O2 0.593355 0.120525 0.877455
O O3 0.500000 0.000000 0.500000
O O4 0.500000 0.500000 0.000000
O O5 0.993686 0.264047 0.538077
O O6 0.873281 0.127001 0.663580
O O7 0.044805 0.845948 0.045936
O O8 0.897212 0.683630 0.066258
O O9 0.150239 0.368133 0.285468
O O10 0.000000 0.500000 0.500000
O O11 0.277442 0.689298 0.413117
O O12 0.630788 0.646205 0.648211
O O13 0.710587 0.181423 0.205315
O O14 0.500000 0.000000 0.000000
#
# Coordination Sequence:
#
# PCOD9046138 Si02
#       6
#     2   2   2   2   2   2
#     4  12  27  45  70 101 134 180 229 289 339 408
#     4  10  24  42  68 101 132 195 218 286 335 409
#     4  11  24  40  67 100 144 171 232 273 345 405
#     4  10  24  45  71  98 144 176 240 272 347 409
#     4  11  24  42  66  98 130 182 212 282 335 398
#     4  12  25  44  69  96 134 174 229 275 343 399
#
# _framework density 23.940670000000001
#
# number of rings (size 3 to 8) (size 9 to 14) (size 15 to 20)
#    0.000    1.000    0.000    6.000    4.667   11.333 
#    0.000    0.000    0.000    0.000    0.000    0.000 
#    0.000    0.000    0.000    0.000    0.000    0.000 
#
# Total GULP energy -67135.733788 kJ/mol
# GULP energy per Si atom -5594.644482 kJ/mol
# Density = 2.388618 g / cm^3
# Si number density = 23.940670 Si / 1000 Ang^3
#
#
#
# Elastic Constant Matrix: (Units=GPa)
#
#
# Indices 1 2 3 4 5 6 
#
# 1 117.2349 76.1578 18.1526 5.6852 -33.4178 -3.7761
# 2 76.1578 136.4458 44.0581 -35.9401 -6.7037 3.9847
# 3 18.1526 44.0581 135.1745 -4.0490 -18.0957 -7.4093
# 4 5.6852 -35.9401 -4.0490 56.6939 -0.4154 -14.7248
# 5 -33.4178 -6.7037 -18.0957 -0.4154 35.2111 -8.5580
# 6 -3.7761 3.9847 -7.4093 -14.7248 -8.5580 33.8608
#
#
#
# Elastic Compliance Matrix: (Units=1/GPa)
#
#
# Indices 1 2 3 4 5 6 
#
# 1 0.033262 -0.023675 0.007829 -0.014900 0.033379 0.010165
# 2 -0.023675 0.026805 -0.008455 0.017023 -0.022981 -0.006050
# 3 0.007829 -0.008455 0.011041 -0.003724 0.012890 0.005922
# 4 -0.014900 0.017023 -0.003724 0.031226 -0.010904 0.006343
# 5 0.033379 -0.022981 0.012890 -0.010904 0.067437 0.021550
# 6 0.010165 -0.006050 0.005922 0.006343 0.021550 0.040879
#
#
# Mechanical properties :
#
#
# Convention : Reuss Voigt Hill
#
# Bulk Modulus (GPa) = 44.43434 73.95469 59.19452
# Shear Modulus (GPa) = 18.74390 41.85227 30.29808
#
# Velocity S-wave (km/s) = 2.80113 4.18564 3.56131
# Velocity P-wave (km/s) = 5.39094 7.37003 6.45676
#
# Compressibility (1/GPa) = 0.02250512
#
# Stress axis : x y z
#
# Youngs Moduli (GPa) = 30.06466 37.30685 90.57052
#
# Poissons Ratio (x) = 0.88323 -0.70907
# Poissons Ratio (y) = 0.71177 0.76582
# Poissons Ratio (z) = -0.23537 0.31545
#
# Static dielectric constant tensor:
#      x y z
#    x 2.017130 0.048270 0.137310 
#    y 0.048270 2.007000 -0.058000 
#    z 0.137310 -0.058000 1.972390 
# 
# From -- ./inp_files/212875.got.cif
#   From: 2010.05.17/outbox.cif.g08.bks.cpg/sg2_107_cif.got.tgz:212875.got - 2010.06.03 11:33:40.
