data_PCOD9046598
_publ_section_title
;
Structure prediction by ZEFSAII (Michael W. Deem and Ramdas Pophale) SiO2 
 PCOD9046598
Probable space group: P -1
;
_chemical_formula_sum "Si O2"
_cell_formula_units_Z 14
_cell_length_a 5.089166
_cell_length_b 18.821217
_cell_length_c 6.963967
_cell_angle_alpha 113.187429
_cell_angle_beta 74.345064
_cell_angle_gamma 103.843238
_cell_volume 583.705779
_symmetry_space_group_name_H-M "P -1"
_symmetry_group_IT_number 2
_symmetry_cell_setting 'triclinic'
loop_
_space_group_symop_operation_xyz
x,y,z
-x,-y,-z
loop_
_atom_site_type_symbol
_atom_site_label
_atom_site_fract_x
_atom_site_fract_y
_atom_site_fract_z
Si Si1 0.341276 0.404090 0.157585
Si Si2 0.759678 0.152478 0.898195
Si Si3 0.379945 0.358601 0.658594
Si Si4 0.163843 0.710081 0.711330
Si Si5 0.831044 0.914494 0.965488
Si Si6 0.100068 0.499223 0.759994
Si Si7 0.016663 0.194516 0.492383
O O1 0.631098 0.434615 0.230850
O O2 0.138513 0.329998 0.201399
O O3 0.152999 0.473835 0.275912
O O4 0.410069 0.388690 0.903731
O O5 0.706013 0.237461 0.079647
O O6 0.011701 0.129029 0.948599
O O7 0.486405 0.090948 0.919493
O O8 0.839070 0.159582 0.668763
O O9 0.656824 0.349971 0.481786
O O10 0.207238 0.416193 0.638195
O O11 0.216620 0.271064 0.605746
O O12 0.152674 0.771126 0.606123
O O13 0.835678 0.868842 0.714169
O O14 0.000000 0.000000 0.000000
O O15 0.000000 0.500000 0.000000
#
# Coordination Sequence:
#
# PCOD9046598 Si02
#       7
#     2   2   2   2   2   2   2
#     4  11  25  44  67  95 135 182 234 293 348 396
#     4  11  25  47  72 105 143 180 224 279 341 405
#     4  11  23  42  68  92 138 182 231 288 344 407
#     4  11  26  41  70 102 136 181 239 287 337 411
#     4  11  26  48  75 109 142 175 226 277 333 415
#     4  10  24  43  65  95 133 182 233 293 351 399
#     4  11  26  43  72 102 140 185 228 275 346 407
#
# _framework density 23.984686
#
# number of rings (size 3 to 8) (size 9 to 14) (size 15 to 20)
#    0.000    1.143    2.857    2.143   10.000    2.286 
#    0.000    0.000    0.000    0.000    0.000    0.000 
#    0.000    0.000    0.000    0.000    0.000    0.000 
#
# Total GULP energy -78430.679094 kJ/mol
# GULP energy per Si atom -5602.191364 kJ/mol
# Density = 2.393010 g / cm^3
# Si number density = 23.984686 Si / 1000 Ang^3
#
#
#
# Elastic Constant Matrix: (Units=GPa)
#
#
# Indices 1 2 3 4 5 6 
#
# 1 58.7633 -9.4134 11.4020 -16.1279 -5.0370 11.1135
# 2 -9.4134 95.8459 26.6439 -14.8906 8.6691 20.5537
# 3 11.4020 26.6439 107.5598 -38.6078 6.7399 -8.4361
# 4 -16.1279 -14.8906 -38.6078 43.4055 1.5190 -5.4888
# 5 -5.0370 8.6691 6.7399 1.5190 28.7703 -5.4745
# 6 11.1135 20.5537 -8.4361 -5.4888 -5.4745 42.0265
#
#
#
# Elastic Compliance Matrix: (Units=1/GPa)
#
#
# Indices 1 2 3 4 5 6 
#
# 1 0.021725 0.005290 -0.001552 0.007524 0.000736 -0.007565
# 2 0.005290 0.014921 -0.003768 0.002668 -0.004676 -0.009713
# 3 -0.001552 -0.003768 0.015775 0.013105 -0.002222 0.006842
# 4 0.007524 0.002668 0.013105 0.039038 -0.003870 0.003930
# 5 0.000736 -0.004676 -0.002222 -0.003870 0.038184 0.006115
# 6 -0.007565 -0.009713 0.006842 0.003930 0.006115 0.033228
#
#
# Mechanical properties :
#
#
# Convention : Reuss Voigt Hill
#
# Bulk Modulus (GPa) = 19.09871 35.49267 27.29569
# Shear Modulus (GPa) = 27.71848 38.40958 33.06403
#
# Velocity S-wave (km/s) = 3.40321 4.00612 3.71691
# Velocity P-wave (km/s) = 4.83969 6.01904 5.46129
#
# Compressibility (1/GPa) = 0.05235956
#
# Stress axis : x y z
#
# Youngs Moduli (GPa) = 46.03051 67.02074 63.39253
#
# Poissons Ratio (x) = -0.35452 0.09839
# Poissons Ratio (y) = -0.24349 0.23886
# Poissons Ratio (z) = 0.07144 0.25253
#
# Static dielectric constant tensor:
#      x y z
#    x 1.938520 -0.012310 0.002610 
#    y -0.012310 1.932110 0.025820 
#    z 0.002610 0.025820 1.908190 
# 
# From -- ./inp_files/142310.got.cif
#   From: 2010.05.17/outbox.cif.g08.bks.cpg/sg2_72_cif.got.tgz:142310.got - 2010.06.03 11:33:40.
