data_PCOD9046020
_publ_section_title
;
Structure prediction by ZEFSAII (Michael W. Deem and Ramdas Pophale) SiO2 
 PCOD9046020
Probable space group: P -1
;
_chemical_formula_sum "Si O2"
_cell_formula_units_Z 14
_cell_length_a 15.271448
_cell_length_b 12.480520
_cell_length_c 12.226052
_cell_angle_alpha 61.123295
_cell_angle_beta 118.574881
_cell_angle_gamma 161.976930
_cell_volume 629.761395
_symmetry_space_group_name_H-M "P -1"
_symmetry_group_IT_number 2
_symmetry_cell_setting 'triclinic'
loop_
_space_group_symop_operation_xyz
x,y,z
-x,-y,-z
loop_
_atom_site_type_symbol
_atom_site_label
_atom_site_fract_x
_atom_site_fract_y
_atom_site_fract_z
Si Si1 0.270817 0.155041 0.378846
Si Si2 0.155498 0.054882 0.597340
Si Si3 0.574340 0.212194 0.995431
Si Si4 0.560762 0.231590 0.223894
Si Si5 0.145760 0.187102 0.874961
Si Si6 0.152683 0.950611 0.871397
Si Si7 0.131782 0.759703 0.380734
O O1 0.155640 0.987907 0.513848
O O2 0.535179 0.546425 0.371639
O O3 0.330770 0.091478 0.392950
O O4 0.069628 0.000272 0.251755
O O5 0.024728 0.840285 0.730845
O O6 0.000000 0.000000 0.500000
O O7 0.513254 0.126173 0.128437
O O8 0.901143 0.612979 0.964526
O O9 0.500000 0.000000 0.000000
O O10 0.388342 0.119118 0.903124
O O11 0.603040 0.426763 0.148293
O O12 0.860333 0.523712 0.296673
O O13 0.312216 0.913658 0.313849
O O14 0.254174 0.188272 0.880202
O O15 0.000000 0.000000 0.000000
O O16 0.000000 0.500000 0.500000
#
# Coordination Sequence:
#
# PCOD9046020 Si02
#       7
#     2   2   2   2   2   2   2
#     4  10  24  42  66 105 144 180 231 296 351 421
#     4  11  23  42  68 100 146 178 232 292 356 425
#     4  12  28  47  68 100 142 185 241 286 348 428
#     4  11  25  45  70 102 142 177 233 306 348 415
#     4  11  22  43  73 108 142 180 234 299 364 423
#     4  12  25  45  71 104 135 190 233 286 365 415
#     4  11  25  46  70 101 136 188 238 283 354 419
#
# _framework density 22.230640999999999
#
# number of rings (size 3 to 8) (size 9 to 14) (size 15 to 20)
#    0.000    0.857    2.857    3.429    6.000    4.000 
#    0.000    0.000    0.000    0.000    0.000    0.000 
#    0.000    0.000    0.000    0.000    0.000    0.000 
#
# Total GULP energy -78247.480180 kJ/mol
# GULP energy per Si atom -5589.105727 kJ/mol
# Density = 2.218004 g / cm^3
# Si number density = 22.230641 Si / 1000 Ang^3
#
#
#
# Elastic Constant Matrix: (Units=GPa)
#
#
# Indices 1 2 3 4 5 6 
#
# 1 135.2050 36.4922 46.4668 -0.9511 -14.3375 -23.6389
# 2 36.4922 58.1786 21.7143 -9.5697 -4.2371 -0.1222
# 3 46.4668 21.7143 120.5925 -7.9922 -27.5750 -9.4365
# 4 -0.9511 -9.5697 -7.9922 48.5292 4.4309 -2.4097
# 5 -14.3375 -4.2371 -27.5750 4.4309 56.9821 -2.8766
# 6 -23.6389 -0.1222 -9.4365 -2.4097 -2.8766 36.3842
#
#
#
# Elastic Compliance Matrix: (Units=1/GPa)
#
#
# Indices 1 2 3 4 5 6 
#
# 1 0.011235 -0.006222 -0.002389 -0.001217 0.001641 0.006708
# 2 -0.006222 0.022376 -0.002038 0.003867 -0.001408 -0.004351
# 3 -0.002389 -0.002038 0.010801 0.001004 0.004480 0.001663
# 4 -0.001217 0.003867 0.001004 0.021658 -0.001175 0.000824
# 5 0.001641 -0.001408 0.004480 -0.001175 0.020306 0.003751
# 6 0.006708 -0.004351 0.001663 0.000824 0.003751 0.032610
#
#
# Mechanical properties :
#
#
# Convention : Reuss Voigt Hill
#
# Bulk Modulus (GPa) = 43.26334 58.14698 50.70516
# Shear Modulus (GPa) = 33.78609 42.33260 38.05935
#
# Velocity S-wave (km/s) = 3.90269 4.36850 4.14215
# Velocity P-wave (km/s) = 6.30962 7.18736 6.76274
#
# Compressibility (1/GPa) = 0.02311426
#
# Stress axis : x y z
#
# Youngs Moduli (GPa) = 89.00874 44.69042 92.58404
#
# Poissons Ratio (x) = 0.27806 0.22120
# Poissons Ratio (y) = 0.55380 0.18867
# Poissons Ratio (z) = 0.21265 0.09107
#
# Static dielectric constant tensor:
#      x y z
#    x 1.886730 -0.016870 -0.023030 
#    y -0.016870 1.844670 0.003130 
#    z -0.023030 0.003130 1.869200 
# 
# From -- ./inp_files/82595.got.cif
#   From: 2010.05.17/outbox.cif.g08.bks.cpg/sg2_42_cif.got.tgz:82595.got - 2010.06.03 11:33:40.
