data_PCOD9046337
_publ_section_title
;
Structure prediction by ZEFSAII (Michael W. Deem and Ramdas Pophale) SiO2 
 PCOD9046337
Probable space group: P -1
;
_chemical_formula_sum "Si O2"
_cell_formula_units_Z 16
_cell_length_a 16.283388
_cell_length_b 12.109987
_cell_length_c 5.259034
_cell_angle_alpha 69.105648
_cell_angle_beta 80.772142
_cell_angle_gamma 120.046006
_cell_volume 761.443014
_symmetry_space_group_name_H-M "P -1"
_symmetry_group_IT_number 2
_symmetry_cell_setting 'triclinic'
loop_
_space_group_symop_operation_xyz
x,y,z
-x,-y,-z
loop_
_atom_site_type_symbol
_atom_site_label
_atom_site_fract_x
_atom_site_fract_y
_atom_site_fract_z
Si Si1 0.329048 0.698105 0.814517
Si Si2 0.169967 0.150918 0.890641
Si Si3 0.147206 0.377362 0.003504
Si Si4 0.534543 0.167033 0.859685
Si Si5 0.308278 0.063343 0.047731
Si Si6 0.030471 0.125552 0.583434
Si Si7 0.226538 0.866201 0.750117
Si Si8 0.000496 0.581148 0.185032
O O1 0.242982 0.522412 0.971762
O O2 0.411445 0.756046 0.497201
O O3 0.272224 0.775629 0.742308
O O4 0.386081 0.747645 0.016547
O O5 0.169812 0.267594 0.969482
O O6 0.139556 0.179976 0.611249
O O7 0.269412 0.158971 0.902588
O O8 0.071338 0.973844 0.109074
O O9 0.101135 0.423194 0.773634
O O10 0.051290 0.269448 0.332614
O O11 0.500000 0.000000 0.000000
O O12 0.430662 0.154314 0.965963
O O13 0.247931 0.966537 0.410724
O O14 0.283238 0.961973 0.896461
O O15 0.000000 0.000000 0.500000
O O16 0.105546 0.747993 0.977044
O O17 0.000000 0.500000 0.500000
O O18 0.000000 0.500000 0.000000
#
# Coordination Sequence:
#
# PCOD9046337 Si02
#       8
#     2   2   2   2   2   2   2   2
#     4  12  25  44  71 101 134 182 223 283 358 405
#     4  10  24  42  70  98 134 186 228 274 337 402
#     4  11  26  43  67  97 147 179 220 279 338 417
#     4  12  24  46  69 101 132 176 234 291 347 398
#     4  12  26  43  72  98 134 173 238 292 331 402
#     4   9  21  43  65  96 130 184 229 264 325 407
#     4  12  24  42  68 103 136 175 226 281 344 406
#     4  12  27  41  63 102 142 177 215 263 341 417
#
# _framework density 21.012733999999998
#
# number of rings (size 3 to 8) (size 9 to 14) (size 15 to 20)
#    0.000    0.750    3.750    2.625   14.000    0.000 
#    0.000    1.250    0.000    0.000    0.000    0.000 
#    0.000    0.000    0.000    0.000    0.000    0.000 
#
# Total GULP energy -89431.788585 kJ/mol
# GULP energy per Si atom -5589.486787 kJ/mol
# Density = 2.096491 g / cm^3
# Si number density = 21.012734 Si / 1000 Ang^3
#
#
#
# Elastic Constant Matrix: (Units=GPa)
#
#
# Indices 1 2 3 4 5 6 
#
# 1 126.8874 38.7705 1.3460 -6.8197 17.6304 0.6526
# 2 38.7705 120.8927 37.5433 -0.5324 10.1696 8.3365
# 3 1.3460 37.5433 81.0554 11.4165 7.2344 -1.3776
# 4 -6.8197 -0.5324 11.4165 32.1032 5.1333 4.7828
# 5 17.6304 10.1696 7.2344 5.1333 31.0081 1.4763
# 6 0.6526 8.3365 -1.3776 4.7828 1.4763 30.2475
#
#
#
# Elastic Compliance Matrix: (Units=1/GPa)
#
#
# Indices 1 2 3 4 5 6 
#
# 1 0.009667 -0.003150 0.001461 0.002220 -0.005201 0.000629
# 2 -0.003150 0.011308 -0.005473 0.002132 -0.000823 -0.003595
# 3 0.001461 -0.005473 0.015864 -0.005581 -0.001964 0.003178
# 4 0.002220 0.002132 -0.005581 0.035566 -0.006251 -0.006208
# 5 -0.005201 -0.000823 -0.001964 -0.006251 0.036997 -0.000568
# 6 0.000629 -0.003595 0.003178 -0.006208 -0.000568 0.035192
#
#
# Mechanical properties :
#
#
# Convention : Reuss Voigt Hill
#
# Bulk Modulus (GPa) = 44.41792 53.79501 49.10646
# Shear Modulus (GPa) = 30.04399 35.41681 32.73040
#
# Velocity S-wave (km/s) = 3.78537 4.10993 3.95098
# Velocity P-wave (km/s) = 6.34743 6.94109 6.65089
#
# Compressibility (1/GPa) = 0.02251344
#
# Stress axis : x y z
#
# Youngs Moduli (GPa) = 103.44776 88.43140 63.03753
#
# Poissons Ratio (x) = 0.27854 -0.09208
# Poissons Ratio (y) = 0.32584 0.34503
# Poissons Ratio (z) = -0.15110 0.48402
#
# Static dielectric constant tensor:
#      x y z
#    x 1.790310 -0.016410 -0.015620 
#    y -0.016410 1.738100 0.029330 
#    z -0.015620 0.029330 1.843230 
# 
# From -- ./inp_files/94451.got.cif
#   From: 2010.05.17/outbox.cif.g08.bks.cpg/sg2_48_cif.got.tgz:94451.got - 2010.06.03 11:33:40.
