data_PCOD9046705
_publ_section_title
;
Structure prediction by ZEFSAII (Michael W. Deem and Ramdas Pophale) SiO2 
 PCOD9046705
Probable space group: P -1
;
_chemical_formula_sum "Si O2"
_cell_formula_units_Z 14
_cell_length_a 9.668567
_cell_length_b 20.753088
_cell_length_c 5.502933
_cell_angle_alpha 117.836977
_cell_angle_beta 68.015131
_cell_angle_gamma 145.348565
_cell_volume 555.060366
_symmetry_space_group_name_H-M "P -1"
_symmetry_group_IT_number 2
_symmetry_cell_setting 'triclinic'
loop_
_space_group_symop_operation_xyz
x,y,z
-x,-y,-z
loop_
_atom_site_type_symbol
_atom_site_label
_atom_site_fract_x
_atom_site_fract_y
_atom_site_fract_z
Si Si1 0.422960 0.737947 0.461164
Si Si2 0.863364 0.632087 0.131764
Si Si3 0.884870 0.985295 0.799681
Si Si4 0.503651 0.385474 0.660515
Si Si5 0.904932 0.523133 0.294237
Si Si6 0.709362 0.062135 0.162650
Si Si7 0.354331 0.832738 0.293215
O O1 0.602184 0.849622 0.722674
O O2 0.523076 0.694605 0.291254
O O3 0.423044 0.785178 0.297560
O O4 0.134211 0.618270 0.493980
O O5 0.738774 0.662228 0.301389
O O6 0.868442 0.584968 0.287411
O O7 0.145483 0.746677 0.076621
O O8 0.697723 0.520052 0.864976
O O9 0.897138 0.078091 0.952551
O O10 0.000000 0.000000 0.500000
O O11 0.000000 0.000000 0.000000
O O12 0.643304 0.405570 0.373146
O O13 0.000000 0.500000 0.000000
O O14 0.589719 0.966099 0.283806
O O15 0.775493 0.163615 0.418629
O O16 0.500000 0.000000 0.000000
#
# Coordination Sequence:
#
# PCOD9046705 Si02
#       7
#     2   2   2   2   2   2   2
#     4  11  24  45  70 107 135 197 240 303 369 436
#     4  10  24  43  67 102 142 188 232 301 364 434
#     4  12  29  49  73 109 151 191 246 314 378 440
#     4  11  24  42  68 104 143 182 243 297 365 435
#     4  11  23  43  68 101 143 191 240 295 356 444
#     4  11  24  47  72 103 139 189 248 302 360 451
#     4  10  24  44  74 102 141 191 249 302 370 439
#
# _framework density 25.222484000000001
#
# number of rings (size 3 to 8) (size 9 to 14) (size 15 to 20)
#    0.000    1.143    2.857    1.714    6.000    2.286 
#    0.000    1.429    0.000    0.000    0.000    0.000 
#    0.000    0.000    0.000    0.000    0.000    0.000 
#
# Total GULP energy -78304.785013 kJ/mol
# GULP energy per Si atom -5593.198929 kJ/mol
# Density = 2.516508 g / cm^3
# Si number density = 25.222484 Si / 1000 Ang^3
#
#
#
# Elastic Constant Matrix: (Units=GPa)
#
#
# Indices 1 2 3 4 5 6 
#
# 1 214.6473 32.1247 49.8504 -15.8114 -23.7619 -6.1447
# 2 32.1247 75.6777 14.4739 -5.3629 -5.3160 2.4895
# 3 49.8504 14.4739 118.5156 1.0447 -20.6107 7.1863
# 4 -15.8114 -5.3629 1.0447 30.1220 5.4190 5.6032
# 5 -23.7619 -5.3160 -20.6107 5.4190 46.4835 16.9640
# 6 -6.1447 2.4895 7.1863 5.6032 16.9640 43.4526
#
#
#
# Elastic Compliance Matrix: (Units=1/GPa)
#
#
# Indices 1 2 3 4 5 6 
#
# 1 0.005737 -0.001794 -0.001990 0.002435 0.001425 0.000373
# 2 -0.001794 0.014352 -0.000808 0.001786 0.000683 -0.001439
# 3 -0.001990 -0.000808 0.010507 -0.001778 0.005122 -0.003743
# 4 0.002435 0.001786 -0.001778 0.035871 -0.002366 -0.003166
# 5 0.001425 0.000683 0.005122 -0.002366 0.029160 -0.011764
# 6 0.000373 -0.001439 -0.003743 -0.003166 -0.011764 0.028769
#
#
# Mechanical properties :
#
#
# Convention : Reuss Voigt Hill
#
# Bulk Modulus (GPa) = 46.70370 66.85982 56.78176
# Shear Modulus (GPa) = 35.53200 44.83772 40.18486
#
# Velocity S-wave (km/s) = 3.75739 4.22084 3.99584
# Velocity P-wave (km/s) = 6.11399 7.09363 6.62195
#
# Compressibility (1/GPa) = 0.02141158
#
# Stress axis : x y z
#
# Youngs Moduli (GPa) = 174.29312 69.67659 95.17431
#
# Poissons Ratio (x) = 0.12503 0.18943
# Poissons Ratio (y) = 0.31275 0.07687
# Poissons Ratio (z) = 0.34691 0.05628
#
# Static dielectric constant tensor:
#      x y z
#    x 1.944620 0.028200 -0.025080 
#    y 0.028200 2.116340 -0.015580 
#    z -0.025080 -0.015580 2.092560 
# 
# From -- ./inp_files/53700.got.cif
#   From: 2010.05.17/outbox.cif.g08.bks.cpg/sg2_27_cif.got.tgz:53700.got - 2010.06.03 11:33:40.
