data_PCOD9046678
_publ_section_title
;
Structure prediction by ZEFSAII (Michael W. Deem and Ramdas Pophale) SiO2 
 PCOD9046678
Probable space group: P -1
;
_chemical_formula_sum "Si O2"
_cell_formula_units_Z 12
_cell_length_a 18.649574
_cell_length_b 5.025704
_cell_length_c 9.996712
_cell_angle_alpha 98.128028
_cell_angle_beta 148.246175
_cell_angle_gamma 80.574379
_cell_volume 486.435417
_symmetry_space_group_name_H-M "P -1"
_symmetry_group_IT_number 2
_symmetry_cell_setting 'triclinic'
loop_
_space_group_symop_operation_xyz
x,y,z
-x,-y,-z
loop_
_atom_site_type_symbol
_atom_site_label
_atom_site_fract_x
_atom_site_fract_y
_atom_site_fract_z
Si Si1 0.276268 0.993383 0.314451
Si Si2 0.815256 0.551732 0.984872
Si Si3 0.353141 0.538247 0.900103
Si Si4 0.546445 0.699207 0.700840
Si Si5 0.073032 0.791648 0.499574
Si Si6 0.733214 0.013584 0.388255
O O1 0.218831 0.751401 0.120664
O O2 0.440914 0.961507 0.551225
O O3 0.254887 0.946633 0.433451
O O4 0.208080 0.277217 0.176777
O O5 0.704394 0.720347 0.917510
O O6 0.966453 0.577444 0.279341
O O7 0.375520 0.773508 0.846499
O O8 0.217088 0.658501 0.772865
O O9 0.307027 0.283236 0.728793
O O10 0.460837 0.438327 0.175269
O O11 0.500000 0.500000 0.500000
O O12 0.125720 0.931719 0.458882
O O13 0.000000 0.000000 0.500000
#
# Coordination Sequence:
#
# PCOD9046678 Si02
#       6
#     2   2   2   2   2   2
#     4  11  25  44  65  98 132 175 210 266 320 384
#     4  11  25  41  69  95 132 172 217 263 320 380
#     4  10  24  43  66  99 126 168 219 265 321 382
#     4  10  24  43  68  95 133 167 221 264 321 380
#     4  10  25  42  69  95 131 168 216 269 321 381
#     4  10  24  43  66  99 130 169 216 260 330 377
#
# _framework density 24.669253000000001
#
# number of rings (size 3 to 8) (size 9 to 14) (size 15 to 20)
#    1.000    0.667    0.000    2.500    7.000    6.667 
#    0.000    0.000    0.000    0.000    0.000    0.000 
#    0.000    0.000    0.000    0.000    0.000    0.000 
#
# Total GULP energy -67170.641614 kJ/mol
# GULP energy per Si atom -5597.553468 kJ/mol
# Density = 2.461310 g / cm^3
# Si number density = 24.669253 Si / 1000 Ang^3
#
#
#
# Elastic Constant Matrix: (Units=GPa)
#
#
# Indices 1 2 3 4 5 6 
#
# 1 114.2879 -2.9865 12.4996 13.0279 -4.8236 -1.5467
# 2 -2.9865 95.2134 6.6112 8.5245 -0.2328 6.8252
# 3 12.4996 6.6112 56.6689 -7.4351 -8.1415 -3.9218
# 4 13.0279 8.5245 -7.4351 30.4543 3.9375 -17.1699
# 5 -4.8236 -0.2328 -8.1415 3.9375 37.3987 -2.8952
# 6 -1.5467 6.8252 -3.9218 -17.1699 -2.8952 20.1234
#
#
#
# Elastic Compliance Matrix: (Units=1/GPa)
#
#
# Indices 1 2 3 4 5 6 
#
# 1 0.010959 0.003034 -0.005551 -0.014726 0.000711 -0.013730
# 2 0.003034 0.014490 -0.006657 -0.019882 -0.000658 -0.023037
# 3 -0.005551 -0.006657 0.026037 0.027508 0.004415 0.031011
# 4 -0.014726 -0.019882 0.027508 0.110954 0.000467 0.105709
# 5 0.000711 -0.000658 0.004415 0.000467 0.028171 0.005590
# 6 -0.013730 -0.023037 0.031011 0.105709 0.005590 0.153494
#
#
# Mechanical properties :
#
#
# Convention : Reuss Voigt Hill
#
# Bulk Modulus (GPa) = 30.17803 33.15765 31.66784
# Shear Modulus (GPa) = 13.38688 34.26500 23.82594
#
# Velocity S-wave (km/s) = 2.33202 3.73094 3.11113
# Velocity P-wave (km/s) = 4.41709 5.65950 5.07645
#
# Compressibility (1/GPa) = 0.03313668
#
# Stress axis : x y z
#
# Youngs Moduli (GPa) = 91.24880 69.01342 38.40689
#
# Poissons Ratio (x) = -0.20936 0.21321
# Poissons Ratio (y) = -0.27681 0.25567
# Poissons Ratio (z) = 0.50654 0.45942
#
# Static dielectric constant tensor:
#      x y z
#    x 2.018190 0.022000 0.033850 
#    y 0.022000 1.916040 -0.061550 
#    z 0.033850 -0.061550 1.949530 
# 
# From -- ./inp_files/72625.got.cif
#   From: 2010.05.17/outbox.cif.g08.bks.cpg/sg2_37_cif.got.tgz:72625.got - 2010.06.03 11:33:40.
