data_PCOD9046485
_publ_section_title
;
Structure prediction by ZEFSAII (Michael W. Deem and Ramdas Pophale) SiO2 
 PCOD9046485
Probable space group: P -1
;
_chemical_formula_sum "Si O2"
_cell_formula_units_Z 15
_cell_length_a 9.550067
_cell_length_b 5.378082
_cell_length_c 13.037523
_cell_angle_alpha 105.452243
_cell_angle_beta 74.128825
_cell_angle_gamma 96.591019
_cell_volume 620.177143
_symmetry_space_group_name_H-M "P -1"
_symmetry_group_IT_number 2
_symmetry_cell_setting 'triclinic'
loop_
_space_group_symop_operation_xyz
x,y,z
-x,-y,-z
loop_
_atom_site_type_symbol
_atom_site_label
_atom_site_fract_x
_atom_site_fract_y
_atom_site_fract_z
Si Si1 0.880426 0.388762 0.591476
Si Si2 0.138644 0.391947 0.897927
Si Si3 0.462837 0.515898 0.888685
Si Si4 0.395668 0.022474 0.227236
Si Si5 0.891296 0.852296 0.783730
Si Si6 0.353670 0.025287 0.469301
Si Si7 0.000000 0.000000 0.000000
Si Si8 0.102277 0.178489 0.668574
O O1 0.837629 0.592164 0.709010
O O2 0.741461 0.244003 0.553505
O O3 0.000000 0.500000 0.500000
O O4 0.974109 0.193029 0.614751
O O5 0.289386 0.531439 0.909865
O O6 0.133534 0.102523 0.909524
O O7 0.105998 0.384641 0.783072
O O8 0.000000 0.500000 0.000000
O O9 0.533186 0.760938 0.839668
O O10 0.515695 0.238483 0.808170
O O11 0.500000 0.500000 0.000000
O O12 0.235559 0.956645 0.203263
O O13 0.378542 0.121836 0.358585
O O14 0.910762 0.879077 0.903278
O O15 0.049078 0.917312 0.708145
O O16 0.500000 0.000000 0.500000
O O17 0.250256 0.193563 0.578493
#
# Coordination Sequence:
#
# PCOD9046485 Si02
#       8
#     2   2   2   2   2   2   1   2
#     4  12  23  43  74 106 147 206 269 323 397 486
#     4  11  26  45  75 108 149 198 265 333 398 476
#     4  12  29  50  78 115 156 210 266 333 418 497
#     4  12  27  49  80 112 163 210 268 331 419 493
#     4  11  23  44  75 107 151 206 263 328 399 479
#     4  12  26  48  77 116 163 210 268 341 415 491
#     4  10  24  42  74 106 148 190 268 322 396 466
#     4  11  24  45  71 109 145 199 265 322 396 479
#
# _framework density 24.186637999999999
#
# number of rings (size 3 to 8) (size 9 to 14) (size 15 to 20)
#    0.000    0.533    2.667    4.800    5.600    1.067 
#    0.000    4.000    0.000    0.000    0.000    0.000 
#    0.000    0.000    0.000    0.000    0.000    0.000 
#
# Total GULP energy -83581.431734 kJ/mol
# GULP energy per Si atom -5572.095449 kJ/mol
# Density = 2.413159 g / cm^3
# Si number density = 24.186638 Si / 1000 Ang^3
#
#
#
# Elastic Constant Matrix: (Units=GPa)
#
#
# Indices 1 2 3 4 5 6 
#
# 1 157.1308 30.4514 74.2770 1.2156 11.0116 17.8640
# 2 30.4514 76.1226 51.0613 -21.0141 -3.3925 6.7660
# 3 74.2770 51.0613 201.1402 -6.6527 20.9584 5.5972
# 4 1.2156 -21.0141 -6.6527 48.4071 4.1606 -14.4130
# 5 11.0116 -3.3925 20.9584 4.1606 52.5127 0.6398
# 6 17.8640 6.7660 5.5972 -14.4130 0.6398 34.9872
#
#
#
# Elastic Compliance Matrix: (Units=1/GPa)
#
#
# Indices 1 2 3 4 5 6 
#
# 1 0.008572 -0.002131 -0.002519 -0.002836 -0.000647 -0.004718
# 2 -0.002131 0.018882 -0.004058 0.007843 0.002650 0.001268
# 3 -0.002519 -0.004058 0.007170 -0.000230 -0.002588 0.000877
# 4 -0.002836 0.007843 -0.000230 0.027579 -0.001130 0.011350
# 5 -0.000647 0.002650 -0.002588 -0.001130 0.020480 -0.000608
# 6 -0.004718 0.001268 0.000877 0.011350 -0.000608 0.035292
#
#
# Mechanical properties :
#
#
# Convention : Reuss Voigt Hill
#
# Bulk Modulus (GPa) = 58.12096 82.88591 70.50343
# Shear Modulus (GPa) = 35.42902 45.75498 40.59200
#
# Velocity S-wave (km/s) = 3.83145 4.35414 4.10113
# Velocity P-wave (km/s) = 6.60724 7.72151 7.18601
#
# Compressibility (1/GPa) = 0.01720550
#
# Stress axis : x y z
#
# Youngs Moduli (GPa) = 116.66200 52.96089 139.47227
#
# Poissons Ratio (x) = 0.11288 0.35138
# Poissons Ratio (y) = 0.24866 0.56601
# Poissons Ratio (z) = 0.29391 0.21493
#
# Static dielectric constant tensor:
#      x y z
#    x 2.043640 -0.170720 -0.024340 
#    y -0.170720 2.366310 -0.040760 
#    z -0.024340 -0.040760 1.998800 
# 
# From -- ./inp_files/373149.got.cif
#   From: 2010.05.17/outbox.cif.g08.bks.cpg/sg2_187_cif.got.tgz:373149.got - 2010.06.03 11:33:40.
