data_PCOD9046933
_publ_section_title
;
Structure prediction by ZEFSAII (Michael W. Deem and Ramdas Pophale) SiO2 
 PCOD9046933
Probable space group: P -1
;
_chemical_formula_sum "Si O2"
_cell_formula_units_Z 12
_cell_length_a 5.427971
_cell_length_b 10.842885
_cell_length_c 9.467251
_cell_angle_alpha 72.507040
_cell_angle_beta 104.870339
_cell_angle_gamma 108.941535
_cell_volume 494.774065
_symmetry_space_group_name_H-M "P -1"
_symmetry_group_IT_number 2
_symmetry_cell_setting 'triclinic'
loop_
_space_group_symop_operation_xyz
x,y,z
-x,-y,-z
loop_
_atom_site_type_symbol
_atom_site_label
_atom_site_fract_x
_atom_site_fract_y
_atom_site_fract_z
Si Si1 0.438558 0.239582 0.740470
Si Si2 0.271572 0.107915 0.034342
Si Si3 0.448221 0.879315 0.645280
Si Si4 0.867577 0.467135 0.643762
Si Si5 0.172969 0.248509 0.426111
Si Si6 0.288616 0.402292 0.903914
O O1 0.437731 0.138500 0.902045
O O2 0.701723 0.311126 0.670723
O O3 0.217825 0.188735 0.607453
O O4 0.393602 0.366027 0.779687
O O5 0.207090 0.251811 0.007601
O O6 0.433245 0.073868 0.200060
O O7 0.000000 0.000000 0.000000
O O8 0.627565 0.788558 0.641292
O O9 0.137001 0.805722 0.636127
O O10 0.500000 0.000000 0.500000
O O11 0.743697 0.591186 0.602970
O O12 0.000000 0.500000 0.500000
O O13 0.058602 0.469020 0.805253
O O14 0.500000 0.500000 0.000000
#
# Coordination Sequence:
#
# PCOD9046933 Si02
#       6
#     2   2   2   2   2   2
#     4  10  25  42  71 108 150 194 246 305 383 445
#     4  10  24  49  74 106 151 201 250 310 382 453
#     4  12  28  49  76 108 146 202 261 319 372 455
#     4  12  23  42  73 110 148 197 245 310 381 455
#     4  12  26  46  76 108 152 195 256 316 382 445
#     4  10  24  43  69 109 152 188 253 305 379 444
#
# _framework density 24.253495000000001
#
# number of rings (size 3 to 8) (size 9 to 14) (size 15 to 20)
#    1.000    0.000    1.667    4.000    4.667    2.000 
#    0.000    2.500    0.000    0.000    0.000    0.000 
#    0.000    0.000    0.000    0.000    0.000    0.000 
#
# Total GULP energy -67090.728318 kJ/mol
# GULP energy per Si atom -5590.894027 kJ/mol
# Density = 2.419829 g / cm^3
# Si number density = 24.253495 Si / 1000 Ang^3
#
#
#
# Elastic Constant Matrix: (Units=GPa)
#
#
# Indices 1 2 3 4 5 6 
#
# 1 100.2735 41.6308 48.4775 14.7174 4.8319 19.4325
# 2 41.6308 115.5370 49.9865 5.9348 6.3846 19.0161
# 3 48.4775 49.9865 198.6043 1.3245 26.2484 28.0841
# 4 14.7174 5.9348 1.3245 52.4779 5.9192 -0.7147
# 5 4.8319 6.3846 26.2484 5.9192 34.0127 5.7333
# 6 19.4325 19.0161 28.0841 -0.7147 5.7333 59.2810
#
#
#
# Elastic Compliance Matrix: (Units=1/GPa)
#
#
# Indices 1 2 3 4 5 6 
#
# 1 0.013363 -0.003344 -0.002250 -0.003514 0.001486 -0.002428
# 2 -0.003344 0.010869 -0.001701 -0.000277 0.000064 -0.001594
# 3 -0.002250 -0.001701 0.006820 0.001147 -0.004572 -0.001492
# 4 -0.003514 -0.000277 0.001147 0.020528 -0.004133 0.001345
# 5 0.001486 0.000064 -0.004572 -0.004133 0.033704 -0.001651
# 6 -0.002428 -0.001594 -0.001492 0.001345 -0.001651 0.019059
#
#
# Mechanical properties :
#
#
# Convention : Reuss Voigt Hill
#
# Bulk Modulus (GPa) = 60.73971 77.17830 68.95901
# Shear Modulus (GPa) = 40.18678 47.44231 43.81454
#
# Velocity S-wave (km/s) = 4.07498 4.42758 4.25493
# Velocity P-wave (km/s) = 6.87304 7.61765 7.25490
#
# Compressibility (1/GPa) = 0.01646369
#
# Stress axis : x y z
#
# Youngs Moduli (GPa) = 74.83178 92.00538 146.62847
#
# Poissons Ratio (x) = 0.30764 0.32990
# Poissons Ratio (y) = 0.25022 0.24936
# Poissons Ratio (z) = 0.16837 0.15646
#
# Static dielectric constant tensor:
#      x y z
#    x 2.119330 -0.027070 -0.046950 
#    y -0.027070 2.046550 0.031360 
#    z -0.046950 0.031360 1.945570 
# 
# From -- ./inp_files/130669.got.cif
#   From: 2010.05.17/outbox.cif.g08.bks.cpg/sg2_66_cif.got.tgz:130669.got - 2010.06.03 11:33:40.
