data_PCOD9046960
_publ_section_title
;
Structure prediction by ZEFSAII (Michael W. Deem and Ramdas Pophale) SiO2 
 PCOD9046960
Probable space group: P -1
;
_chemical_formula_sum "Si O2"
_cell_formula_units_Z 15
_cell_length_a 7.643549
_cell_length_b 21.213388
_cell_length_c 7.538161
_cell_angle_alpha 34.669289
_cell_angle_beta 121.531720
_cell_angle_gamma 123.357760
_cell_volume 574.263206
_symmetry_space_group_name_H-M "P -1"
_symmetry_group_IT_number 2
_symmetry_cell_setting 'triclinic'
loop_
_space_group_symop_operation_xyz
x,y,z
-x,-y,-z
loop_
_atom_site_type_symbol
_atom_site_label
_atom_site_fract_x
_atom_site_fract_y
_atom_site_fract_z
Si Si1 0.500000 0.500000 0.000000
Si Si2 0.320681 0.825332 0.928569
Si Si3 0.803833 0.884411 0.677933
Si Si4 0.633926 0.039280 0.691996
Si Si5 0.477083 0.611317 0.446384
Si Si6 0.890257 0.166120 0.821452
Si Si7 0.261682 0.365309 0.827229
Si Si8 0.887859 0.401517 0.298941
O O1 0.636639 0.616459 0.679649
O O2 0.328146 0.577640 0.793028
O O3 0.335180 0.700035 0.175596
O O4 0.203878 0.830154 0.039660
O O5 0.244893 0.887679 0.576786
O O6 0.550403 0.908923 0.895229
O O7 0.580258 0.916716 0.488365
O O8 0.778264 0.765900 0.824358
O O9 0.000000 0.000000 0.500000
O O10 0.869171 0.834774 0.013874
O O11 0.770932 0.059123 0.893918
O O12 0.358161 0.474854 0.752931
O O13 0.570352 0.618623 0.282970
O O14 0.852083 0.281222 0.453942
O O15 0.054361 0.392545 0.565236
O O16 0.000000 0.500000 0.000000
#
# Coordination Sequence:
#
# PCOD9046960 Si02
#       8
#     1   2   2   2   2   2   2   2
#     4  12  24  40  64 102 134 180 240 278 352 446
#     4  11  23  44  70 103 137 177 244 292 341 441
#     4  11  23  43  70 102 138 186 238 282 352 443
#     4  11  25  45  74  98 142 192 224 297 370 408
#     4  11  23  43  70 100 138 178 238 295 354 429
#     4  11  25  46  71 103 138 185 237 292 362 426
#     4  10  24  43  69  98 138 186 223 292 369 410
#     4  11  24  42  67 100 142 182 233 297 353 431
#
# _framework density 26.120429000000001
#
# number of rings (size 3 to 8) (size 9 to 14) (size 15 to 20)
#    0.000    1.067    5.333    0.400    3.733    0.533 
#    0.000    4.000    0.000    0.000    0.000    0.000 
#    0.000    0.000    0.000    0.000    0.000    0.000 
#
# Total GULP energy -83627.841774 kJ/mol
# GULP energy per Si atom -5575.189452 kJ/mol
# Density = 2.606098 g / cm^3
# Si number density = 26.120429 Si / 1000 Ang^3
#
#
#
# Elastic Constant Matrix: (Units=GPa)
#
#
# Indices 1 2 3 4 5 6 
#
# 1 62.5061 28.0959 16.9871 -14.5435 1.3014 -12.6307
# 2 28.0959 113.7019 12.5595 -12.6494 5.1509 -2.4520
# 3 16.9871 12.5595 96.9984 -37.1077 -11.3081 -1.9386
# 4 -14.5435 -12.6494 -37.1077 44.8743 1.4696 -0.2790
# 5 1.3014 5.1509 -11.3081 1.4696 54.3213 6.6084
# 6 -12.6307 -2.4520 -1.9386 -0.2790 6.6084 27.6467
#
#
#
# Elastic Compliance Matrix: (Units=1/GPa)
#
#
# Indices 1 2 3 4 5 6 
#
# 1 0.021423 -0.004330 -0.001406 0.004676 -0.001709 0.009760
# 2 -0.004330 0.010046 -0.000146 0.001329 -0.000807 -0.000891
# 3 -0.001406 -0.000146 0.015640 0.012337 0.002988 -0.000148
# 4 0.004676 0.001329 0.012337 0.034363 0.001008 0.003225
# 5 -0.001709 -0.000807 0.002988 0.001008 0.019773 -0.005359
# 6 0.009760 -0.000891 -0.000148 0.003225 -0.005359 0.041854
#
#
# Mechanical properties :
#
#
# Convention : Reuss Voigt Hill
#
# Bulk Modulus (GPa) = 28.29369 43.16573 35.72971
# Shear Modulus (GPa) = 30.00383 39.73939 34.87161
#
# Velocity S-wave (km/s) = 3.39288 3.90473 3.65777
# Velocity P-wave (km/s) = 5.11903 6.07378 5.61673
#
# Compressibility (1/GPa) = 0.03534356
#
# Stress axis : x y z
#
# Youngs Moduli (GPa) = 46.67897 99.54034 63.94014
#
# Poissons Ratio (x) = 0.43102 0.08992
# Poissons Ratio (y) = 0.20213 0.00934
# Poissons Ratio (z) = 0.06565 0.01454
#
# Static dielectric constant tensor:
#      x y z
#    x 2.122410 -0.048970 -0.071060 
#    y -0.048970 2.323730 0.000900 
#    z -0.071060 0.000900 2.235430 
# 
# From -- ./inp_files/224763.got.cif
#   From: 2010.05.17/outbox.cif.g08.bks.cpg/sg2_113_cif.got.tgz:224763.got - 2010.06.03 11:33:40.
