data_PCOD9046969
_publ_section_title
;
Structure prediction by ZEFSAII (Michael W. Deem and Ramdas Pophale) SiO2 
 PCOD9046969
Probable space group: P -1
;
_chemical_formula_sum "Si O2"
_cell_formula_units_Z 12
_cell_length_a 4.855704
_cell_length_b 12.719834
_cell_length_c 7.672948
_cell_angle_alpha 83.075624
_cell_angle_beta 91.276394
_cell_angle_gamma 89.477817
_cell_volume 470.303426
_symmetry_space_group_name_H-M "P -1"
_symmetry_group_IT_number 2
_symmetry_cell_setting 'triclinic'
loop_
_space_group_symop_operation_xyz
x,y,z
-x,-y,-z
loop_
_atom_site_type_symbol
_atom_site_label
_atom_site_fract_x
_atom_site_fract_y
_atom_site_fract_z
Si Si1 0.192360 0.691524 0.698975
Si Si2 0.879462 0.096111 0.875774
Si Si3 0.308472 0.590551 0.066320
Si Si4 0.288431 0.438117 0.381054
Si Si5 0.342654 0.892859 0.480010
Si Si6 0.382331 0.217745 0.809582
O O1 0.498676 0.644428 0.687098
O O2 0.211420 0.817292 0.639126
O O3 0.978615 0.635268 0.573504
O O4 0.134480 0.651769 0.903112
O O5 0.876711 0.070323 0.675670
O O6 0.072930 0.197635 0.859803
O O7 0.423822 0.870318 0.074185
O O8 0.000000 0.000000 0.000000
O O9 0.160555 0.526904 0.230984
O O10 0.507231 0.671384 0.151306
O O11 0.500000 0.500000 0.000000
O O12 0.500000 0.500000 0.500000
O O13 0.536684 0.812485 0.381825
O O14 0.500000 0.000000 0.500000
#
# Coordination Sequence:
#
# PCOD9046969 Si02
#       6
#     2   2   2   2   2   2
#     4  11  25  42  64 102 132 178 222 282 334 406
#     4  10  24  43  70  98 136 179 234 277 344 401
#     4  10  24  45  71 100 140 179 232 278 345 406
#     4  11  24  43  70  96 135 175 228 277 342 398
#     4  10  26  45  70 101 140 177 233 281 346 405
#     4  10  24  43  69  99 137 177 227 283 342 404
#
# _framework density 25.515440999999999
#
# number of rings (size 3 to 8) (size 9 to 14) (size 15 to 20)
#    1.000    0.667    0.000    2.500    7.000    6.000 
#    0.000    0.000    0.000    0.000    0.000    0.000 
#    0.000    0.000    0.000    0.000    0.000    0.000 
#
# Total GULP energy -66967.810231 kJ/mol
# GULP energy per Si atom -5580.650853 kJ/mol
# Density = 2.545737 g / cm^3
# Si number density = 25.515441 Si / 1000 Ang^3
#
#
#
# Elastic Constant Matrix: (Units=GPa)
#
#
# Indices 1 2 3 4 5 6 
#
# 1 78.4704 16.5850 15.8534 3.5120 9.0553 22.7098
# 2 16.5850 182.3955 72.5791 -2.9052 9.1027 46.2775
# 3 15.8534 72.5791 128.9113 -37.4160 23.9562 8.2372
# 4 3.5120 -2.9052 -37.4160 48.9985 -7.3357 -0.3116
# 5 9.0553 9.1027 23.9562 -7.3357 18.1386 1.8512
# 6 22.7098 46.2775 8.2372 -0.3116 1.8512 51.3817
#
#
#
# Elastic Compliance Matrix: (Units=1/GPa)
#
#
# Indices 1 2 3 4 5 6 
#
# 1 0.016145 0.001838 -0.002423 -0.003929 -0.006536 -0.008191
# 2 0.001838 0.010325 -0.007327 -0.004788 0.002566 -0.009058
# 3 -0.002423 -0.007327 0.017801 0.011172 -0.014658 0.005412
# 4 -0.003929 -0.004788 0.011172 0.029105 0.000930 0.004401
# 5 -0.006536 0.002566 -0.014658 0.000930 0.076825 0.000165
# 6 -0.008191 -0.009058 0.005412 0.004401 0.000165 0.030394
#
#
# Mechanical properties :
#
#
# Convention : Reuss Voigt Hill
#
# Bulk Modulus (GPa) = 35.15137 66.64580 50.89858
# Shear Modulus (GPa) = 24.28339 42.68775 33.48557
#
# Velocity S-wave (km/s) = 3.08833 4.09469 3.62659
# Velocity P-wave (km/s) = 5.15009 6.96648 6.12598
#
# Compressibility (1/GPa) = 0.02844840
#
# Stress axis : x y z
#
# Youngs Moduli (GPa) = 61.93760 96.85260 56.17578
#
# Poissons Ratio (x) = -0.17799 0.13609
# Poissons Ratio (y) = -0.11383 0.41159
# Poissons Ratio (z) = 0.15004 0.70962
#
# Static dielectric constant tensor:
#      x y z
#    x 2.027040 -0.003270 -0.020980 
#    y -0.003270 2.036560 0.031040 
#    z -0.020980 0.031040 2.148860 
# 
# From -- ./inp_files/129594.got.cif
#   From: 2010.05.17/outbox.cif.g08.bks.cpg/sg2_65_cif.got.tgz:129594.got - 2010.06.03 11:33:40.
