data_PCOD9046501
_publ_section_title
;
Structure prediction by ZEFSAII (Michael W. Deem and Ramdas Pophale) SiO2 
 PCOD9046501
Probable space group: P -1
;
_chemical_formula_sum "Si O2"
_cell_formula_units_Z 16
_cell_length_a 9.179584
_cell_length_b 7.516081
_cell_length_c 10.630326
_cell_angle_alpha 81.269703
_cell_angle_beta 62.587541
_cell_angle_gamma 94.063915
_cell_volume 635.203413
_symmetry_space_group_name_H-M "P -1"
_symmetry_group_IT_number 2
_symmetry_cell_setting 'triclinic'
loop_
_space_group_symop_operation_xyz
x,y,z
-x,-y,-z
loop_
_atom_site_type_symbol
_atom_site_label
_atom_site_fract_x
_atom_site_fract_y
_atom_site_fract_z
Si Si1 0.039691 0.377927 0.878885
Si Si2 0.250143 0.663020 0.364434
Si Si3 0.574850 0.810483 0.879546
Si Si4 0.569780 0.878264 0.591732
Si Si5 0.894239 0.073504 0.427322
Si Si6 0.860002 0.617852 0.744256
Si Si7 0.236352 0.865738 0.090772
Si Si8 0.427598 0.470859 0.673020
O O1 0.959518 0.482911 0.789315
O O2 0.925852 0.178932 0.927478
O O3 0.236189 0.386697 0.779305
O O4 0.000000 0.500000 0.000000
O O5 0.195741 0.761632 0.499801
O O6 0.158788 0.458216 0.384231
O O7 0.208691 0.784768 0.250954
O O8 0.443672 0.642432 0.299895
O O9 0.596237 0.923409 0.725569
O O10 0.672226 0.640717 0.847369
O O11 0.664483 0.932113 0.945237
O O12 0.379863 0.764786 0.985484
O O13 0.457308 0.683624 0.674911
O O14 0.500000 0.000000 0.500000
O O15 0.758674 0.904030 0.460812
O O16 0.037293 0.185888 0.276008
O O17 0.000000 0.000000 0.500000
O O18 0.500000 0.500000 0.500000
#
# Coordination Sequence:
#
# PCOD9046501 Si02
#       8
#     2   2   2   2   2   2   2   2
#     4  11  26  45  68 100 139 181 236 287 355 410
#     4  11  22  41  68  98 131 182 228 278 353 412
#     4  11  22  45  69 103 132 181 238 279 355 414
#     4  12  24  42  67  97 143 185 223 287 350 411
#     4  12  22  41  66 100 137 177 227 280 344 415
#     4  11  23  40  68  97 134 175 231 284 338 415
#     4  10  24  42  75  95 135 179 230 293 339 427
#     4  12  26  44  65 103 142 183 232 292 353 418
#
# _framework density 25.188783000000001
#
# number of rings (size 3 to 8) (size 9 to 14) (size 15 to 20)
#    0.000    0.750    3.750    3.375    1.750    5.000 
#    0.000    1.875    0.000    0.000    0.000    0.000 
#    0.000    0.000    0.000    0.000    0.000    0.000 
#
# Total GULP energy -89166.163580 kJ/mol
# GULP energy per Si atom -5572.885224 kJ/mol
# Density = 2.513145 g / cm^3
# Si number density = 25.188783 Si / 1000 Ang^3
#
#
#
# Elastic Constant Matrix: (Units=GPa)
#
#
# Indices 1 2 3 4 5 6 
#
# 1 159.2761 35.2604 25.3872 10.2950 -31.3721 15.5364
# 2 35.2604 74.7866 7.6250 4.2242 -6.3867 18.0561
# 3 25.3872 7.6250 70.9218 19.9468 -24.5238 16.5537
# 4 10.2950 4.2242 19.9468 31.6249 -0.1061 -2.0872
# 5 -31.3721 -6.3867 -24.5238 -0.1061 49.5622 -4.5707
# 6 15.5364 18.0561 16.5537 -2.0872 -4.5707 54.3617
#
#
#
# Elastic Compliance Matrix: (Units=1/GPa)
#
#
# Indices 1 2 3 4 5 6 
#
# 1 0.008117 -0.003068 -0.000160 -0.002179 0.004571 -0.000951
# 2 -0.003068 0.016022 0.001247 -0.002250 0.000285 -0.004887
# 3 -0.000160 0.001247 0.024054 -0.015734 0.011250 -0.007352
# 4 -0.002179 -0.002250 -0.015734 0.042992 -0.008709 0.007079
# 5 0.004571 0.000285 0.011250 -0.008709 0.028399 -0.002773
# 6 -0.000951 -0.004887 -0.007352 0.007079 -0.002773 0.022568
#
#
# Mechanical properties :
#
#
# Convention : Reuss Voigt Hill
#
# Bulk Modulus (GPa) = 22.60786 49.05886 35.83336
# Shear Modulus (GPa) = 31.08349 42.89054 36.98702
#
# Velocity S-wave (km/s) = 3.51667 4.13093 3.83612
# Velocity P-wave (km/s) = 5.04819 6.50166 5.82047
#
# Compressibility (1/GPa) = 0.04423241
#
# Stress axis : x y z
#
# Youngs Moduli (GPa) = 123.19801 62.41495 41.57242
#
# Poissons Ratio (x) = 0.19146 0.00666
# Poissons Ratio (y) = 0.37791 -0.05186
# Poissons Ratio (z) = 0.01974 -0.07785
#
# Static dielectric constant tensor:
#      x y z
#    x 2.016390 0.225430 -0.046340 
#    y 0.225430 2.674760 -0.111560 
#    z -0.046340 -0.111560 2.266480 
# 
# From -- ./inp_files/379056.got.cif
#   From: 2010.05.17/outbox.cif.g08.bks.cpg/sg2_190_cif.got.tgz:379056.got - 2010.06.03 11:33:40.
