data_PCOD9046128
_publ_section_title
;
Structure prediction by ZEFSAII (Michael W. Deem and Ramdas Pophale) SiO2 
 PCOD9046128
Probable space group: P -1
;
_chemical_formula_sum "Si O2"
_cell_formula_units_Z 16
_cell_length_a 8.798073
_cell_length_b 4.876875
_cell_length_c 16.051643
_cell_angle_alpha 66.655151
_cell_angle_beta 94.908796
_cell_angle_gamma 96.903199
_cell_volume 627.219422
_symmetry_space_group_name_H-M "P -1"
_symmetry_group_IT_number 2
_symmetry_cell_setting 'triclinic'
loop_
_space_group_symop_operation_xyz
x,y,z
-x,-y,-z
loop_
_atom_site_type_symbol
_atom_site_label
_atom_site_fract_x
_atom_site_fract_y
_atom_site_fract_z
Si Si1 0.241974 0.115276 0.154533
Si Si2 0.650211 0.193144 0.950106
Si Si3 0.080853 0.783521 0.922641
Si Si4 0.192944 0.227129 0.331134
Si Si5 0.578383 0.384896 0.601334
Si Si6 0.849913 0.279910 0.508775
Si Si7 0.273023 0.279800 0.677893
Si Si8 0.877905 0.367564 0.243929
O O1 0.319619 0.443851 0.088257
O O2 0.232464 0.115075 0.253362
O O3 0.065066 0.040653 0.126223
O O4 0.333193 0.881558 0.137506
O O5 0.787415 0.080859 0.026517
O O6 0.500000 0.000000 0.000000
O O7 0.139196 0.665848 0.851790
O O8 0.000000 0.500000 0.000000
O O9 0.352018 0.372326 0.358933
O O10 0.053388 0.429648 0.275916
O O11 0.119428 0.060424 0.432276
O O12 0.500000 0.500000 0.500000
O O13 0.730008 0.270597 0.581909
O O14 0.441645 0.206393 0.667317
O O15 0.764662 0.424652 0.411650
O O16 0.000000 0.500000 0.500000
O O17 0.229040 0.391117 0.753727
O O18 0.167787 0.978084 0.687947
#
# Coordination Sequence:
#
# PCOD9046128 Si02
#       8
#     2   2   2   2   2   2   2   2
#     4  10  24  42  68 100 133 177 226 277 329 405
#     4  11  23  42  69 101 137 175 219 276 345 404
#     4   9  22  44  70  97 136 177 224 275 339 404
#     4  11  25  41  71  95 136 180 236 277 336 400
#     4  10  26  43  65  95 135 185 222 280 343 398
#     4  11  23  43  70  95 133 180 232 281 336 398
#     4  11  26  43  66 100 139 173 229 280 343 400
#     4  11  25  44  70 103 133 179 229 287 331 401
#
# _framework density 25.509414
#
# number of rings (size 3 to 8) (size 9 to 14) (size 15 to 20)
#    0.000    1.500    1.250    1.500    7.000   11.000 
#    0.000    0.000    0.000    0.000    0.000    0.000 
#    0.000    0.000    0.000    0.000    0.000    0.000 
#
# Total GULP energy -89310.216305 kJ/mol
# GULP energy per Si atom -5581.888519 kJ/mol
# Density = 2.545135 g / cm^3
# Si number density = 25.509414 Si / 1000 Ang^3
#
#
#
# Elastic Constant Matrix: (Units=GPa)
#
#
# Indices 1 2 3 4 5 6 
#
# 1 59.6823 27.2341 66.3921 18.4049 -35.9065 41.9635
# 2 27.2341 82.5216 23.1382 0.8914 -0.8292 8.1745
# 3 66.3921 23.1382 112.9924 -1.4398 8.7383 6.4782
# 4 18.4049 0.8914 -1.4398 49.1766 -2.7843 -10.5263
# 5 -35.9065 -0.8292 8.7383 -2.7843 35.4136 16.7622
# 6 41.9635 8.1745 6.4782 -10.5263 16.7622 36.8415
#
#
#
# Elastic Compliance Matrix: (Units=1/GPa)
#
#
# Indices 1 2 3 4 5 6 
#
# 1 -0.005938 -0.000646 0.003914 0.004484 -0.012998 0.013413
# 2 -0.000646 0.013254 -0.002302 -0.000542 0.001410 -0.002597
# 3 0.003914 -0.002302 0.007016 -0.002744 0.006107 -0.008744
# 4 0.004484 -0.000542 -0.002744 0.018421 0.008029 -0.002894
# 5 -0.012998 0.001410 0.006107 0.008029 0.008641 0.011780
# 6 0.013413 -0.002597 -0.008744 -0.002894 0.011780 0.007793
#
#
# Mechanical properties :
#
#
# Convention : Reuss Voigt Hill
#
# Bulk Modulus (GPa) = 61.47950 54.30278 57.89114
# Shear Modulus (GPa) = 94.92324 33.51514 64.21919
#
# Velocity S-wave (km/s) = 6.10670 3.62862 5.02288
# Velocity P-wave (km/s) = 8.59509 6.23614 7.50882
#
# Compressibility (1/GPa) = 0.01626558
#
# Stress axis : x y z
#
# Youngs Moduli (GPa) = -168.41431 75.44991 142.54081
#
# Poissons Ratio (x) = 0.04872 -0.55796
# Poissons Ratio (y) = -0.10874 0.32809
# Poissons Ratio (z) = 0.65924 0.17367
#
# Static dielectric constant tensor:
#      x y z
#    x 2.083240 -0.145000 0.022090 
#    y -0.145000 2.311060 -0.120270 
#    z 0.022090 -0.120270 2.021990 
# 
# From -- ./inp_files/488181.got.cif
#   From: 2010.05.17/outbox.cif.g08.bks.cpg/sg2_245_cif.got.tgz:488181.got - 2010.06.03 11:33:40.
