data_PCOD9046816
_publ_section_title
;
Structure prediction by ZEFSAII (Michael W. Deem and Ramdas Pophale) SiO2 
 PCOD9046816
Probable space group: P -1
;
_chemical_formula_sum "Si O2"
_cell_formula_units_Z 16
_cell_length_a 14.907090
_cell_length_b 9.666392
_cell_length_c 8.211180
_cell_angle_alpha 104.639195
_cell_angle_beta 45.876747
_cell_angle_gamma 88.539264
_cell_volume 786.463705
_symmetry_space_group_name_H-M "P -1"
_symmetry_group_IT_number 2
_symmetry_cell_setting 'triclinic'
loop_
_space_group_symop_operation_xyz
x,y,z
-x,-y,-z
loop_
_atom_site_type_symbol
_atom_site_label
_atom_site_fract_x
_atom_site_fract_y
_atom_site_fract_z
Si Si1 0.301916 0.721858 0.592974
Si Si2 0.233409 0.778116 0.318519
Si Si3 0.867817 0.470349 0.091702
Si Si4 0.497298 0.557971 0.840134
Si Si5 0.022685 0.643436 0.426843
Si Si6 0.230462 0.091371 0.276436
Si Si7 0.585828 0.063009 0.284250
Si Si8 0.651569 0.746251 0.564646
O O1 0.278453 0.773625 0.449186
O O2 0.190032 0.647756 0.772004
O O3 0.439120 0.587457 0.392856
O O4 0.320007 0.856933 0.718169
O O5 0.109823 0.715805 0.450871
O O6 0.199194 0.939289 0.323973
O O7 0.352603 0.667012 0.032042
O O8 0.760182 0.630654 0.287603
O O9 0.897248 0.411536 0.855348
O O10 0.000000 0.500000 0.000000
O O11 0.602497 0.649359 0.730501
O O12 0.500000 0.500000 0.000000
O O13 0.000000 0.500000 0.500000
O O14 0.891710 0.770626 0.578883
O O15 0.295406 0.137388 0.369125
O O16 0.329844 0.053612 0.987578
O O17 0.475896 0.180647 0.355749
O O18 0.500000 0.000000 0.500000
#
# Coordination Sequence:
#
# PCOD9046816 Si02
#       8
#     2   2   2   2   2   2   2   2
#     4  10  24  43  68 104 138 176 233 283 337 406
#     4  11  23  45  70  99 139 184 223 281 349 402
#     4  11  23  46  70 101 136 175 236 286 333 401
#     4   9  21  37  70  96 132 174 227 273 336 401
#     4  12  28  45  73  99 135 185 234 278 341 414
#     4  12  26  47  68 100 143 179 229 280 346 415
#     4  12  27  42  68 103 139 180 227 282 346 404
#     4  11  24  43  70  99 137 178 224 282 344 402
#
# _framework density 20.344232999999999
#
# number of rings (size 3 to 8) (size 9 to 14) (size 15 to 20)
#    0.000    1.000    2.500    3.000   10.500    1.000 
#    0.000    1.250    0.000    0.000    0.000    0.000 
#    0.000    0.000    0.000    0.000    0.000    0.000 
#
# Total GULP energy -89365.106506 kJ/mol
# GULP energy per Si atom -5585.319157 kJ/mol
# Density = 2.029793 g / cm^3
# Si number density = 20.344233 Si / 1000 Ang^3
#
#
#
# Elastic Constant Matrix: (Units=GPa)
#
#
# Indices 1 2 3 4 5 6 
#
# 1 97.4955 27.4182 35.1823 10.2594 -5.7811 3.9113
# 2 27.4182 115.8122 46.5571 -10.5507 0.3294 -10.3025
# 3 35.1823 46.5571 130.7288 -1.3699 5.1779 -10.9935
# 4 10.2594 -10.5507 -1.3699 20.1374 8.2585 6.4246
# 5 -5.7811 0.3294 5.1779 8.2585 21.8366 -4.5326
# 6 3.9113 -10.3025 -10.9935 6.4246 -4.5326 26.4091
#
#
#
# Elastic Compliance Matrix: (Units=1/GPa)
#
#
# Indices 1 2 3 4 5 6 
#
# 1 0.014294 -0.003331 -0.003169 -0.013230 0.009617 0.000133
# 2 -0.003331 0.011463 -0.002869 0.008534 -0.003370 0.001116
# 3 -0.003169 -0.002869 0.009880 0.001181 -0.003034 0.002655
# 4 -0.013230 0.008534 0.001181 0.084407 -0.040333 -0.021676
# 5 0.009617 -0.003370 -0.003034 -0.040333 0.067993 0.017480
# 6 0.000133 0.001116 0.002655 -0.021676 0.017480 0.047660
#
#
# Mechanical properties :
#
#
# Convention : Reuss Voigt Hill
#
# Bulk Modulus (GPa) = 59.17518 62.48353 60.82936
# Shear Modulus (GPa) = 19.22571 29.33523 24.28047
#
# Velocity S-wave (km/s) = 3.07745 3.80141 3.45843
# Velocity P-wave (km/s) = 6.46357 7.07442 6.77588
#
# Compressibility (1/GPa) = 0.01689898
#
# Stress axis : x y z
#
# Youngs Moduli (GPa) = 69.95791 87.23727 101.21577
#
# Poissons Ratio (x) = 0.29058 0.32075
# Poissons Ratio (y) = 0.23303 0.29040
# Poissons Ratio (z) = 0.22170 0.25030
#
# Static dielectric constant tensor:
#      x y z
#    x 1.709160 0.022640 -0.010810 
#    y 0.022640 1.663240 0.037740 
#    z -0.010810 0.037740 1.719600 
# 
# From -- ./inp_files/243125.got.cif
#   From: 2010.05.17/outbox.cif.g08.bks.cpg/sg2_122_cif.got.tgz:243125.got - 2010.06.03 11:33:40.
