data_PCOD9046633
_publ_section_title
;
Structure prediction by ZEFSAII (Michael W. Deem and Ramdas Pophale) SiO2 
 PCOD9046633
Probable space group: P -1
;
_chemical_formula_sum "Si O2"
_cell_formula_units_Z 14
_cell_length_a 16.012448
_cell_length_b 7.199382
_cell_length_c 7.684757
_cell_angle_alpha 57.550375
_cell_angle_beta 45.436323
_cell_angle_gamma 75.098730
_cell_volume 522.026422
_symmetry_space_group_name_H-M "P -1"
_symmetry_group_IT_number 2
_symmetry_cell_setting 'triclinic'
loop_
_space_group_symop_operation_xyz
x,y,z
-x,-y,-z
loop_
_atom_site_type_symbol
_atom_site_label
_atom_site_fract_x
_atom_site_fract_y
_atom_site_fract_z
Si Si1 0.831703 0.407240 0.987742
Si Si2 0.243268 0.101289 0.684869
Si Si3 0.012544 0.203896 0.023558
Si Si4 0.495995 0.647493 0.760409
Si Si5 0.179841 0.121485 0.363105
Si Si6 0.416853 0.691388 0.406464
Si Si7 0.373644 0.934690 0.987481
O O1 0.945143 0.392199 0.953721
O O2 0.707860 0.402906 0.272521
O O3 0.809036 0.158172 0.060502
O O4 0.852923 0.634965 0.732718
O O5 0.375215 0.188862 0.517204
O O6 0.242981 0.116073 0.464874
O O7 0.154477 0.257604 0.807307
O O8 0.936545 0.077127 0.356311
O O9 0.000000 0.000000 0.000000
O O10 0.496290 0.475215 0.692196
O O11 0.385381 0.764790 0.900013
O O12 0.500000 0.500000 0.000000
O O13 0.265433 0.060278 0.117528
O O14 0.500760 0.888703 0.290021
O O15 0.380648 0.797613 0.225248
#
# Coordination Sequence:
#
# PCOD9046633 Si02
#       7
#     2   2   2   2   2   2   2
#     4  10  18  33  57  83 111 147 183 226 279 327
#     4  10  19  37  55  82 113 145 185 231 273 323
#     4   8  18  32  54  82 112 141 188 229 270 325
#     4  10  20  33  61  84 108 149 185 224 278 327
#     4  10  18  31  59  84 108 149 184 222 281 328
#     4  10  18  33  57  81 112 148 183 224 277 326
#     4  10  17  34  56  81 114 143 186 226 270 331
#
# _framework density 26.818563999999999
#
# number of rings (size 3 to 8) (size 9 to 14) (size 15 to 20)
#    0.000    2.571    4.286    1.714    0.000    5.714 
#    0.000    1.429    6.286    0.857    0.000    0.000 
#    0.000    0.000    0.000    0.000    0.000    0.000 
#
# Total GULP energy -78398.401989 kJ/mol
# GULP energy per Si atom -5599.885856 kJ/mol
# Density = 2.675752 g / cm^3
# Si number density = 26.818564 Si / 1000 Ang^3
#
#
#
# Elastic Constant Matrix: (Units=GPa)
#
#
# Indices 1 2 3 4 5 6 
#
# 1 95.3192 45.7802 20.6584 5.3765 6.4277 -23.3199
# 2 45.7802 170.9601 35.2005 20.3808 3.9985 -27.0076
# 3 20.6584 35.2005 78.7521 9.0326 0.2981 -15.1470
# 4 5.3765 20.3808 9.0326 62.2572 -13.9177 5.6779
# 5 6.4277 3.9985 0.2981 -13.9177 29.4013 -1.4635
# 6 -23.3199 -27.0076 -15.1470 5.6779 -1.4635 47.3750
#
#
#
# Elastic Compliance Matrix: (Units=1/GPa)
#
#
# Indices 1 2 3 4 5 6 
#
# 1 0.013364 -0.002296 -0.001376 -0.001314 -0.002974 0.004895
# 2 -0.002296 0.007680 -0.001964 -0.002661 -0.001638 0.002889
# 3 -0.001376 -0.001964 0.014733 -0.001713 -0.000237 0.003112
# 4 -0.001314 -0.002661 -0.001713 0.019938 0.009866 -0.004796
# 5 -0.002974 -0.001638 -0.000237 0.009866 0.039436 -0.002438
# 6 0.004895 0.002889 0.003112 -0.004796 -0.002438 0.026659
#
#
# Mechanical properties :
#
#
# Convention : Reuss Voigt Hill
#
# Bulk Modulus (GPa) = 40.80623 60.92327 50.86475
# Shear Modulus (GPa) = 35.39807 44.03285 39.71546
#
# Velocity S-wave (km/s) = 3.63700 4.05641 3.85241
# Velocity P-wave (km/s) = 5.73461 6.68621 6.22861
#
# Compressibility (1/GPa) = 0.02450606
#
# Stress axis : x y z
#
# Youngs Moduli (GPa) = 74.82658 130.20312 67.87697
#
# Poissons Ratio (x) = 0.29892 0.09340
# Poissons Ratio (y) = 0.17179 0.13329
# Poissons Ratio (z) = 0.10296 0.25568
#
# Static dielectric constant tensor:
#      x y z
#    x 2.162390 -0.024980 0.024140 
#    y -0.024980 2.111540 -0.013430 
#    z 0.024140 -0.013430 2.082000 
# 
# From -- ./inp_files/474076.got.cif
#   From: 2010.05.17/outbox.cif.g08.bks.cpg/sg2_238_cif.got.tgz:474076.got - 2010.06.03 11:33:40.
