data_PCOD9046370
_publ_section_title
;
Structure prediction by ZEFSAII (Michael W. Deem and Ramdas Pophale) SiO2 
 PCOD9046370
Probable space group: P -1
;
_chemical_formula_sum "Si O2"
_cell_formula_units_Z 14
_cell_length_a 21.773630
_cell_length_b 5.538680
_cell_length_c 11.402495
_cell_angle_alpha 79.550443
_cell_angle_beta 35.173415
_cell_angle_gamma 103.981104
_cell_volume 565.191154
_symmetry_space_group_name_H-M "P -1"
_symmetry_group_IT_number 2
_symmetry_cell_setting 'triclinic'
loop_
_space_group_symop_operation_xyz
x,y,z
-x,-y,-z
loop_
_atom_site_type_symbol
_atom_site_label
_atom_site_fract_x
_atom_site_fract_y
_atom_site_fract_z
Si Si1 0.820810 0.049463 0.415863
Si Si2 0.580879 0.723442 0.238184
Si Si3 0.536416 0.838670 0.870097
Si Si4 0.138976 0.541678 0.964576
Si Si5 0.274380 0.368347 0.164148
Si Si6 0.723532 0.707412 0.358838
Si Si7 0.871973 0.474499 0.747153
O O1 0.775097 0.886574 0.631198
O O2 0.780453 0.795384 0.396907
O O3 0.992340 0.362690 0.134675
O O4 0.711020 0.100668 0.553747
O O5 0.500000 0.500000 0.500000
O O6 0.452320 0.580893 0.358294
O O7 0.684730 0.690680 0.016416
O O8 0.700748 0.116503 0.047139
O O9 0.429728 0.715963 0.938566
O O10 0.500000 0.500000 0.000000
O O11 0.500000 0.000000 0.000000
O O12 0.213361 0.416339 0.805112
O O13 0.227555 0.941224 0.791071
O O14 0.099839 0.423033 0.170789
O O15 0.142453 0.340529 0.344846
O O16 0.000000 0.500000 0.500000
#
# Coordination Sequence:
#
# PCOD9046370 Si02
#       7
#     2   2   2   2   2   2   2
#     4  11  26  51  81 117 164 208 264 344 409 478
#     4  12  26  50  78 112 161 214 271 323 396 482
#     4  10  24  42  71 112 149 198 253 315 395 466
#     4  12  29  51  79 116 167 211 273 327 407 481
#     4  11  27  47  79 116 156 207 269 335 401 475
#     4  12  28  51  80 119 155 218 269 330 400 494
#     4  12  30  49  83 119 160 216 271 339 403 477
#
# _framework density 24.770379999999999
#
# number of rings (size 3 to 8) (size 9 to 14) (size 15 to 20)
#    0.000    0.571    2.857    2.571   10.000    5.714 
#    0.000    0.000    0.000    0.000    0.000    0.000 
#    0.000    0.000    0.000    0.000    0.000    0.000 
#
# Total GULP energy -78305.934320 kJ/mol
# GULP energy per Si atom -5593.281023 kJ/mol
# Density = 2.471400 g / cm^3
# Si number density = 24.770380 Si / 1000 Ang^3
#
#
#
# Elastic Constant Matrix: (Units=GPa)
#
#
# Indices 1 2 3 4 5 6 
#
# 1 135.7767 44.3871 40.8854 4.9320 -20.4918 12.1070
# 2 44.3871 139.7061 53.2304 11.6630 -5.8281 -2.9741
# 3 40.8854 53.2304 107.1125 3.7646 -28.9334 -6.6234
# 4 4.9320 11.6630 3.7646 67.0848 4.0680 -4.9069
# 5 -20.4918 -5.8281 -28.9334 4.0680 64.2806 -2.7379
# 6 12.1070 -2.9741 -6.6234 -4.9069 -2.7379 37.7278
#
#
#
# Elastic Compliance Matrix: (Units=1/GPa)
#
#
# Indices 1 2 3 4 5 6 
#
# 1 0.009302 -0.002042 -0.002291 -0.000555 0.001635 -0.003502
# 2 -0.002042 0.009485 -0.004315 -0.001129 -0.001646 0.000379
# 3 -0.002291 -0.004315 0.013988 0.000049 0.005310 0.003242
# 4 -0.000555 -0.001129 0.000049 0.015357 -0.001144 0.002012
# 5 0.001635 -0.001646 0.005310 -0.001144 0.018454 0.001468
# 6 -0.003502 0.000379 0.003242 0.002012 0.001468 0.028597
#
#
# Mechanical properties :
#
#
# Convention : Reuss Voigt Hill
#
# Bulk Modulus (GPa) = 64.61179 73.28899 68.95039
# Shear Modulus (GPa) = 42.50307 50.09148 46.29728
#
# Velocity S-wave (km/s) = 4.14682 4.50180 4.32795
# Velocity P-wave (km/s) = 7.00493 7.52816 7.27125
#
# Compressibility (1/GPa) = 0.01547705
#
# Stress axis : x y z
#
# Youngs Moduli (GPa) = 107.50670 105.43310 71.48989
#
# Poissons Ratio (x) = 0.21534 0.16378
# Poissons Ratio (y) = 0.21957 0.30850
# Poissons Ratio (z) = 0.24629 0.45498
#
# Static dielectric constant tensor:
#      x y z
#    x 2.008470 -0.034860 0.050090 
#    y -0.034860 2.187300 -0.106240 
#    z 0.050090 -0.106240 1.995950 
# 
# From -- ./inp_files/473426.got.cif
#   From: 2010.05.17/outbox.cif.g08.bks.cpg/sg2_237_cif.got.tgz:473426.got - 2010.06.03 11:33:40.
