data_PCOD9046614
_publ_section_title
;
Structure prediction by ZEFSAII (Michael W. Deem and Ramdas Pophale) SiO2 
 PCOD9046614
Probable space group: P -1
;
_chemical_formula_sum "Si O2"
_cell_formula_units_Z 16
_cell_length_a 10.721774
_cell_length_b 7.799006
_cell_length_c 13.490170
_cell_angle_alpha 73.865197
_cell_angle_beta 44.059470
_cell_angle_gamma 102.126035
_cell_volume 595.122119
_symmetry_space_group_name_H-M "P -1"
_symmetry_group_IT_number 2
_symmetry_cell_setting 'triclinic'
loop_
_space_group_symop_operation_xyz
x,y,z
-x,-y,-z
loop_
_atom_site_type_symbol
_atom_site_label
_atom_site_fract_x
_atom_site_fract_y
_atom_site_fract_z
Si Si1 0.848032 0.782601 0.018191
Si Si2 0.353787 0.104788 0.385350
Si Si3 0.596804 0.413002 0.379886
Si Si4 0.734942 0.301448 0.903475
Si Si5 0.611645 0.555690 0.790951
Si Si6 0.120955 0.446955 0.516713
Si Si7 0.097818 0.730988 0.728128
Si Si8 0.582092 0.941754 0.188589
O O1 0.791226 0.621202 0.168242
O O2 0.632711 0.633647 0.088186
O O3 0.805010 0.956080 0.055526
O O4 0.059247 0.843216 0.823379
O O5 0.413009 0.249512 0.427893
O O6 0.370756 0.218843 0.251618
O O7 0.550826 0.075383 0.265828
O O8 0.130168 0.860130 0.585548
O O9 0.500000 0.500000 0.500000
O O10 0.699413 0.288166 0.377984
O O11 0.648202 0.421492 0.871267
O O12 0.941243 0.323523 0.725612
O O13 0.871743 0.474780 0.888266
O O14 0.571986 0.043373 0.073914
O O15 0.810568 0.668894 0.575971
O O16 0.000000 0.500000 0.500000
O O17 0.362942 0.681178 0.368948
#
# Coordination Sequence:
#
# PCOD9046614 Si02
#       8
#     2   2   2   2   2   2   2   2
#     4  10  24  43  66 100 136 178 232 285 341 414
#     4  11  24  44  68  99 138 183 232 286 353 406
#     4  11  25  47  74  95 138 180 225 299 357 409
#     4  11  23  41  68 101 141 189 233 281 342 410
#     4   9  22  42  63  96 143 181 226 285 341 402
#     4   9  20  40  62  97 136 182 230 280 331 405
#     4  12  25  42  69 105 136 180 240 281 346 425
#     4  11  23  43  69  99 142 185 230 287 342 405
#
# _framework density 26.885238000000001
#
# number of rings (size 3 to 8) (size 9 to 14) (size 15 to 20)
#    0.000    1.500    1.250    3.000    5.250    7.000 
#    2.250    1.875    0.000    0.000    0.000    0.000 
#    0.000    0.000    0.000    0.000    0.000    0.000 
#
# Total GULP energy -89280.207530 kJ/mol
# GULP energy per Si atom -5580.012971 kJ/mol
# Density = 2.682405 g / cm^3
# Si number density = 26.885238 Si / 1000 Ang^3
#
#
#
# Elastic Constant Matrix: (Units=GPa)
#
#
# Indices 1 2 3 4 5 6 
#
# 1 77.3832 6.7651 17.3661 -7.4786 6.9904 -29.4020
# 2 6.7651 90.1908 46.5579 25.6342 15.2059 -23.8737
# 3 17.3661 46.5579 146.9257 6.8095 25.0148 -20.5800
# 4 -7.4786 25.6342 6.8095 63.9489 -5.4546 6.6495
# 5 6.9904 15.2059 25.0148 -5.4546 37.9540 -5.4360
# 6 -29.4020 -23.8737 -20.5800 6.6495 -5.4360 44.1848
#
#
#
# Elastic Compliance Matrix: (Units=1/GPa)
#
#
# Indices 1 2 3 4 5 6 
#
# 1 0.017934 0.003086 -0.000876 -0.000586 -0.002182 0.013013
# 2 0.003086 0.018988 -0.003467 -0.008526 -0.005497 0.011305
# 3 -0.000876 -0.003467 0.008890 -0.000138 -0.004158 0.001193
# 4 -0.000586 -0.008526 -0.000138 0.020240 0.005458 -0.007435
# 5 -0.002182 -0.005497 -0.004158 0.005458 0.032012 -0.003242
# 6 0.013013 0.011305 0.001193 -0.007435 -0.003242 0.038676
#
#
# Mechanical properties :
#
#
# Convention : Reuss Voigt Hill
#
# Bulk Modulus (GPa) = 23.09582 50.65311 36.87446
# Shear Modulus (GPa) = 32.53335 45.47157 39.00246
#
# Velocity S-wave (km/s) = 3.48240 4.11703 3.81294
# Velocity P-wave (km/s) = 4.97781 6.44060 5.75586
#
# Compressibility (1/GPa) = 0.04329788
#
# Stress axis : x y z
#
# Youngs Moduli (GPa) = 55.75852 52.66351 112.48797
#
# Poissons Ratio (x) = -0.16253 0.09857
# Poissons Ratio (y) = -0.17208 0.39003
# Poissons Ratio (z) = 0.04886 0.18260
#
# Static dielectric constant tensor:
#      x y z
#    x 2.041840 0.271560 -0.053680 
#    y 0.271560 1.066580 0.273520 
#    z -0.053680 0.273520 2.154030 
# 
# From -- ./inp_files/515178.got.cif
#   From: 2010.05.17/outbox.cif.g08.bks.cpg/sg2_258_cif.got.tgz:515178.got - 2010.06.03 11:33:40.
