data_PCOD9046691
_publ_section_title
;
Structure prediction by ZEFSAII (Michael W. Deem and Ramdas Pophale) SiO2 
 PCOD9046691
Probable space group: P -1
;
_chemical_formula_sum "Si O2"
_cell_formula_units_Z 15
_cell_length_a 8.430525
_cell_length_b 8.650279
_cell_length_c 16.640643
_cell_angle_alpha 130.232273
_cell_angle_beta 118.891473
_cell_angle_gamma 41.788049
_cell_volume 617.366845
_symmetry_space_group_name_H-M "P -1"
_symmetry_group_IT_number 2
_symmetry_cell_setting 'triclinic'
loop_
_space_group_symop_operation_xyz
x,y,z
-x,-y,-z
loop_
_atom_site_type_symbol
_atom_site_label
_atom_site_fract_x
_atom_site_fract_y
_atom_site_fract_z
Si Si1 0.832320 0.368796 0.346707
Si Si2 0.115428 0.291216 0.057068
Si Si3 0.500000 0.000000 0.500000
Si Si4 0.866903 0.204829 0.463177
Si Si5 0.864591 0.851139 0.806159
Si Si6 0.525958 0.826103 0.631986
Si Si7 0.678366 0.414932 0.943587
Si Si8 0.550982 0.251858 0.146578
O O1 0.989590 0.198063 0.408115
O O2 0.689679 0.270951 0.254623
O O3 0.980763 0.328712 0.292365
O O4 0.649156 0.679240 0.424448
O O5 0.061545 0.243838 0.116938
O O6 0.292235 0.349259 0.138012
O O7 0.850587 0.485815 0.018659
O O8 0.282209 0.030413 0.953495
O O9 0.532577 0.019537 0.414507
O O10 0.725510 0.505022 0.559858
O O11 0.689354 0.151673 0.380328
O O12 0.000000 0.000000 0.500000
O O13 0.613533 0.925932 0.751712
O O14 0.850788 0.100373 0.876755
O O15 0.518228 0.536960 0.867294
O O16 0.500000 0.500000 0.000000
#
# Coordination Sequence:
#
# PCOD9046691 Si02
#       8
#     2   2   1   2   2   2   2   2
#     4  11  24  45  74 104 141 188 240 296 361 425
#     4  11  24  44  68 103 145 186 235 290 350 423
#     4  10  24  44  74  98 138 176 244 298 356 410
#     4  10  24  47  68  94 140 184 230 297 354 417
#     4  12  24  43  69 105 140 182 236 290 353 428
#     4  10  24  43  67 101 134 179 235 286 354 423
#     4  12  23  43  69  99 144 190 228 286 351 415
#     4  11  23  45  71 101 146 186 235 294 347 433
#
# _framework density 24.296735999999999
#
# number of rings (size 3 to 8) (size 9 to 14) (size 15 to 20)
#    0.000    1.067    2.667    3.200    3.733    1.067 
#    4.800    0.000    0.000    0.000    0.000    0.000 
#    0.000    0.000    0.000    0.000    0.000    0.000 
#
# Total GULP energy -83559.274027 kJ/mol
# GULP energy per Si atom -5570.618268 kJ/mol
# Density = 2.424144 g / cm^3
# Si number density = 24.296736 Si / 1000 Ang^3
#
#
#
# Elastic Constant Matrix: (Units=GPa)
#
#
# Indices 1 2 3 4 5 6 
#
# 1 88.6708 20.8282 35.8266 -3.3801 8.4625 -2.0088
# 2 20.8282 84.3118 23.4590 -26.5299 -26.1003 37.4844
# 3 35.8266 23.4590 70.8616 -17.4643 -2.4947 7.8655
# 4 -3.3801 -26.5299 -17.4643 32.0518 0.7957 -6.0753
# 5 8.4625 -26.1003 -2.4947 0.7957 46.8438 -10.7490
# 6 -2.0088 37.4844 7.8655 -6.0753 -10.7490 43.0941
#
#
#
# Elastic Compliance Matrix: (Units=1/GPa)
#
#
# Indices 1 2 3 4 5 6 
#
# 1 0.018655 -0.012566 -0.009502 -0.011544 -0.008432 0.009803
# 2 -0.012566 0.041716 0.003600 0.029252 0.018608 -0.028764
# 3 -0.009502 0.003600 0.021514 0.012697 0.003545 -0.004827
# 4 -0.011544 0.029252 0.012697 0.057609 0.014268 -0.016619
# 5 -0.008432 0.018608 0.003545 0.014268 0.031497 -0.007358
# 6 0.009803 -0.028764 -0.004827 -0.016619 -0.007358 0.045384
#
#
# Mechanical properties :
#
#
# Convention : Reuss Voigt Hill
#
# Bulk Modulus (GPa) = 22.24683 44.89690 33.57186
# Shear Modulus (GPa) = 18.63621 35.31328 26.97474
#
# Velocity S-wave (km/s) = 2.77253 3.81651 3.33561
# Velocity P-wave (km/s) = 4.40742 6.15952 5.35561
#
# Compressibility (1/GPa) = 0.04495023
#
# Stress axis : x y z
#
# Youngs Moduli (GPa) = 53.60425 23.97134 46.48095
#
# Poissons Ratio (x) = 0.30122 0.44166
# Poissons Ratio (y) = 0.67359 -0.16733
# Poissons Ratio (z) = 0.50934 -0.08630
#
# Static dielectric constant tensor:
#      x y z
#    x 2.117520 -0.039880 0.013400 
#    y -0.039880 1.940010 -0.004410 
#    z 0.013400 -0.004410 1.939630 
# 
# From -- ./inp_files/107342.got.cif
#   From: 2010.05.17/outbox.cif.g08.bks.cpg/sg2_54_cif.got.tgz:107342.got - 2010.06.03 11:33:40.
