data_PCOD9046932
_publ_section_title
;
Structure prediction by ZEFSAII (Michael W. Deem and Ramdas Pophale) SiO2 
 PCOD9046932
Probable space group: P -1
;
_chemical_formula_sum "Si O2"
_cell_formula_units_Z 15
_cell_length_a 16.814431
_cell_length_b 8.852928
_cell_length_c 9.823904
_cell_angle_alpha 123.280624
_cell_angle_beta 47.676938
_cell_angle_gamma 145.391344
_cell_volume 614.040344
_symmetry_space_group_name_H-M "P -1"
_symmetry_group_IT_number 2
_symmetry_cell_setting 'triclinic'
loop_
_space_group_symop_operation_xyz
x,y,z
-x,-y,-z
loop_
_atom_site_type_symbol
_atom_site_label
_atom_site_fract_x
_atom_site_fract_y
_atom_site_fract_z
Si Si1 0.121388 0.248609 0.301892
Si Si2 0.648797 0.118393 0.979405
Si Si3 0.000000 0.500000 0.500000
Si Si4 0.259023 0.381531 0.922871
Si Si5 0.189282 0.344974 0.576186
Si Si6 0.202328 0.939347 0.690331
Si Si7 0.626844 0.786625 0.641099
Si Si8 0.361937 0.909074 0.711630
O O1 0.035851 0.330507 0.404792
O O2 0.209574 0.378228 0.406860
O O3 0.233649 0.343807 0.094241
O O4 0.988093 0.932788 0.321566
O O5 0.759324 0.432436 0.008234
O O6 0.597176 0.003787 0.134724
O O7 0.500000 0.000000 0.000000
O O8 0.708313 0.020073 0.774726
O O9 0.068535 0.641063 0.643914
O O10 0.440410 0.556598 0.764558
O O11 0.158105 0.096203 0.830980
O O12 0.303881 0.327307 0.486155
O O13 0.235208 0.591644 0.706100
O O14 0.282647 0.976243 0.755765
O O15 0.328948 0.078091 0.489182
O O16 0.500000 0.000000 0.500000
#
# Coordination Sequence:
#
# PCOD9046932 Si02
#       8
#     2   2   1   2   2   2   2   2
#     4  11  26  47  73 105 147 200 244 307 360 449
#     4  10  24  43  69 109 147 187 236 309 369 434
#     4  12  24  50  74  98 150 204 242 294 368 444
#     4  11  25  45  76 106 145 188 258 301 373 437
#     4  11  25  46  73 106 151 193 247 299 382 430
#     4  12  25  46  75 108 145 201 246 302 373 434
#     4  11  23  46  76 106 149 189 243 314 376 430
#     4  12  25  44  74 109 148 191 249 308 364 444
#
# _framework density 24.428362
#
# number of rings (size 3 to 8) (size 9 to 14) (size 15 to 20)
#    0.000    0.800    2.667    4.400    5.600    1.067 
#    2.400    0.667    0.000    0.000    0.000    0.000 
#    0.000    0.000    0.000    0.000    0.000    0.000 
#
# Total GULP energy -83771.325744 kJ/mol
# GULP energy per Si atom -5584.755050 kJ/mol
# Density = 2.437276 g / cm^3
# Si number density = 24.428362 Si / 1000 Ang^3
#
#
#
# Elastic Constant Matrix: (Units=GPa)
#
#
# Indices 1 2 3 4 5 6 
#
# 1 92.0116 1.8471 47.8169 -10.4305 35.2958 -13.2111
# 2 1.8471 86.7705 35.3717 27.6923 2.7882 -10.0763
# 3 47.8169 35.3717 133.5435 -9.7872 38.7738 -4.7706
# 4 -10.4305 27.6923 -9.7872 41.2551 -1.2875 -0.6458
# 5 35.2958 2.7882 38.7738 -1.2875 54.0712 0.1723
# 6 -13.2111 -10.0763 -4.7706 -0.6458 0.1723 32.1618
#
#
#
# Elastic Compliance Matrix: (Units=1/GPa)
#
#
# Indices 1 2 3 4 5 6 
#
# 1 0.017400 0.001460 -0.003632 0.002395 -0.008794 0.007161
# 2 0.001460 0.019673 -0.007482 -0.014433 0.003037 0.005347
# 3 -0.003632 -0.007482 0.013098 0.006983 -0.006464 -0.001719
# 4 0.002395 -0.014433 0.006983 0.036007 -0.004963 -0.001753
# 5 -0.008794 0.003037 -0.006464 -0.004963 0.028607 -0.003873
# 6 0.007161 0.005347 -0.001719 -0.001753 -0.003873 0.035440
#
#
# Mechanical properties :
#
#
# Convention : Reuss Voigt Hill
#
# Bulk Modulus (GPa) = 32.40235 53.59968 43.00102
# Shear Modulus (GPa) = 27.80532 40.65027 34.22779
#
# Velocity S-wave (km/s) = 3.37744 4.08371 3.74725
# Velocity P-wave (km/s) = 5.33877 6.65018 6.03023
#
# Compressibility (1/GPa) = 0.03086196
#
# Stress axis : x y z
#
# Youngs Moduli (GPa) = 57.47218 50.83037 76.34989
#
# Poissons Ratio (x) = -0.07421 0.27731
# Poissons Ratio (y) = -0.08391 0.57127
# Poissons Ratio (z) = 0.20875 0.38032
#
# Static dielectric constant tensor:
#      x y z
#    x 1.931340 0.062610 -0.010140 
#    y 0.062610 2.042990 -0.032120 
#    z -0.010140 -0.032120 1.956280 
# 
# From -- ./inp_files/327814.got.cif
#   From: 2010.05.17/outbox.cif.g08.bks.cpg/sg2_164_cif.got.tgz:327814.got - 2010.06.03 11:33:40.
