data_PCOD9046241
_publ_section_title
;
Structure prediction by ZEFSAII (Michael W. Deem and Ramdas Pophale) SiO2 
 PCOD9046241
Probable space group: P -1
;
_chemical_formula_sum "Si O2"
_cell_formula_units_Z 12
_cell_length_a 9.637563
_cell_length_b 4.768301
_cell_length_c 17.481650
_cell_angle_alpha 98.974953
_cell_angle_beta 46.730497
_cell_angle_gamma 116.702387
_cell_volume 508.109075
_symmetry_space_group_name_H-M "P -1"
_symmetry_group_IT_number 2
_symmetry_cell_setting 'triclinic'
loop_
_space_group_symop_operation_xyz
x,y,z
-x,-y,-z
loop_
_atom_site_type_symbol
_atom_site_label
_atom_site_fract_x
_atom_site_fract_y
_atom_site_fract_z
Si Si1 0.596384 0.000863 0.622563
Si Si2 0.688136 0.527317 0.485631
Si Si3 0.136439 0.882402 0.257801
Si Si4 0.462062 0.440694 0.255219
Si Si5 0.262029 0.426278 0.112672
Si Si6 0.868874 0.637050 0.009141
O O1 0.598915 0.195935 0.553106
O O2 0.752846 0.876548 0.703299
O O3 0.596739 0.276079 0.691082
O O4 0.439249 0.670940 0.714936
O O5 0.500000 0.500000 0.500000
O O6 0.748906 0.844166 0.529879
O O7 0.900910 0.608372 0.360170
O O8 0.276478 0.713422 0.171829
O O9 0.140834 0.100998 0.194021
O O10 0.627206 0.515301 0.126741
O O11 0.500000 0.500000 0.000000
O O12 0.136508 0.410062 0.081462
O O13 0.000000 0.500000 0.000000
O O14 0.000000 0.000000 0.000000
#
# Coordination Sequence:
#
# PCOD9046241 Si02
#       6
#     2   2   2   2   2   2
#     4  10  24  42  69  94 136 175 222 287 341 409
#     4  11  25  45  67 101 139 178 233 286 347 417
#     4  12  26  43  75 100 136 190 232 286 344 424
#     4  11  24  43  68  99 136 180 235 274 360 412
#     4  12  26  46  73 102 142 187 239 284 349 421
#     4  12  27  44  69 104 142 180 233 297 346 409
#
# _framework density 23.616973000000002
#
# number of rings (size 3 to 8) (size 9 to 14) (size 15 to 20)
#    0.000    0.667    1.667    5.000    2.333   12.000 
#    0.000    0.000    0.000    0.000    0.000    0.000 
#    0.000    0.000    0.000    0.000    0.000    0.000 
#
# Total GULP energy -66897.544713 kJ/mol
# GULP energy per Si atom -5574.795393 kJ/mol
# Density = 2.356322 g / cm^3
# Si number density = 23.616973 Si / 1000 Ang^3
#
#
#
# Elastic Constant Matrix: (Units=GPa)
#
#
# Indices 1 2 3 4 5 6 
#
# 1 79.7144 20.5870 27.7435 -2.1294 14.6439 -12.0372
# 2 20.5870 130.4462 25.2315 23.7832 8.2550 -34.0724
# 3 27.7435 25.2315 114.1287 12.1570 15.5703 -8.5048
# 4 -2.1294 23.7832 12.1570 51.6219 -11.5258 3.9032
# 5 14.6439 8.2550 15.5703 -11.5258 37.7563 -11.1755
# 6 -12.0372 -34.0724 -8.5048 3.9032 -11.1755 42.3357
#
#
#
# Elastic Compliance Matrix: (Units=1/GPa)
#
#
# Indices 1 2 3 4 5 6 
#
# 1 0.014773 -0.001346 -0.002804 0.000987 -0.003524 0.001533
# 2 -0.001346 0.011572 -0.000790 -0.006078 -0.000841 0.009110
# 3 -0.002804 -0.000790 0.010496 -0.003120 -0.004052 -0.000107
# 4 0.000987 -0.006078 -0.003120 0.025215 0.008344 -0.005360
# 5 -0.003524 -0.000841 -0.004052 0.008344 0.033941 0.005697
# 6 0.001533 0.009110 -0.000107 -0.005360 0.005697 0.033365
#
#
# Mechanical properties :
#
#
# Convention : Reuss Voigt Hill
#
# Bulk Modulus (GPa) = 37.08983 52.37925 44.73454
# Shear Modulus (GPa) = 33.73149 43.05793 38.39471
#
# Velocity S-wave (km/s) = 3.78335 4.27450 4.03640
# Velocity P-wave (km/s) = 5.90117 6.82558 6.38014
#
# Compressibility (1/GPa) = 0.02696157
#
# Stress axis : x y z
#
# Youngs Moduli (GPa) = 67.68901 86.41445 95.27892
#
# Poissons Ratio (x) = 0.11629 0.26715
# Poissons Ratio (y) = 0.09109 0.07529
# Poissons Ratio (z) = 0.18979 0.06829
#
# Static dielectric constant tensor:
#      x y z
#    x 1.999650 0.024460 0.074100 
#    y 0.024460 1.862040 0.004890 
#    z 0.074100 0.004890 1.929870 
# 
# From -- ./inp_files/486495.got.cif
#   From: 2010.05.17/outbox.cif.g08.bks.cpg/sg2_244_cif.got.tgz:486495.got - 2010.06.03 11:33:40.
