data_PCOD9046044
_publ_section_title
;
Structure prediction by ZEFSAII (Michael W. Deem and Ramdas Pophale) SiO2 
 PCOD9046044
Probable space group: P -1
;
_chemical_formula_sum "Si O2"
_cell_formula_units_Z 14
_cell_length_a 8.517397
_cell_length_b 15.145485
_cell_length_c 4.897012
_cell_angle_alpha 108.913791
_cell_angle_beta 66.005964
_cell_angle_gamma 96.188293
_cell_volume 545.755760
_symmetry_space_group_name_H-M "P -1"
_symmetry_group_IT_number 2
_symmetry_cell_setting 'triclinic'
loop_
_space_group_symop_operation_xyz
x,y,z
-x,-y,-z
loop_
_atom_site_type_symbol
_atom_site_label
_atom_site_fract_x
_atom_site_fract_y
_atom_site_fract_z
Si Si1 0.063167 0.158250 0.572399
Si Si2 0.378199 0.926170 0.374631
Si Si3 0.262584 0.735175 0.348056
Si Si4 0.363938 0.628155 0.660097
Si Si5 0.821198 0.027500 0.945862
Si Si6 0.747428 0.666100 0.223145
Si Si7 0.163999 0.449352 0.473413
O O1 0.196205 0.228174 0.679827
O O2 0.916223 0.221159 0.590463
O O3 0.967340 0.093555 0.793500
O O4 0.156098 0.081939 0.236454
O O5 0.402882 0.816408 0.302537
O O6 0.340447 0.940283 0.097965
O O7 0.500000 0.000000 0.500000
O O8 0.207048 0.950721 0.697342
O O9 0.249570 0.700885 0.631247
O O10 0.325008 0.650765 0.024406
O O11 0.557253 0.649116 0.455994
O O12 0.304806 0.526485 0.515222
O O13 0.871159 0.602302 0.268840
O O14 0.765793 0.627398 0.867260
O O15 0.000000 0.500000 0.500000
#
# Coordination Sequence:
#
# PCOD9046044 Si02
#       7
#     2   2   2   2   2   2   2
#     4  10  24  44  68  98 136 177 234 266 342 391
#     4  11  24  40  67  96 138 170 231 272 341 384
#     4  11  24  42  65  97 129 183 213 276 325 407
#     4  12  25  44  68  97 139 170 225 272 341 389
#     4  10  24  42  66  95 134 183 217 287 320 402
#     4  12  26  42  71 100 132 174 222 278 329 402
#     4  12  25  46  70  99 133 174 219 277 336 397
#
# _framework density 25.652501000000001
#
# number of rings (size 3 to 8) (size 9 to 14) (size 15 to 20)
#    0.000    0.857    0.000    6.857    4.000    9.714 
#    0.000    0.000    0.000    0.000    0.000    0.000 
#    0.000    0.000    0.000    0.000    0.000    0.000 
#
# Total GULP energy -78516.458705 kJ/mol
# GULP energy per Si atom -5608.318479 kJ/mol
# Density = 2.559411 g / cm^3
# Si number density = 25.652501 Si / 1000 Ang^3
#
#
#
# Elastic Constant Matrix: (Units=GPa)
#
#
# Indices 1 2 3 4 5 6 
#
# 1 70.7985 46.0789 3.0456 9.6468 18.4947 24.2588
# 2 46.0789 130.3712 14.7875 24.3894 21.6401 35.9997
# 3 3.0456 14.7875 86.5645 19.0376 15.4506 10.7770
# 4 9.6468 24.3894 19.0376 46.3781 -1.8391 21.6097
# 5 18.4947 21.6401 15.4506 -1.8391 31.0295 2.1510
# 6 24.2588 35.9997 10.7770 21.6097 2.1510 62.9826
#
#
#
# Elastic Compliance Matrix: (Units=1/GPa)
#
#
# Indices 1 2 3 4 5 6 
#
# 1 0.021871 -0.004449 0.002940 -0.001259 -0.011085 -0.005573
# 2 -0.004449 0.011927 0.000531 -0.004135 -0.005928 -0.003573
# 3 0.002940 0.000531 0.014743 -0.006714 -0.009770 -0.001321
# 4 -0.001259 -0.004135 -0.006714 0.030239 0.009234 -0.006693
# 5 -0.011085 -0.005928 -0.009770 0.009234 0.048067 0.004520
# 6 -0.005573 -0.003573 -0.001321 -0.006693 0.004520 0.022435
#
#
# Mechanical properties :
#
#
# Convention : Reuss Voigt Hill
#
# Bulk Modulus (GPa) = 21.46625 46.17316 33.81970
# Shear Modulus (GPa) = 29.98213 42.99953 36.49083
#
# Velocity S-wave (km/s) = 3.42245 4.09862 3.77570
# Velocity P-wave (km/s) = 4.89937 6.35900 5.67629
#
# Compressibility (1/GPa) = 0.04658476
#
# Stress axis : x y z
#
# Youngs Moduli (GPa) = 45.72317 83.84440 67.82946
#
# Poissons Ratio (x) = 0.37303 -0.19940
# Poissons Ratio (y) = 0.20342 -0.03604
# Poissons Ratio (z) = -0.13442 -0.04456
#
# Static dielectric constant tensor:
#      x y z
#    x 2.116130 0.001480 -0.061470 
#    y 0.001480 1.999020 0.000090 
#    z -0.061470 0.000090 1.942220 
# 
# From -- ./inp_files/36075.got.cif
#   From: 2010.05.17/outbox.cif.g08.bks.cpg/sg2_19_cif.got.tgz:36075.got - 2010.06.03 11:33:40.
