data_PCOD9046806
_publ_section_title
;
Structure prediction by ZEFSAII (Michael W. Deem and Ramdas Pophale) SiO2 
 PCOD9046806
Probable space group: P -1
;
_chemical_formula_sum "Si O2"
_cell_formula_units_Z 16
_cell_length_a 17.763385
_cell_length_b 7.393818
_cell_length_c 6.194023
_cell_angle_alpha 67.104161
_cell_angle_beta 93.477604
_cell_angle_gamma 119.086959
_cell_volume 646.515041
_symmetry_space_group_name_H-M "P -1"
_symmetry_group_IT_number 2
_symmetry_cell_setting 'triclinic'
loop_
_space_group_symop_operation_xyz
x,y,z
-x,-y,-z
loop_
_atom_site_type_symbol
_atom_site_label
_atom_site_fract_x
_atom_site_fract_y
_atom_site_fract_z
Si Si1 0.644785 0.223041 0.387974
Si Si2 0.232681 0.753380 0.941679
Si Si3 0.080692 0.552164 0.665521
Si Si4 0.441349 0.501989 0.298893
Si Si5 0.072652 0.110436 0.651498
Si Si6 0.742517 0.572337 0.573336
Si Si7 0.100712 0.806794 0.137595
Si Si8 0.472923 0.176885 0.169424
O O1 0.683931 0.129553 0.256958
O O2 0.721851 0.457830 0.384888
O O3 0.563385 0.235927 0.273773
O O4 0.603252 0.068664 0.663661
O O5 0.150296 0.620145 0.832403
O O6 0.245809 0.584789 0.176996
O O7 0.196357 0.879032 0.028248
O O8 0.076410 0.339649 0.633222
O O9 0.107767 0.768527 0.413630
O O10 0.983054 0.448186 0.790260
O O11 0.500000 0.500000 0.500000
O O12 0.344157 0.424731 0.383382
O O13 0.438851 0.336072 0.189068
O O14 0.497059 0.757748 0.098988
O O15 0.167449 0.195246 0.525417
O O16 0.000000 0.000000 0.500000
O O17 0.069802 0.959586 0.928854
#
# Coordination Sequence:
#
# PCOD9046806 Si02
#       8
#     2   2   2   2   2   2   2   2
#     4  11  23  44  69  99 140 187 234 292 355 427
#     4  12  23  46  69 100 143 188 235 299 360 428
#     4  11  25  49  71 101 143 189 242 301 362 425
#     4  11  23  44  70 104 143 185 235 302 355 426
#     4  12  27  48  74 109 144 192 244 298 362 426
#     4  12  25  46  69 104 143 190 239 299 358 430
#     4  11  26  44  73 103 139 189 242 299 360 426
#     4  10  24  43  68 103 137 182 237 290 362 424
#
# _framework density 24.748069000000001
#
# number of rings (size 3 to 8) (size 9 to 14) (size 15 to 20)
#    0.000    0.750    5.000    1.500    5.250    1.500 
#    2.250    0.000    0.000    0.000    0.000    0.000 
#    0.000    0.000    0.000    0.000    0.000    0.000 
#
# Total GULP energy -89392.805758 kJ/mol
# GULP energy per Si atom -5587.050360 kJ/mol
# Density = 2.469174 g / cm^3
# Si number density = 24.748069 Si / 1000 Ang^3
#
#
#
# Elastic Constant Matrix: (Units=GPa)
#
#
# Indices 1 2 3 4 5 6 
#
# 1 168.1180 16.9884 56.3275 -11.9191 -13.8435 14.3125
# 2 16.9884 62.2173 30.7596 0.2136 9.3540 12.1774
# 3 56.3275 30.7596 147.8528 -24.8948 14.6502 5.0017
# 4 -11.9191 0.2136 -24.8948 27.9455 4.4732 2.5752
# 5 -13.8435 9.3540 14.6502 4.4732 57.6360 3.6767
# 6 14.3125 12.1774 5.0017 2.5752 3.6767 37.4367
#
#
#
# Elastic Compliance Matrix: (Units=1/GPa)
#
#
# Indices 1 2 3 4 5 6 
#
# 1 0.007424 -0.000537 -0.002821 0.000461 0.002716 -0.002585
# 2 -0.000537 0.019509 -0.004058 -0.003244 -0.001679 -0.005210
# 3 -0.002821 -0.004058 0.010441 0.008603 -0.003388 0.000744
# 4 0.000461 -0.003244 0.008603 0.044708 -0.004836 -0.002871
# 5 0.002716 -0.001679 -0.003388 -0.004836 0.019616 -0.001633
# 6 -0.002585 -0.005210 0.000744 -0.002871 -0.001633 0.029653
#
#
# Mechanical properties :
#
#
# Convention : Reuss Voigt Hill
#
# Bulk Modulus (GPa) = 44.35741 65.14879 54.75310
# Shear Modulus (GPa) = 32.53163 42.87782 37.70473
#
# Velocity S-wave (km/s) = 3.62955 4.16693 3.90749
# Velocity P-wave (km/s) = 5.96048 7.03797 6.52152
#
# Compressibility (1/GPa) = 0.02254415
#
# Stress axis : x y z
#
# Youngs Moduli (GPa) = 134.69881 51.25907 95.77255
#
# Poissons Ratio (x) = 0.02750 0.27015
# Poissons Ratio (y) = 0.07227 0.38862
# Poissons Ratio (z) = 0.37995 0.20800
#
# Static dielectric constant tensor:
#      x y z
#    x 1.918130 0.030070 -0.067830 
#    y 0.030070 1.883270 0.005690 
#    z -0.067830 0.005690 2.030790 
# 
# From -- ./inp_files/106300.got.cif
#   From: 2010.05.17/outbox.cif.g08.bks.cpg/sg2_54_cif.got.tgz:106300.got - 2010.06.03 11:33:40.
