data_PCOD9046491
_publ_section_title
;
Structure prediction by ZEFSAII (Michael W. Deem and Ramdas Pophale) SiO2 
 PCOD9046491
Probable space group: P -1
;
_chemical_formula_sum "Si O2"
_cell_formula_units_Z 13
_cell_length_a 9.036737
_cell_length_b 14.134281
_cell_length_c 9.867107
_cell_angle_alpha 92.502847
_cell_angle_beta 149.599519
_cell_angle_gamma 96.610148
_cell_volume 607.367046
_symmetry_space_group_name_H-M "P -1"
_symmetry_group_IT_number 2
_symmetry_cell_setting 'triclinic'
loop_
_space_group_symop_operation_xyz
x,y,z
-x,-y,-z
loop_
_atom_site_type_symbol
_atom_site_label
_atom_site_fract_x
_atom_site_fract_y
_atom_site_fract_z
Si Si1 0.136783 0.473121 0.467998
Si Si2 0.862694 0.554656 0.009468
Si Si3 0.232637 0.754489 0.189866
Si Si4 0.691850 0.077738 0.524775
Si Si5 0.098656 0.251448 0.349113
Si Si6 0.805270 0.073014 0.313290
Si Si7 0.000000 0.000000 0.000000
O O1 0.039400 0.354769 0.352492
O O2 0.000000 0.500000 0.500000
O O3 0.018186 0.533798 0.266168
O O4 0.502992 0.511455 0.746545
O O5 0.973903 0.666826 0.053341
O O6 0.000000 0.500000 0.000000
O O7 0.343469 0.836901 0.397428
O O8 0.535641 0.727707 0.379973
O O9 0.067021 0.781383 0.928628
O O10 0.770344 0.116487 0.437174
O O11 0.349811 0.003121 0.239253
O O12 0.930498 0.032154 0.787190
O O13 0.969160 0.163340 0.348338
O O14 0.000000 0.000000 0.500000
O O15 0.500000 0.000000 0.000000
#
# Coordination Sequence:
#
# PCOD9046491 Si02
#       7
#     2   2   2   2   2   2   1
#     4  12  26  46  74 103 149 187 231 293 358 431
#     4  12  23  47  71 105 141 185 235 286 357 416
#     4  12  26  43  76 100 141 179 238 294 338 433
#     4  11  26  45  69 104 129 187 232 294 351 416
#     4  12  26  47  69 107 137 189 234 288 361 415
#     4  12  29  47  70  99 145 185 229 294 357 422
#     4  10  24  42  74  90 138 164 252 280 346 400
#
# _framework density 21.403860999999999
#
# number of rings (size 3 to 8) (size 9 to 14) (size 15 to 20)
#    0.000    0.308    3.077    4.615   15.077    0.000 
#    2.769    0.000    0.000    0.000    0.000    0.000 
#    0.000    0.000    0.000    0.000    0.000    0.000 
#
# Total GULP energy -72430.336775 kJ/mol
# GULP energy per Si atom -5571.564367 kJ/mol
# Density = 2.135514 g / cm^3
# Si number density = 21.403861 Si / 1000 Ang^3
#
#
#
# Elastic Constant Matrix: (Units=GPa)
#
#
# Indices 1 2 3 4 5 6 
#
# 1 159.1369 51.8714 53.6565 -2.1580 -22.1537 25.1746
# 2 51.8714 108.8822 26.6964 4.5601 -13.3229 31.4694
# 3 53.6565 26.6964 134.4108 -30.2349 -3.9947 11.9212
# 4 -2.1580 4.5601 -30.2349 37.5529 7.2482 -9.2774
# 5 -22.1537 -13.3229 -3.9947 7.2482 44.3534 -12.3301
# 6 25.1746 31.4694 11.9212 -9.2774 -12.3301 36.9308
#
#
#
# Elastic Compliance Matrix: (Units=1/GPa)
#
#
# Indices 1 2 3 4 5 6 
#
# 1 0.009067 -0.001960 -0.003666 -0.003607 0.003332 -0.003121
# 2 -0.001960 0.014557 -0.002639 -0.007089 0.001079 -0.011637
# 3 -0.003666 -0.002639 0.011470 0.010535 -0.002520 0.002851
# 4 -0.003607 -0.007089 0.010535 0.040165 -0.005868 0.013229
# 5 0.003332 0.001079 -0.002520 -0.005868 0.026671 0.005053
# 6 -0.003121 -0.011637 0.002851 0.013229 0.005053 0.043211
#
#
# Mechanical properties :
#
#
# Convention : Reuss Voigt Hill
#
# Bulk Modulus (GPa) = 53.86764 74.09759 63.98261
# Shear Modulus (GPa) = 29.78657 41.78111 35.78384
#
# Velocity S-wave (km/s) = 3.73452 4.42298 4.09325
# Velocity P-wave (km/s) = 6.61947 7.79600 7.23170
#
# Compressibility (1/GPa) = 0.01856402
#
# Stress axis : x y z
#
# Youngs Moduli (GPa) = 110.28418 68.69346 87.18772
#
# Poissons Ratio (x) = 0.13465 0.31962
# Poissons Ratio (y) = 0.21617 0.23011
# Poissons Ratio (z) = 0.40428 0.18130
#
# Static dielectric constant tensor:
#      x y z
#    x 1.801980 -0.030390 -0.033760 
#    y -0.030390 1.817740 0.046440 
#    z -0.033760 0.046440 1.737760 
# 
# From -- ./inp_files/202359.got.cif
#   From: 2010.05.17/outbox.cif.g08.bks.cpg/sg2_102_cif.got.tgz:202359.got - 2010.06.03 11:33:40.
