data_PCOD9046634
_publ_section_title
;
Structure prediction by ZEFSAII (Michael W. Deem and Ramdas Pophale) SiO2 
 PCOD9046634
Probable space group: P -1
;
_chemical_formula_sum "Si O2"
_cell_formula_units_Z 14
_cell_length_a 13.230825
_cell_length_b 9.693565
_cell_length_c 8.831055
_cell_angle_alpha 68.520410
_cell_angle_beta 110.409944
_cell_angle_gamma 58.472061
_cell_volume 657.811799
_symmetry_space_group_name_H-M "P -1"
_symmetry_group_IT_number 2
_symmetry_cell_setting 'triclinic'
loop_
_space_group_symop_operation_xyz
x,y,z
-x,-y,-z
loop_
_atom_site_type_symbol
_atom_site_label
_atom_site_fract_x
_atom_site_fract_y
_atom_site_fract_z
Si Si1 0.564296 0.976948 0.877705
Si Si2 0.495761 0.770326 0.749015
Si Si3 0.922365 0.243343 0.877918
Si Si4 0.173514 0.002028 0.645115
Si Si5 0.856415 0.310429 0.166680
Si Si6 0.107388 0.288708 0.751157
Si Si7 0.448094 0.383372 0.504996
O O1 0.529904 0.183317 0.740463
O O2 0.481397 0.956768 0.716923
O O3 0.500000 0.000000 0.000000
O O4 0.757575 0.758989 0.069036
O O5 0.513878 0.716150 0.603426
O O6 0.335442 0.850561 0.690713
O O7 0.669035 0.546246 0.002739
O O8 0.742788 0.422790 0.645242
O O9 0.014203 0.277906 0.822476
O O10 0.903407 0.298861 0.023134
O O11 0.000000 0.000000 0.000000
O O12 0.197323 0.086722 0.763366
O O13 0.005225 0.214454 0.386082
O O14 0.147172 0.863636 0.746719
O O15 0.000000 0.500000 0.500000
O O16 0.500000 0.500000 0.500000
#
# Coordination Sequence:
#
# PCOD9046634 Si02
#       7
#     2   2   2   2   2   2   2
#     4  12  25  46  69 103 142 180 232 290 352 413
#     4  11  25  45  69 103 143 179 238 287 353 414
#     4  11  23  44  68  99 138 177 235 290 342 413
#     4  11  23  42  71  99 142 182 234 285 354 410
#     4  10  24  43  66 105 135 186 228 294 346 418
#     4  12  25  43  69 101 139 184 232 284 352 416
#     4  11  27  45  73 104 136 188 234 287 351 419
#
# _framework density 21.282682000000001
#
# number of rings (size 3 to 8) (size 9 to 14) (size 15 to 20)
#    0.000    0.857    2.857    3.429    6.000    1.143 
#    0.000    2.143    0.000    0.000    0.000    0.000 
#    0.000    0.000    0.000    0.000    0.000    0.000 
#
# Total GULP energy -78246.808359 kJ/mol
# GULP energy per Si atom -5589.057740 kJ/mol
# Density = 2.123424 g / cm^3
# Si number density = 21.282682 Si / 1000 Ang^3
#
#
#
# Elastic Constant Matrix: (Units=GPa)
#
#
# Indices 1 2 3 4 5 6 
#
# 1 159.4518 36.8588 63.1465 1.0848 -7.0124 -12.6352
# 2 36.8588 64.1795 18.6430 -0.7000 -2.8623 5.6232
# 3 63.1465 18.6430 124.2451 -13.3858 -1.1359 1.5578
# 4 1.0848 -0.7000 -13.3858 29.0868 7.3288 11.0549
# 5 -7.0124 -2.8623 -1.1359 7.3288 35.9137 -8.0603
# 6 -12.6352 5.6232 1.5578 11.0549 -8.0603 40.9229
#
#
#
# Elastic Compliance Matrix: (Units=1/GPa)
#
#
# Indices 1 2 3 4 5 6 
#
# 1 0.010193 -0.004802 -0.005200 -0.006459 0.004239 0.006585
# 2 -0.004802 0.018766 -0.000017 0.002835 -0.001155 -0.005054
# 3 -0.005200 -0.000017 0.011619 0.008300 -0.003458 -0.004969
# 4 -0.006459 0.002835 0.008300 0.049585 -0.015174 -0.019083
# 5 0.004239 -0.001155 -0.003458 -0.015174 0.034365 0.012467
# 6 0.006585 -0.005054 -0.004969 -0.019083 0.012467 0.034964
#
#
# Mechanical properties :
#
#
# Convention : Reuss Voigt Hill
#
# Bulk Modulus (GPa) = 48.68410 65.01922 56.85166
# Shear Modulus (GPa) = 26.82754 36.46656 31.64705
#
# Velocity S-wave (km/s) = 3.55425 4.14386 3.86033
# Velocity P-wave (km/s) = 6.30621 7.31519 6.82936
#
# Compressibility (1/GPa) = 0.02054059
#
# Stress axis : x y z
#
# Youngs Moduli (GPa) = 98.10915 53.28746 86.06779
#
# Poissons Ratio (x) = 0.25587 0.44752
# Poissons Ratio (y) = 0.47109 0.00149
# Poissons Ratio (z) = 0.51013 0.00092
#
# Static dielectric constant tensor:
#      x y z
#    x 1.959270 0.052120 -0.033460 
#    y 0.052120 1.341750 0.238840 
#    z -0.033460 0.238840 1.665660 
# 
# From -- ./inp_files/158610.got.cif
#   From: 2010.05.17/outbox.cif.g08.bks.cpg/sg2_80_cif.got.tgz:158610.got - 2010.06.03 11:33:40.
