data_PCOD9046581
_publ_section_title
;
Structure prediction by ZEFSAII (Michael W. Deem and Ramdas Pophale) SiO2 
 PCOD9046581
Probable space group: P -1
;
_chemical_formula_sum "Si O2"
_cell_formula_units_Z 16
_cell_length_a 12.968819
_cell_length_b 10.872408
_cell_length_c 5.328545
_cell_angle_alpha 88.406958
_cell_angle_beta 109.356450
_cell_angle_gamma 65.596160
_cell_volume 633.556815
_symmetry_space_group_name_H-M "P -1"
_symmetry_group_IT_number 2
_symmetry_cell_setting 'triclinic'
loop_
_space_group_symop_operation_xyz
x,y,z
-x,-y,-z
loop_
_atom_site_type_symbol
_atom_site_label
_atom_site_fract_x
_atom_site_fract_y
_atom_site_fract_z
Si Si1 0.528436 0.173072 0.108473
Si Si2 0.113377 0.482001 0.756303
Si Si3 0.231971 0.060344 0.505741
Si Si4 0.956622 0.204655 0.368796
Si Si5 0.352340 0.392902 0.645649
Si Si6 0.844229 0.151091 0.798775
Si Si7 0.393890 0.622915 0.548881
Si Si8 0.715994 0.735696 0.808825
O O1 0.563951 0.276804 0.286421
O O2 0.407717 0.172839 0.136338
O O3 0.653410 0.034295 0.221639
O O4 0.475537 0.254909 0.803972
O O5 0.093905 0.636960 0.770664
O O6 0.241231 0.398134 0.718904
O O7 0.000000 0.500000 0.500000
O O8 0.142416 0.365494 0.996236
O O9 0.272543 0.160003 0.383809
O O10 0.102172 0.144821 0.530783
O O11 0.199926 0.964565 0.294537
O O12 0.899897 0.181515 0.583876
O O13 0.925054 0.129079 0.114251
O O14 0.356288 0.533131 0.712183
O O15 0.316281 0.380480 0.335023
O O16 0.718571 0.289262 0.725731
O O17 0.500000 0.500000 0.500000
#
# Coordination Sequence:
#
# PCOD9046581 Si02
#       8
#     2   2   2   2   2   2   2   2
#     4  10  24  43  65 103 140 190 241 298 364 434
#     4  11  26  44  75 108 143 188 240 303 374 436
#     4  11  26  47  70 102 147 199 245 292 364 446
#     4  12  26  50  77 106 150 191 250 306 365 432
#     4  11  22  42  69 105 141 182 241 307 365 428
#     4  11  27  49  74 112 146 194 249 306 363 436
#     4  11  21  40  73 104 141 186 240 308 366 427
#     4  11  24  46  71 103 147 186 241 303 371 437
#
# _framework density 25.254245000000001
#
# number of rings (size 3 to 8) (size 9 to 14) (size 15 to 20)
#    0.000    1.000    2.500    3.000    3.500    3.500 
#    6.750    0.000    0.000    0.000    0.000    0.000 
#    0.000    0.000    0.000    0.000    0.000    0.000 
#
# Total GULP energy -89423.281802 kJ/mol
# GULP energy per Si atom -5588.955113 kJ/mol
# Density = 2.519677 g / cm^3
# Si number density = 25.254245 Si / 1000 Ang^3
#
#
#
# Elastic Constant Matrix: (Units=GPa)
#
#
# Indices 1 2 3 4 5 6 
#
# 1 80.1728 42.5632 5.7455 -9.8073 21.3903 5.4066
# 2 42.5632 85.9431 43.9123 -20.0543 22.8053 -1.4731
# 3 5.7455 43.9123 92.9329 -21.7394 34.7579 -7.9808
# 4 -9.8073 -20.0543 -21.7394 54.2344 -12.4805 13.5544
# 5 21.3903 22.8053 34.7579 -12.4805 33.6537 -7.0866
# 6 5.4066 -1.4731 -7.9808 13.5544 -7.0866 44.1058
#
#
#
# Elastic Compliance Matrix: (Units=1/GPa)
#
#
# Indices 1 2 3 4 5 6 
#
# 1 0.023705 -0.012309 0.011298 0.001057 -0.018981 -0.004647
# 2 -0.012309 0.022784 -0.011221 0.002819 0.005058 0.000186
# 3 0.011298 -0.011221 0.025179 0.002750 -0.024997 -0.002065
# 4 0.001057 0.002819 0.002750 0.022725 0.001689 -0.006250
# 5 -0.018981 0.005058 -0.024997 0.001689 0.066509 0.008140
# 6 -0.004647 0.000186 -0.002065 -0.006250 0.008140 0.026104
#
#
# Mechanical properties :
#
#
# Convention : Reuss Voigt Hill
#
# Bulk Modulus (GPa) = 21.18459 49.27677 35.23068
# Shear Modulus (GPa) = 22.00665 37.52063 29.76364
#
# Velocity S-wave (km/s) = 2.95516 3.85868 3.43674
# Velocity P-wave (km/s) = 4.47780 6.27751 5.45242
#
# Compressibility (1/GPa) = 0.04720412
#
# Stress axis : x y z
#
# Youngs Moduli (GPa) = 42.18544 43.89132 39.71502
#
# Poissons Ratio (x) = 0.54024 -0.44869
# Poissons Ratio (y) = 0.51925 0.44564
# Poissons Ratio (z) = -0.47660 0.49250
#
# Static dielectric constant tensor:
#      x y z
#    x 2.211780 0.045730 -0.215440 
#    y 0.045730 2.024200 -0.053040 
#    z -0.215440 -0.053040 2.291810 
# 
# From -- ./inp_files/70547.got.cif
#   From: 2010.05.17/outbox.cif.g08.bks.cpg/sg2_36_cif.got.tgz:70547.got - 2010.06.03 11:33:40.
