data_PCOD9046781
_publ_section_title
;
Structure prediction by ZEFSAII (Michael W. Deem and Ramdas Pophale) SiO2 
 PCOD9046781
Probable space group: P -1
;
_chemical_formula_sum "Si O2"
_cell_formula_units_Z 14
_cell_length_a 14.070703
_cell_length_b 7.963806
_cell_length_c 10.714649
_cell_angle_alpha 109.532967
_cell_angle_beta 46.217707
_cell_angle_gamma 75.269496
_cell_volume 572.235340
_symmetry_space_group_name_H-M "P -1"
_symmetry_group_IT_number 2
_symmetry_cell_setting 'triclinic'
loop_
_space_group_symop_operation_xyz
x,y,z
-x,-y,-z
loop_
_atom_site_type_symbol
_atom_site_label
_atom_site_fract_x
_atom_site_fract_y
_atom_site_fract_z
Si Si1 0.158960 0.532260 0.135783
Si Si2 0.025707 0.290998 0.120759
Si Si3 0.653202 0.214635 0.414736
Si Si4 0.175677 0.547370 0.391958
Si Si5 0.183097 0.950337 0.504415
Si Si6 0.628792 0.640917 0.476310
Si Si7 0.506682 0.101077 0.854273
O O1 0.126722 0.383546 0.051806
O O2 0.069255 0.598761 0.374152
O O3 0.038892 0.802368 0.248758
O O4 0.375502 0.338370 0.930902
O O5 0.932809 0.361378 0.358497
O O6 0.852148 0.454735 0.223593
O O7 0.177434 0.991448 0.886440
O O8 0.746964 0.078234 0.426632
O O9 0.601775 0.472376 0.521224
O O10 0.477536 0.271544 0.537031
O O11 0.228652 0.704161 0.369017
O O12 0.364917 0.247762 0.136482
O O13 0.302444 0.975123 0.321239
O O14 0.542971 0.878499 0.699366
#
# Coordination Sequence:
#
# PCOD9046781 Si02
#       7
#     2   2   2   2   2   2   2
#     4  10  24  43  68 101 131 174 215 273 335 383
#     4  12  22  48  67 100 132 173 223 273 325 387
#     4  11  26  43  70  98 131 176 224 268 327 391
#     4  10  24  44  69  98 133 172 224 269 325 392
#     4  12  23  46  65  98 139 176 212 269 334 392
#     4  11  23  46  66  98 131 174 226 271 322 384
#     4  10  24  45  65 100 134 168 225 264 335 387
#
# _framework density 24.465458000000002
#
# number of rings (size 3 to 8) (size 9 to 14) (size 15 to 20)
#    0.857    0.286    4.286    1.714    0.000    2.857 
#    5.143    0.000    0.000    0.000    0.000    0.000 
#    0.000    0.000    0.000    0.000    0.000    0.000 
#
# Total GULP energy -78262.229137 kJ/mol
# GULP energy per Si atom -5590.159224 kJ/mol
# Density = 2.440977 g / cm^3
# Si number density = 24.465458 Si / 1000 Ang^3
#
#
#
# Elastic Constant Matrix: (Units=GPa)
#
#
# Indices 1 2 3 4 5 6 
#
# 1 115.6932 13.4737 28.8757 20.0813 -17.2529 -4.3203
# 2 13.4737 52.0530 42.5261 19.4339 14.8429 1.2956
# 3 28.8757 42.5261 102.9456 31.2985 2.1404 7.2838
# 4 20.0813 19.4339 31.2985 42.1359 -3.2118 2.8831
# 5 -17.2529 14.8429 2.1404 -3.2118 32.6814 12.7568
# 6 -4.3203 1.2956 7.2838 2.8831 12.7568 50.2559
#
#
#
# Elastic Compliance Matrix: (Units=1/GPa)
#
#
# Indices 1 2 3 4 5 6 
#
# 1 0.010713 -0.002913 -0.001217 -0.002290 0.007020 -0.000478
# 2 -0.002913 0.040573 -0.012943 -0.009923 -0.022800 0.006936
# 3 -0.001217 -0.012943 0.017255 -0.005687 0.004780 -0.003159
# 4 -0.002290 -0.009923 -0.005687 0.034478 0.008309 -0.003204
# 5 0.007020 -0.022800 0.004780 0.008309 0.050121 -0.012701
# 6 -0.000478 0.006936 -0.003159 -0.003204 -0.012701 0.023544
#
#
# Mechanical properties :
#
#
# Convention : Reuss Voigt Hill
#
# Bulk Modulus (GPa) = 29.07520 48.93809 39.00664
# Shear Modulus (GPa) = 22.49258 37.40239 29.94748
#
# Velocity S-wave (km/s) = 3.03539 3.91421 3.50247
# Velocity P-wave (km/s) = 4.91881 6.36195 5.68635
#
# Compressibility (1/GPa) = 0.03439357
#
# Stress axis : x y z
#
# Youngs Moduli (GPa) = 93.34276 24.64693 57.95385
#
# Poissons Ratio (x) = 0.07181 0.07055
# Poissons Ratio (y) = 0.27195 0.75010
# Poissons Ratio (z) = 0.11364 0.31901
#
# Static dielectric constant tensor:
#      x y z
#    x 1.928660 -0.064400 0.002970 
#    y -0.064400 2.006440 -0.035410 
#    z 0.002970 -0.035410 1.943270 
# 
# From -- ./inp_files/346445.got.cif
#   From: 2010.05.17/outbox.cif.g08.bks.cpg/sg2_174_cif.got.tgz:346445.got - 2010.06.03 11:33:40.
