data_PCOD9046731
_publ_section_title
;
Structure prediction by ZEFSAII (Michael W. Deem and Ramdas Pophale) SiO2 
 PCOD9046731
Probable space group: P -1
;
_chemical_formula_sum "Si O2"
_cell_formula_units_Z 14
_cell_length_a 12.216693
_cell_length_b 4.929927
_cell_length_c 15.797138
_cell_angle_alpha 55.266778
_cell_angle_beta 135.101939
_cell_angle_gamma 113.705364
_cell_volume 551.893613
_symmetry_space_group_name_H-M "P -1"
_symmetry_group_IT_number 2
_symmetry_cell_setting 'triclinic'
loop_
_space_group_symop_operation_xyz
x,y,z
-x,-y,-z
loop_
_atom_site_type_symbol
_atom_site_label
_atom_site_fract_x
_atom_site_fract_y
_atom_site_fract_z
Si Si1 0.910862 0.980206 0.542995
Si Si2 0.718100 0.358256 0.494487
Si Si3 0.862503 0.483472 0.184285
Si Si4 0.167705 0.470592 0.023645
Si Si5 0.577171 0.458550 0.141824
Si Si6 0.887164 0.939471 0.788582
Si Si7 0.530519 0.256888 0.796038
O O1 0.788168 0.682912 0.519244
O O2 0.043352 0.858489 0.701952
O O3 0.821207 0.286246 0.479756
O O4 0.000000 0.000000 0.500000
O O5 0.546558 0.452391 0.353643
O O6 0.753501 0.047883 0.630744
O O7 0.756336 0.491840 0.207142
O O8 0.771677 0.525045 0.039575
O O9 0.987276 0.772980 0.200780
O O10 0.171299 0.125485 0.136519
O O11 0.285697 0.700311 0.100117
O O12 0.992563 0.610233 0.892683
O O13 0.536609 0.703239 0.152165
O O14 0.530670 0.089857 0.210217
O O15 0.500000 0.500000 0.000000
#
# Coordination Sequence:
#
# PCOD9046731 Si02
#       7
#     2   2   2   2   2   2   2
#     4  11  22  39  63  92 130 172 211 263 322 389
#     4  11  23  42  62  94 132 165 217 264 326 385
#     4  11  22  39  68  93 129 170 221 272 322 383
#     4  11  23  43  67  92 130 172 227 271 320 384
#     4  12  25  42  67 100 139 170 214 263 334 396
#     4  10  24  43  67  94 126 176 224 273 319 381
#     4  12  26  43  67 102 133 174 211 269 330 394
#
# _framework density 25.367208000000002
#
# number of rings (size 3 to 8) (size 9 to 14) (size 15 to 20)
#    0.000    0.857    2.857    4.714    2.000    1.714 
#    0.000    0.000    0.000    4.286    0.000    0.000 
#    0.000    0.000    0.000    0.000    0.000    0.000 
#
# Total GULP energy -78316.384016 kJ/mol
# GULP energy per Si atom -5594.027430 kJ/mol
# Density = 2.530947 g / cm^3
# Si number density = 25.367208 Si / 1000 Ang^3
#
#
#
# Elastic Constant Matrix: (Units=GPa)
#
#
# Indices 1 2 3 4 5 6 
#
# 1 57.3428 14.0302 22.0997 1.5739 -2.2848 2.1782
# 2 14.0302 81.2521 1.7503 3.8238 -0.3030 0.3821
# 3 22.0997 1.7503 179.8928 -11.0542 -7.3013 3.8436
# 4 1.5739 3.8238 -11.0542 27.1890 -4.4609 -4.1296
# 5 -2.2848 -0.3030 -7.3013 -4.4609 26.1006 -4.8487
# 6 2.1782 0.3821 3.8436 -4.1296 -4.8487 36.1314
#
#
#
# Elastic Compliance Matrix: (Units=1/GPa)
#
#
# Indices 1 2 3 4 5 6 
#
# 1 0.019247 -0.003185 -0.002397 -0.001711 0.000499 -0.001000
# 2 -0.003185 0.012932 0.000150 -0.001672 -0.000411 -0.000207
# 3 -0.002397 0.000150 0.006113 0.002951 0.002025 0.000102
# 4 -0.001711 -0.001672 0.002951 0.040581 0.008633 0.005604
# 5 0.000499 -0.000411 0.002025 0.008633 0.041569 0.006324
# 6 -0.001000 -0.000207 0.000102 0.005604 0.006324 0.029218
#
#
# Mechanical properties :
#
#
# Convention : Reuss Voigt Hill
#
# Bulk Modulus (GPa) = 36.45691 43.80534 40.13113
# Shear Modulus (GPa) = 29.46973 36.59136 33.03055
#
# Velocity S-wave (km/s) = 3.41211 3.80210 3.61237
# Velocity P-wave (km/s) = 5.47048 6.04819 5.76658
#
# Compressibility (1/GPa) = 0.02742964
#
# Stress axis : x y z
#
# Youngs Moduli (GPa) = 51.95667 77.32645 163.58004
#
# Poissons Ratio (x) = 0.24626 0.39210
# Poissons Ratio (y) = 0.16547 -0.02461
# Poissons Ratio (z) = 0.12454 -0.01163
#
# Static dielectric constant tensor:
#      x y z
#    x 2.079940 0.003420 0.001430 
#    y 0.003420 1.952710 -0.015770 
#    z 0.001430 -0.015770 2.082250 
# 
# From -- ./inp_files/65659.got.cif
#   From: 2010.05.17/outbox.cif.g08.bks.cpg/sg2_33_cif.got.tgz:65659.got - 2010.06.03 11:33:40.
