data_PCOD9046702
_publ_section_title
;
Structure prediction by ZEFSAII (Michael W. Deem and Ramdas Pophale) SiO2 
 PCOD9046702
Probable space group: P -1
;
_chemical_formula_sum "Si O2"
_cell_formula_units_Z 10
_cell_length_a 16.152549
_cell_length_b 7.208020
_cell_length_c 11.797209
_cell_angle_alpha 61.250800
_cell_angle_beta 152.121549
_cell_angle_gamma 138.058785
_cell_volume 354.229533
_symmetry_space_group_name_H-M "P -1"
_symmetry_group_IT_number 2
_symmetry_cell_setting 'triclinic'
loop_
_space_group_symop_operation_xyz
x,y,z
-x,-y,-z
loop_
_atom_site_type_symbol
_atom_site_label
_atom_site_fract_x
_atom_site_fract_y
_atom_site_fract_z
Si Si1 0.873149 0.125633 0.922552
Si Si2 0.277493 0.150164 0.409111
Si Si3 0.249916 0.764791 0.049870
Si Si4 0.682663 0.846815 0.184058
Si Si5 0.900918 0.631348 0.294067
O O1 0.732535 0.840439 0.743597
O O2 0.675327 0.007503 0.821057
O O3 0.970698 0.408668 0.876288
O O4 0.155548 0.267841 0.264362
O O5 0.033175 0.793174 0.284936
O O6 0.535155 0.226750 0.712309
O O7 0.239787 0.900376 0.887187
O O8 0.048351 0.934554 0.472455
O O9 0.500000 0.500000 0.000000
O O10 0.433962 0.681392 0.018899
O O11 0.000000 0.500000 0.500000
#
# Coordination Sequence:
#
# PCOD9046702 Si02
#       5
#     2   2   2   2   2
#     4  10  24  43  67 102 136 186 240 294 361 424
#     4  11  23  43  70 100 139 183 241 298 356 431
#     4  11  23  44  69  98 142 184 239 296 359 431
#     4  12  27  47  73 108 146 190 241 303 367 436
#     4  12  25  46  75 106 142 191 241 300 369 429
#
# _framework density 28.230281999999999
#
# number of rings (size 3 to 8) (size 9 to 14) (size 15 to 20)
#    0.000    0.800    2.000    4.800    2.800    0.000 
#    7.200    0.000    0.000    0.000    0.000    0.000 
#    0.000    0.000    0.000    0.000    0.000    0.000 
#
# Total GULP energy -55865.297921 kJ/mol
# GULP energy per Si atom -5586.529792 kJ/mol
# Density = 2.816603 g / cm^3
# Si number density = 28.230282 Si / 1000 Ang^3
#
#
#
# Elastic Constant Matrix: (Units=GPa)
#
#
# Indices 1 2 3 4 5 6 
#
# 1 184.6232 32.9816 39.3723 -5.2621 -2.2149 21.9554
# 2 32.9816 109.3813 47.1301 -18.6648 9.0368 30.6244
# 3 39.3723 47.1301 170.7814 12.9869 10.9270 7.1942
# 4 -5.2621 -18.6648 12.9869 46.7156 -0.4986 4.8577
# 5 -2.2149 9.0368 10.9270 -0.4986 38.3290 2.6401
# 6 21.9554 30.6244 7.1942 4.8577 2.6401 68.8168
#
#
#
# Elastic Compliance Matrix: (Units=1/GPa)
#
#
# Indices 1 2 3 4 5 6 
#
# 1 0.006043 -0.000785 -0.001243 0.000885 0.001007 -0.001550
# 2 -0.000785 0.014151 -0.003908 0.007266 -0.001754 -0.006084
# 3 -0.001243 -0.003908 0.007547 -0.003991 -0.001470 0.001685
# 4 0.000885 0.007266 -0.003991 0.026034 0.000155 -0.004942
# 5 0.001007 -0.001754 -0.001470 0.000155 0.027013 -0.000434
# 6 -0.001550 -0.006084 0.001685 -0.004942 -0.000434 0.017923
#
#
# Mechanical properties :
#
#
# Convention : Reuss Voigt Hill
#
# Bulk Modulus (GPa) = 63.01579 78.19490 70.60534
# Shear Modulus (GPa) = 43.15067 53.79241 48.47154
#
# Velocity S-wave (km/s) = 3.91388 4.36992 4.14817
# Velocity P-wave (km/s) = 6.54179 7.29525 6.92877
#
# Compressibility (1/GPa) = 0.01586904
#
# Stress axis : x y z
#
# Youngs Moduli (GPa) = 165.47107 70.66526 132.50114
#
# Poissons Ratio (x) = 0.05547 0.16470
# Poissons Ratio (y) = 0.12989 0.51786
# Poissons Ratio (z) = 0.20568 0.27618
#
# Static dielectric constant tensor:
#      x y z
#    x 2.571420 -0.390230 -0.043850 
#    y -0.390230 2.425670 0.145000 
#    z -0.043850 0.145000 2.198790 
# 
# From -- ./inp_files/19360.got.cif
#   From: 2010.05.17/outbox.cif.g08.bks.cpg/sg2_10_cif.got.tgz:19360.got - 2010.06.03 11:33:40.
