data_PCOD9046786
_publ_section_title
;
Structure prediction by ZEFSAII (Michael W. Deem and Ramdas Pophale) SiO2 
 PCOD9046786
Probable space group: P -1
;
_chemical_formula_sum "Si O2"
_cell_formula_units_Z 14
_cell_length_a 5.001420
_cell_length_b 27.164487
_cell_length_c 8.976015
_cell_angle_alpha 31.601692
_cell_angle_beta 60.294295
_cell_angle_gamma 71.395543
_cell_volume 540.639639
_symmetry_space_group_name_H-M "P -1"
_symmetry_group_IT_number 2
_symmetry_cell_setting 'triclinic'
loop_
_space_group_symop_operation_xyz
x,y,z
-x,-y,-z
loop_
_atom_site_type_symbol
_atom_site_label
_atom_site_fract_x
_atom_site_fract_y
_atom_site_fract_z
Si Si1 0.446469 0.102902 0.796119
Si Si2 0.423033 0.473066 0.845416
Si Si3 0.405557 0.904613 0.669369
Si Si4 0.814313 0.635486 0.536185
Si Si5 0.643601 0.376260 0.774495
Si Si6 0.307912 0.166935 0.973463
Si Si7 0.143379 0.183484 0.423291
O O1 0.378016 0.099494 0.997523
O O2 0.180434 0.146686 0.675836
O O3 0.787986 0.172927 0.497690
O O4 0.500000 0.000000 0.000000
O O5 0.609110 0.551623 0.706255
O O6 0.645484 0.414444 0.845096
O O7 0.317919 0.533048 0.584104
O O8 0.160677 0.406957 0.194998
O O9 0.675856 0.890441 0.517780
O O10 0.500000 0.000000 0.500000
O O11 0.438063 0.824326 0.989706
O O12 0.055555 0.881457 0.758265
O O13 0.663941 0.726234 0.369922
O O14 0.098634 0.673071 0.244438
O O15 0.324825 0.293583 0.066667
#
# Coordination Sequence:
#
# PCOD9046786 Si02
#       7
#     2   2   2   2   2   2   2
#     4  12  26  47  70 105 141 186 235 292 359 427
#     4  10  24  43  68 101 137 190 231 299 356 426
#     4  12  24  44  70 103 136 184 231 289 355 421
#     4  11  23  44  67 102 141 184 240 290 363 420
#     4  11  23  44  69 101 142 180 245 288 360 424
#     4  12  25  44  71 100 143 181 234 294 349 429
#     4  12  25  44  73 101 142 184 233 295 353 425
#
# _framework density 25.895253
#
# number of rings (size 3 to 8) (size 9 to 14) (size 15 to 20)
#    0.000    0.571    1.429    6.857    2.000    0.000 
#   10.286    0.000    0.000    0.000    0.000    0.000 
#    0.000    0.000    0.000    0.000    0.000    0.000 
#
# Total GULP energy -78290.155886 kJ/mol
# GULP energy per Si atom -5592.153992 kJ/mol
# Density = 2.583631 g / cm^3
# Si number density = 25.895253 Si / 1000 Ang^3
#
#
#
# Elastic Constant Matrix: (Units=GPa)
#
#
# Indices 1 2 3 4 5 6 
#
# 1 48.8456 17.3619 8.8346 1.1601 -1.2833 2.0097
# 2 17.3619 117.7897 3.0997 4.3841 -3.6780 8.6167
# 3 8.8346 3.0997 90.8023 -6.0114 -0.7628 7.5309
# 4 1.1601 4.3841 -6.0114 45.6646 4.9177 1.9870
# 5 -1.2833 -3.6780 -0.7628 4.9177 40.0896 5.0389
# 6 2.0097 8.6167 7.5309 1.9870 5.0389 29.4432
#
#
#
# Elastic Compliance Matrix: (Units=1/GPa)
#
#
# Indices 1 2 3 4 5 6 
#
# 1 0.021992 -0.003145 -0.002059 -0.000573 0.000458 -0.000094
# 2 -0.003145 0.009211 0.000171 -0.000793 0.001181 -0.002673
# 3 -0.002059 0.000171 0.011572 0.001654 0.000349 -0.003041
# 4 -0.000573 -0.000793 0.001654 0.022548 -0.002673 -0.001216
# 5 0.000458 0.001181 0.000349 -0.002673 0.025997 -0.004735
# 6 -0.000094 -0.002673 -0.003041 -0.001216 -0.004735 0.036423
#
#
# Mechanical properties :
#
#
# Convention : Reuss Voigt Hill
#
# Bulk Modulus (GPa) = 30.57233 35.11444 32.84338
# Shear Modulus (GPa) = 33.62220 38.24890 35.93555
#
# Velocity S-wave (km/s) = 3.60723 3.84743 3.72926
# Velocity P-wave (km/s) = 5.40197 5.77291 5.59052
#
# Compressibility (1/GPa) = 0.03270932
#
# Stress axis : x y z
#
# Youngs Moduli (GPa) = 45.47025 108.56944 86.41530
#
# Poissons Ratio (x) = 0.34144 0.17790
# Poissons Ratio (y) = 0.14300 -0.01475
# Poissons Ratio (z) = 0.09361 -0.01853
#
# Static dielectric constant tensor:
#      x y z
#    x 2.073260 -0.051300 0.047570 
#    y -0.051300 2.099030 0.006430 
#    z 0.047570 0.006430 2.088750 
# 
# From -- ./inp_files/39624.got.cif
#   From: 2010.05.17/outbox.cif.g08.bks.cpg/sg2_20_cif.got.tgz:39624.got - 2010.06.03 11:33:40.
