data_PCOD9046898
_publ_section_title
;
Structure prediction by ZEFSAII (Michael W. Deem and Ramdas Pophale) SiO2 
 PCOD9046898
Probable space group: P -1
;
_chemical_formula_sum "Si O2"
_cell_formula_units_Z 15
_cell_length_a 10.836098
_cell_length_b 12.975086
_cell_length_c 12.289677
_cell_angle_alpha 115.643151
_cell_angle_beta 135.677583
_cell_angle_gamma 99.744479
_cell_volume 707.049426
_symmetry_space_group_name_H-M "P -1"
_symmetry_group_IT_number 2
_symmetry_cell_setting 'triclinic'
loop_
_space_group_symop_operation_xyz
x,y,z
-x,-y,-z
loop_
_atom_site_type_symbol
_atom_site_label
_atom_site_fract_x
_atom_site_fract_y
_atom_site_fract_z
Si Si1 0.550561 0.159604 0.100579
Si Si2 0.500000 0.500000 0.500000
Si Si3 0.282131 0.620737 0.300171
Si Si4 0.280448 0.244731 0.051545
Si Si5 0.061405 0.634586 0.370338
Si Si6 0.354665 0.044964 0.463102
Si Si7 0.511232 0.225764 0.864508
Si Si8 0.730845 0.682358 0.164015
O O1 0.327887 0.133409 0.004692
O O2 0.815512 0.319568 0.411824
O O3 0.576461 0.203620 0.011289
O O4 0.500000 0.000000 0.000000
O O5 0.348456 0.524477 0.335834
O O6 0.461250 0.384479 0.326113
O O7 0.252208 0.684447 0.417658
O O8 0.519029 0.789054 0.451189
O O9 0.000000 0.500000 0.000000
O O10 0.344691 0.335698 0.017575
O O11 0.968589 0.115334 0.826489
O O12 0.996245 0.736169 0.361649
O O13 0.780843 0.426481 0.089004
O O14 0.426042 0.100448 0.658935
O O15 0.500000 0.000000 0.500000
O O16 0.268854 0.196462 0.720513
O O17 0.500000 0.500000 0.000000
#
# Coordination Sequence:
#
# PCOD9046898 Si02
#       8
#     2   1   2   2   2   2   2   2
#     4  11  26  44  67 101 143 185 227 298 364 430
#     4  12  26  48  74 104 146 192 244 302 348 444
#     4  12  25  48  76 105 142 196 245 297 370 436
#     4  11  26  47  69 106 142 182 242 296 363 427
#     4  11  21  45  70  98 134 184 239 292 354 429
#     4  12  27  44  73 107 144 191 240 305 370 439
#     4  10  24  43  69 102 134 183 239 290 362 427
#     4   9  21  41  73  99 130 179 234 292 348 428
#
# _framework density 21.214924
#
# number of rings (size 3 to 8) (size 9 to 14) (size 15 to 20)
#    0.000    1.067    2.667    2.800    7.467    1.600 
#    2.400    0.000    0.000    0.000    0.000    0.000 
#    0.000    0.000    0.000    0.000    0.000    0.000 
#
# Total GULP energy -83576.451322 kJ/mol
# GULP energy per Si atom -5571.763421 kJ/mol
# Density = 2.116664 g / cm^3
# Si number density = 21.214924 Si / 1000 Ang^3
#
#
#
# Elastic Constant Matrix: (Units=GPa)
#
#
# Indices 1 2 3 4 5 6 
#
# 1 136.1028 58.6036 39.3621 -10.3457 -28.3733 -10.5449
# 2 58.6036 111.2375 37.9556 -19.2546 2.1788 -7.7639
# 3 39.3621 37.9556 57.0500 -12.8874 -15.8274 -1.7319
# 4 -10.3457 -19.2546 -12.8874 32.3403 5.9769 11.1607
# 5 -28.3733 2.1788 -15.8274 5.9769 38.1099 0.2671
# 6 -10.5449 -7.7639 -1.7319 11.1607 0.2671 36.8614
#
#
#
# Elastic Compliance Matrix: (Units=1/GPa)
#
#
# Indices 1 2 3 4 5 6 
#
# 1 0.012808 -0.006410 -0.002708 -0.003633 0.009325 0.003219
# 2 -0.006410 0.016289 -0.007686 0.006666 -0.009937 -0.000710
# 3 -0.002708 -0.007686 0.028145 0.004955 0.009354 -0.002639
# 4 -0.003633 0.006666 0.004955 0.041144 -0.007398 -0.011806
# 5 0.009325 -0.009937 0.009354 -0.007398 0.038774 0.002973
# 6 0.003219 -0.000710 -0.002639 -0.011806 0.002973 0.031329
#
#
# Mechanical properties :
#
#
# Convention : Reuss Voigt Hill
#
# Bulk Modulus (GPa) = 42.31609 64.02589 53.17099
# Shear Modulus (GPa) = 23.81235 32.69358 28.25296
#
# Velocity S-wave (km/s) = 3.35391 3.92990 3.65327
# Velocity P-wave (km/s) = 5.91506 7.13003 6.55077
#
# Compressibility (1/GPa) = 0.02363167
#
# Stress axis : x y z
#
# Youngs Moduli (GPa) = 78.07657 61.39289 35.53043
#
# Poissons Ratio (x) = 0.39355 0.09622
# Poissons Ratio (y) = 0.50050 0.27310
# Poissons Ratio (z) = 0.21143 0.47189
#
# Static dielectric constant tensor:
#      x y z
#    x 1.759600 -0.041080 0.018610 
#    y -0.041080 1.727590 -0.013370 
#    z 0.018610 -0.013370 1.765270 
# 
# From -- ./inp_files/428609.got.cif
#   From: 2010.05.17/outbox.cif.g08.bks.cpg/sg2_215_cif.got.tgz:428609.got - 2010.06.03 11:33:40.
