data_PCOD9046492
_publ_section_title
;
Structure prediction by ZEFSAII (Michael W. Deem and Ramdas Pophale) SiO2 
 PCOD9046492
Probable space group: P -1
;
_chemical_formula_sum "Si O2"
_cell_formula_units_Z 13
_cell_length_a 8.986593
_cell_length_b 9.760953
_cell_length_c 14.526665
_cell_angle_alpha 93.579440
_cell_angle_beta 102.859993
_cell_angle_gamma 30.899561
_cell_volume 616.568525
_symmetry_space_group_name_H-M "P -1"
_symmetry_group_IT_number 2
_symmetry_cell_setting 'triclinic'
loop_
_space_group_symop_operation_xyz
x,y,z
-x,-y,-z
loop_
_atom_site_type_symbol
_atom_site_label
_atom_site_fract_x
_atom_site_fract_y
_atom_site_fract_z
Si Si1 0.669134 0.796756 0.430100
Si Si2 0.321411 0.020705 0.737635
Si Si3 0.541382 0.591502 0.409903
Si Si4 0.185717 0.715387 0.019860
Si Si5 0.322220 0.528822 0.241405
Si Si6 0.000000 0.000000 0.500000
Si Si7 0.751079 0.801442 0.944663
O O1 0.679221 0.892824 0.351123
O O2 0.547361 0.742346 0.380859
O O3 0.000000 0.500000 0.500000
O O4 0.500000 0.000000 0.500000
O O5 0.993749 0.283983 0.753504
O O6 0.407872 0.793842 0.721362
O O7 0.578290 0.881020 0.834696
O O8 0.399509 0.602541 0.313575
O O9 0.313753 0.776245 0.473682
O O10 0.864196 0.264964 0.465324
O O11 0.273942 0.601249 0.130939
O O12 0.500000 0.500000 0.000000
O O13 0.947035 0.786183 0.954488
O O14 0.000000 0.000000 0.000000
O O15 0.000000 0.500000 0.000000
O O16 0.500000 0.000000 0.000000
#
# Coordination Sequence:
#
# PCOD9046492 Si02
#       7
#     2   2   2   2   2   1   2
#     4  12  29  47  70 103 144 184 243 303 362 420
#     4  12  26  47  73 104 141 194 239 304 356 435
#     4  11  26  45  70 103 136 180 239 287 366 417
#     4  12  26  45  72 105 147 184 233 299 355 437
#     4  12  26  46  73 104 139 187 245 286 366 444
#     4  10  24  42  74  92 134 184 224 292 352 430
#     4  12  23  48  73 103 143 188 239 288 363 438
#
# _framework density 21.084436
#
# number of rings (size 3 to 8) (size 9 to 14) (size 15 to 20)
#    0.000    0.308    3.077    4.615   15.077    0.000 
#    2.769    0.000    0.000    0.000    0.000    0.000 
#    0.000    0.000    0.000    0.000    0.000    0.000 
#
# Total GULP energy -72497.594444 kJ/mol
# GULP energy per Si atom -5576.738034 kJ/mol
# Density = 2.103645 g / cm^3
# Si number density = 21.084436 Si / 1000 Ang^3
#
#
#
# Elastic Constant Matrix: (Units=GPa)
#
#
# Indices 1 2 3 4 5 6 
#
# 1 130.9303 41.3947 40.0928 13.1672 -8.2084 7.2434
# 2 41.3947 192.6450 33.2084 -3.9790 -22.3068 -14.2559
# 3 40.0928 33.2084 109.5495 4.4465 -23.2153 -0.3359
# 4 13.1672 -3.9790 4.4465 28.8247 5.2186 -6.2432
# 5 -8.2084 -22.3068 -23.2153 5.2186 52.8393 2.4349
# 6 7.2434 -14.2559 -0.3359 -6.2432 2.4349 47.8554
#
#
#
# Elastic Compliance Matrix: (Units=1/GPa)
#
#
# Indices 1 2 3 4 5 6 
#
# 1 0.009736 -0.001903 -0.002776 -0.004885 0.000096 -0.002702
# 2 -0.001903 0.006154 -0.000908 0.002070 0.001593 0.002304
# 3 -0.002776 -0.000908 0.011398 -0.001441 0.004344 -0.000179
# 4 -0.004885 0.002070 -0.001441 0.039761 -0.004757 0.006775
# 5 0.000096 0.001593 0.004344 -0.004757 0.022049 -0.001252
# 6 -0.002702 0.002304 -0.000179 0.006775 -0.001252 0.022938
#
#
# Mechanical properties :
#
#
# Convention : Reuss Voigt Hill
#
# Bulk Modulus (GPa) = 62.06104 73.61298 67.83701
# Shear Modulus (GPa) = 38.88580 47.13246 43.00913
#
# Velocity S-wave (km/s) = 4.29918 4.73315 4.52137
# Velocity P-wave (km/s) = 7.35815 8.05354 7.71368
#
# Compressibility (1/GPa) = 0.01611317
#
# Stress axis : x y z
#
# Youngs Moduli (GPa) = 102.70966 162.49284 87.73464
#
# Poissons Ratio (x) = 0.30927 0.24354
# Poissons Ratio (y) = 0.19548 0.07970
# Poissons Ratio (z) = 0.28511 0.14761
#
# Static dielectric constant tensor:
#      x y z
#    x 1.787990 0.067780 0.078480 
#    y 0.067780 1.674310 -0.030970 
#    z 0.078480 -0.030970 1.713800 
# 
# From -- ./inp_files/201693.got.cif
#   From: 2010.05.17/outbox.cif.g08.bks.cpg/sg2_101_cif.got.tgz:201693.got - 2010.06.03 11:33:40.
