data_PCOD9046566
_publ_section_title
;
Structure prediction by ZEFSAII (Michael W. Deem and Ramdas Pophale) SiO2 
 PCOD9046566
Probable space group: P -1
;
_chemical_formula_sum "Si O2"
_cell_formula_units_Z 15
_cell_length_a 9.191925
_cell_length_b 10.560015
_cell_length_c 18.959887
_cell_angle_alpha 42.149037
_cell_angle_beta 33.448881
_cell_angle_gamma 42.961413
_cell_volume 648.061646
_symmetry_space_group_name_H-M "P -1"
_symmetry_group_IT_number 2
_symmetry_cell_setting 'triclinic'
loop_
_space_group_symop_operation_xyz
x,y,z
-x,-y,-z
loop_
_atom_site_type_symbol
_atom_site_label
_atom_site_fract_x
_atom_site_fract_y
_atom_site_fract_z
Si Si1 0.730209 0.053764 0.037990
Si Si2 0.954432 0.776762 0.934633
Si Si3 0.152566 0.621595 0.339107
Si Si4 0.588435 0.587486 0.064159
Si Si5 0.694677 0.177344 0.677377
Si Si6 0.666065 0.006102 0.359056
Si Si7 0.500000 0.500000 0.500000
Si Si8 0.793478 0.085070 0.484834
O O1 0.528788 0.936235 0.196944
O O2 0.818085 0.961594 0.963097
O O3 0.561029 0.282383 0.995640
O O4 0.000000 0.000000 0.000000
O O5 0.145281 0.602048 0.979219
O O6 0.179484 0.830212 0.772395
O O7 0.732856 0.715732 0.002271
O O8 0.354083 0.532595 0.228986
O O9 0.325858 0.714446 0.284313
O O10 0.000000 0.500000 0.500000
O O11 0.899096 0.798046 0.339331
O O12 0.646433 0.345763 0.567927
O O13 0.993022 0.008122 0.626188
O O14 0.444850 0.020743 0.380543
O O15 0.500000 0.000000 0.500000
O O16 0.649757 0.318736 0.455679
O O17 0.000000 0.000000 0.500000
#
# Coordination Sequence:
#
# PCOD9046566 Si02
#       8
#     2   2   2   2   2   2   1   2
#     4  12  27  46  70 100 145 190 233 283 354 424
#     4  11  25  46  73  99 140 182 237 296 348 416
#     4  12  23  41  72 105 139 175 237 296 352 414
#     4  11  25  47  71 102 138 184 234 294 350 417
#     4  11  24  45  68 103 137 186 232 284 353 416
#     4  12  23  41  69 105 136 175 230 293 348 411
#     4  10  24  44  66  96 140 178 228 278 344 414
#     4  10  24  43  64  96 136 181 222 282 344 409
#
# _framework density 23.145945999999999
#
# number of rings (size 3 to 8) (size 9 to 14) (size 15 to 20)
#    0.000    0.800    4.000    2.800    3.733    2.667 
#    2.400    0.000    0.000    0.000    0.000    0.000 
#    0.000    0.000    0.000    0.000    0.000    0.000 
#
# Total GULP energy -83521.109255 kJ/mol
# GULP energy per Si atom -5568.073950 kJ/mol
# Density = 2.309326 g / cm^3
# Si number density = 23.145946 Si / 1000 Ang^3
#
#
#
# Elastic Constant Matrix: (Units=GPa)
#
#
# Indices 1 2 3 4 5 6 
#
# 1 67.5324 11.7988 17.5624 -1.0951 -12.1047 -36.9099
# 2 11.7988 138.1468 14.8666 2.0417 -1.7112 -25.0070
# 3 17.5624 14.8666 84.2789 0.3603 -28.6702 -10.5605
# 4 -1.0951 2.0417 0.3603 22.5148 -1.2908 0.2387
# 5 -12.1047 -1.7112 -28.6702 -1.2908 26.7361 12.6900
# 6 -36.9099 -25.0070 -10.5605 0.2387 12.6900 39.6766
#
#
#
# Elastic Compliance Matrix: (Units=1/GPa)
#
#
# Indices 1 2 3 4 5 6 
#
# 1 0.032691 0.003780 -0.005613 0.000590 -0.006841 0.033484
# 2 0.003780 0.009064 -0.003138 -0.001043 -0.006025 0.010327
# 3 -0.005613 -0.003138 0.020477 0.001142 0.023703 -0.009337
# 4 0.000590 -0.001043 0.001142 0.044780 0.004270 -0.001440
# 5 -0.006841 -0.006025 0.023703 0.004270 0.072371 -0.027025
# 6 0.033484 0.010327 -0.009337 -0.001440 -0.027025 0.069029
#
#
# Mechanical properties :
#
#
# Convention : Reuss Voigt Hill
#
# Bulk Modulus (GPa) = 19.12398 42.04597 30.58498
# Shear Modulus (GPa) = 18.13014 34.16753 26.14884
#
# Velocity S-wave (km/s) = 2.80178 3.84627 3.36480
# Velocity P-wave (km/s) = 4.32977 6.15874 5.32339
#
# Compressibility (1/GPa) = 0.05229036
#
# Stress axis : x y z
#
# Youngs Moduli (GPa) = 30.58903 110.33100 48.83525
#
# Poissons Ratio (x) = -0.41702 0.27411
# Poissons Ratio (y) = -0.11562 0.15323
# Poissons Ratio (z) = 0.17170 0.34618
#
# Static dielectric constant tensor:
#      x y z
#    x 1.925560 0.058800 0.036890 
#    y 0.058800 1.885750 0.012880 
#    z 0.036890 0.012880 1.949420 
# 
# From -- ./inp_files/588932.got.cif
#   From: 2010.05.17/outbox.cif.g08.bks.cpg/sg2_295_cif.got.tgz:588932.got - 2010.06.03 11:33:40.
