data_PCOD9046456
_publ_section_title
;
Structure prediction by ZEFSAII (Michael W. Deem and Ramdas Pophale) SiO2 
 PCOD9046456
Probable space group: P -1
;
_chemical_formula_sum "Si O2"
_cell_formula_units_Z 16
_cell_length_a 23.093181
_cell_length_b 6.114442
_cell_length_c 14.332528
_cell_angle_alpha 89.462721
_cell_angle_beta 160.691601
_cell_angle_gamma 88.851537
_cell_volume 666.579403
_symmetry_space_group_name_H-M "P -1"
_symmetry_group_IT_number 2
_symmetry_cell_setting 'triclinic'
loop_
_space_group_symop_operation_xyz
x,y,z
-x,-y,-z
loop_
_atom_site_type_symbol
_atom_site_label
_atom_site_fract_x
_atom_site_fract_y
_atom_site_fract_z
Si Si1 0.788485 0.999308 0.073636
Si Si2 0.887553 0.760401 0.046462
Si Si3 0.107982 0.873741 0.084344
Si Si4 0.425937 0.663865 0.658203
Si Si5 0.516529 0.627283 0.425935
Si Si6 0.375835 0.337793 0.865845
Si Si7 0.908527 0.695223 0.421429
Si Si8 0.836726 0.576012 0.615695
O O1 0.942103 0.166476 0.306884
O O2 0.795181 0.876706 0.184265
O O3 0.611371 0.148131 0.776125
O O4 0.833936 0.801382 0.071125
O O5 0.722025 0.672622 0.740654
O O6 0.904399 0.000951 0.031211
O O7 0.071822 0.623500 0.306171
O O8 0.307218 0.839552 0.418519
O O9 0.005423 0.662346 0.917635
O O10 0.000000 0.000000 0.000000
O O11 0.526880 0.516587 0.731330
O O12 0.294929 0.503124 0.508005
O O13 0.502252 0.773265 0.866649
O O14 0.500000 0.500000 0.500000
O O15 0.215791 0.412303 0.692677
O O16 0.271162 0.251651 0.618776
O O17 0.500000 0.500000 0.000000
O O18 0.000000 0.500000 0.500000
#
# Coordination Sequence:
#
# PCOD9046456 Si02
#       8
#     2   2   2   2   2   2   2   2
#     4  11  27  43  71 112 136 198 250 294 372 442
#     4  12  25  42  71 102 143 177 246 296 364 443
#     4  12  23  41  72 102 136 187 239 294 363 444
#     4  11  23  45  70 102 143 187 235 295 372 425
#     4  12  27  44  69 105 149 188 238 310 364 431
#     4  10  24  42  73 103 140 188 236 298 369 435
#     4  11  24  48  76  99 148 196 248 305 364 443
#     4  11  23  47  70 104 140 190 232 294 377 432
#
# _framework density 24.003139999999998
#
# number of rings (size 3 to 8) (size 9 to 14) (size 15 to 20)
#    0.000    0.750    2.500    4.500    7.000    1.000 
#    0.000    0.625    0.000    0.000    0.000    0.000 
#    0.000    0.000    0.000    0.000    0.000    0.000 
#
# Total GULP energy -89249.398598 kJ/mol
# GULP energy per Si atom -5578.087412 kJ/mol
# Density = 2.394851 g / cm^3
# Si number density = 24.003140 Si / 1000 Ang^3
#
#
#
# Elastic Constant Matrix: (Units=GPa)
#
#
# Indices 1 2 3 4 5 6 
#
# 1 134.2642 30.6879 37.5097 -13.3184 6.0235 8.3961
# 2 30.6879 46.6624 21.2341 -13.4146 -0.6246 -2.4588
# 3 37.5097 21.2341 86.9779 -1.2025 -18.7271 9.7553
# 4 -13.3184 -13.4146 -1.2025 23.4578 7.7022 -1.5253
# 5 6.0235 -0.6246 -18.7271 7.7022 50.9289 0.4377
# 6 8.3961 -2.4588 9.7553 -1.5253 0.4377 37.2109
#
#
#
# Elastic Compliance Matrix: (Units=1/GPa)
#
#
# Indices 1 2 3 4 5 6 
#
# 1 0.010059 -0.003641 -0.003970 0.004446 -0.003356 -0.001248
# 2 -0.003641 0.032967 -0.007943 0.018375 -0.004916 0.005893
# 3 -0.003970 -0.007943 0.017291 -0.008874 0.008112 -0.004621
# 4 0.004446 0.018375 -0.008874 0.059690 -0.012635 0.005133
# 5 -0.003356 -0.004916 0.008112 -0.012635 0.024887 -0.002505
# 6 -0.001248 0.005893 -0.004621 0.005133 -0.002505 0.028996
#
#
# Mechanical properties :
#
#
# Convention : Reuss Voigt Hill
#
# Bulk Modulus (GPa) = 34.23789 49.64087 41.93938
# Shear Modulus (GPa) = 23.28451 34.21772 28.75112
#
# Velocity S-wave (km/s) = 3.11796 3.77974 3.46469
# Velocity P-wave (km/s) = 5.22083 6.30670 5.78928
#
# Compressibility (1/GPa) = 0.02920741
#
# Stress axis : x y z
#
# Youngs Moduli (GPa) = 99.41327 30.33318 57.83440
#
# Poissons Ratio (x) = 0.11045 0.22961
# Poissons Ratio (y) = 0.36198 0.45940
# Poissons Ratio (z) = 0.39469 0.24095
#
# Static dielectric constant tensor:
#      x y z
#    x 1.929750 -0.028610 -0.048270 
#    y -0.028610 2.021120 0.057060 
#    z -0.048270 0.057060 2.077380 
# 
# From -- ./inp_files/542178.got.cif
#   From: 2010.05.17/outbox.cif.g08.bks.cpg/sg2_272_cif.got.tgz:542178.got - 2010.06.03 11:33:40.
