data_PCOD9046262
_publ_section_title
;
Structure prediction by ZEFSAII (Michael W. Deem and Ramdas Pophale) SiO2 
 PCOD9046262
Probable space group: P -1
;
_chemical_formula_sum "Si O2"
_cell_formula_units_Z 15
_cell_length_a 9.471972
_cell_length_b 8.707069
_cell_length_c 13.887486
_cell_angle_alpha 48.949863
_cell_angle_beta 116.306922
_cell_angle_gamma 137.973915
_cell_volume 575.983382
_symmetry_space_group_name_H-M "P -1"
_symmetry_group_IT_number 2
_symmetry_cell_setting 'triclinic'
loop_
_space_group_symop_operation_xyz
x,y,z
-x,-y,-z
loop_
_atom_site_type_symbol
_atom_site_label
_atom_site_fract_x
_atom_site_fract_y
_atom_site_fract_z
Si Si1 0.596560 0.445917 0.635935
Si Si2 0.532315 0.307969 0.179873
Si Si3 0.500000 0.000000 0.000000
Si Si4 0.981520 0.359002 0.407758
Si Si5 0.229967 0.109429 0.987668
Si Si6 0.772232 0.161982 0.237554
Si Si7 0.189861 0.373325 0.180077
Si Si8 0.868030 0.114995 0.684092
O O1 0.500000 0.500000 0.500000
O O2 0.687940 0.611665 0.694592
O O3 0.791885 0.503638 0.621883
O O4 0.425275 0.127336 0.748406
O O5 0.360777 0.201657 0.088940
O O6 0.711374 0.338921 0.165931
O O7 0.383431 0.052415 0.312836
O O8 0.641600 0.592826 0.145547
O O9 0.710037 0.043855 0.991188
O O10 0.658966 0.323191 0.940453
O O11 0.817810 0.131410 0.373825
O O12 0.945602 0.231954 0.552429
O O13 0.996267 0.615705 0.319489
O O14 0.000000 0.000000 0.000000
O O15 0.977935 0.295265 0.185493
O O16 0.118732 0.116400 0.203793
#
# Coordination Sequence:
#
# PCOD9046262 Si02
#       8
#     2   2   1   2   2   2   2   2
#     4  11  22  43  68 100 140 186 234 294 354 426
#     4  11  24  46  68  99 140 181 234 292 354 422
#     4  12  24  48  74 106 134 190 238 288 360 424
#     4  10  24  42  69  98 142 184 236 285 357 420
#     4  11  26  49  72 102 140 184 238 297 354 423
#     4  11  23  45  72  98 137 190 230 295 355 422
#     4  11  25  45  70 103 143 179 242 294 353 426
#     4  11  22  46  63 104 140 181 231 290 348 425
#
# _framework density 26.042417
#
# number of rings (size 3 to 8) (size 9 to 14) (size 15 to 20)
#    0.000    1.067    2.667    3.200    3.733    2.667 
#   14.400    4.000    0.000    0.000    0.000    0.000 
#    0.000    0.000    0.000    0.000    0.000    0.000 
#
# Total GULP energy -83631.498995 kJ/mol
# GULP energy per Si atom -5575.433266 kJ/mol
# Density = 2.598314 g / cm^3
# Si number density = 26.042417 Si / 1000 Ang^3
#
#
#
# Elastic Constant Matrix: (Units=GPa)
#
#
# Indices 1 2 3 4 5 6 
#
# 1 185.0398 47.7537 33.5148 -1.8058 5.0504 -8.0220
# 2 47.7537 103.2437 13.7219 -23.6133 1.3501 -3.8726
# 3 33.5148 13.7219 36.9423 -19.9575 -6.9811 6.2537
# 4 -1.8058 -23.6133 -19.9575 50.5003 -4.1808 14.5566
# 5 5.0504 1.3501 -6.9811 -4.1808 41.7149 -0.3768
# 6 -8.0220 -3.8726 6.2537 14.5566 -0.3768 31.7040
#
#
#
# Elastic Compliance Matrix: (Units=1/GPa)
#
#
# Indices 1 2 3 4 5 6 
#
# 1 0.010098 -0.004721 -0.016543 -0.011855 -0.004931 0.010626
# 2 -0.004721 0.013138 0.006253 0.010206 0.002166 -0.005483
# 3 -0.016543 0.006253 0.073052 0.043537 0.018050 -0.037607
# 4 -0.011855 0.010206 0.043537 0.052318 0.013325 -0.034204
# 5 -0.004931 0.002166 0.018050 0.013325 0.028762 -0.010320
# 6 0.010626 -0.005483 -0.037607 -0.034204 -0.010320 0.056560
#
#
# Mechanical properties :
#
#
# Convention : Reuss Voigt Hill
#
# Bulk Modulus (GPa) = 15.09030 57.24519 36.16775
# Shear Modulus (GPa) = 17.48016 40.13285 28.80651
#
# Velocity S-wave (km/s) = 2.59360 3.92989 3.32947
# Velocity P-wave (km/s) = 3.84397 6.52850 5.35712
#
# Compressibility (1/GPa) = 0.06626774
#
# Stress axis : x y z
#
# Youngs Moduli (GPa) = 99.02570 76.11358 13.68893
#
# Poissons Ratio (x) = 0.35929 0.22646
# Poissons Ratio (y) = 0.46745 -0.08560
# Poissons Ratio (z) = 1.63821 -0.47597
#
# Static dielectric constant tensor:
#      x y z
#    x 2.008830 -0.034120 -0.236700 
#    y -0.034120 1.937740 -0.135320 
#    z -0.236700 -0.135320 1.617220 
# 
# From -- ./inp_files/555999.got.cif
#   From: 2010.05.17/outbox.cif.g08.bks.cpg/sg2_278_cif.got.tgz:555999.got - 2010.06.03 11:33:40.
