data_PCOD9046540
_publ_section_title
;
Structure prediction by ZEFSAII (Michael W. Deem and Ramdas Pophale) SiO2 
 PCOD9046540
Probable space group: P -1
;
_chemical_formula_sum "Si O2"
_cell_formula_units_Z 16
_cell_length_a 21.449577
_cell_length_b 8.233907
_cell_length_c 14.877156
_cell_angle_alpha 63.191076
_cell_angle_beta 157.624726
_cell_angle_gamma 104.730596
_cell_volume 783.573470
_symmetry_space_group_name_H-M "P -1"
_symmetry_group_IT_number 2
_symmetry_cell_setting 'triclinic'
loop_
_space_group_symop_operation_xyz
x,y,z
-x,-y,-z
loop_
_atom_site_type_symbol
_atom_site_label
_atom_site_fract_x
_atom_site_fract_y
_atom_site_fract_z
Si Si1 0.490845 0.178971 0.380225
Si Si2 0.583607 0.809398 0.931070
Si Si3 0.874066 0.171664 0.861584
Si Si4 0.921066 0.843310 0.415747
Si Si5 0.202514 0.015041 0.481297
Si Si6 0.918283 0.532821 0.781877
Si Si7 0.119031 0.673545 0.533754
Si Si8 0.106711 0.444895 0.873976
O O1 0.446892 0.156817 0.224142
O O2 0.688357 0.171494 0.644581
O O3 0.500000 0.000000 0.500000
O O4 0.315048 0.378290 0.137120
O O5 0.386467 0.895849 0.695785
O O6 0.701332 0.922163 0.092645
O O7 0.711878 0.562090 0.180965
O O8 0.814880 0.394729 0.681844
O O9 0.013264 0.115694 0.145021
O O10 0.000000 0.000000 0.000000
O O11 0.013326 0.722500 0.475920
O O12 0.986544 0.680491 0.624269
O O13 0.000000 0.000000 0.500000
O O14 0.200921 0.224815 0.461619
O O15 0.185726 0.845354 0.563429
O O16 0.078619 0.428699 0.946098
O O17 0.000000 0.500000 0.000000
O O18 0.978229 0.678934 0.265980
#
# Coordination Sequence:
#
# PCOD9046540 Si02
#       8
#     2   2   2   2   2   2   2   2
#     4  12  23  38  68 102 125 168 233 269 323 390
#     4  11  23  42  65  99 132 174 225 274 323 407
#     4  11  22  40  66  96 129 180 221 266 325 398
#     4  11  23  42  67  98 135 173 214 278 344 390
#     4  11  23  41  63  95 136 172 216 279 332 385
#     4  10  24  43  63  94 138 175 218 274 341 389
#     4  11  21  43  68  97 128 177 229 269 328 397
#     4  11  22  43  66  95 131 176 226 274 323 399
#
# _framework density 20.419270999999998
#
# number of rings (size 3 to 8) (size 9 to 14) (size 15 to 20)
#    0.000    1.000    3.750    4.125    1.750    1.000 
#    0.000    5.625    0.000    0.000    0.000    0.000 
#    0.000    0.000    0.000    0.000    0.000    0.000 
#
# Total GULP energy -89326.011707 kJ/mol
# GULP energy per Si atom -5582.875732 kJ/mol
# Density = 2.037280 g / cm^3
# Si number density = 20.419271 Si / 1000 Ang^3
#
#
#
# Elastic Constant Matrix: (Units=GPa)
#
#
# Indices 1 2 3 4 5 6 
#
# 1 132.2165 27.3450 42.3036 7.3801 17.9114 14.0082
# 2 27.3450 126.6970 29.6181 3.7019 7.0290 27.1968
# 3 42.3036 29.6181 113.0118 15.4614 22.9114 10.6199
# 4 7.3801 3.7019 15.4614 23.0914 8.4122 5.9976
# 5 17.9114 7.0290 22.9114 8.4122 33.4208 3.5225
# 6 14.0082 27.1968 10.6199 5.9976 3.5225 36.8010
#
#
#
# Elastic Compliance Matrix: (Units=1/GPa)
#
#
# Indices 1 2 3 4 5 6 
#
# 1 0.009102 -0.000820 -0.002481 0.000448 -0.002913 -0.001937
# 2 -0.000820 0.009910 -0.001874 0.001708 -0.000079 -0.006741
# 3 -0.002481 -0.001874 0.012010 -0.005087 -0.005250 0.000195
# 4 0.000448 0.001708 -0.005087 0.051635 -0.009320 -0.007488
# 5 -0.002913 -0.000079 -0.005250 -0.009320 0.037379 0.000624
# 6 -0.001937 -0.006741 0.000195 -0.007488 0.000624 0.033997
#
#
# Mechanical properties :
#
#
# Convention : Reuss Voigt Hill
#
# Bulk Modulus (GPa) = 48.37635 63.38428 55.88031
# Shear Modulus (GPa) = 29.19317 36.83987 33.01652
#
# Velocity S-wave (km/s) = 3.78522 4.25216 4.02547
# Velocity P-wave (km/s) = 6.54575 7.43079 7.00227
#
# Compressibility (1/GPa) = 0.02067126
#
# Stress axis : x y z
#
# Youngs Moduli (GPa) = 109.87130 100.91279 83.26125
#
# Poissons Ratio (x) = 0.08277 0.20654
# Poissons Ratio (y) = 0.09012 0.15605
# Poissons Ratio (z) = 0.27255 0.18913
#
# Static dielectric constant tensor:
#      x y z
#    x 1.703340 -0.019650 -0.012880 
#    y -0.019650 1.807230 -0.004540 
#    z -0.012880 -0.004540 1.775360 
# 
# From -- ./inp_files/200298.got.cif
#   From: 2010.05.17/outbox.cif.g08.bks.cpg/sg2_101_cif.got.tgz:200298.got - 2010.06.03 11:33:40.
