data_PCOD9046836
_publ_section_title
;
Structure prediction by ZEFSAII (Michael W. Deem and Ramdas Pophale) SiO2 
 PCOD9046836
Probable space group: P -1
;
_chemical_formula_sum "Si O2"
_cell_formula_units_Z 14
_cell_length_a 6.860252
_cell_length_b 19.180472
_cell_length_c 14.231887
_cell_angle_alpha 19.776385
_cell_angle_beta 94.404790
_cell_angle_gamma 92.969670
_cell_volume 630.583894
_symmetry_space_group_name_H-M "P -1"
_symmetry_group_IT_number 2
_symmetry_cell_setting 'triclinic'
loop_
_space_group_symop_operation_xyz
x,y,z
-x,-y,-z
loop_
_atom_site_type_symbol
_atom_site_label
_atom_site_fract_x
_atom_site_fract_y
_atom_site_fract_z
Si Si1 0.876482 0.435152 0.219239
Si Si2 0.501821 0.582039 0.672516
Si Si3 0.052822 0.195002 0.871993
Si Si4 0.865950 0.774637 0.378662
Si Si5 0.321870 0.870771 0.692814
Si Si6 0.946865 0.827814 0.608229
Si Si7 0.321254 0.497390 0.570042
O O1 0.664415 0.361316 0.329263
O O2 0.001697 0.427957 0.328673
O O3 0.002574 0.290068 0.336259
O O4 0.859554 0.659128 0.888516
O O5 0.657253 0.752811 0.445747
O O6 0.400231 0.548200 0.611128
O O7 0.607471 0.364307 0.984572
O O8 0.149113 0.208476 0.754975
O O9 0.210276 0.283977 0.834656
O O10 0.850989 0.336881 0.679732
O O11 0.987454 0.965534 0.173882
O O12 0.153236 0.879617 0.595813
O O13 0.500000 0.000000 0.500000
O O14 0.209966 0.979405 0.640185
O O15 0.500000 0.500000 0.500000
#
# Coordination Sequence:
#
# PCOD9046836 Si02
#       7
#     2   2   2   2   2   2   2
#     4  11  23  43  66  97 130 176 218 276 329 398
#     4  12  24  40  72  98 138 172 228 270 336 390
#     4  10  24  43  68  93 133 172 221 269 337 387
#     4  11  23  43  66  97 130 176 218 276 329 398
#     4  11  23  42  67  98 129 173 221 279 323 397
#     4  10  24  43  68  93 133 172 221 269 337 387
#     4  11  23  42  67  98 129 173 221 279 323 397
#
# _framework density 22.201644999999999
#
# number of rings (size 3 to 8) (size 9 to 14) (size 15 to 20)
#    0.000    1.143    5.714    0.000    0.000    5.714 
#    0.000    0.000    0.000    0.000    0.000    0.000 
#    0.000    0.000    0.000    0.000    0.000    0.000 
#
# Total GULP energy -78265.373891 kJ/mol
# GULP energy per Si atom -5590.383849 kJ/mol
# Density = 2.215111 g / cm^3
# Si number density = 22.201645 Si / 1000 Ang^3
#
#
#
# Elastic Constant Matrix: (Units=GPa)
#
#
# Indices 1 2 3 4 5 6 
#
# 1 135.4836 18.0211 31.1088 2.6387 -33.1292 -8.1905
# 2 18.0211 35.4470 22.0014 -7.2420 -13.5561 6.9642
# 3 31.1088 22.0014 57.1497 10.4320 -16.5697 -10.9415
# 4 2.6387 -7.2420 10.4320 24.1530 -4.3574 0.6510
# 5 -33.1292 -13.5561 -16.5697 -4.3574 40.8788 4.3793
# 6 -8.1905 6.9642 -10.9415 0.6510 4.3793 22.6153
#
#
#
# Elastic Compliance Matrix: (Units=1/GPa)
#
#
# Indices 1 2 3 4 5 6 
#
# 1 0.009834 0.000161 -0.003740 0.001781 0.006658 0.000362
# 2 0.000161 0.087571 -0.047813 0.052238 0.021323 -0.055673
# 3 -0.003740 -0.047813 0.050656 -0.038106 -0.006731 0.040277
# 4 0.001781 0.052238 -0.038106 0.077225 0.015746 -0.039150
# 5 0.006658 0.021323 -0.006731 0.015746 0.037500 -0.015126
# 6 0.000362 -0.055673 0.040277 -0.039150 -0.015126 0.085036
#
#
# Mechanical properties :
#
#
# Convention : Reuss Voigt Hill
#
# Bulk Modulus (GPa) = 22.08615 41.14921 31.61768
# Shear Modulus (GPa) = 10.73658 27.99270 19.36464
#
# Velocity S-wave (km/s) = 2.20146 3.55468 2.95654
# Velocity P-wave (km/s) = 4.05358 5.95166 5.09184
#
# Compressibility (1/GPa) = 0.04527724
#
# Stress axis : x y z
#
# Youngs Moduli (GPa) = 101.69279 11.41935 19.74085
#
# Poissons Ratio (x) = -0.00184 0.07384
# Poissons Ratio (y) = -0.01640 0.94386
# Poissons Ratio (z) = 0.38037 0.54599
#
# Static dielectric constant tensor:
#      x y z
#    x 1.795280 -0.002730 0.006320 
#    y -0.002730 1.860690 -0.004670 
#    z 0.006320 -0.004670 1.858780 
# 
# From -- ./inp_files/89709.got.cif
#   From: 2010.05.17/outbox.cif.g08.bks.cpg/sg2_45_cif.got.tgz:89709.got - 2010.06.03 11:33:40.
