data_PCOD9046055
_publ_section_title
;
Structure prediction by ZEFSAII (Michael W. Deem and Ramdas Pophale) SiO2 
 PCOD9046055
Probable space group: P -1
;
_chemical_formula_sum "Si O2"
_cell_formula_units_Z 12
_cell_length_a 9.724098
_cell_length_b 5.171423
_cell_length_c 21.614277
_cell_angle_alpha 77.723142
_cell_angle_beta 41.825451
_cell_angle_gamma 102.165606
_cell_volume 583.608433
_symmetry_space_group_name_H-M "P -1"
_symmetry_group_IT_number 2
_symmetry_cell_setting 'triclinic'
loop_
_space_group_symop_operation_xyz
x,y,z
-x,-y,-z
loop_
_atom_site_type_symbol
_atom_site_label
_atom_site_fract_x
_atom_site_fract_y
_atom_site_fract_z
Si Si1 0.952457 0.842971 0.179944
Si Si2 0.627273 0.311620 0.484294
Si Si3 0.678464 0.952802 0.068688
Si Si4 0.381936 0.893936 0.704702
Si Si5 0.548234 0.299628 0.180331
Si Si6 0.172393 0.852601 0.233693
O O1 0.761069 0.455152 0.262460
O O2 0.099631 0.944862 0.190327
O O3 0.812810 0.020686 0.214141
O O4 0.136838 0.934963 0.055996
O O5 0.500000 0.500000 0.500000
O O6 0.920684 0.543209 0.360334
O O7 0.500000 0.000000 0.500000
O O8 0.566563 0.174531 0.581160
O O9 0.668796 0.674323 0.123958
O O10 0.395852 0.808993 0.147127
O O11 0.723820 0.230029 0.085307
O O12 0.501076 0.859452 0.728356
O O13 0.298013 0.123349 0.231191
#
# Coordination Sequence:
#
# PCOD9046055 Si02
#       6
#     2   2   2   2   2   2
#     4  12  24  41  72  92 136 167 227 255 316 387
#     4  12  24  44  69  95 126 165 220 273 316 378
#     4  10  24  42  66  98 130 177 208 265 321 378
#     4  12  25  43  66 103 123 177 212 269 321 380
#     4  10  25  42  64  97 139 163 217 257 335 377
#     4  10  25  43  67  95 130 171 217 267 318 381
#
# _framework density 20.561733
#
# number of rings (size 3 to 8) (size 9 to 14) (size 15 to 20)
#    1.000    0.000    3.333    2.500    4.667    5.333 
#    0.000    0.833    0.000    0.000    0.000    0.000 
#    0.000    0.000    0.000    0.000    0.000    0.000 
#
# Total GULP energy -67035.919361 kJ/mol
# GULP energy per Si atom -5586.326613 kJ/mol
# Density = 2.051493 g / cm^3
# Si number density = 20.561733 Si / 1000 Ang^3
#
#
#
# Elastic Constant Matrix: (Units=GPa)
#
#
# Indices 1 2 3 4 5 6 
#
# 1 30.0829 -17.0854 -19.0545 -15.9541 0.6174 29.6998
# 2 -17.0854 62.3276 -50.4412 -18.3238 -24.0471 1.9005
# 3 -19.0545 -50.4412 54.6764 -13.1795 -5.0409 13.0145
# 4 -15.9541 -18.3238 -13.1795 24.2029 -3.7584 10.2566
# 5 0.6174 -24.0471 -5.0409 -3.7584 30.9417 -0.1362
# 6 29.6998 1.9005 13.0145 10.2566 -0.1362 18.4686
#
#
#
# Elastic Compliance Matrix: (Units=1/GPa)
#
#
# Indices 1 2 3 4 5 6 
#
# 1 0.014367 -0.017109 -0.013839 -0.011418 -0.017248 -0.005378
# 2 -0.017109 0.017153 0.003568 -0.005370 0.013717 0.026317
# 3 -0.013839 0.003568 0.010780 -0.007857 0.003933 0.018684
# 4 -0.011418 -0.005370 -0.007857 0.019163 -0.002837 0.013788
# 5 -0.017248 0.013717 0.003933 -0.002837 0.043732 0.025452
# 6 -0.005378 0.026317 0.018684 0.013788 0.025452 0.039451
#
#
# Mechanical properties :
#
#
# Convention : Reuss Voigt Hill
#
# Bulk Modulus (GPa) = -80.26828 -2.89726 -41.58277
# Shear Modulus (GPa) = 25.60790 30.30053 27.95422
#
# Velocity S-wave (km/s) = 3.53287 3.84296 3.69118
# Velocity P-wave (km/s) = 4.74140 4.27540 1.44945
#
# Compressibility (1/GPa) = -0.01245822
#
# Stress axis : x y z
#
# Youngs Moduli (GPa) = 69.60319 58.29764 92.76480
#
# Poissons Ratio (x) = 0.99740 1.28377
# Poissons Ratio (y) = 1.19083 -0.33102
# Poissons Ratio (z) = 0.96323 -0.20803
#
# Static dielectric constant tensor:
#      x y z
#    x 1.745850 0.008590 -0.005550 
#    y 0.008590 1.719130 0.005330 
#    z -0.005550 0.005330 1.712430 
# 
# From -- ./inp_files/32912.got.cif
#   From: 2010.05.17/outbox.cif.g08.bks.cpg/sg2_17_cif.got.tgz:32912.got - 2010.06.03 11:33:40.
