data_PCOD9046204
_publ_section_title
;
Structure prediction by ZEFSAII (Michael W. Deem and Ramdas Pophale) SiO2 
 PCOD9046204
Probable space group: P -1
;
_chemical_formula_sum "Si O2"
_cell_formula_units_Z 16
_cell_length_a 10.259931
_cell_length_b 5.940171
_cell_length_c 11.025834
_cell_angle_alpha 87.657176
_cell_angle_beta 115.996151
_cell_angle_gamma 86.362555
_cell_volume 601.002845
_symmetry_space_group_name_H-M "P -1"
_symmetry_group_IT_number 2
_symmetry_cell_setting 'triclinic'
loop_
_space_group_symop_operation_xyz
x,y,z
-x,-y,-z
loop_
_atom_site_type_symbol
_atom_site_label
_atom_site_fract_x
_atom_site_fract_y
_atom_site_fract_z
Si Si1 0.328346 0.399889 0.372376
Si Si2 0.023322 0.887808 0.170258
Si Si3 0.792665 0.304610 0.144626
Si Si4 0.791171 0.647036 0.926590
Si Si5 0.056082 0.351199 0.636792
Si Si6 0.482403 0.907668 0.861526
Si Si7 0.286690 0.127811 0.585537
Si Si8 0.668710 0.096435 0.632183
O O1 0.279714 0.349934 0.491099
O O2 0.394418 0.642090 0.383316
O O3 0.407116 0.143527 0.383781
O O4 0.209025 0.411366 0.214735
O O5 0.932380 0.763894 0.033272
O O6 0.046901 0.730223 0.301519
O O7 0.190249 0.940270 0.219679
O O8 0.914470 0.098127 0.169737
O O9 0.770812 0.422225 0.001947
O O10 0.846294 0.497596 0.246987
O O11 0.650534 0.242654 0.161218
O O12 0.639203 0.792509 0.891681
O O13 0.150287 0.142484 0.617991
O O14 0.000000 0.500000 0.500000
O O15 0.424210 0.089013 0.731895
O O16 0.500000 0.000000 0.000000
O O17 0.282560 0.933522 0.488270
#
# Coordination Sequence:
#
# PCOD9046204 Si02
#       8
#     2   2   2   2   2   2   2   2
#     4  10  26  47  69 104 139 186 239 281 354 413
#     4  11  23  41  67 102 136 178 232 284 363 409
#     4  11  24  41  68 101 136 179 231 289 360 414
#     4  11  26  44  68  97 136 188 235 286 343 422
#     4  11  22  37  67 103 139 175 225 291 358 425
#     4  12  23  46  68 100 139 179 234 294 350 415
#     4  10  24  42  68  98 143 178 231 286 353 410
#     4  10  25  45  68 104 140 183 231 294 343 423
#
# _framework density 26.622170000000001
#
# number of rings (size 3 to 8) (size 9 to 14) (size 15 to 20)
#    0.750    0.500    2.500    2.625    8.750    2.500 
#    0.000    0.625    0.000    0.000    0.000    0.000 
#    0.000    0.000    0.000    0.000    0.000    0.000 
#
# Total GULP energy -89354.406851 kJ/mol
# GULP energy per Si atom -5584.650428 kJ/mol
# Density = 2.656158 g / cm^3
# Si number density = 26.622170 Si / 1000 Ang^3
#
#
#
# Elastic Constant Matrix: (Units=GPa)
#
#
# Indices 1 2 3 4 5 6 
#
# 1 122.0205 53.2964 34.6024 5.2978 4.4475 -4.3348
# 2 53.2964 141.2997 55.1150 -3.3734 4.7341 6.7908
# 3 34.6024 55.1150 194.2012 -21.9529 -18.9264 -0.8304
# 4 5.2978 -3.3734 -21.9529 53.4862 3.4480 6.3184
# 5 4.4475 4.7341 -18.9264 3.4480 44.2047 2.8344
# 6 -4.3348 6.7908 -0.8304 6.3184 2.8344 53.9967
#
#
#
# Elastic Compliance Matrix: (Units=1/GPa)
#
#
# Indices 1 2 3 4 5 6 
#
# 1 0.010213 -0.003489 -0.001134 -0.001805 -0.001095 0.001510
# 2 -0.003489 0.009360 -0.002151 0.000321 -0.001505 -0.001449
# 3 -0.001134 -0.002151 0.006530 0.002486 0.002957 -0.000166
# 4 -0.001805 0.000321 0.002486 0.020225 -0.000205 -0.002503
# 5 -0.001095 -0.001505 0.002957 -0.000205 0.024246 -0.001102
# 6 0.001510 -0.001449 -0.000166 -0.002503 -0.001102 0.019171
#
#
# Mechanical properties :
#
#
# Convention : Reuss Voigt Hill
#
# Bulk Modulus (GPa) = 79.64880 82.61655 81.13268
# Shear Modulus (GPa) = 46.52120 51.30468 48.91294
#
# Velocity S-wave (km/s) = 4.18480 4.39468 4.29103
# Velocity P-wave (km/s) = 7.30296 7.53998 7.42242
#
# Compressibility (1/GPa) = 0.01255512
#
# Stress axis : x y z
#
# Youngs Moduli (GPa) = 97.91797 106.83867 153.13038
#
# Poissons Ratio (x) = 0.37273 0.17363
# Poissons Ratio (y) = 0.34161 0.32943
# Poissons Ratio (z) = 0.11102 0.22984
#
# Static dielectric constant tensor:
#      x y z
#    x 2.725200 0.328410 0.142640 
#    y 0.328410 2.279090 -0.025820 
#    z 0.142640 -0.025820 2.100530 
# 
# From -- ./inp_files/410618.got.cif
#   From: 2010.05.17/outbox.cif.g08.bks.cpg/sg2_206_cif.got.tgz:410618.got - 2010.06.03 11:33:40.
