data_PCOD9046063
_publ_section_title
;
Structure prediction by ZEFSAII (Michael W. Deem and Ramdas Pophale) SiO2 
 PCOD9046063
Probable space group: P -1
;
_chemical_formula_sum "Si O2"
_cell_formula_units_Z 16
_cell_length_a 7.964834
_cell_length_b 14.044716
_cell_length_c 9.797166
_cell_angle_alpha 112.989613
_cell_angle_beta 79.822939
_cell_angle_gamma 54.042903
_cell_volume 684.787238
_symmetry_space_group_name_H-M "P -1"
_symmetry_group_IT_number 2
_symmetry_cell_setting 'triclinic'
loop_
_space_group_symop_operation_xyz
x,y,z
-x,-y,-z
loop_
_atom_site_type_symbol
_atom_site_label
_atom_site_fract_x
_atom_site_fract_y
_atom_site_fract_z
Si Si1 0.923351 0.334886 0.864801
Si Si2 0.560239 0.289266 0.514913
Si Si3 0.381387 0.142454 0.508189
Si Si4 0.187069 0.831374 0.327865
Si Si5 0.728511 0.170156 0.145412
Si Si6 0.354323 0.140913 0.198943
Si Si7 0.986497 0.389793 0.190916
Si Si8 0.429775 0.349693 0.034931
O O1 0.923731 0.212055 0.770881
O O2 0.680847 0.500146 0.936105
O O3 0.142962 0.280500 0.706616
O O4 0.963811 0.343343 0.022071
O O5 0.548573 0.170963 0.481870
O O6 0.700081 0.274109 0.615101
O O7 0.704418 0.244034 0.329477
O O8 0.279137 0.449860 0.639723
O O9 0.323577 0.127093 0.354808
O O10 0.500000 0.000000 0.500000
O O11 0.410138 0.779365 0.176107
O O12 0.000000 0.000000 0.500000
O O13 0.527452 0.166610 0.187535
O O14 0.619510 0.280692 0.094496
O O15 0.000000 0.000000 0.000000
O O16 0.097611 0.274791 0.234376
O O17 0.500000 0.000000 0.000000
O O18 0.194970 0.385950 0.134907
#
# Coordination Sequence:
#
# PCOD9046063 Si02
#       8
#     2   2   2   2   2   2   2   2
#     4  12  24  42  67 102 135 174 228 277 336 396
#     4  11  23  43  67  97 133 178 223 274 339 395
#     4  11  23  40  68 101 132 174 225 279 330 398
#     4  12  26  43  65  97 137 179 227 275 333 401
#     4  10  24  43  68  94 134 179 217 275 342 400
#     4  10  24  42  66  99 135 172 223 274 337 398
#     4  11  23  43  72  96 134 177 222 282 333 394
#     4  11  23  43  70  98 136 174 226 276 336 399
#
# _framework density 23.364923000000001
#
# number of rings (size 3 to 8) (size 9 to 14) (size 15 to 20)
#    0.000    1.000    2.500    3.750    1.750    8.500 
#    0.000    0.625    0.000    0.000    0.000    0.000 
#    0.000    0.000    0.000    0.000    0.000    0.000 
#
# Total GULP energy -89515.630858 kJ/mol
# GULP energy per Si atom -5594.726929 kJ/mol
# Density = 2.331174 g / cm^3
# Si number density = 23.364923 Si / 1000 Ang^3
#
#
#
# Elastic Constant Matrix: (Units=GPa)
#
#
# Indices 1 2 3 4 5 6 
#
# 1 57.0216 31.9568 18.1450 -5.0801 -1.3792 -8.1113
# 2 31.9568 173.9579 74.2693 -8.1185 4.7503 -37.6107
# 3 18.1450 74.2693 163.0512 -13.2140 -6.4529 -26.2680
# 4 -5.0801 -8.1185 -13.2140 52.0168 -12.9425 4.5112
# 5 -1.3792 4.7503 -6.4529 -12.9425 31.7368 5.7594
# 6 -8.1113 -37.6107 -26.2680 4.5112 5.7594 32.6975
#
#
#
# Elastic Compliance Matrix: (Units=1/GPa)
#
#
# Indices 1 2 3 4 5 6 
#
# 1 0.019802 -0.003424 -0.000413 0.001792 0.002013 0.000040
# 2 -0.003424 0.009544 -0.002832 -0.001404 -0.004324 0.008809
# 3 -0.000413 -0.002832 0.008121 0.001967 0.002411 0.002469
# 4 0.001792 -0.001404 0.001967 0.022774 0.010817 -0.004638
# 5 0.002013 -0.004324 0.002411 0.010817 0.039127 -0.010922
# 6 0.000040 0.008809 0.002469 -0.004638 -0.010922 0.045272
#
#
# Mechanical properties :
#
#
# Convention : Reuss Voigt Hill
#
# Bulk Modulus (GPa) = 41.44307 71.41923 56.43115
# Shear Modulus (GPa) = 30.11686 41.26753 35.69220
#
# Velocity S-wave (km/s) = 3.59413 4.20720 3.91269
# Velocity P-wave (km/s) = 5.91604 7.36437 6.67957
#
# Compressibility (1/GPa) = 0.02412949
#
# Stress axis : x y z
#
# Youngs Moduli (GPa) = 50.50114 104.78257 123.13189
#
# Poissons Ratio (x) = 0.35878 0.05080
# Poissons Ratio (y) = 0.17292 0.34869
# Poissons Ratio (z) = 0.02083 0.29673
#
# Static dielectric constant tensor:
#      x y z
#    x 1.964530 -0.025110 0.014490 
#    y -0.025110 1.898420 -0.003410 
#    z 0.014490 -0.003410 1.909560 
# 
# From -- ./inp_files/208289.got.cif
#   From: 2010.05.17/outbox.cif.g08.bks.cpg/sg2_105_cif.got.tgz:208289.got - 2010.06.03 11:33:40.
