data_PCOD9046386
_publ_section_title
;
Structure prediction by ZEFSAII (Michael W. Deem and Ramdas Pophale) SiO2 
 PCOD9046386
Probable space group: P -1
;
_chemical_formula_sum "Si O2"
_cell_formula_units_Z 14
_cell_length_a 11.736906
_cell_length_b 11.160362
_cell_length_c 11.552735
_cell_angle_alpha 43.854694
_cell_angle_beta 38.941644
_cell_angle_gamma 34.945411
_cell_volume 529.931989
_symmetry_space_group_name_H-M "P -1"
_symmetry_group_IT_number 2
_symmetry_cell_setting 'triclinic'
loop_
_space_group_symop_operation_xyz
x,y,z
-x,-y,-z
loop_
_atom_site_type_symbol
_atom_site_label
_atom_site_fract_x
_atom_site_fract_y
_atom_site_fract_z
Si Si1 0.476842 0.837790 0.310398
Si Si2 0.850359 0.062898 0.689858
Si Si3 0.378907 0.454380 0.405809
Si Si4 0.028774 0.331989 0.002430
Si Si5 0.575730 0.882640 0.645877
Si Si6 0.311208 0.726428 0.935345
Si Si7 0.035188 0.574086 0.263087
O O1 0.369149 0.891103 0.232681
O O2 0.528076 0.627627 0.480482
O O3 0.710313 0.803724 0.139878
O O4 0.355449 0.015782 0.383417
O O5 0.763247 0.286870 0.664314
O O6 0.000000 0.000000 0.500000
O O7 0.989008 0.850078 0.806646
O O8 0.585652 0.323631 0.242596
O O9 0.199065 0.398357 0.571143
O O10 0.892577 0.461444 0.905147
O O11 0.000000 0.500000 0.000000
O O12 0.361852 0.881945 0.845261
O O13 0.791911 0.634517 0.652019
O O14 0.500000 0.000000 0.500000
O O15 0.500000 0.500000 0.000000
O O16 0.081329 0.752604 0.128218
#
# Coordination Sequence:
#
# PCOD9046386 Si02
#       7
#     2   2   2   2   2   2   2
#     4  11  24  44  69 101 140 180 229 290 349 413
#     4  12  26  42  71 105 138 183 232 285 360 419
#     4  11  24  45  69 106 138 183 233 289 354 411
#     4  11  25  44  68 102 137 183 228 289 350 417
#     4  11  22  44  72 102 135 185 232 286 345 413
#     4  10  24  42  71  99 139 185 233 278 354 403
#     4  10  25  45  69 100 143 178 234 291 342 415
#
# _framework density 26.418485
#
# number of rings (size 3 to 8) (size 9 to 14) (size 15 to 20)
#    0.000    1.143    1.429    4.286    8.000    3.429 
#    0.000    2.857    0.000    0.000    0.000    0.000 
#    0.000    0.000    0.000    0.000    0.000    0.000 
#
# Total GULP energy -78152.868499 kJ/mol
# GULP energy per Si atom -5582.347750 kJ/mol
# Density = 2.635836 g / cm^3
# Si number density = 26.418485 Si / 1000 Ang^3
#
#
#
# Elastic Constant Matrix: (Units=GPa)
#
#
# Indices 1 2 3 4 5 6 
#
# 1 132.1712 26.4302 43.6589 -15.5585 -1.5830 -0.2115
# 2 26.4302 91.3427 33.3480 -15.7242 -6.2140 7.9013
# 3 43.6589 33.3480 115.8298 -22.5341 1.6578 1.0153
# 4 -15.5585 -15.7242 -22.5341 40.9091 -8.8881 -5.2739
# 5 -1.5830 -6.2140 1.6578 -8.8881 60.1309 -6.0295
# 6 -0.2115 7.9013 1.0153 -5.2739 -6.0295 55.9208
#
#
#
# Elastic Compliance Matrix: (Units=1/GPa)
#
#
# Indices 1 2 3 4 5 6 
#
# 1 0.008908 -0.001342 -0.002680 0.001553 0.000446 0.000467
# 2 -0.001342 0.013097 -0.002640 0.003279 0.001744 -0.001310
# 3 -0.002680 -0.002640 0.011220 0.004225 0.000028 0.000561
# 4 0.001553 0.003279 0.004225 0.030074 0.004993 0.002841
# 5 0.000446 0.001744 0.000028 0.004993 0.017774 0.002142
# 6 0.000467 -0.001310 0.000561 0.002841 0.002142 0.018558
#
#
# Mechanical properties :
#
#
# Convention : Reuss Voigt Hill
#
# Bulk Modulus (GPa) = 50.24835 60.69088 55.46962
# Shear Modulus (GPa) = 41.80988 47.11927 44.46458
#
# Velocity S-wave (km/s) = 3.98251 4.22782 4.10699
# Velocity P-wave (km/s) = 6.34102 6.84510 6.59788
#
# Compressibility (1/GPa) = 0.01990115
#
# Stress axis : x y z
#
# Youngs Moduli (GPa) = 112.25379 76.35625 89.12535
#
# Poissons Ratio (x) = 0.10247 0.23883
# Poissons Ratio (y) = 0.15064 0.23531
# Poissons Ratio (z) = 0.30081 0.20160
#
# Static dielectric constant tensor:
#      x y z
#    x 2.454070 0.164000 0.017810 
#    y 0.164000 2.355750 0.133360 
#    z 0.017810 0.133360 2.221570 
# 
# From -- ./inp_files/222806.got.cif
#   From: 2010.05.17/outbox.cif.g08.bks.cpg/sg2_112_cif.got.tgz:222806.got - 2010.06.03 11:33:40.
