data_PCOD9046556
_publ_section_title
;
Structure prediction by ZEFSAII (Michael W. Deem and Ramdas Pophale) SiO2 
 PCOD9046556
Probable space group: P -1
;
_chemical_formula_sum "Si O2"
_cell_formula_units_Z 13
_cell_length_a 7.060771
_cell_length_b 9.030142
_cell_length_c 13.799488
_cell_angle_alpha 60.040823
_cell_angle_beta 121.757588
_cell_angle_gamma 126.832380
_cell_volume 576.525631
_symmetry_space_group_name_H-M "P -1"
_symmetry_group_IT_number 2
_symmetry_cell_setting 'triclinic'
loop_
_space_group_symop_operation_xyz
x,y,z
-x,-y,-z
loop_
_atom_site_type_symbol
_atom_site_label
_atom_site_fract_x
_atom_site_fract_y
_atom_site_fract_z
Si Si1 0.732636 0.813704 0.491238
Si Si2 0.231903 0.826890 0.958969
Si Si3 0.457931 0.563001 0.110673
Si Si4 0.500000 0.000000 0.500000
Si Si5 0.208395 0.120436 0.217997
Si Si6 0.032107 0.769071 0.140961
Si Si7 0.374699 0.577786 0.310770
O O1 0.539525 0.880694 0.461179
O O2 0.625636 0.716557 0.390613
O O3 0.724622 0.639018 0.609250
O O4 0.000000 0.000000 0.500000
O O5 0.058963 0.883688 0.826202
O O6 0.280711 0.651578 0.991259
O O7 0.092219 0.786874 0.037723
O O8 0.500000 0.000000 0.000000
O O9 0.373487 0.337743 0.154002
O O10 0.440160 0.595736 0.209761
O O11 0.737983 0.677770 0.110739
O O12 0.664282 0.927330 0.641181
O O13 0.159435 0.968714 0.168309
O O14 0.159054 0.639381 0.254406
#
# Coordination Sequence:
#
# PCOD9046556 Si02
#       7
#     2   2   2   1   2   2   2
#     4  11  25  42  68  98 140 198 238 289 351 418
#     4  11  25  49  76 105 143 186 238 301 359 418
#     4  11  25  45  73 107 140 189 233 299 361 419
#     4  12  26  46  70 108 140 188 236 286 354 422
#     4  12  25  48  72 105 147 183 244 289 354 431
#     4  11  25  45  73 106 139 189 232 297 363 417
#     4  10  24  43  64 104 144 179 246 290 350 431
#
# _framework density 22.548866
#
# number of rings (size 3 to 8) (size 9 to 14) (size 15 to 20)
#    0.000    0.923    4.615    0.923    4.308    0.615 
#    5.538    3.846    0.000    0.000    0.000    0.000 
#    0.000    0.000    0.000    0.000    0.000    0.000 
#
# Total GULP energy -72493.389376 kJ/mol
# GULP energy per Si atom -5576.414567 kJ/mol
# Density = 2.249754 g / cm^3
# Si number density = 22.548866 Si / 1000 Ang^3
#
#
#
# Elastic Constant Matrix: (Units=GPa)
#
#
# Indices 1 2 3 4 5 6 
#
# 1 122.3988 65.3790 51.5430 -17.8781 20.9371 -16.3735
# 2 65.3790 156.7855 51.9354 -12.2125 17.1250 -2.4008
# 3 51.5430 51.9354 142.9469 -13.8910 42.9296 -4.4282
# 4 -17.8781 -12.2125 -13.8910 31.7004 -16.3244 5.8794
# 5 20.9371 17.1250 42.9296 -16.3244 38.7045 -10.0292
# 6 -16.3735 -2.4008 -4.4282 5.8794 -10.0292 25.9187
#
#
#
# Elastic Compliance Matrix: (Units=1/GPa)
#
#
# Indices 1 2 3 4 5 6 
#
# 1 0.012883 -0.004133 -0.003065 0.003921 0.001730 0.007012
# 2 -0.004133 0.008671 -0.001638 0.000666 -0.000092 -0.002274
# 3 -0.003065 -0.001638 0.012436 -0.003251 -0.013983 -0.004637
# 4 0.003921 0.000666 -0.003251 0.042432 0.019013 -0.000285
# 5 0.001730 -0.000092 -0.013983 0.019013 0.052255 0.014602
# 6 0.007012 -0.002274 -0.004637 -0.000285 0.014602 0.047724
#
#
# Mechanical properties :
#
#
# Convention : Reuss Voigt Hill
#
# Bulk Modulus (GPa) = 61.28270 84.42733 72.85502
# Shear Modulus (GPa) = 25.06097 36.14962 30.60530
#
# Velocity S-wave (km/s) = 3.33739 4.00830 3.68814
# Velocity P-wave (km/s) = 6.48750 7.67758 7.10749
#
# Compressibility (1/GPa) = 0.01631782
#
# Stress axis : x y z
#
# Youngs Moduli (GPa) = 77.62045 115.32097 80.41294
#
# Poissons Ratio (x) = 0.47664 0.24646
# Poissons Ratio (y) = 0.32082 0.13173
# Poissons Ratio (z) = 0.23790 0.18892
#
# Static dielectric constant tensor:
#      x y z
#    x 1.801160 0.005820 0.019420 
#    y 0.005820 1.870990 0.011930 
#    z 0.019420 0.011930 1.884980 
# 
# From -- ./inp_files/479650.got.cif
#   From: 2010.05.17/outbox.cif.g08.bks.cpg/sg2_240_cif.got.tgz:479650.got - 2010.06.03 11:33:40.
