data_PCOD9046374
_publ_section_title
;
Structure prediction by ZEFSAII (Michael W. Deem and Ramdas Pophale) SiO2 
 PCOD9046374
Probable space group: P -1
;
_chemical_formula_sum "Si O2"
_cell_formula_units_Z 12
_cell_length_a 11.864550
_cell_length_b 9.214392
_cell_length_c 5.051190
_cell_angle_alpha 83.024788
_cell_angle_beta 99.789139
_cell_angle_gamma 110.821569
_cell_volume 507.523077
_symmetry_space_group_name_H-M "P -1"
_symmetry_group_IT_number 2
_symmetry_cell_setting 'triclinic'
loop_
_space_group_symop_operation_xyz
x,y,z
-x,-y,-z
loop_
_atom_site_type_symbol
_atom_site_label
_atom_site_fract_x
_atom_site_fract_y
_atom_site_fract_z
Si Si1 0.681670 0.040695 0.506748
Si Si2 0.930124 0.278886 0.467627
Si Si3 0.624624 0.325841 0.182808
Si Si4 0.363529 0.162219 0.960958
Si Si5 0.187584 0.348383 0.799553
Si Si6 0.838374 0.413289 0.899281
O O1 0.827051 0.109990 0.492921
O O2 0.633802 0.181199 0.386053
O O3 0.659271 0.975889 0.806355
O O4 0.622551 0.902713 0.306701
O O5 0.886644 0.379236 0.648199
O O6 0.065260 0.288762 0.592308
O O7 0.091738 0.652596 0.836205
O O8 0.485724 0.298107 0.070960
O O9 0.705450 0.494054 0.297411
O O10 0.697315 0.323223 0.938360
O O11 0.250559 0.222545 0.899251
O O12 0.150924 0.414018 0.043624
#
# Coordination Sequence:
#
# PCOD9046374 Si02
#       6
#     2   2   2   2   2   2
#     4  11  25  41  69  89 136 173 210 260 315 397
#     4  11  21  44  64 100 120 171 222 254 321 377
#     4   9  22  45  68  95 123 177 217 260 311 388
#     4  12  25  45  61 103 131 169 209 265 331 374
#     4  10  24  42  71  95 132 164 213 282 310 374
#     4   9  22  37  69  94 121 163 216 269 303 372
#
# _framework density 23.644244
#
# number of rings (size 3 to 8) (size 9 to 14) (size 15 to 20)
#    1.000    0.667    0.000    4.500    0.000    6.667 
#    0.000    1.667    0.000    0.000    0.000    0.000 
#    0.000    0.000    0.000    0.000    0.000    0.000 
#
# Total GULP energy -67084.760595 kJ/mol
# GULP energy per Si atom -5590.396716 kJ/mol
# Density = 2.359043 g / cm^3
# Si number density = 23.644244 Si / 1000 Ang^3
#
#
#
# Elastic Constant Matrix: (Units=GPa)
#
#
# Indices 1 2 3 4 5 6 
#
# 1 91.5624 2.7218 34.0092 -4.9390 24.8072 13.2950
# 2 2.7218 40.1872 0.8234 2.3347 7.5970 14.3334
# 3 34.0092 0.8234 85.5325 2.7336 0.5587 -0.7233
# 4 -4.9390 2.3347 2.7336 25.8505 8.4350 11.2035
# 5 24.8072 7.5970 0.5587 8.4350 40.4847 12.1378
# 6 13.2950 14.3334 -0.7233 11.2035 12.1378 26.0915
#
#
#
# Elastic Compliance Matrix: (Units=1/GPa)
#
#
# Indices 1 2 3 4 5 6 
#
# 1 0.019842 0.005127 -0.008425 0.014003 -0.011822 -0.013674
# 2 0.005127 0.033054 -0.002831 0.009687 -0.004446 -0.022941
# 3 -0.008425 -0.002831 0.015346 -0.007749 0.004901 0.007321
# 4 0.014003 0.009687 -0.007749 0.059494 -0.013048 -0.032147
# 5 -0.011822 -0.004446 0.004901 -0.013048 0.036223 -0.002646
# 6 -0.013674 -0.022941 0.007321 -0.032147 -0.002646 0.073134
#
#
# Mechanical properties :
#
#
# Convention : Reuss Voigt Hill
#
# Bulk Modulus (GPa) = 17.86221 32.48788 25.17504
# Shear Modulus (GPa) = 18.65574 30.46717 24.56146
#
# Velocity S-wave (km/s) = 2.81199 3.59355 3.22653
# Velocity P-wave (km/s) = 4.25606 5.56671 4.95491
#
# Compressibility (1/GPa) = 0.05598412
#
# Stress axis : x y z
#
# Youngs Moduli (GPa) = 50.39784 30.25340 65.16297
#
# Poissons Ratio (x) = -0.15511 0.54899
# Poissons Ratio (y) = -0.25839 0.18450
# Poissons Ratio (z) = 0.42459 0.08566
#
# Static dielectric constant tensor:
#      x y z
#    x 1.912430 0.095390 0.001090 
#    y 0.095390 1.936080 0.014950 
#    z 0.001090 0.014950 1.893310 
# 
# From -- ./inp_files/59290.got.cif
#   From: 2010.05.17/outbox.cif.g08.bks.cpg/sg2_30_cif.got.tgz:59290.got - 2010.06.03 11:33:40.
