data_PCOD9046342
_publ_section_title
;
Structure prediction by ZEFSAII (Michael W. Deem and Ramdas Pophale) SiO2 
 PCOD9046342
Probable space group: P -1
;
_chemical_formula_sum "Si O2"
_cell_formula_units_Z 14
_cell_length_a 11.720234
_cell_length_b 7.839701
_cell_length_c 7.915623
_cell_angle_alpha 61.372349
_cell_angle_beta 69.083317
_cell_angle_gamma 50.703254
_cell_volume 492.503622
_symmetry_space_group_name_H-M "P -1"
_symmetry_group_IT_number 2
_symmetry_cell_setting 'triclinic'
loop_
_space_group_symop_operation_xyz
x,y,z
-x,-y,-z
loop_
_atom_site_type_symbol
_atom_site_label
_atom_site_fract_x
_atom_site_fract_y
_atom_site_fract_z
Si Si1 0.911668 0.465056 0.915059
Si Si2 0.704311 0.085837 0.574340
Si Si3 0.294274 0.828570 0.004784
Si Si4 0.158813 0.258793 0.636523
Si Si5 0.941535 0.968438 0.729339
Si Si6 0.366680 0.392263 0.577185
Si Si7 0.616816 0.607400 0.048065
O O1 0.936613 0.231015 0.113200
O O2 0.993162 0.436643 0.707148
O O3 0.000000 0.500000 0.000000
O O4 0.738087 0.625260 0.880490
O O5 0.537833 0.178957 0.560852
O O6 0.667922 0.345274 0.523487
O O7 0.806022 0.923837 0.443087
O O8 0.814292 0.934007 0.743406
O O9 0.441779 0.776271 0.041830
O O10 0.217138 0.083894 0.849488
O O11 0.354053 0.637277 0.914618
O O12 0.168998 0.823802 0.179186
O O13 0.255562 0.366995 0.536749
O O14 0.000000 0.000000 0.500000
O O15 0.343881 0.368545 0.796015
#
# Coordination Sequence:
#
# PCOD9046342 Si02
#       7
#     2   2   2   2   2   2   2
#     4  11  25  44  69 101 141 184 229 291 345 411
#     4  11  24  44  68 101 140 184 222 286 349 413
#     4  10  24  42  71 100 128 186 235 283 337 418
#     4  11  24  42  72 102 134 181 236 278 351 409
#     4  11  25  42  67 100 136 182 228 280 352 408
#     4  11  22  41  72  98 141 176 229 292 339 411
#     4  11  21  43  67  99 135 177 236 281 341 411
#
# _framework density 28.426189000000001
#
# number of rings (size 3 to 8) (size 9 to 14) (size 15 to 20)
#    0.000    1.143    4.286    1.286    2.000    2.857 
#    0.000    2.143    0.000    0.000    0.000    0.000 
#    0.000    0.000    0.000    0.000    0.000    0.000 
#
# Total GULP energy -78076.910872 kJ/mol
# GULP energy per Si atom -5576.922205 kJ/mol
# Density = 2.836149 g / cm^3
# Si number density = 28.426189 Si / 1000 Ang^3
#
#
#
# Elastic Constant Matrix: (Units=GPa)
#
#
# Indices 1 2 3 4 5 6 
#
# 1 159.7651 26.5412 14.9224 5.3276 -6.4833 -9.0161
# 2 26.5412 75.4296 28.1359 21.2783 -10.5309 -15.0361
# 3 14.9224 28.1359 106.8901 27.1079 3.4408 -8.6120
# 4 5.3276 21.2783 27.1079 45.7543 1.5632 -13.7768
# 5 -6.4833 -10.5309 3.4408 1.5632 46.4428 16.4281
# 6 -9.0161 -15.0361 -8.6120 -13.7768 16.4281 52.6933
#
#
#
# Elastic Compliance Matrix: (Units=1/GPa)
#
#
# Indices 1 2 3 4 5 6 
#
# 1 0.006692 -0.002227 -0.000490 0.000699 0.000253 0.000533
# 2 -0.002227 0.017549 -0.002802 -0.005904 0.003536 0.001522
# 3 -0.000490 -0.002802 0.011591 -0.005455 -0.001385 0.000016
# 4 0.000699 -0.005904 -0.005455 0.029905 -0.004204 0.006673
# 5 0.000253 0.003536 -0.001385 -0.004204 0.025525 -0.008231
# 6 0.000533 0.001522 0.000016 0.006673 -0.008231 0.023817
#
#
# Mechanical properties :
#
#
# Convention : Reuss Voigt Hill
#
# Bulk Modulus (GPa) = 40.33591 53.47599 46.90595
# Shear Modulus (GPa) = 37.20741 47.14376 42.17559
#
# Velocity S-wave (km/s) = 3.62182 4.07684 3.85605
# Velocity P-wave (km/s) = 5.63121 6.40421 6.03011
#
# Compressibility (1/GPa) = 0.02479181
#
# Stress axis : x y z
#
# Youngs Moduli (GPa) = 149.43050 56.98310 86.27619
#
# Poissons Ratio (x) = 0.12692 0.04231
# Poissons Ratio (y) = 0.33283 0.24177
# Poissons Ratio (z) = 0.07329 0.15968
#
# Static dielectric constant tensor:
#      x y z
#    x 2.275120 -0.017650 -0.120770 
#    y -0.017650 2.509030 -0.008290 
#    z -0.120770 -0.008290 2.368860 
# 
# From -- ./inp_files/234120.got.cif
#   From: 2010.05.17/outbox.cif.g08.bks.cpg/sg2_118_cif.got.tgz:234120.got - 2010.06.03 11:33:40.
