data_PCOD9046850
_publ_section_title
;
Structure prediction by ZEFSAII (Michael W. Deem and Ramdas Pophale) SiO2 
 PCOD9046850
Probable space group: P -1
;
_chemical_formula_sum "Si O2"
_cell_formula_units_Z 14
_cell_length_a 11.552313
_cell_length_b 10.530870
_cell_length_c 11.757979
_cell_angle_alpha 78.360967
_cell_angle_beta 34.844335
_cell_angle_gamma 102.156867
_cell_volume 592.643622
_symmetry_space_group_name_H-M "P -1"
_symmetry_group_IT_number 2
_symmetry_cell_setting 'triclinic'
loop_
_space_group_symop_operation_xyz
x,y,z
-x,-y,-z
loop_
_atom_site_type_symbol
_atom_site_label
_atom_site_fract_x
_atom_site_fract_y
_atom_site_fract_z
Si Si1 0.850569 0.281578 0.619855
Si Si2 0.948187 0.944676 0.747822
Si Si3 0.638866 0.918893 0.410087
Si Si4 0.419687 0.086717 0.201368
Si Si5 0.399661 0.573663 0.244456
Si Si6 0.222520 0.939576 0.960984
Si Si7 0.404392 0.386872 0.485150
O O1 0.753378 0.104950 0.679209
O O2 0.760818 0.363596 0.597362
O O3 0.170625 0.421594 0.368937
O O4 0.658786 0.227828 0.895899
O O5 0.188075 0.079823 0.441169
O O6 0.706949 0.749983 0.930465
O O7 0.102800 0.958865 0.734109
O O8 0.795821 0.004405 0.909585
O O9 0.497455 0.720391 0.590367
O O10 0.500000 0.000000 0.500000
O O11 0.704759 0.930056 0.220361
O O12 0.572593 0.090968 0.185817
O O13 0.448951 0.492124 0.318817
O O14 0.921257 0.762718 0.211294
O O15 0.500000 0.500000 0.500000
#
# Coordination Sequence:
#
# PCOD9046850 Si02
#       7
#     2   2   2   2   2   2   2
#     4  10  24  43  68  96 144 183 235 296 346 407
#     4  11  23  40  73  98 136 184 237 280 351 424
#     4  11  23  42  72 103 138 193 234 280 350 439
#     4  11  22  43  70  97 128 193 240 284 333 428
#     4  11  22  43  65 102 143 179 224 302 361 397
#     4  11  21  44  67  98 140 179 236 280 349 423
#     4  11  23  40  71 102 143 180 223 297 363 410
#
# _framework density 23.622964
#
# number of rings (size 3 to 8) (size 9 to 14) (size 15 to 20)
#    0.000    1.143    4.286    3.429    0.000    1.143 
#    0.000   10.000    0.000    0.000    0.000    0.000 
#    0.000    0.000    0.000    0.000    0.000    0.000 
#
# Total GULP energy -78124.004523 kJ/mol
# GULP energy per Si atom -5580.286037 kJ/mol
# Density = 2.356920 g / cm^3
# Si number density = 23.622964 Si / 1000 Ang^3
#
#
#
# Elastic Constant Matrix: (Units=GPa)
#
#
# Indices 1 2 3 4 5 6 
#
# 1 117.0415 36.3896 16.3772 -7.2620 -4.1938 -17.8068
# 2 36.3896 97.6410 37.4594 -5.7435 -15.9347 -1.1617
# 3 16.3772 37.4594 81.2543 -6.2271 -5.0536 0.0909
# 4 -7.2620 -5.7435 -6.2271 38.8003 4.7390 -11.6041
# 5 -4.1938 -15.9347 -5.0536 4.7390 38.0853 -9.8975
# 6 -17.8068 -1.1617 0.0909 -11.6041 -9.8975 39.2233
#
#
#
# Elastic Compliance Matrix: (Units=1/GPa)
#
#
# Indices 1 2 3 4 5 6 
#
# 1 0.010808 -0.003537 -0.000263 0.003132 0.000829 0.005938
# 2 -0.003537 0.014554 -0.005688 0.000000 0.004969 0.000092
# 3 -0.000263 -0.005688 0.015067 0.001601 -0.000609 -0.000003
# 4 0.003132 0.000000 0.001601 0.029691 -0.000520 0.010071
# 5 0.000829 0.004969 -0.000609 -0.000520 0.030508 0.008069
# 6 0.005938 0.000092 -0.000003 0.010071 0.008069 0.033209
#
#
# Mechanical properties :
#
#
# Convention : Reuss Voigt Hill
#
# Bulk Modulus (GPa) = 46.61223 52.93215 49.77219
# Shear Modulus (GPa) = 31.25708 36.93584 34.09646
#
# Velocity S-wave (km/s) = 3.64148 3.95847 3.80328
# Velocity P-wave (km/s) = 6.12006 6.58395 6.35624
#
# Compressibility (1/GPa) = 0.02145360
#
# Stress axis : x y z
#
# Youngs Moduli (GPa) = 92.52495 68.71007 66.37060
#
# Poissons Ratio (x) = 0.24303 0.01745
# Poissons Ratio (y) = 0.32726 0.37750
# Poissons Ratio (z) = 0.02432 0.39080
#
# Static dielectric constant tensor:
#      x y z
#    x 1.937370 -0.041360 0.045190 
#    y -0.041360 1.999880 0.021820 
#    z 0.045190 0.021820 1.925650 
# 
# From -- ./inp_files/427956.got.cif
#   From: 2010.05.17/outbox.cif.g08.bks.cpg/sg2_214_cif.got.tgz:427956.got - 2010.06.03 11:33:40.
