data_PCOD9046354
_publ_section_title
;
Structure prediction by ZEFSAII (Michael W. Deem and Ramdas Pophale) SiO2 
 PCOD9046354
Probable space group: P -1
;
_chemical_formula_sum "Si O2"
_cell_formula_units_Z 16
_cell_length_a 21.251447
_cell_length_b 11.496103
_cell_length_c 8.787312
_cell_angle_alpha 140.737774
_cell_angle_beta 48.027334
_cell_angle_gamma 151.522811
_cell_volume 647.324409
_symmetry_space_group_name_H-M "P -1"
_symmetry_group_IT_number 2
_symmetry_cell_setting 'triclinic'
loop_
_space_group_symop_operation_xyz
x,y,z
-x,-y,-z
loop_
_atom_site_type_symbol
_atom_site_label
_atom_site_fract_x
_atom_site_fract_y
_atom_site_fract_z
Si Si1 0.260309 0.727089 0.727415
Si Si2 0.319525 0.573632 0.955178
Si Si3 0.234407 0.260050 0.230587
Si Si4 0.478762 0.642270 0.012500
Si Si5 0.346950 0.331267 0.418351
Si Si6 0.933698 0.469772 0.412601
Si Si7 0.104906 0.962839 0.847409
Si Si8 0.781852 0.225479 0.810280
O O1 0.268868 0.526677 0.480038
O O2 0.144960 0.605055 0.682330
O O3 0.395193 0.058313 0.807059
O O4 0.228822 0.712836 0.938981
O O5 0.361507 0.544973 0.700816
O O6 0.198049 0.250635 0.891652
O O7 0.431419 0.718453 0.045230
O O8 0.277213 0.711880 0.135672
O O9 0.358412 0.397773 0.069943
O O10 0.236013 0.163935 0.294164
O O11 0.110410 0.041261 0.093615
O O12 0.526648 0.543099 0.742714
O O13 0.302934 0.102357 0.376992
O O14 0.851262 0.177589 0.341125
O O15 0.976985 0.712479 0.694972
O O16 0.067568 0.585970 0.267891
#
# Coordination Sequence:
#
# PCOD9046354 Si02
#       8
#     2   2   2   2   2   2   2   2
#     4  11  24  43  70 104 145 181 231 284 345 415
#     4  11  23  46  70 105 138 183 233 280 354 406
#     4  11  23  45  69 103 139 182 235 283 348 415
#     4  10  24  42  71 102 140 183 226 291 342 412
#     4  11  22  44  69 103 141 181 232 280 352 411
#     4  11  24  45  70 101 141 185 229 287 345 405
#     4  10  24  43  69  99 135 180 232 283 340 405
#     4  11  24  44  71 102 144 180 231 289 339 411
#
# _framework density 24.717127000000001
#
# number of rings (size 3 to 8) (size 9 to 14) (size 15 to 20)
#    0.000    1.250    2.500    3.000    0.000    9.000 
#    2.250    3.125    0.000    0.000    0.000    0.000 
#    0.000    0.000    0.000    0.000    0.000    0.000 
#
# Total GULP energy -89512.999599 kJ/mol
# GULP energy per Si atom -5594.562475 kJ/mol
# Density = 2.466087 g / cm^3
# Si number density = 24.717127 Si / 1000 Ang^3
#
#
#
# Elastic Constant Matrix: (Units=GPa)
#
#
# Indices 1 2 3 4 5 6 
#
# 1 141.3121 5.4953 14.0012 -1.0193 -8.1622 1.3190
# 2 5.4953 43.7960 18.4440 -0.4297 -15.6272 2.2543
# 3 14.0012 18.4440 91.1156 10.6710 -13.4446 14.6895
# 4 -1.0193 -0.4297 10.6710 25.4995 8.9460 1.7878
# 5 -8.1622 -15.6272 -13.4446 8.9460 48.4410 4.0652
# 6 1.3190 2.2543 14.6895 1.7878 4.0652 33.3513
#
#
#
# Elastic Compliance Matrix: (Units=1/GPa)
#
#
# Indices 1 2 3 4 5 6 
#
# 1 0.007233 -0.000197 -0.001014 0.000429 0.000790 0.000055
# 2 -0.000197 0.027450 -0.004161 -0.000487 0.007837 -0.000944
# 3 -0.001014 -0.004161 0.014465 -0.007260 0.004362 -0.006192
# 4 0.000429 -0.000487 -0.007260 0.045890 -0.010748 0.002064
# 5 0.000790 0.007837 0.004362 -0.010748 0.026936 -0.005189
# 6 0.000055 -0.000944 -0.006192 0.002064 -0.005189 0.033295
#
#
# Mechanical properties :
#
#
# Convention : Reuss Voigt Hill
#
# Bulk Modulus (GPa) = 26.03858 39.12277 32.58068
# Shear Modulus (GPa) = 27.96195 37.34391 32.65293
#
# Velocity S-wave (km/s) = 3.36710 3.89118 3.63859
# Velocity P-wave (km/s) = 5.06695 6.00425 5.55540
#
# Compressibility (1/GPa) = 0.03840455
#
# Stress axis : x y z
#
# Youngs Moduli (GPa) = 138.25749 36.42967 69.13051
#
# Poissons Ratio (x) = 0.00719 0.07010
# Poissons Ratio (y) = 0.02728 0.28762
# Poissons Ratio (z) = 0.14020 0.15157
#
# Static dielectric constant tensor:
#      x y z
#    x 1.992410 0.004260 0.019980 
#    y 0.004260 2.003110 -0.012180 
#    z 0.019980 -0.012180 1.968730 
# 
# From -- ./inp_files/346454.got.cif
#   From: 2010.05.17/outbox.cif.g08.bks.cpg/sg2_174_cif.got.tgz:346454.got - 2010.06.03 11:33:40.
