data_PCOD9046793
_publ_section_title
;
Structure prediction by ZEFSAII (Michael W. Deem and Ramdas Pophale) SiO2 
 PCOD9046793
Probable space group: P -1
;
_chemical_formula_sum "Si O2"
_cell_formula_units_Z 15
_cell_length_a 9.297057
_cell_length_b 9.186693
_cell_length_c 13.171077
_cell_angle_alpha 73.235766
_cell_angle_beta 131.064955
_cell_angle_gamma 72.186411
_cell_volume 590.724983
_symmetry_space_group_name_H-M "P -1"
_symmetry_group_IT_number 2
_symmetry_cell_setting 'triclinic'
loop_
_space_group_symop_operation_xyz
x,y,z
-x,-y,-z
loop_
_atom_site_type_symbol
_atom_site_label
_atom_site_fract_x
_atom_site_fract_y
_atom_site_fract_z
Si Si1 0.043596 0.739465 0.907970
Si Si2 0.664370 0.140085 0.738416
Si Si3 0.500000 0.000000 0.000000
Si Si4 0.393367 0.713772 0.700830
Si Si5 0.964722 0.273775 0.784941
Si Si6 0.637034 0.256338 0.096693
Si Si7 0.196419 0.523655 0.553808
Si Si8 0.644341 0.722183 0.632645
O O1 0.833069 0.748432 0.755171
O O2 0.128028 0.826173 0.852185
O O3 0.901971 0.892484 0.908545
O O4 0.302868 0.503033 0.099540
O O5 0.478227 0.293425 0.711381
O O6 0.478991 0.178340 0.554633
O O7 0.791585 0.222336 0.736753
O O8 0.275721 0.087249 0.963884
O O9 0.507703 0.808246 0.008136
O O10 0.297282 0.831812 0.739952
O O11 0.234311 0.646265 0.619364
O O12 0.421705 0.802545 0.596523
O O13 0.911025 0.350780 0.626757
O O14 0.837106 0.475284 0.751936
O O15 0.500000 0.500000 0.000000
O O16 0.000000 0.500000 0.500000
#
# Coordination Sequence:
#
# PCOD9046793 Si02
#       8
#     2   2   1   2   2   2   2   2
#     4  11  24  41  68  99 132 176 236 286 337 414
#     4  11  22  46  67  99 132 185 227 279 346 417
#     4  12  24  44  72 102 136 180 236 282 350 412
#     4  11  23  44  66 100 137 180 230 284 349 411
#     4  11  22  44  71  95 133 188 226 276 349 421
#     4  10  24  43  68 101 140 181 225 289 350 406
#     4  11  25  42  69 100 139 182 225 286 355 411
#     4  11  22  45  69  91 140 184 224 280 354 413
#
# _framework density 25.392526
#
# number of rings (size 3 to 8) (size 9 to 14) (size 15 to 20)
#    0.000    1.067    4.000    3.200    7.467    0.533 
#    4.800    1.333    0.000    0.000    0.000    0.000 
#    0.000    0.000    0.000    0.000    0.000    0.000 
#
# Total GULP energy -83732.233204 kJ/mol
# GULP energy per Si atom -5582.148880 kJ/mol
# Density = 2.533473 g / cm^3
# Si number density = 25.392526 Si / 1000 Ang^3
#
#
#
# Elastic Constant Matrix: (Units=GPa)
#
#
# Indices 1 2 3 4 5 6 
#
# 1 342.2404 -11.2781 -195.8628 8.0218 -21.8156 35.1728
# 2 -11.2781 141.9478 44.1959 12.4100 17.3361 13.2170
# 3 -195.8628 44.1959 234.5388 15.2143 30.0811 -13.3339
# 4 8.0218 12.4100 15.2143 38.2693 7.0821 8.9403
# 5 -21.8156 17.3361 30.0811 7.0821 41.6191 9.1965
# 6 35.1728 13.2170 -13.3339 8.9403 9.1965 58.1990
#
#
#
# Elastic Compliance Matrix: (Units=1/GPa)
#
#
# Indices 1 2 3 4 5 6 
#
# 1 0.006310 -0.000824 0.005405 -0.002850 0.000684 -0.002058
# 2 -0.000824 0.008034 -0.001971 -0.000989 -0.001893 -0.001327
# 3 0.005405 -0.001971 0.009801 -0.003975 -0.002862 0.000490
# 4 -0.002850 -0.000989 -0.003975 0.029842 -0.002593 -0.003138
# 5 0.000684 -0.001893 -0.002862 -0.002593 0.028741 -0.004783
# 6 -0.002058 -0.001327 0.000490 -0.003138 -0.004783 0.020078
#
#
# Mechanical properties :
#
#
# Convention : Reuss Voigt Hill
#
# Bulk Modulus (GPa) = 34.05455 43.64856 38.85156
# Shear Modulus (GPa) = 46.56592 86.39562 66.48077
#
# Velocity S-wave (km/s) = 4.28699 5.83934 5.12231
# Velocity P-wave (km/s) = 6.15993 7.91775 7.09350
#
# Compressibility (1/GPa) = 0.02936465
#
# Stress axis : x y z
#
# Youngs Moduli (GPa) = 158.48402 124.46907 102.02760
#
# Poissons Ratio (x) = 0.10259 -0.55143
# Poissons Ratio (y) = 0.13062 0.20107
# Poissons Ratio (z) = -0.85656 0.24530
#
# Static dielectric constant tensor:
#      x y z
#    x 1.984640 -0.016030 -0.070440 
#    y -0.016030 1.993890 -0.078180 
#    z -0.070440 -0.078180 2.082200 
# 
# From -- ./inp_files/356488.got.cif
#   From: 2010.05.17/outbox.cif.g08.bks.cpg/sg2_179_cif.got.tgz:356488.got - 2010.06.03 11:33:40.
