data_PCOD9046248
_publ_section_title
;
Structure prediction by ZEFSAII (Michael W. Deem and Ramdas Pophale) SiO2 
 PCOD9046248
Probable space group: P -1
;
_chemical_formula_sum "Si O2"
_cell_formula_units_Z 16
_cell_length_a 8.777599
_cell_length_b 14.318274
_cell_length_c 25.982117
_cell_angle_alpha 159.692734
_cell_angle_beta 45.140271
_cell_angle_gamma 125.689565
_cell_volume 761.713336
_symmetry_space_group_name_H-M "P -1"
_symmetry_group_IT_number 2
_symmetry_cell_setting 'triclinic'
loop_
_space_group_symop_operation_xyz
x,y,z
-x,-y,-z
loop_
_atom_site_type_symbol
_atom_site_label
_atom_site_fract_x
_atom_site_fract_y
_atom_site_fract_z
Si Si1 0.763078 0.374153 0.890138
Si Si2 0.897006 0.962551 0.450259
Si Si3 0.024828 0.552462 0.376908
Si Si4 0.483554 0.301009 0.447543
Si Si5 0.055808 0.146214 0.876403
Si Si6 0.718747 0.079168 0.006246
Si Si7 0.019628 0.875161 0.636699
Si Si8 0.473049 0.331351 0.585888
O O1 0.918556 0.268418 0.747936
O O2 0.500000 0.500000 0.000000
O O3 0.883000 0.563306 0.993285
O O4 0.813566 0.098937 0.771983
O O5 0.691398 0.846075 0.451706
O O6 0.838128 0.260736 0.587065
O O7 0.000000 0.000000 0.500000
O O8 0.023295 0.581380 0.455060
O O9 0.769705 0.710265 0.500964
O O10 0.111896 0.223463 0.170441
O O11 0.500000 0.500000 0.500000
O O12 0.501419 0.378653 0.542809
O O13 0.704369 0.034151 0.249029
O O14 0.851666 0.174516 0.978212
O O15 0.005128 0.979506 0.752759
O O16 0.627625 0.353010 0.205053
O O17 0.500000 0.000000 0.000000
O O18 0.277417 0.856118 0.551736
#
# Coordination Sequence:
#
# PCOD9046248 Si02
#       8
#     2   2   2   2   2   2   2   2
#     4  11  24  44  68 101 139 172 228 284 341 405
#     4  11  23  44  70 100 137 177 226 282 346 404
#     4  11  23  43  68  97 135 179 228 278 340 401
#     4  11  23  43  70  96 136 181 226 275 343 403
#     4  11  23  43  67  98 136 177 229 282 333 406
#     4  12  25  44  64 103 139 173 232 281 338 402
#     4  10  24  42  69  96 132 179 225 271 345 403
#     4  11  24  45  72 100 135 183 228 282 341 408
#
# _framework density 21.005277
#
# number of rings (size 3 to 8) (size 9 to 14) (size 15 to 20)
#    0.000    1.000    5.000    1.875    1.750    5.000 
#    4.500    0.000    0.000    0.000    0.000    0.000 
#    0.000    0.000    0.000    0.000    0.000    0.000 
#
# Total GULP energy -89094.713573 kJ/mol
# GULP energy per Si atom -5568.419598 kJ/mol
# Density = 2.095747 g / cm^3
# Si number density = 21.005277 Si / 1000 Ang^3
#
#
#
# Elastic Constant Matrix: (Units=GPa)
#
#
# Indices 1 2 3 4 5 6 
#
# 1 70.9731 5.9114 -2.4224 -4.7020 -8.2607 7.0049
# 2 5.9114 75.3487 16.6420 -1.6474 2.2753 1.0614
# 3 -2.4224 16.6420 49.2701 1.1327 -8.1496 8.0625
# 4 -4.7020 -1.6474 1.1327 37.6197 4.6389 -3.2449
# 5 -8.2607 2.2753 -8.1496 4.6389 36.1145 -5.5004
# 6 7.0049 1.0614 8.0625 -3.2449 -5.5004 28.8782
#
#
#
# Elastic Compliance Matrix: (Units=1/GPa)
#
#
# Indices 1 2 3 4 5 6 
#
# 1 0.015139 -0.001765 0.002467 0.001010 0.003465 -0.003523
# 2 -0.001765 0.014754 -0.005700 0.001010 -0.002582 0.001099
# 3 0.002467 -0.005700 0.024365 -0.001924 0.005706 -0.006321
# 4 0.001010 0.001010 -0.001924 0.027460 -0.003383 0.002696
# 5 0.003465 -0.002582 0.005706 -0.003383 0.030848 0.003157
# 6 -0.003523 0.001099 -0.006321 0.002696 0.003157 0.038111
#
#
# Mechanical properties :
#
#
# Convention : Reuss Voigt Hill
#
# Bulk Modulus (GPa) = 22.59365 26.20598 24.39981
# Shear Modulus (GPa) = 28.50166 32.21986 30.36076
#
# Velocity S-wave (km/s) = 3.68758 3.92074 3.80595
# Velocity P-wave (km/s) = 5.37685 5.74450 5.56371
#
# Compressibility (1/GPa) = 0.04426022
#
# Stress axis : x y z
#
# Youngs Moduli (GPa) = 66.05494 67.77949 41.04182
#
# Poissons Ratio (x) = 0.11966 -0.10125
# Poissons Ratio (y) = 0.11662 0.23395
# Poissons Ratio (z) = -0.16295 0.38637
#
# Static dielectric constant tensor:
#      x y z
#    x 1.854060 0.182710 0.277910 
#    y 0.182710 -1.618200 -4.386830 
#    z 0.277910 -4.386830 -3.908610 
# 
# From -- ./inp_files/263622.got.cif
#   From: 2010.05.17/outbox.cif.g08.bks.cpg/sg2_132_cif.got.tgz:263622.got - 2010.06.03 11:33:40.
