data_PCOD9046170
_publ_section_title
;
Structure prediction by ZEFSAII (Michael W. Deem and Ramdas Pophale) SiO2 
 PCOD9046170
Probable space group: P -1
;
_chemical_formula_sum "Si O2"
_cell_formula_units_Z 12
_cell_length_a 10.754290
_cell_length_b 11.466769
_cell_length_c 5.507627
_cell_angle_alpha 57.723874
_cell_angle_beta 98.642546
_cell_angle_gamma 119.181843
_cell_volume 495.746934
_symmetry_space_group_name_H-M "P -1"
_symmetry_group_IT_number 2
_symmetry_cell_setting 'triclinic'
loop_
_space_group_symop_operation_xyz
x,y,z
-x,-y,-z
loop_
_atom_site_type_symbol
_atom_site_label
_atom_site_fract_x
_atom_site_fract_y
_atom_site_fract_z
Si Si1 0.185794 0.851904 0.040001
Si Si2 0.161205 0.592046 0.045807
Si Si3 0.438957 0.898169 0.347206
Si Si4 0.864506 0.641945 0.351861
Si Si5 0.388990 0.557741 0.817710
Si Si6 0.086772 0.072531 0.691604
O O1 0.219120 0.775011 0.906059
O O2 0.270320 0.846622 0.307092
O O3 0.013266 0.742759 0.142666
O O4 0.211309 0.025394 0.795920
O O5 0.145394 0.519628 0.388324
O O6 0.279052 0.564264 0.975168
O O7 0.000000 0.500000 0.000000
O O8 0.453907 0.738110 0.532543
O O9 0.500000 0.000000 0.500000
O O10 0.500000 0.000000 0.000000
O O11 0.718179 0.584839 0.230002
O O12 0.869612 0.746248 0.468354
O O13 0.500000 0.500000 0.000000
O O14 0.000000 0.000000 0.500000
O O15 0.000000 0.000000 0.000000
#
# Coordination Sequence:
#
# PCOD9046170 Si02
#       6
#     2   2   2   2   2   2
#     4  11  23  48  77 113 153 202 270 329 392 473
#     4  12  22  43  80 111 150 195 266 333 393 464
#     4  12  29  52  75 112 159 216 262 322 399 485
#     4  11  24  45  77 115 149 199 266 332 397 468
#     4  12  29  50  78 116 161 210 266 333 404 477
#     4  10  24  42  68 111 153 196 247 318 397 463
#
# _framework density 24.205898999999999
#
# number of rings (size 3 to 8) (size 9 to 14) (size 15 to 20)
#    0.000    0.667    3.333    3.500    4.667    6.000 
#    0.000    0.000    0.000    0.000    0.000    0.000 
#    0.000    0.000    0.000    0.000    0.000    0.000 
#
# Total GULP energy -66989.551795 kJ/mol
# GULP energy per Si atom -5582.462650 kJ/mol
# Density = 2.415081 g / cm^3
# Si number density = 24.205899 Si / 1000 Ang^3
#
#
#
# Elastic Constant Matrix: (Units=GPa)
#
#
# Indices 1 2 3 4 5 6 
#
# 1 132.3094 71.9601 67.5339 5.1444 34.0446 4.6016
# 2 71.9601 174.3214 51.0975 29.2134 10.2576 -10.7133
# 3 67.5339 51.0975 127.1673 5.4053 10.9244 9.1817
# 4 5.1444 29.2134 5.4053 57.0421 11.0268 10.3058
# 5 34.0446 10.2576 10.9244 11.0268 54.8838 0.3041
# 6 4.6016 -10.7133 9.1817 10.3058 0.3041 53.5357
#
#
#
# Elastic Compliance Matrix: (Units=1/GPa)
#
#
# Indices 1 2 3 4 5 6 
#
# 1 0.014857 -0.004832 -0.005272 0.003530 -0.007962 -0.001974
# 2 -0.004832 0.009047 -0.001319 -0.005195 0.002594 0.003437
# 3 -0.005272 -0.001319 0.011206 0.000165 0.001263 -0.001772
# 4 0.003530 -0.005195 0.000165 0.021951 -0.005631 -0.005565
# 5 -0.007962 0.002594 0.001263 -0.005631 0.023544 0.001937
# 6 -0.001974 0.003437 -0.001772 -0.005565 0.001937 0.020901
#
#
# Mechanical properties :
#
#
# Convention : Reuss Voigt Hill
#
# Bulk Modulus (GPa) = 81.54362 90.55345 86.04853
# Shear Modulus (GPa) = 38.92842 49.30610 44.11726
#
# Velocity S-wave (km/s) = 4.01461 4.51815 4.27380
# Velocity P-wave (km/s) = 7.43304 8.04420 7.74465
#
# Compressibility (1/GPa) = 0.01226338
#
# Stress axis : x y z
#
# Youngs Moduli (GPa) = 67.30769 110.53150 89.23828
#
# Poissons Ratio (x) = 0.53410 0.47047
# Poissons Ratio (y) = 0.32524 0.11773
# Poissons Ratio (z) = 0.35485 0.14582
#
# Static dielectric constant tensor:
#      x y z
#    x 2.132570 0.020940 -0.088730 
#    y 0.020940 1.661650 0.006560 
#    z -0.088730 0.006560 2.060980 
# 
# From -- ./inp_files/63244.got.cif
#   From: 2010.05.17/outbox.cif.g08.bks.cpg/sg2_32_cif.got.tgz:63244.got - 2010.06.03 11:33:40.
