data_PCOD9046173
_publ_section_title
;
Structure prediction by ZEFSAII (Michael W. Deem and Ramdas Pophale) SiO2 
 PCOD9046173
Probable space group: P -1
;
_chemical_formula_sum "Si O2"
_cell_formula_units_Z 15
_cell_length_a 15.031971
_cell_length_b 6.312281
_cell_length_c 25.158379
_cell_angle_alpha 58.574498
_cell_angle_beta 27.738214
_cell_angle_gamma 77.492575
_cell_volume 746.383411
_symmetry_space_group_name_H-M "P -1"
_symmetry_group_IT_number 2
_symmetry_cell_setting 'triclinic'
loop_
_space_group_symop_operation_xyz
x,y,z
-x,-y,-z
loop_
_atom_site_type_symbol
_atom_site_label
_atom_site_fract_x
_atom_site_fract_y
_atom_site_fract_z
Si Si1 0.159489 0.718209 0.053537
Si Si2 0.881151 0.870889 0.460871
Si Si3 0.613153 0.138173 0.562671
Si Si4 0.708659 0.078670 0.338738
Si Si5 0.623019 0.158289 0.677755
Si Si6 0.000000 0.000000 0.500000
Si Si7 0.268980 0.293992 0.111501
Si Si8 0.014790 0.832359 0.221355
O O1 0.229153 0.529153 0.075265
O O2 0.092045 0.862833 0.115459
O O3 0.923120 0.452185 0.179694
O O4 0.383527 0.962698 0.865786
O O5 0.792493 0.519299 0.560198
O O6 0.013233 0.052596 0.421458
O O7 0.657794 0.879277 0.569658
O O8 0.051212 0.038674 0.298529
O O9 0.562186 0.160096 0.647822
O O10 0.863636 0.473481 0.368266
O O11 0.409977 0.047704 0.639619
O O12 0.500000 0.000000 0.500000
O O13 0.830110 0.916178 0.312896
O O14 0.773622 0.023994 0.619550
O O15 0.247951 0.080902 0.102057
O O16 0.500000 0.500000 0.000000
#
# Coordination Sequence:
#
# PCOD9046173 Si02
#       8
#     2   2   2   2   2   1   2   2
#     4  11  25  43  63 105 134 170 223 285 325 392
#     4  11  22  42  66  96 129 174 225 272 327 400
#     4  11  22  41  69  96 129 181 224 264 335 409
#     4  11  23  40  72  98 133 174 226 276 330 398
#     4  11  25  43  68  95 140 172 224 275 335 399
#     4  10  24  42  68  92 132 182 222 256 352 390
#     4  11  23  40  66  97 132 167 226 275 325 399
#     4  11  22  42  69  97 133 176 223 271 339 393
#
# _framework density 20.096907999999999
#
# number of rings (size 3 to 8) (size 9 to 14) (size 15 to 20)
#    0.000    1.067    4.000    2.400    0.000    6.400 
#    0.000    1.333    0.000    0.000    0.000    0.000 
#    0.000    0.000    0.000    0.000    0.000    0.000 
#
# Total GULP energy -83525.865717 kJ/mol
# GULP energy per Si atom -5568.391048 kJ/mol
# Density = 2.005117 g / cm^3
# Si number density = 20.096908 Si / 1000 Ang^3
#
#
#
# Elastic Constant Matrix: (Units=GPa)
#
#
# Indices 1 2 3 4 5 6 
#
# 1 93.2864 7.7457 20.0406 -2.4655 -7.2456 4.5950
# 2 7.7457 57.7335 29.9138 12.4607 0.1341 10.7502
# 3 20.0406 29.9138 111.5791 8.5744 19.4117 7.8440
# 4 -2.4655 12.4607 8.5744 22.9037 12.2923 1.6333
# 5 -7.2456 0.1341 19.4117 12.2923 36.0221 1.3949
# 6 4.5950 10.7502 7.8440 1.6333 1.3949 22.5960
#
#
#
# Elastic Compliance Matrix: (Units=1/GPa)
#
#
# Indices 1 2 3 4 5 6 
#
# 1 0.011672 0.000054 -0.002665 0.000345 0.003733 -0.001729
# 2 0.000054 0.025971 -0.006706 -0.015949 0.009337 -0.009462
# 3 -0.002665 -0.006706 0.012460 0.003171 -0.008296 -0.000310
# 4 0.000345 -0.015949 0.003171 0.063501 -0.023376 0.003270
# 5 0.003733 0.009337 -0.008296 -0.023376 0.041047 -0.003166
# 6 -0.001729 -0.009462 -0.000310 0.003270 -0.003166 0.049176
#
#
# Mechanical properties :
#
#
# Convention : Reuss Voigt Hill
#
# Bulk Modulus (GPa) = 31.77756 41.99990 36.88873
# Shear Modulus (GPa) = 21.46384 29.96431 25.71407
#
# Velocity S-wave (km/s) = 3.27160 3.86552 3.58090
# Velocity P-wave (km/s) = 5.48795 6.39274 5.95755
#
# Compressibility (1/GPa) = 0.03146874
#
# Stress axis : x y z
#
# Youngs Moduli (GPa) = 85.67504 38.50467 80.25609
#
# Poissons Ratio (x) = -0.00208 0.21390
# Poissons Ratio (y) = -0.00462 0.53819
# Poissons Ratio (z) = 0.22834 0.25821
#
# Static dielectric constant tensor:
#      x y z
#    x 1.740100 0.005840 -0.017700 
#    y 0.005840 1.794950 -0.014210 
#    z -0.017700 -0.014210 1.683190 
# 
# From -- ./inp_files/40377.got.cif
#   From: 2010.05.17/outbox.cif.g08.bks.cpg/sg2_21_cif.got.tgz:40377.got - 2010.06.03 11:33:40.
