data_PCOD9046745
_publ_section_title
;
Structure prediction by ZEFSAII (Michael W. Deem and Ramdas Pophale) SiO2 
 PCOD9046745
Probable space group: P -1
;
_chemical_formula_sum "Si O2"
_cell_formula_units_Z 16
_cell_length_a 20.503935
_cell_length_b 12.684338
_cell_length_c 8.033383
_cell_angle_alpha 133.451643
_cell_angle_beta 53.748156
_cell_angle_gamma 151.896199
_cell_volume 713.777577
_symmetry_space_group_name_H-M "P -1"
_symmetry_group_IT_number 2
_symmetry_cell_setting 'triclinic'
loop_
_space_group_symop_operation_xyz
x,y,z
-x,-y,-z
loop_
_atom_site_type_symbol
_atom_site_label
_atom_site_fract_x
_atom_site_fract_y
_atom_site_fract_z
Si Si1 0.735639 0.071272 0.545929
Si Si2 0.640463 0.249970 0.924753
Si Si3 0.790071 0.367124 0.533065
Si Si4 0.767762 0.662912 0.418821
Si Si5 0.405346 0.067045 0.889962
Si Si6 0.127222 0.783955 0.160817
Si Si7 0.512709 0.500195 0.683066
Si Si8 0.986275 0.835403 0.509970
O O1 0.652866 0.094512 0.760198
O O2 0.824003 0.267574 0.473833
O O3 0.828714 0.148620 0.639128
O O4 0.619374 0.784248 0.365585
O O5 0.748032 0.422695 0.796349
O O6 0.497384 0.101674 0.908079
O O7 0.686313 0.408742 0.185908
O O8 0.906750 0.609963 0.508043
O O9 0.648802 0.111605 0.373762
O O10 0.654343 0.613230 0.600104
O O11 0.866065 0.751278 0.514166
O O12 0.877561 0.872305 0.334652
O O13 0.482867 0.336791 0.055408
O O14 0.260344 0.912455 0.013360
O O15 0.068347 0.853698 0.273096
O O16 0.000000 0.500000 0.000000
O O17 0.500000 0.500000 0.500000
#
# Coordination Sequence:
#
# PCOD9046745 Si02
#       8
#     2   2   2   2   2   2   2   2
#     4  10  25  43  65 102 130 176 223 263 342 393
#     4  10  24  43  67  97 132 174 223 267 336 397
#     4  10  26  44  63  97 139 179 213 269 336 410
#     4  11  23  41  71 100 128 177 225 276 328 389
#     4  12  23  42  70  98 132 172 219 286 329 381
#     4  12  22  40  70  96 130 171 227 274 321 383
#     4  12  22  41  71 102 130 166 228 290 326 374
#     4  11  24  42  67  99 136 173 223 272 328 401
#
# _framework density 22.415945000000001
#
# number of rings (size 3 to 8) (size 9 to 14) (size 15 to 20)
#    0.750    0.250    5.000    1.125    1.750    2.500 
#    0.000    0.000    0.000    0.000    0.000    0.000 
#    0.000    0.000    0.000    0.000    0.000    0.000 
#
# Total GULP energy -89132.030752 kJ/mol
# GULP energy per Si atom -5570.751922 kJ/mol
# Density = 2.236493 g / cm^3
# Si number density = 22.415945 Si / 1000 Ang^3
#
#
#
# Elastic Constant Matrix: (Units=GPa)
#
#
# Indices 1 2 3 4 5 6 
#
# 1 93.6189 30.9583 10.3317 3.0613 -23.7577 19.0814
# 2 30.9583 113.7716 16.7788 19.4213 -7.1188 -10.3086
# 3 10.3317 16.7788 56.0323 23.3235 -12.6475 -0.7753
# 4 3.0613 19.4213 23.3235 37.9988 -0.4659 -4.7823
# 5 -23.7577 -7.1188 -12.6475 -0.4659 27.2834 -3.3337
# 6 19.0814 -10.3086 -0.7753 -4.7823 -3.3337 45.1211
#
#
#
# Elastic Compliance Matrix: (Units=1/GPa)
#
#
# Indices 1 2 3 4 5 6 
#
# 1 0.016887 -0.004514 0.001416 -0.000671 0.013288 -0.007238
# 2 -0.004514 0.011178 -0.000893 -0.004321 -0.001024 0.003914
# 3 0.001416 -0.000893 0.027842 -0.016720 0.013487 -0.001100
# 4 -0.000671 -0.004321 -0.016720 0.039055 -0.008487 0.002521
# 5 0.013288 -0.001024 0.013487 -0.008487 0.053751 -0.002550
# 6 -0.007238 0.003914 -0.001100 0.002521 -0.002550 0.026177
#
#
# Mechanical properties :
#
#
# Convention : Reuss Voigt Hill
#
# Bulk Modulus (GPa) = 20.86587 42.17337 31.51962
# Shear Modulus (GPa) = 25.14494 35.77092 30.45793
#
# Velocity S-wave (km/s) = 3.35288 3.99906 3.69014
# Velocity P-wave (km/s) = 4.93130 6.33862 5.67873
#
# Compressibility (1/GPa) = 0.04792516
#
# Stress axis : x y z
#
# Youngs Moduli (GPa) = 59.21646 89.46371 35.91726
#
# Poissons Ratio (x) = 0.40383 -0.05087
# Poissons Ratio (y) = 0.26730 0.03208
# Poissons Ratio (z) = -0.08386 0.07990
#
# Static dielectric constant tensor:
#      x y z
#    x 1.875400 -0.144930 -0.052940 
#    y -0.144930 2.168600 0.209490 
#    z -0.052940 0.209490 2.012860 
# 
# From -- ./inp_files/333733.got.cif
#   From: 2010.05.17/outbox.cif.g08.bks.cpg/sg2_167_cif.got.tgz:333733.got - 2010.06.03 11:33:40.
