data_PCOD9046455
_publ_section_title
;
Structure prediction by ZEFSAII (Michael W. Deem and Ramdas Pophale) SiO2 
 PCOD9046455
Probable space group: P -1
;
_chemical_formula_sum "Si O2"
_cell_formula_units_Z 12
_cell_length_a 5.296573
_cell_length_b 6.832556
_cell_length_c 21.548184
_cell_angle_alpha 55.822395
_cell_angle_beta 130.089423
_cell_angle_gamma 103.444638
_cell_volume 483.153596
_symmetry_space_group_name_H-M "P -1"
_symmetry_group_IT_number 2
_symmetry_cell_setting 'triclinic'
loop_
_space_group_symop_operation_xyz
x,y,z
-x,-y,-z
loop_
_atom_site_type_symbol
_atom_site_label
_atom_site_fract_x
_atom_site_fract_y
_atom_site_fract_z
Si Si1 0.955740 0.021211 0.715815
Si Si2 0.078895 0.430979 0.595419
Si Si3 0.152535 0.230214 0.960645
Si Si4 0.091770 0.736589 0.899365
Si Si5 0.201415 0.754953 0.225213
Si Si6 0.335663 0.094410 0.522222
O O1 0.969335 0.215058 0.739308
O O2 0.584265 0.018352 0.633234
O O3 0.084642 0.147617 0.655323
O O4 0.117166 0.781878 0.820466
O O5 0.451812 0.435279 0.678032
O O6 0.000000 0.500000 0.500000
O O7 0.786936 0.615770 0.551432
O O8 0.038890 0.465690 0.944558
O O9 0.007761 0.294331 0.857736
O O10 0.558900 0.206648 0.028868
O O11 0.000000 0.000000 0.000000
O O12 0.792339 0.955734 0.834539
O O13 0.500000 0.000000 0.500000
O O14 0.000000 0.000000 0.500000
#
# Coordination Sequence:
#
# PCOD9046455 Si02
#       6
#     2   2   2   2   2   2
#     4  10  24  45  67 102 145 197 244 311 374 453
#     4  12  23  45  72 101 146 200 251 308 380 454
#     4  11  22  43  74 106 143 193 246 310 392 458
#     4   9  23  44  67 106 147 184 252 311 372 468
#     4  10  24  42  73 101 150 191 251 306 387 444
#     4  12  28  43  71 108 150 199 257 319 378 460
#
# _framework density 24.836822000000002
#
# number of rings (size 3 to 8) (size 9 to 14) (size 15 to 20)
#    1.000    0.333    1.667    3.000    4.667    0.667 
#    0.000    1.667    0.000    0.000    0.000    0.000 
#    0.000    0.000    0.000    0.000    0.000    0.000 
#
# Total GULP energy -66911.085681 kJ/mol
# GULP energy per Si atom -5575.923807 kJ/mol
# Density = 2.478029 g / cm^3
# Si number density = 24.836822 Si / 1000 Ang^3
#
#
#
# Elastic Constant Matrix: (Units=GPa)
#
#
# Indices 1 2 3 4 5 6 
#
# 1 76.8441 50.3788 41.1799 13.7606 -5.1672 0.8961
# 2 50.3788 138.8329 70.8575 0.1215 -0.9722 2.0117
# 3 41.1799 70.8575 199.2764 44.4319 9.3265 3.0358
# 4 13.7606 0.1215 44.4319 45.6793 -8.4663 3.3255
# 5 -5.1672 -0.9722 9.3265 -8.4663 33.3334 -2.0417
# 6 0.8961 2.0117 3.0358 3.3255 -2.0417 51.4537
#
#
#
# Elastic Compliance Matrix: (Units=1/GPa)
#
#
# Indices 1 2 3 4 5 6 
#
# 1 0.018465 -0.006395 -0.000577 -0.004700 0.001664 0.000332
# 2 -0.006395 0.011826 -0.004479 0.006706 0.002284 -0.000430
# 3 -0.000577 -0.004479 0.009129 -0.009667 -0.005226 0.000064
# 4 -0.004700 0.006706 -0.009667 0.034823 0.010929 -0.001427
# 5 0.001664 0.002284 -0.005226 0.010929 0.034615 0.000857
# 6 0.000332 -0.000430 0.000064 -0.001427 0.000857 0.019568
#
#
# Mechanical properties :
#
#
# Convention : Reuss Voigt Hill
#
# Bulk Modulus (GPa) = 60.54026 82.19844 71.36935
# Shear Modulus (GPa) = 31.88098 42.92909 37.40504
#
# Velocity S-wave (km/s) = 3.58665 4.16197 3.88497
# Velocity P-wave (km/s) = 6.44827 7.50088 6.99440
#
# Compressibility (1/GPa) = 0.01651793
#
# Stress axis : x y z
#
# Youngs Moduli (GPa) = 54.15759 84.56023 109.54016
#
# Poissons Ratio (x) = 0.54077 0.06317
# Poissons Ratio (y) = 0.34634 0.49064
# Poissons Ratio (z) = 0.03123 0.37875
#
# Static dielectric constant tensor:
#      x y z
#    x 2.198480 0.050590 -0.001600 
#    y 0.050590 2.103890 -0.061070 
#    z -0.001600 -0.061070 2.003650 
# 
# From -- ./inp_files/602617.got.cif
#   From: 2010.05.17/outbox.cif.g08.bks.cpg/sg2_302_cif.got.tgz:602617.got - 2010.06.03 11:33:40.
