data_PCOD9046517
_publ_section_title
;
Structure prediction by ZEFSAII (Michael W. Deem and Ramdas Pophale) SiO2 
 PCOD9046517
Probable space group: P -1
;
_chemical_formula_sum "Si O2"
_cell_formula_units_Z 13
_cell_length_a 12.117767
_cell_length_b 8.751005
_cell_length_c 9.345756
_cell_angle_alpha 134.208911
_cell_angle_beta 62.550500
_cell_angle_gamma 93.051920
_cell_volume 571.643537
_symmetry_space_group_name_H-M "P -1"
_symmetry_group_IT_number 2
_symmetry_cell_setting 'triclinic'
loop_
_space_group_symop_operation_xyz
x,y,z
-x,-y,-z
loop_
_atom_site_type_symbol
_atom_site_label
_atom_site_fract_x
_atom_site_fract_y
_atom_site_fract_z
Si Si1 0.456676 0.216394 0.557377
Si Si2 0.700009 0.328574 0.872184
Si Si3 0.034219 0.263790 0.916071
Si Si4 0.636951 0.915662 0.768524
Si Si5 0.000000 0.000000 0.500000
Si Si6 0.279725 0.804398 0.530758
Si Si7 0.893524 0.465848 0.432891
O O1 0.391472 0.182568 0.428352
O O2 0.600371 0.234390 0.453894
O O3 0.500000 0.000000 0.500000
O O4 0.356022 0.440342 0.851149
O O5 0.862066 0.225573 0.681680
O O6 0.644846 0.336331 0.749224
O O7 0.672919 0.130731 0.845154
O O8 0.980491 0.111319 0.748936
O O9 0.193087 0.080038 0.724563
O O10 0.000000 0.500000 0.000000
O O11 0.968319 0.348776 0.164578
O O12 0.769047 0.717322 0.635725
O O13 0.500000 0.000000 0.000000
O O14 0.176501 0.698481 0.575478
O O15 0.000000 0.500000 0.500000
#
# Coordination Sequence:
#
# PCOD9046517 Si02
#       7
#     2   2   2   2   1   2   2
#     4  12  27  48  80 108 154 203 258 313 380 464
#     4  11  25  47  75 112 149 197 260 305 390 456
#     4  11  26  47  75 111 151 202 256 314 389 451
#     4  12  29  50  75 112 152 206 254 318 386 450
#     4  10  24  42  80 102 150 192 258 314 376 454
#     4  11  26  46  77 114 148 205 250 319 383 457
#     4  12  29  49  77 115 159 200 258 323 387 460
#
# _framework density 22.741444000000001
#
# number of rings (size 3 to 8) (size 9 to 14) (size 15 to 20)
#    0.000    0.615    1.538    4.615   15.077    3.692 
#    0.000    0.000    0.000    0.000    0.000    0.000 
#    0.000    0.000    0.000    0.000    0.000    0.000 
#
# Total GULP energy -72519.435920 kJ/mol
# GULP energy per Si atom -5578.418148 kJ/mol
# Density = 2.268968 g / cm^3
# Si number density = 22.741444 Si / 1000 Ang^3
#
#
#
# Elastic Constant Matrix: (Units=GPa)
#
#
# Indices 1 2 3 4 5 6 
#
# 1 139.5000 49.6872 68.1715 5.9028 7.5655 -20.9077
# 2 49.6872 124.1497 75.5375 2.0352 6.5009 -3.4745
# 3 68.1715 75.5375 223.0113 -3.6047 0.7556 -10.6995
# 4 5.9028 2.0352 -3.6047 37.2851 -0.8190 2.7130
# 5 7.5655 6.5009 0.7556 -0.8190 26.5393 -3.0540
# 6 -20.9077 -3.4745 -10.6995 2.7130 -3.0540 29.0031
#
#
#
# Elastic Compliance Matrix: (Units=1/GPa)
#
#
# Indices 1 2 3 4 5 6 
#
# 1 0.010172 -0.002585 -0.001959 -0.002154 -0.001548 0.006339
# 2 -0.002585 0.010992 -0.003021 -0.000395 -0.002094 -0.001845
# 3 -0.001959 -0.003021 0.006144 0.001058 0.001216 0.000522
# 4 -0.002154 -0.000395 0.001058 0.027577 0.001109 -0.003672
# 5 -0.001548 -0.002094 0.001216 0.001109 0.038989 0.003084
# 6 0.006339 -0.001845 0.000522 -0.003672 0.003084 0.039688
#
#
# Mechanical properties :
#
#
# Convention : Reuss Voigt Hill
#
# Bulk Modulus (GPa) = 82.11734 97.05038 89.58386
# Shear Modulus (GPa) = 32.73318 38.11649 35.42483
#
# Velocity S-wave (km/s) = 3.79801 4.09844 3.95108
# Velocity P-wave (km/s) = 7.44451 8.07245 7.76483
#
# Compressibility (1/GPa) = 0.01217770
#
# Stress axis : x y z
#
# Youngs Moduli (GPa) = 98.31154 90.97710 162.75745
#
# Poissons Ratio (x) = 0.23519 0.31887
# Poissons Ratio (y) = 0.25415 0.49163
# Poissons Ratio (z) = 0.19261 0.27481
#
# Static dielectric constant tensor:
#      x y z
#    x 1.908330 0.011880 -0.017970 
#    y 0.011880 1.841630 -0.001420 
#    z -0.017970 -0.001420 1.783650 
# 
# From -- ./inp_files/246236.got.cif
#   From: 2010.05.17/outbox.cif.g08.bks.cpg/sg2_124_cif.got.tgz:246236.got - 2010.06.03 11:33:40.
