data_PCOD9046478
_publ_section_title
;
Structure prediction by ZEFSAII (Michael W. Deem and Ramdas Pophale) SiO2 
 PCOD9046478
Probable space group: P -1
;
_chemical_formula_sum "Si O2"
_cell_formula_units_Z 15
_cell_length_a 5.075074
_cell_length_b 23.540576
_cell_length_c 14.970336
_cell_angle_alpha 157.236574
_cell_angle_beta 94.872280
_cell_angle_gamma 73.621044
_cell_volume 585.449489
_symmetry_space_group_name_H-M "P -1"
_symmetry_group_IT_number 2
_symmetry_cell_setting 'triclinic'
loop_
_space_group_symop_operation_xyz
x,y,z
-x,-y,-z
loop_
_atom_site_type_symbol
_atom_site_label
_atom_site_fract_x
_atom_site_fract_y
_atom_site_fract_z
Si Si1 0.181105 0.159934 0.085989
Si Si2 0.654356 0.222571 0.443030
Si Si3 0.303084 0.407275 0.542623
Si Si4 0.500000 0.500000 0.500000
Si Si5 0.966193 0.414841 0.786200
Si Si6 0.808624 0.700532 0.074856
Si Si7 0.632984 0.197712 0.026459
Si Si8 0.175280 0.006376 0.427122
O O1 0.455134 0.129079 0.980254
O O2 0.838366 0.266976 0.184983
O O3 0.207475 0.981103 0.850080
O O4 0.199470 0.267630 0.323448
O O5 0.618115 0.294997 0.446822
O O6 0.839968 0.286795 0.600043
O O7 0.306342 0.312185 0.602204
O O8 0.335859 0.457091 0.517314
O O9 0.090032 0.578140 0.841429
O O10 0.605491 0.611490 0.738249
O O11 0.737746 0.575132 0.946624
O O12 0.000000 0.500000 0.000000
O O13 0.883783 0.803949 0.300155
O O14 0.534191 0.856818 0.237932
O O15 0.875235 0.058187 0.761747
O O16 0.000000 0.000000 0.500000
#
# Coordination Sequence:
#
# PCOD9046478 Si02
#       8
#     2   2   2   1   2   2   2   2
#     4  11  26  46  72 109 145 198 242 309 359 440
#     4  11  25  46  75 105 148 192 250 300 368 437
#     4  10  24  48  74 110 147 195 247 303 372 441
#     4  10  24  42  74 102 148 184 248 298 368 430
#     4  11  26  45  73 108 144 196 240 309 361 441
#     4  10  26  44  71 103 144 190 244 303 370 435
#     4  11  27  42  73 105 146 193 247 306 366 435
#     4  11  26  44  71 100 144 195 239 309 363 451
#
# _framework density 25.621341000000001
#
# number of rings (size 3 to 8) (size 9 to 14) (size 15 to 20)
#    0.000    1.333    0.000    2.400   16.800    4.267 
#    0.000    6.667    0.000    0.000    0.000    0.000 
#    0.000    0.000    0.000    0.000    0.000    0.000 
#
# Total GULP energy -83778.972151 kJ/mol
# GULP energy per Si atom -5585.264810 kJ/mol
# Density = 2.556303 g / cm^3
# Si number density = 25.621341 Si / 1000 Ang^3
#
#
#
# Elastic Constant Matrix: (Units=GPa)
#
#
# Indices 1 2 3 4 5 6 
#
# 1 109.1853 25.3556 55.3795 -5.8723 18.6118 5.9075
# 2 25.3556 61.2815 54.2803 9.6611 1.0785 -0.9230
# 3 55.3795 54.2803 226.7926 -7.5338 23.7279 12.5772
# 4 -5.8723 9.6611 -7.5338 52.3919 3.3181 6.8044
# 5 18.6118 1.0785 23.7279 3.3181 45.7795 -3.3491
# 6 5.9075 -0.9230 12.5772 6.8044 -3.3491 33.0287
#
#
#
# Elastic Compliance Matrix: (Units=1/GPa)
#
#
# Indices 1 2 3 4 5 6 
#
# 1 0.011777 -0.004214 -0.001160 0.002573 -0.004476 -0.002766
# 2 -0.004214 0.024331 -0.005864 -0.006851 0.005085 0.005594
# 3 -0.001160 -0.005864 0.006714 0.002565 -0.003303 -0.003376
# 4 0.002573 -0.006851 0.002565 0.022140 -0.004303 -0.006626
# 5 -0.004476 0.005085 -0.003303 -0.004303 0.025986 0.005722
# 6 -0.002766 0.005594 -0.003376 -0.006626 0.005722 0.034159
#
#
# Mechanical properties :
#
#
# Convention : Reuss Voigt Hill
#
# Bulk Modulus (GPa) = 49.15055 74.14334 61.64695
# Shear Modulus (GPa) = 32.39086 43.72294 38.05690
#
# Velocity S-wave (km/s) = 3.55944 4.13547 3.85822
# Velocity P-wave (km/s) = 6.00981 7.19748 6.63029
#
# Compressibility (1/GPa) = 0.02034565
#
# Stress axis : x y z
#
# Youngs Moduli (GPa) = 84.91333 41.10059 148.94056
#
# Poissons Ratio (x) = 0.17319 0.17277
# Poissons Ratio (y) = 0.35781 0.87340
# Poissons Ratio (z) = 0.09850 0.24102
#
# Static dielectric constant tensor:
#      x y z
#    x 2.081470 -0.093510 0.013730 
#    y -0.093510 2.188860 -0.103360 
#    z 0.013730 -0.103360 2.303110 
# 
# From -- ./inp_files/486012.got.cif
#   From: 2010.05.17/outbox.cif.g08.bks.cpg/sg2_244_cif.got.tgz:486012.got - 2010.06.03 11:33:40.
