data_PCOD9046673
_publ_section_title
;
Structure prediction by ZEFSAII (Michael W. Deem and Ramdas Pophale) SiO2 
 PCOD9046673
Probable space group: P -1
;
_chemical_formula_sum "Si O2"
_cell_formula_units_Z 16
_cell_length_a 5.403282
_cell_length_b 21.406536
_cell_length_c 9.237062
_cell_angle_alpha 126.801497
_cell_angle_beta 53.464882
_cell_angle_gamma 105.336280
_cell_volume 680.296270
_symmetry_space_group_name_H-M "P -1"
_symmetry_group_IT_number 2
_symmetry_cell_setting 'triclinic'
loop_
_space_group_symop_operation_xyz
x,y,z
-x,-y,-z
loop_
_atom_site_type_symbol
_atom_site_label
_atom_site_fract_x
_atom_site_fract_y
_atom_site_fract_z
Si Si1 0.399068 0.529040 0.415619
Si Si2 0.763596 0.613846 0.874483
Si Si3 0.470129 0.122773 0.109285
Si Si4 0.441652 0.924228 0.294877
Si Si5 0.372582 0.211799 0.757625
Si Si6 0.137532 0.409881 0.850458
Si Si7 0.061879 0.240643 0.592594
Si Si8 0.017150 0.987083 0.773024
O O1 0.500000 0.500000 0.500000
O O2 0.456596 0.447267 0.191093
O O3 0.565354 0.592131 0.359751
O O4 0.059884 0.576134 0.626665
O O5 0.712988 0.707949 0.008136
O O6 0.796385 0.600851 0.017228
O O7 0.352342 0.204463 0.342093
O O8 0.172763 0.075695 0.173147
O O9 0.563121 0.128609 0.918268
O O10 0.772409 0.066683 0.986231
O O11 0.648523 0.867957 0.259226
O O12 0.117450 0.956594 0.532559
O O13 0.642011 0.993055 0.272469
O O14 0.177908 0.217848 0.684832
O O15 0.745995 0.210210 0.608074
O O16 0.983930 0.335125 0.748614
O O17 0.000000 0.500000 0.000000
#
# Coordination Sequence:
#
# PCOD9046673 Si02
#       8
#     2   2   2   2   2   2   2   2
#     4  11  22  40  67 101 130 173 240 286 347 416
#     4  10  24  43  66  98 138 183 229 294 346 420
#     4  11  24  44  71 104 145 182 243 295 359 419
#     4  11  24  43  73 102 141 191 240 285 367 418
#     4  11  26  48  71  99 149 185 236 291 357 417
#     4  11  22  44  71  96 139 188 230 285 359 415
#     4  11  27  47  71 104 145 187 237 296 355 423
#     4  10  24  43  70 106 142 186 238 292 357 432
#
# _framework density 23.519165000000001
#
# number of rings (size 3 to 8) (size 9 to 14) (size 15 to 20)
#    0.000    1.250    2.500    1.875    5.250    7.000 
#    2.250    0.000    0.000    0.000    0.000    0.000 
#    0.000    0.000    0.000    0.000    0.000    0.000 
#
# Total GULP energy -89198.766240 kJ/mol
# GULP energy per Si atom -5574.922890 kJ/mol
# Density = 2.346563 g / cm^3
# Si number density = 23.519165 Si / 1000 Ang^3
#
#
#
# Elastic Constant Matrix: (Units=GPa)
#
#
# Indices 1 2 3 4 5 6 
#
# 1 34.1804 10.2456 4.4508 -2.1074 -11.6783 7.1526
# 2 10.2456 55.4072 16.6274 -4.9656 -5.4341 12.1537
# 3 4.4508 16.6274 141.6481 8.3414 -18.8694 3.4221
# 4 -2.1074 -4.9656 8.3414 45.8016 -4.7906 -11.5336
# 5 -11.6783 -5.4341 -18.8694 -4.7906 35.4522 0.5776
# 6 7.1526 12.1537 3.4221 -11.5336 0.5776 27.5741
#
#
#
# Elastic Compliance Matrix: (Units=1/GPa)
#
#
# Indices 1 2 3 4 5 6 
#
# 1 0.036103 -0.004088 0.001119 0.000301 0.012030 -0.007828
# 2 -0.004088 0.021304 -0.002085 0.000638 0.001023 -0.007826
# 3 0.001119 -0.002085 0.007925 -0.001454 0.004088 -0.001049
# 4 0.000301 0.000638 -0.001454 0.025035 0.002639 0.010238
# 5 0.012030 0.001023 0.004088 0.002639 0.034919 -0.003706
# 6 -0.007828 -0.007826 -0.001049 0.010238 -0.003706 0.046236
#
#
# Mechanical properties :
#
#
# Convention : Reuss Voigt Hill
#
# Bulk Modulus (GPa) = 18.10759 32.65371 25.38065
# Shear Modulus (GPa) = 24.99544 35.09304 30.04424
#
# Velocity S-wave (km/s) = 3.26355 3.86697 3.57800
# Velocity P-wave (km/s) = 4.68154 5.81824 5.28057
#
# Compressibility (1/GPa) = 0.05522546
#
# Stress axis : x y z
#
# Youngs Moduli (GPa) = 27.69846 46.94017 126.18621
#
# Poissons Ratio (x) = 0.19189 -0.14125
# Poissons Ratio (y) = 0.11323 0.26304
# Poissons Ratio (z) = -0.03101 0.09785
#
# Static dielectric constant tensor:
#      x y z
#    x 1.990560 -0.067210 -0.005030 
#    y -0.067210 2.555670 0.194450 
#    z -0.005030 0.194450 1.915020 
# 
# From -- ./inp_files/142629.got.cif
#   From: 2010.05.17/outbox.cif.g08.bks.cpg/sg2_72_cif.got.tgz:142629.got - 2010.06.03 11:33:40.
