data_PCOD9046761
_publ_section_title
;
Structure prediction by ZEFSAII (Michael W. Deem and Ramdas Pophale) SiO2 
 PCOD9046761
Probable space group: P -1
;
_chemical_formula_sum "Si O2"
_cell_formula_units_Z 16
_cell_length_a 9.796006
_cell_length_b 23.845766
_cell_length_c 11.750378
_cell_angle_alpha 19.883100
_cell_angle_beta 58.215159
_cell_angle_gamma 55.542973
_cell_volume 769.591995
_symmetry_space_group_name_H-M "P -1"
_symmetry_group_IT_number 2
_symmetry_cell_setting 'triclinic'
loop_
_space_group_symop_operation_xyz
x,y,z
-x,-y,-z
loop_
_atom_site_type_symbol
_atom_site_label
_atom_site_fract_x
_atom_site_fract_y
_atom_site_fract_z
Si Si1 0.055524 0.237340 0.268714
Si Si2 0.382073 0.174467 0.941247
Si Si3 0.124968 0.622037 0.709412
Si Si4 0.179261 0.966734 0.284241
Si Si5 0.113210 0.775717 0.173843
Si Si6 0.633548 0.987382 0.368161
Si Si7 0.572712 0.350894 0.341731
Si Si8 0.880694 0.534057 0.379167
O O1 0.957858 0.237700 0.428527
O O2 0.973036 0.117113 0.454099
O O3 0.242183 0.194553 0.315554
O O4 0.029582 0.406556 0.882973
O O5 0.445384 0.279487 0.612433
O O6 0.275572 0.312986 0.811030
O O7 0.537685 0.050406 0.173579
O O8 0.265067 0.059540 0.163392
O O9 0.132059 0.688091 0.454660
O O10 0.309488 0.569183 0.779633
O O11 0.000000 0.500000 0.000000
O O12 0.320319 0.815771 0.454413
O O13 0.076808 0.117701 0.960418
O O14 0.159456 0.639153 0.313400
O O15 0.240169 0.894882 0.889428
O O16 0.500000 0.000000 0.500000
O O17 0.500000 0.500000 0.000000
O O18 0.000000 0.500000 0.500000
#
# Coordination Sequence:
#
# PCOD9046761 Si02
#       8
#     2   2   2   2   2   2   2   2
#     4  10  24  43  67  99 131 178 229 275 337 406
#     4  12  25  45  67  99 136 182 221 282 348 395
#     4  11  23  42  73  97 132 177 228 279 338 399
#     4  10  25  43  71  93 134 177 224 274 338 407
#     4  11  24  46  71  99 132 184 231 277 335 406
#     4  11  24  45  63  99 139 171 227 282 338 400
#     4  11  27  46  66 104 137 171 227 286 346 402
#     4  12  25  43  70  98 139 180 230 275 332 417
#
# _framework density 20.790237000000001
#
# number of rings (size 3 to 8) (size 9 to 14) (size 15 to 20)
#    0.000    1.000    5.000    0.375    7.000    4.500 
#    2.250    0.000    0.000    0.000    0.000    0.000 
#    0.000    0.000    0.000    0.000    0.000    0.000 
#
# Total GULP energy -89160.987598 kJ/mol
# GULP energy per Si atom -5572.561725 kJ/mol
# Density = 2.074292 g / cm^3
# Si number density = 20.790237 Si / 1000 Ang^3
#
#
#
# Elastic Constant Matrix: (Units=GPa)
#
#
# Indices 1 2 3 4 5 6 
#
# 1 146.6629 20.7934 43.6404 -9.0020 13.7501 15.4159
# 2 20.7934 70.0189 11.4180 -4.0493 10.0223 3.6402
# 3 43.6404 11.4180 65.3952 0.3813 8.4853 14.1567
# 4 -9.0020 -4.0493 0.3813 32.1370 4.3956 -3.9221
# 5 13.7501 10.0223 8.4853 4.3956 38.5215 3.5190
# 6 15.4159 3.6402 14.1567 -3.9221 3.5190 28.2000
#
#
#
# Elastic Compliance Matrix: (Units=1/GPa)
#
#
# Indices 1 2 3 4 5 6 
#
# 1 0.009063 -0.001342 -0.005246 0.002497 -0.001872 -0.001567
# 2 -0.001342 0.015524 -0.001408 0.002096 -0.003504 0.000166
# 3 -0.005246 -0.001408 0.020883 -0.002640 -0.001363 -0.007631
# 4 0.002497 0.002096 -0.002640 0.033420 -0.005123 0.004977
# 5 -0.001872 -0.003504 -0.001363 -0.005123 0.028618 -0.002124
# 6 -0.001567 0.000166 -0.007631 0.004977 -0.002124 0.041084
#
#
# Mechanical properties :
#
#
# Convention : Reuss Voigt Hill
#
# Bulk Modulus (GPa) = 33.92522 48.19785 41.06154
# Shear Modulus (GPa) = 28.66792 33.52004 31.09398
#
# Velocity S-wave (km/s) = 3.71740 4.01970 3.87150
# Velocity P-wave (km/s) = 5.89735 6.69158 6.30698
#
# Compressibility (1/GPa) = 0.02947660
#
# Stress axis : x y z
#
# Youngs Moduli (GPa) = 110.33710 64.41524 47.88674
#
# Poissons Ratio (x) = 0.08646 0.25123
# Poissons Ratio (y) = 0.14809 0.06744
# Poissons Ratio (z) = 0.57886 0.09071
#
# Static dielectric constant tensor:
#      x y z
#    x 1.731680 -0.043490 0.025770 
#    y -0.043490 1.799020 -0.052500 
#    z 0.025770 -0.052500 1.852930 
# 
# From -- ./inp_files/283479.got.cif
#   From: 2010.05.17/outbox.cif.g08.bks.cpg/sg2_142_cif.got.tgz:283479.got - 2010.06.03 11:33:40.
