data_PCOD9046905
_publ_section_title
;
Structure prediction by ZEFSAII (Michael W. Deem and Ramdas Pophale) SiO2 
 PCOD9046905
Probable space group: P -1
;
_chemical_formula_sum "Si O2"
_cell_formula_units_Z 10
_cell_length_a 8.823290
_cell_length_b 12.181308
_cell_length_c 9.097841
_cell_angle_alpha 127.519533
_cell_angle_beta 48.961931
_cell_angle_gamma 144.496460
_cell_volume 422.087886
_symmetry_space_group_name_H-M "P -1"
_symmetry_group_IT_number 2
_symmetry_cell_setting 'triclinic'
loop_
_space_group_symop_operation_xyz
x,y,z
-x,-y,-z
loop_
_atom_site_type_symbol
_atom_site_label
_atom_site_fract_x
_atom_site_fract_y
_atom_site_fract_z
Si Si1 0.224851 0.620553 0.581347
Si Si2 0.331899 0.360841 0.850053
Si Si3 0.275724 0.939426 0.712088
Si Si4 0.820161 0.912847 0.870462
Si Si5 0.646976 0.444915 0.277108
O O1 0.481824 0.659663 0.378202
O O2 0.267401 0.804636 0.715127
O O3 0.144897 0.518031 0.705425
O O4 0.000000 0.500000 0.500000
O O5 0.265078 0.452711 0.852676
O O6 0.055039 0.140589 0.880962
O O7 0.500000 0.500000 0.000000
O O8 0.500000 0.000000 0.500000
O O9 0.341850 0.108467 0.900414
O O10 0.984302 0.847068 0.745184
O O11 0.596938 0.783123 0.781376
O O12 0.500000 0.500000 0.500000
#
# Coordination Sequence:
#
# PCOD9046905 Si02
#       5
#     2   2   2   2   2
#     4  11  23  43  66 100 141 182 237 292 344 418
#     4  11  22  43  72 102 138 187 229 286 356 414
#     4  11  22  42  68 104 136 182 229 286 349 417
#     4  11  23  44  72 100 142 182 234 290 349 415
#     4  10  24  43  69 102 142 185 234 291 351 411
#
# _framework density 23.691749000000002
#
# number of rings (size 3 to 8) (size 9 to 14) (size 15 to 20)
#    0.000    1.200    2.000    6.000    0.000    4.000 
#    3.600    4.000    0.000    0.000    0.000    0.000 
#    0.000    0.000    0.000    0.000    0.000    0.000 
#
# Total GULP energy -55855.494731 kJ/mol
# GULP energy per Si atom -5585.549473 kJ/mol
# Density = 2.363783 g / cm^3
# Si number density = 23.691749 Si / 1000 Ang^3
#
#
#
# Elastic Constant Matrix: (Units=GPa)
#
#
# Indices 1 2 3 4 5 6 
#
# 1 158.9063 43.1953 44.9939 -2.7539 20.7829 -35.8199
# 2 43.1953 102.5010 26.2326 11.0596 14.2171 -18.9017
# 3 44.9939 26.2326 140.3868 -3.3421 -17.4692 2.4560
# 4 -2.7539 11.0596 -3.3421 29.1450 5.7455 5.4448
# 5 20.7829 14.2171 -17.4692 5.7455 53.1083 2.4010
# 6 -35.8199 -18.9017 2.4560 5.4448 2.4010 43.9904
#
#
#
# Elastic Compliance Matrix: (Units=1/GPa)
#
#
# Indices 1 2 3 4 5 6 
#
# 1 0.010311 -0.001086 -0.003917 0.000446 -0.005460 0.008390
# 2 -0.001086 0.013135 -0.002800 -0.005778 -0.003651 0.005830
# 3 -0.003917 -0.002800 0.009728 0.001734 0.005541 -0.005453
# 4 0.000446 -0.005778 0.001734 0.038402 -0.001902 -0.006865
# 5 -0.005460 -0.003651 0.005541 -0.001902 0.024307 -0.007415
# 6 0.008390 0.005830 -0.005453 -0.006865 -0.007415 0.033628
#
#
# Mechanical properties :
#
#
# Convention : Reuss Voigt Hill
#
# Bulk Modulus (GPa) = 56.92503 70.07085 63.49794
# Shear Modulus (GPa) = 33.11822 44.40688 38.76255
#
# Velocity S-wave (km/s) = 3.74288 4.33409 4.04929
# Velocity P-wave (km/s) = 6.53899 7.39500 6.98013
#
# Compressibility (1/GPa) = 0.01756697
#
# Stress axis : x y z
#
# Youngs Moduli (GPa) = 96.98790 76.13106 102.79474
#
# Poissons Ratio (x) = 0.08268 0.40267
# Poissons Ratio (y) = 0.10534 0.28785
# Poissons Ratio (z) = 0.37992 0.21318
#
# Static dielectric constant tensor:
#      x y z
#    x 2.037740 -0.279340 -0.078240 
#    y -0.279340 3.074570 0.366650 
#    z -0.078240 0.366650 2.078370 
# 
# From -- ./inp_files/143969.got.cif
#   From: 2010.05.17/outbox.cif.g08.bks.cpg/sg2_72_cif.got.tgz:143969.got - 2010.06.03 11:33:40.
