data_PCOD9046480
_publ_section_title
;
Structure prediction by ZEFSAII (Michael W. Deem and Ramdas Pophale) SiO2 
 PCOD9046480
Probable space group: P -1
;
_chemical_formula_sum "Si O2"
_cell_formula_units_Z 14
_cell_length_a 14.957052
_cell_length_b 12.460511
_cell_length_c 9.250898
_cell_angle_alpha 51.486087
_cell_angle_beta 29.085107
_cell_angle_gamma 43.803219
_cell_volume 579.958780
_symmetry_space_group_name_H-M "P -1"
_symmetry_group_IT_number 2
_symmetry_cell_setting 'triclinic'
loop_
_space_group_symop_operation_xyz
x,y,z
-x,-y,-z
loop_
_atom_site_type_symbol
_atom_site_label
_atom_site_fract_x
_atom_site_fract_y
_atom_site_fract_z
Si Si1 0.615450 0.367522 0.568728
Si Si2 0.051464 0.324241 0.091183
Si Si3 0.335086 0.224221 0.518812
Si Si4 0.116098 0.271920 0.380716
Si Si5 0.782043 0.030095 0.138916
Si Si6 0.732211 0.524361 0.823714
Si Si7 0.241228 0.938565 0.529693
O O1 0.500000 0.500000 0.500000
O O2 0.856487 0.318845 0.295068
O O3 0.619305 0.209070 0.640168
O O4 0.493339 0.437315 0.832113
O O5 0.077566 0.280056 0.257844
O O6 0.000000 0.500000 0.000000
O O7 0.263228 0.234732 0.776913
O O8 0.582117 0.125632 0.242901
O O9 0.271404 0.384187 0.393676
O O10 0.220583 0.132510 0.690255
O O11 0.893201 0.346042 0.717499
O O12 0.194477 0.393254 0.224564
O O13 0.267698 0.092126 0.349035
O O14 0.746991 0.108866 0.279209
O O15 0.996115 0.000802 0.789743
#
# Coordination Sequence:
#
# PCOD9046480 Si02
#       7
#     2   2   2   2   2   2   2
#     4  12  30  46  72 106 148 186 240 297 356 426
#     4  12  26  47  73 104 141 186 237 296 358 419
#     4  11  23  47  73 105 140 186 240 291 355 423
#     4  11  26  45  75 102 148 186 238 295 355 423
#     4  10  24  42  74 103 143 186 236 295 354 421
#     4  11  26  47  73 106 143 187 240 290 357 425
#     4  11  25  45  71 108 145 187 238 293 360 417
#
# _framework density 24.139647
#
# number of rings (size 3 to 8) (size 9 to 14) (size 15 to 20)
#    0.000    0.857    4.286    0.857   12.000    4.000 
#    0.000    0.000    0.000    0.000    0.000    0.000 
#    0.000    0.000    0.000    0.000    0.000    0.000 
#
# Total GULP energy -78301.827890 kJ/mol
# GULP energy per Si atom -5592.987706 kJ/mol
# Density = 2.408470 g / cm^3
# Si number density = 24.139647 Si / 1000 Ang^3
#
#
#
# Elastic Constant Matrix: (Units=GPa)
#
#
# Indices 1 2 3 4 5 6 
#
# 1 65.8344 16.1917 15.0305 0.3378 19.3478 -1.5832
# 2 16.1917 115.8096 10.0919 9.6889 18.2130 2.5500
# 3 15.0305 10.0919 91.6153 23.7333 8.2530 0.1581
# 4 0.3378 9.6889 23.7333 35.7266 4.7699 5.8877
# 5 19.3478 18.2130 8.2530 4.7699 33.8191 2.6660
# 6 -1.5832 2.5500 0.1581 5.8877 2.6660 30.0916
#
#
#
# Elastic Compliance Matrix: (Units=1/GPa)
#
#
# Indices 1 2 3 4 5 6 
#
# 1 0.019148 -0.001116 -0.002931 0.003201 -0.010199 0.001395
# 2 -0.001116 0.009631 0.000034 -0.002039 -0.004261 -0.000099
# 3 -0.002931 0.000034 0.013872 -0.009399 -0.000532 0.001656
# 4 0.003201 -0.002039 -0.009399 0.036222 -0.003041 -0.006427
# 5 -0.010199 -0.004261 -0.000532 -0.003041 0.038493 -0.002988
# 6 0.001395 -0.000099 0.001656 -0.006427 -0.002988 0.034827
#
#
# Mechanical properties :
#
#
# Convention : Reuss Voigt Hill
#
# Bulk Modulus (GPa) = 28.88084 39.54307 34.21196
# Shear Modulus (GPa) = 29.11024 35.39048 32.25036
#
# Velocity S-wave (km/s) = 3.47639 3.83309 3.65909
# Velocity P-wave (km/s) = 5.30130 6.00055 5.66173
#
# Compressibility (1/GPa) = 0.03462503
#
# Stress axis : x y z
#
# Youngs Moduli (GPa) = 52.22488 103.83354 72.08674
#
# Poissons Ratio (x) = 0.11590 0.21131
# Poissons Ratio (y) = 0.05829 -0.00249
# Poissons Ratio (z) = 0.15309 -0.00358
#
# Static dielectric constant tensor:
#      x y z
#    x 2.172520 0.128780 0.085310 
#    y 0.128780 1.966820 0.037350 
#    z 0.085310 0.037350 2.054600 
# 
# From -- ./inp_files/240179.got.cif
#   From: 2010.05.17/outbox.cif.g08.bks.cpg/sg2_121_cif.got.tgz:240179.got - 2010.06.03 11:33:40.
