data_PCOD9046572
_publ_section_title
;
Structure prediction by ZEFSAII (Michael W. Deem and Ramdas Pophale) SiO2 
 PCOD9046572
Probable space group: P -1
;
_chemical_formula_sum "Si O2"
_cell_formula_units_Z 14
_cell_length_a 16.973555
_cell_length_b 9.013985
_cell_length_c 23.531319
_cell_angle_alpha 31.114352
_cell_angle_beta 20.545513
_cell_angle_gamma 38.237252
_cell_volume 650.303141
_symmetry_space_group_name_H-M "P -1"
_symmetry_group_IT_number 2
_symmetry_cell_setting 'triclinic'
loop_
_space_group_symop_operation_xyz
x,y,z
-x,-y,-z
loop_
_atom_site_type_symbol
_atom_site_label
_atom_site_fract_x
_atom_site_fract_y
_atom_site_fract_z
Si Si1 0.026824 0.147835 0.494147
Si Si2 0.243412 0.914293 0.531755
Si Si3 0.532343 0.111460 0.878871
Si Si4 0.246709 0.007931 0.695637
Si Si5 0.067006 0.842441 0.242968
Si Si6 0.646872 0.313708 0.167635
Si Si7 0.943182 0.688870 0.171548
O O1 0.779998 0.057521 0.713628
O O2 0.061795 0.496280 0.355012
O O3 0.000000 0.000000 0.500000
O O4 0.204310 0.021037 0.458814
O O5 0.206668 0.569289 0.672840
O O6 0.488735 0.030403 0.350398
O O7 0.057372 0.058414 0.648484
O O8 0.516943 0.451574 0.781270
O O9 0.500000 0.000000 0.000000
O O10 0.325955 0.972475 0.026529
O O11 0.221656 0.743065 0.844085
O O12 0.500000 0.000000 0.500000
O O13 0.170967 0.259040 0.707655
O O14 0.073831 0.022805 0.756256
O O15 0.805660 0.414725 0.974140
O O16 0.000000 0.000000 0.000000
#
# Coordination Sequence:
#
# PCOD9046572 Si02
#       7
#     2   2   2   2   2   2   2
#     4  12  26  43  67 102 135 168 221 276 326 391
#     4  12  22  43  72  95 132 176 219 268 333 386
#     4  12  23  42  69  96 131 174 222 270 324 392
#     4  11  23  43  65  95 137 167 218 269 325 390
#     4  12  24  42  70  97 130 179 218 266 335 386
#     4  11  23  42  68  98 131 176 219 270 327 386
#     4  10  24  43  64  98 131 170 222 269 319 389
#
# _framework density 21.528423
#
# number of rings (size 3 to 8) (size 9 to 14) (size 15 to 20)
#    0.000    0.571    5.714    2.143    0.000    4.571 
#    0.000    0.000    0.000    0.000    0.000    0.000 
#    0.000    0.000    0.000    0.000    0.000    0.000 
#
# Total GULP energy -78064.561430 kJ/mol
# GULP energy per Si atom -5576.040102 kJ/mol
# Density = 2.147942 g / cm^3
# Si number density = 21.528423 Si / 1000 Ang^3
#
#
#
# Elastic Constant Matrix: (Units=GPa)
#
#
# Indices 1 2 3 4 5 6 
#
# 1 127.6598 30.8777 27.1179 -11.6236 -6.7046 -6.2370
# 2 30.8777 61.4450 26.0936 -18.3772 12.7571 16.2933
# 3 27.1179 26.0936 108.9484 -3.9193 -24.0222 12.2973
# 4 -11.6236 -18.3772 -3.9193 47.1496 7.7538 2.4799
# 5 -6.7046 12.7571 -24.0222 7.7538 34.1834 5.5990
# 6 -6.2370 16.2933 12.2973 2.4799 5.5990 45.5680
#
#
#
# Elastic Compliance Matrix: (Units=1/GPa)
#
#
# Indices 1 2 3 4 5 6 
#
# 1 0.009845 -0.006841 -0.000386 -0.001094 0.003891 0.003479
# 2 -0.006841 0.036921 -0.011090 0.016392 -0.025167 -0.008945
# 3 -0.000386 -0.011090 0.015635 -0.005755 0.016690 -0.002044
# 4 -0.001094 0.016392 -0.005755 0.029771 -0.016465 -0.004055
# 5 0.003891 -0.025167 0.016690 -0.016465 0.055010 -0.000836
# 6 0.003479 -0.008945 -0.002044 -0.004055 -0.000836 0.026495
#
#
# Mechanical properties :
#
#
# Convention : Reuss Voigt Hill
#
# Bulk Modulus (GPa) = 38.80950 51.80352 45.30651
# Shear Modulus (GPa) = 22.84154 39.64445 31.24299
#
# Velocity S-wave (km/s) = 3.26082 4.29592 3.81365
# Velocity P-wave (km/s) = 5.67834 6.98009 6.36259
#
# Compressibility (1/GPa) = 0.02576689
#
# Stress axis : x y z
#
# Youngs Moduli (GPa) = 101.57767 27.08452 63.96037
#
# Poissons Ratio (x) = 0.18528 0.02470
# Poissons Ratio (y) = 0.69489 0.70931
# Poissons Ratio (z) = 0.03922 0.30036
#
# Static dielectric constant tensor:
#      x y z
#    x 1.741240 -0.004910 -0.012610 
#    y -0.004910 1.864020 0.032380 
#    z -0.012610 0.032380 1.754650 
# 
# From -- ./inp_files/185560.got.cif
#   From: 2010.05.17/outbox.cif.g08.bks.cpg/sg2_93_cif.got.tgz:185560.got - 2010.06.03 11:33:40.
