data_PCOD9046339
_publ_section_title
;
Structure prediction by ZEFSAII (Michael W. Deem and Ramdas Pophale) SiO2 
 PCOD9046339
Probable space group: P -1
;
_chemical_formula_sum "Si O2"
_cell_formula_units_Z 14
_cell_length_a 14.975684
_cell_length_b 5.089185
_cell_length_c 15.661901
_cell_angle_alpha 115.575607
_cell_angle_beta 151.085575
_cell_angle_gamma 70.948483
_cell_volume 516.948510
_symmetry_space_group_name_H-M "P -1"
_symmetry_group_IT_number 2
_symmetry_cell_setting 'triclinic'
loop_
_space_group_symop_operation_xyz
x,y,z
-x,-y,-z
loop_
_atom_site_type_symbol
_atom_site_label
_atom_site_fract_x
_atom_site_fract_y
_atom_site_fract_z
Si Si1 0.379950 0.716069 0.509277
Si Si2 0.498158 0.414187 0.099396
Si Si3 0.198562 0.946727 0.734505
Si Si4 0.319073 0.181692 0.087372
Si Si5 0.144636 0.725575 0.986555
Si Si6 0.196175 0.021711 0.547744
Si Si7 0.751814 0.936714 0.707416
O O1 0.571002 0.722062 0.721230
O O2 0.330095 0.392579 0.387402
O O3 0.239910 0.802689 0.478881
O O4 0.356031 0.938863 0.443860
O O5 0.637900 0.248488 0.133999
O O6 0.461522 0.269493 0.142579
O O7 0.627424 0.723898 0.266255
O O8 0.295274 0.282066 0.872600
O O9 0.009762 0.874536 0.619681
O O10 0.167917 0.884419 0.599531
O O11 0.154863 0.381577 0.959101
O O12 0.255506 0.844756 0.010980
O O13 0.230263 0.856123 0.166211
O O14 0.958272 0.876991 0.844106
#
# Coordination Sequence:
#
# PCOD9046339 Si02
#       7
#     2   2   2   2   2   2   2
#     4  12  25  44  72 107 144 187 240 301 363 436
#     4  11  23  44  66 104 145 188 245 302 362 434
#     4  10  24  42  70  98 140 196 242 298 368 432
#     4  12  25  44  72 107 144 187 240 301 363 436
#     4  11  26  47  72 104 144 189 241 297 365 444
#     4  11  23  44  66 104 145 188 245 302 362 434
#     4  11  26  47  72 104 144 189 241 297 365 444
#
# _framework density 27.082001000000002
#
# number of rings (size 3 to 8) (size 9 to 14) (size 15 to 20)
#    0.000    0.857    1.429    5.143    4.000    5.714 
#    0.000    0.000    0.000    0.000    0.000    0.000 
#    0.000    0.000    0.000    0.000    0.000    0.000 
#
# Total GULP energy -78264.969816 kJ/mol
# GULP energy per Si atom -5590.354987 kJ/mol
# Density = 2.702036 g / cm^3
# Si number density = 27.082001 Si / 1000 Ang^3
#
#
#
# Elastic Constant Matrix: (Units=GPa)
#
#
# Indices 1 2 3 4 5 6 
#
# 1 136.4455 38.4988 33.1542 -13.5899 -7.8945 13.0134
# 2 38.4988 121.9049 27.1028 0.2491 3.5155 12.0829
# 3 33.1542 27.1028 88.6857 0.8580 10.3153 -0.9065
# 4 -13.5899 0.2491 0.8580 25.6025 -10.5764 -1.0706
# 5 -7.8945 3.5155 10.3153 -10.5764 40.6107 2.0865
# 6 13.0134 12.0829 -0.9065 -1.0706 2.0865 49.6560
#
#
#
# Elastic Compliance Matrix: (Units=1/GPa)
#
#
# Indices 1 2 3 4 5 6 
#
# 1 0.010184 -0.002316 -0.003807 0.007631 0.005249 -0.002231
# 2 -0.002316 0.009573 -0.001924 -0.001816 -0.001173 -0.001747
# 3 -0.003807 -0.001924 0.013982 -0.004635 -0.005427 0.001849
# 4 0.007631 -0.001816 -0.004635 0.049776 0.015845 -0.001235
# 5 0.005249 -0.001173 -0.005427 0.015845 0.031362 -0.002165
# 6 -0.002231 -0.001747 0.001849 -0.001235 -0.002165 0.021247
#
#
# Mechanical properties :
#
#
# Convention : Reuss Voigt Hill
#
# Bulk Modulus (GPa) = 56.66845 60.50532 58.58688
# Shear Modulus (GPa) = 31.62626 39.72587 35.67606
#
# Velocity S-wave (km/s) = 3.42101 3.83413 3.63345
# Velocity P-wave (km/s) = 6.04769 6.48003 6.26759
#
# Compressibility (1/GPa) = 0.01764650
#
# Stress axis : x y z
#
# Youngs Moduli (GPa) = 98.19601 104.46201 71.52234
#
# Poissons Ratio (x) = 0.24190 0.27225
# Poissons Ratio (y) = 0.22739 0.13758
# Poissons Ratio (z) = 0.37379 0.20095
#
# Static dielectric constant tensor:
#      x y z
#    x 2.228380 -0.044020 0.123500 
#    y -0.044020 2.147360 -0.083880 
#    z 0.123500 -0.083880 2.213630 
# 
# From -- ./inp_files/525972.got.cif
#   From: 2010.05.17/outbox.cif.g08.bks.cpg/sg2_263_cif.got.tgz:525972.got - 2010.06.03 11:33:40.
