data_PCOD9046412
_publ_section_title
;
Structure prediction by ZEFSAII (Michael W. Deem and Ramdas Pophale) SiO2 
 PCOD9046412
Probable space group: P -1
;
_chemical_formula_sum "Si O2"
_cell_formula_units_Z 16
_cell_length_a 9.499947
_cell_length_b 9.808545
_cell_length_c 15.311782
_cell_angle_alpha 142.864471
_cell_angle_beta 65.980766
_cell_angle_gamma 101.897667
_cell_volume 768.426027
_symmetry_space_group_name_H-M "P -1"
_symmetry_group_IT_number 2
_symmetry_cell_setting 'triclinic'
loop_
_space_group_symop_operation_xyz
x,y,z
-x,-y,-z
loop_
_atom_site_type_symbol
_atom_site_label
_atom_site_fract_x
_atom_site_fract_y
_atom_site_fract_z
Si Si1 0.922820 0.266556 0.162331
Si Si2 0.377597 0.835282 0.717440
Si Si3 0.998400 0.550053 0.128475
Si Si4 0.412290 0.490373 0.375896
Si Si5 0.511562 0.243124 0.661788
Si Si6 0.639729 0.633652 0.055614
Si Si7 0.085650 0.515033 0.396271
Si Si8 0.125444 0.952932 0.521785
O O1 0.755142 0.259078 0.242988
O O2 0.932009 0.379792 0.123375
O O3 0.017775 0.392229 0.271107
O O4 0.000000 0.000000 0.000000
O O5 0.373475 0.722626 0.564768
O O6 0.529268 0.709571 0.670290
O O7 0.366681 0.110540 0.854516
O O8 0.186028 0.517400 0.086244
O O9 0.891162 0.800191 0.303248
O O10 0.000000 0.500000 0.000000
O O11 0.515389 0.563527 0.308695
O O12 0.268536 0.425984 0.326492
O O13 0.392507 0.315378 0.807737
O O14 0.696453 0.181291 0.615259
O O15 0.500000 0.000000 0.500000
O O16 0.500000 0.500000 0.000000
O O17 0.065228 0.782526 0.515485
O O18 0.000000 0.500000 0.500000
O O19 0.000000 0.000000 0.500000
#
# Coordination Sequence:
#
# PCOD9046412 Si02
#       8
#     2   2   2   2   2   2   2   2
#     4  12  26  46  72  99 147 185 227 294 357 419
#     4  11  24  46  69 103 137 181 231 291 353 409
#     4  12  28  46  70 105 144 187 234 286 362 418
#     4  10  24  42  72 103 133 175 240 290 340 410
#     4  11  23  41  71  97 133 177 234 282 335 405
#     4  12  27  47  67 102 146 184 224 290 355 419
#     4  11  24  43  71 104 137 181 237 291 345 413
#     4  11  24  43  69 101 134 180 240 288 333 413
#
# _framework density 20.821781999999999
#
# number of rings (size 3 to 8) (size 9 to 14) (size 15 to 20)
#    0.000    0.750    5.000    1.500    8.750    2.000 
#    0.000    1.250    0.000    0.000    0.000    0.000 
#    0.000    0.000    0.000    0.000    0.000    0.000 
#
# Total GULP energy -89293.174027 kJ/mol
# GULP energy per Si atom -5580.823377 kJ/mol
# Density = 2.077439 g / cm^3
# Si number density = 20.821782 Si / 1000 Ang^3
#
#
#
# Elastic Constant Matrix: (Units=GPa)
#
#
# Indices 1 2 3 4 5 6 
#
# 1 74.2348 30.0006 1.9530 6.3218 7.1465 2.8983
# 2 30.0006 158.7184 33.7075 -5.6911 6.4017 9.1422
# 3 1.9530 33.7075 64.5952 4.9302 1.2824 -3.9512
# 4 6.3218 -5.6911 4.9302 40.9476 1.9724 0.8717
# 5 7.1465 6.4017 1.2824 1.9724 32.9630 -3.6611
# 6 2.8983 9.1422 -3.9512 0.8717 -3.6611 29.6309
#
#
#
# Elastic Compliance Matrix: (Units=1/GPa)
#
#
# Indices 1 2 3 4 5 6 
#
# 1 0.015218 -0.003137 0.001409 -0.002816 -0.002640 -0.000576
# 2 -0.003137 0.008152 -0.004494 0.002281 -0.001201 -0.003023
# 3 0.001409 -0.004494 0.018249 -0.003144 0.000471 0.003833
# 4 -0.002816 0.002281 -0.003144 0.025659 -0.001443 -0.001781
# 5 -0.002640 -0.001201 0.000471 -0.001443 0.031728 0.004654
# 6 -0.000576 -0.003023 0.003833 -0.001781 0.004654 0.035876
#
#
# Mechanical properties :
#
#
# Convention : Reuss Voigt Hill
#
# Bulk Modulus (GPa) = 34.27697 47.65229 40.96463
# Shear Modulus (GPa) = 31.83674 36.16744 34.00209
#
# Velocity S-wave (km/s) = 3.91450 4.17226 4.04543
# Velocity P-wave (km/s) = 6.07691 6.79307 6.44495
#
# Compressibility (1/GPa) = 0.02917411
#
# Stress axis : x y z
#
# Youngs Moduli (GPa) = 65.71207 122.66605 54.79827
#
# Poissons Ratio (x) = 0.38480 -0.07721
# Poissons Ratio (y) = 0.20614 0.24628
# Poissons Ratio (z) = -0.09258 0.55131
#
# Static dielectric constant tensor:
#      x y z
#    x 1.807540 0.030070 -0.046380 
#    y 0.030070 1.570610 -0.010670 
#    z -0.046380 -0.010670 1.763280 
# 
# From -- ./inp_files/495785.got.cif
#   From: 2010.05.17/outbox.cif.g08.bks.cpg/sg2_248_cif.got.tgz:495785.got - 2010.06.03 11:33:40.
