data_PCOD9046560
_publ_section_title
;
Structure prediction by ZEFSAII (Michael W. Deem and Ramdas Pophale) SiO2 
 PCOD9046560
Probable space group: P -1
;
_chemical_formula_sum "Si O2"
_cell_formula_units_Z 16
_cell_length_a 8.639110
_cell_length_b 6.624886
_cell_length_c 18.371192
_cell_angle_alpha 59.964384
_cell_angle_beta 69.279423
_cell_angle_gamma 54.627697
_cell_volume 739.160608
_symmetry_space_group_name_H-M "P -1"
_symmetry_group_IT_number 2
_symmetry_cell_setting 'triclinic'
loop_
_space_group_symop_operation_xyz
x,y,z
-x,-y,-z
loop_
_atom_site_type_symbol
_atom_site_label
_atom_site_fract_x
_atom_site_fract_y
_atom_site_fract_z
Si Si1 0.041213 0.197806 0.049768
Si Si2 0.121096 0.012826 0.234854
Si Si3 0.218722 0.531721 0.534297
Si Si4 0.325629 0.801256 0.957731
Si Si5 0.138568 0.545991 0.387855
Si Si6 0.484730 0.055305 0.768087
Si Si7 0.750339 0.310529 0.343123
Si Si8 0.501876 0.047437 0.382634
O O1 0.068852 0.106578 0.144752
O O2 0.853241 0.207839 0.046486
O O3 0.000000 0.500000 0.000000
O O4 0.229228 0.990441 0.010320
O O5 0.941435 0.173834 0.288471
O O6 0.170999 0.705290 0.289904
O O7 0.301389 0.033602 0.227460
O O8 0.178556 0.650925 0.438611
O O9 0.201751 0.701578 0.577114
O O10 0.067159 0.425611 0.586097
O O11 0.420932 0.260044 0.553197
O O12 0.394808 0.949536 0.862609
O O13 0.500000 0.500000 0.000000
O O14 0.289662 0.234605 0.412053
O O15 0.368302 0.377705 0.718042
O O16 0.486141 0.940769 0.708593
O O17 0.627509 0.167231 0.373474
#
# Coordination Sequence:
#
# PCOD9046560 Si02
#       8
#     2   2   2   2   2   2   2   2
#     4  11  26  47  70 100 138 175 220 278 334 401
#     4  12  24  42  69  96 132 176 218 272 330 393
#     4  10  24  43  64  92 134 175 219 277 327 387
#     4  11  26  45  71 101 133 177 221 274 338 400
#     4  11  23  42  64  97 130 173 223 271 332 387
#     4  11  25  42  66  97 131 172 219 270 328 393
#     4  11  23  42  66  94 130 174 222 269 328 389
#     4  11  22  43  65  93 130 173 219 274 324 389
#
# _framework density 21.646174999999999
#
# number of rings (size 3 to 8) (size 9 to 14) (size 15 to 20)
#    0.000    1.000    2.500    3.375    3.500    5.000 
#    2.250    0.000    0.000    0.000    0.000    0.000 
#    0.000    0.000    0.000    0.000    0.000    0.000 
#
# Total GULP energy -89580.900889 kJ/mol
# GULP energy per Si atom -5598.806306 kJ/mol
# Density = 2.159691 g / cm^3
# Si number density = 21.646175 Si / 1000 Ang^3
#
#
#
# Elastic Constant Matrix: (Units=GPa)
#
#
# Indices 1 2 3 4 5 6 
#
# 1 71.1376 34.5119 26.9117 8.4338 11.2395 -12.1285
# 2 34.5119 116.5635 34.6948 14.9274 13.3820 -9.9654
# 3 26.9117 34.6948 124.5539 5.4874 14.9283 2.9949
# 4 8.4338 14.9274 5.4874 30.1257 3.6828 -2.3000
# 5 11.2395 13.3820 14.9283 3.6828 37.7347 5.5872
# 6 -12.1285 -9.9654 2.9949 -2.3000 5.5872 30.3336
#
#
#
# Elastic Compliance Matrix: (Units=1/GPa)
#
#
# Indices 1 2 3 4 5 6 
#
# 1 0.018899 -0.003417 -0.002711 -0.002027 -0.004232 0.007328
# 2 -0.003417 0.011136 -0.002003 -0.003733 -0.002160 0.002605
# 3 -0.002711 -0.002003 0.009450 0.000083 -0.001885 -0.002322
# 4 -0.002027 -0.003733 0.000083 0.035887 -0.001756 0.000999
# 5 -0.004232 -0.002160 -0.001885 -0.001756 0.030628 -0.007990
# 6 0.007328 0.002605 -0.002322 0.000999 -0.007990 0.038529
#
#
# Mechanical properties :
#
#
# Convention : Reuss Voigt Hill
#
# Bulk Modulus (GPa) = 43.06020 56.05464 49.55742
# Shear Modulus (GPa) = 29.66803 34.04791 31.85797
#
# Velocity S-wave (km/s) = 3.70616 3.97032 3.84051
# Velocity P-wave (km/s) = 6.18467 6.85347 6.52764
#
# Compressibility (1/GPa) = 0.02322330
#
# Stress axis : x y z
#
# Youngs Moduli (GPa) = 52.91346 89.80241 105.81473
#
# Poissons Ratio (x) = 0.30682 0.28690
# Poissons Ratio (y) = 0.18078 0.21193
# Poissons Ratio (z) = 0.14346 0.17986
#
# Static dielectric constant tensor:
#      x y z
#    x 1.759350 -0.010330 0.013130 
#    y -0.010330 1.815990 -0.011560 
#    z 0.013130 -0.011560 1.750280 
# 
# From -- ./inp_files/48831.got.cif
#   From: 2010.05.17/outbox.cif.g08.bks.cpg/sg2_25_cif.got.tgz:48831.got - 2010.06.03 11:33:40.
