data_PCOD9046944
_publ_section_title
;
Structure prediction by ZEFSAII (Michael W. Deem and Ramdas Pophale) SiO2 
 PCOD9046944
Probable space group: P -1
;
_chemical_formula_sum "Si O2"
_cell_formula_units_Z 15
_cell_length_a 12.965683
_cell_length_b 12.844604
_cell_length_c 9.919448
_cell_angle_alpha 121.938264
_cell_angle_beta 46.913780
_cell_angle_gamma 144.225487
_cell_volume 704.074876
_symmetry_space_group_name_H-M "P -1"
_symmetry_group_IT_number 2
_symmetry_cell_setting 'triclinic'
loop_
_space_group_symop_operation_xyz
x,y,z
-x,-y,-z
loop_
_atom_site_type_symbol
_atom_site_label
_atom_site_fract_x
_atom_site_fract_y
_atom_site_fract_z
Si Si1 0.181493 0.032454 0.309447
Si Si2 0.629857 0.378079 0.559303
Si Si3 0.000000 0.500000 0.500000
Si Si4 0.184602 0.854661 0.959183
Si Si5 0.237238 0.116511 0.896186
Si Si6 0.420058 0.780712 0.781142
Si Si7 0.194970 0.535556 0.077315
Si Si8 0.421414 0.375820 0.145001
O O1 0.339581 0.087453 0.318034
O O2 0.309262 0.203140 0.216766
O O3 0.107670 0.873970 0.175192
O O4 0.000000 0.000000 0.500000
O O5 0.395086 0.196086 0.687428
O O6 0.654642 0.354828 0.365717
O O7 0.639883 0.530210 0.681470
O O8 0.798980 0.419127 0.530354
O O9 0.140996 0.576331 0.287675
O O10 0.376590 0.892136 0.852655
O O11 0.013181 0.656228 0.921049
O O12 0.236213 0.991353 0.898424
O O13 0.339327 0.291234 0.011661
O O14 0.000000 0.000000 0.000000
O O15 0.300470 0.675390 0.955426
O O16 0.342887 0.515425 0.973361
#
# Coordination Sequence:
#
# PCOD9046944 Si02
#       8
#     2   2   1   2   2   2   2   2
#     4  10  25  43  66 102 137 181 229 284 355 414
#     4  12  26  45  72 106 134 188 241 282 352 415
#     4  12  26  44  72 104 140 180 238 286 350 416
#     4  11  24  45  68 100 140 187 221 297 351 404
#     4  11  25  43  69 100 144 187 235 290 348 415
#     4  11  26  45  71 103 140 184 230 290 347 425
#     4  11  24  47  71 102 139 182 238 285 349 418
#     4  10  24  43  69  95 139 184 230 291 339 415
#
# _framework density 21.304552000000001
#
# number of rings (size 3 to 8) (size 9 to 14) (size 15 to 20)
#    0.000    1.067    2.667    2.000    9.333    1.600 
#    2.400    0.000    0.000    0.000    0.000    0.000 
#    0.000    0.000    0.000    0.000    0.000    0.000 
#
# Total GULP energy -83558.461594 kJ/mol
# GULP energy per Si atom -5570.564106 kJ/mol
# Density = 2.125606 g / cm^3
# Si number density = 21.304552 Si / 1000 Ang^3
#
#
#
# Elastic Constant Matrix: (Units=GPa)
#
#
# Indices 1 2 3 4 5 6 
#
# 1 142.2639 24.3614 59.9846 -11.1289 -4.5383 -2.1013
# 2 24.3614 27.4673 8.1354 -0.8899 -0.2433 -2.8084
# 3 59.9846 8.1354 135.1598 -0.4766 1.9803 2.3341
# 4 -11.1289 -0.8899 -0.4766 24.8228 7.7013 -7.7609
# 5 -4.5383 -0.2433 1.9803 7.7013 38.5180 2.5608
# 6 -2.1013 -2.8084 2.3341 -7.7609 2.5608 29.3304
#
#
#
# Elastic Compliance Matrix: (Units=1/GPa)
#
#
# Indices 1 2 3 4 5 6 
#
# 1 0.010553 -0.007789 -0.004230 0.004752 0.000357 0.001573
# 2 -0.007789 0.043406 0.000794 -0.000597 -0.000794 0.003446
# 3 -0.004230 0.000794 0.009253 -0.001997 -0.000473 -0.001450
# 4 0.004752 -0.000597 -0.001997 0.050131 -0.010336 0.014609
# 5 0.000357 -0.000794 -0.000473 -0.010336 0.028438 -0.005231
# 6 0.001573 0.003446 -0.001450 0.014609 -0.005231 0.038975
#
#
# Mechanical properties :
#
#
# Convention : Reuss Voigt Hill
#
# Bulk Modulus (GPa) = 24.53265 54.42820 39.48043
# Shear Modulus (GPa) = 23.06356 32.69488 27.87922
#
# Velocity S-wave (km/s) = 3.29380 3.92170 3.62139
# Velocity P-wave (km/s) = 5.09958 6.79040 6.00480
#
# Compressibility (1/GPa) = 0.04076201
#
# Stress axis : x y z
#
# Youngs Moduli (GPa) = 94.76000 23.03838 108.07048
#
# Poissons Ratio (x) = 0.17944 0.45717
# Poissons Ratio (y) = 0.73807 -0.08582
# Poissons Ratio (z) = 0.40086 -0.01829
#
# Static dielectric constant tensor:
#      x y z
#    x 1.825160 0.019950 -0.008880 
#    y 0.019950 1.781690 -0.020530 
#    z -0.008880 -0.020530 1.800510 
# 
# From -- ./inp_files/260755.got.cif
#   From: 2010.05.17/outbox.cif.g08.bks.cpg/sg2_131_cif.got.tgz:260755.got - 2010.06.03 11:33:40.
