data_PCOD9046777
_publ_section_title
;
Structure prediction by ZEFSAII (Michael W. Deem and Ramdas Pophale) SiO2 
 PCOD9046777
Probable space group: P -1
;
_chemical_formula_sum "Si O2"
_cell_formula_units_Z 14
_cell_length_a 5.429301
_cell_length_b 17.824820
_cell_length_c 8.769381
_cell_angle_alpha 48.080698
_cell_angle_beta 81.596695
_cell_angle_gamma 107.589528
_cell_volume 524.513169
_symmetry_space_group_name_H-M "P -1"
_symmetry_group_IT_number 2
_symmetry_cell_setting 'triclinic'
loop_
_space_group_symop_operation_xyz
x,y,z
-x,-y,-z
loop_
_atom_site_type_symbol
_atom_site_label
_atom_site_fract_x
_atom_site_fract_y
_atom_site_fract_z
Si Si1 0.859670 0.366384 0.899048
Si Si2 0.127653 0.400552 0.505191
Si Si3 0.206820 0.816473 0.366115
Si Si4 0.793882 0.021217 0.095355
Si Si5 0.313480 0.232078 0.308133
Si Si6 0.860298 0.075286 0.348456
Si Si7 0.385632 0.550207 0.808070
O O1 0.780090 0.463401 0.716393
O O2 0.011640 0.356880 0.744598
O O3 0.088468 0.440466 0.914421
O O4 0.565219 0.245231 0.148286
O O5 0.410918 0.398955 0.430648
O O6 0.899207 0.314260 0.510009
O O7 0.950404 0.824519 0.461313
O O8 0.503151 0.890537 0.337889
O O9 0.288950 0.895306 0.098450
O O10 0.934915 0.085693 0.150948
O O11 0.000000 0.000000 0.000000
O O12 0.556606 0.338090 0.252130
O O13 0.063231 0.203365 0.238527
O O14 0.500000 0.000000 0.500000
O O15 0.000000 0.000000 0.500000
O O16 0.500000 0.500000 0.000000
#
# Coordination Sequence:
#
# PCOD9046777 Si02
#       7
#     2   2   2   2   2   2   2
#     4  11  24  44  68 102 141 183 244 291 361 431
#     4  10  24  43  68 100 141 185 236 294 362 432
#     4  10  24  46  70 102 140 191 234 298 372 431
#     4  11  25  46  74 103 147 183 250 300 372 443
#     4  11  24  45  69 106 135 195 237 298 369 433
#     4  12  28  50  76 110 150 193 248 311 372 445
#     4  11  23  43  67  99 140 183 236 293 360 433
#
# _framework density 26.691419
#
# number of rings (size 3 to 8) (size 9 to 14) (size 15 to 20)
#    0.000    1.143    2.857    1.714    4.000    5.714 
#    7.714    0.000    0.000    0.000    0.000    0.000 
#    0.000    0.000    0.000    0.000    0.000    0.000 
#
# Total GULP energy -77950.397778 kJ/mol
# GULP energy per Si atom -5567.885556 kJ/mol
# Density = 2.663067 g / cm^3
# Si number density = 26.691419 Si / 1000 Ang^3
#
#
#
# Elastic Constant Matrix: (Units=GPa)
#
#
# Indices 1 2 3 4 5 6 
#
# 1 103.8210 40.4881 36.5831 4.2523 -43.4160 20.7293
# 2 40.4881 129.0392 53.7300 10.2702 -11.0450 26.8369
# 3 36.5831 53.7300 110.5864 19.3105 -31.0734 -5.2115
# 4 4.2523 10.2702 19.3105 48.1750 -3.9967 1.4426
# 5 -43.4160 -11.0450 -31.0734 -3.9967 57.4152 -4.8314
# 6 20.7293 26.8369 -5.2115 1.4426 -4.8314 48.7835
#
#
#
# Elastic Compliance Matrix: (Units=1/GPa)
#
#
# Indices 1 2 3 4 5 6 
#
# 1 0.016725 -0.002803 -0.001431 0.000746 0.010994 -0.004651
# 2 -0.002803 0.012395 -0.006498 0.000094 -0.003809 -0.006702
# 3 -0.001431 -0.006498 0.015526 -0.004385 0.006320 0.006597
# 4 0.000746 0.000094 -0.004385 0.022446 -0.000358 -0.001537
# 5 0.010994 -0.003809 0.006320 -0.000358 0.028471 0.000929
# 6 -0.004651 -0.006702 0.006597 -0.001537 0.000929 0.027004
#
#
# Mechanical properties :
#
#
# Convention : Reuss Voigt Hill
#
# Bulk Modulus (GPa) = 43.13740 67.22766 55.18253
# Shear Modulus (GPa) = 32.94748 45.05110 38.99929
#
# Velocity S-wave (km/s) = 3.51719 4.11280 3.82660
# Velocity P-wave (km/s) = 5.71759 6.91341 6.34374
#
# Compressibility (1/GPa) = 0.02318174
#
# Stress axis : x y z
#
# Youngs Moduli (GPa) = 59.79160 80.67928 64.40983
#
# Poissons Ratio (x) = 0.22612 0.09220
# Poissons Ratio (y) = 0.16758 0.41850
# Poissons Ratio (z) = 0.08559 0.52421
#
# Static dielectric constant tensor:
#      x y z
#    x 2.201610 -0.064520 0.078700 
#    y -0.064520 2.445570 -0.350760 
#    z 0.078700 -0.350760 2.316290 
# 
# From -- ./inp_files/137349.got.cif
#   From: 2010.05.17/outbox.cif.g08.bks.cpg/sg2_69_cif.got.tgz:137349.got - 2010.06.03 11:33:40.
