data_PCOD9046242
_publ_section_title
;
Structure prediction by ZEFSAII (Michael W. Deem and Ramdas Pophale) SiO2 
 PCOD9046242
Probable space group: P -1
;
_chemical_formula_sum "Si O2"
_cell_formula_units_Z 14
_cell_length_a 17.147770
_cell_length_b 12.919136
_cell_length_c 9.263306
_cell_angle_alpha 125.487563
_cell_angle_beta 135.845786
_cell_angle_gamma 30.656581
_cell_volume 724.997465
_symmetry_space_group_name_H-M "P -1"
_symmetry_group_IT_number 2
_symmetry_cell_setting 'triclinic'
loop_
_space_group_symop_operation_xyz
x,y,z
-x,-y,-z
loop_
_atom_site_type_symbol
_atom_site_label
_atom_site_fract_x
_atom_site_fract_y
_atom_site_fract_z
Si Si1 0.417455 0.129153 0.852904
Si Si2 0.708896 0.001507 0.603578
Si Si3 0.043003 0.004303 0.722796
Si Si4 0.080053 0.561315 0.710974
Si Si5 0.318677 0.695504 0.328394
Si Si6 0.376695 0.868982 0.086440
Si Si7 0.288475 0.590331 0.890283
O O1 0.250053 0.366487 0.871709
O O2 0.548263 0.098357 0.903834
O O3 0.354948 0.064254 0.622802
O O4 0.500000 0.000000 0.000000
O O5 0.683189 0.154542 0.603458
O O6 0.614044 0.092547 0.705676
O O7 0.920617 0.789034 0.743251
O O8 0.172993 0.788997 0.802813
O O9 0.171617 0.013187 0.897244
O O10 0.000000 0.000000 0.500000
O O11 0.857186 0.176432 0.704194
O O12 0.173577 0.561913 0.712198
O O13 0.000000 0.500000 0.500000
O O14 0.500000 0.500000 0.500000
O O15 0.301398 0.632108 0.104795
O O16 0.511262 0.628467 0.064070
#
# Coordination Sequence:
#
# PCOD9046242 Si02
#       7
#     2   2   2   2   2   2   2
#     4  10  24  42  69  95 127 169 223 278 326 390
#     4  11  22  43  67  92 132 174 223 259 334 393
#     4  12  25  39  64  98 134 169 221 272 325 390
#     4   9  20  39  65  89 123 174 213 258 324 386
#     4  12  26  41  68  98 133 177 220 271 328 398
#     4  11  24  42  66  94 134 173 219 269 329 393
#     4  11  22  43  63  94 135 176 215 266 337 385
#
# _framework density 19.310411999999999
#
# number of rings (size 3 to 8) (size 9 to 14) (size 15 to 20)
#    0.000    1.143    2.857    3.000    8.000    0.000 
#    0.000    0.714    0.000    0.000    0.000    0.000 
#    0.000    0.000    0.000    0.000    0.000    0.000 
#
# Total GULP energy -78110.462179 kJ/mol
# GULP energy per Si atom -5579.318727 kJ/mol
# Density = 1.926646 g / cm^3
# Si number density = 19.310412 Si / 1000 Ang^3
#
#
#
# Elastic Constant Matrix: (Units=GPa)
#
#
# Indices 1 2 3 4 5 6 
#
# 1 114.8909 79.7576 59.7816 -26.3209 -1.1149 5.3762
# 2 79.7576 148.0183 52.8124 -23.5920 -14.6043 -5.1405
# 3 59.7816 52.8124 114.3382 -11.9871 -13.7739 -2.1446
# 4 -26.3209 -23.5920 -11.9871 30.4965 -0.2984 1.3705
# 5 -1.1149 -14.6043 -13.7739 -0.2984 45.6066 7.0197
# 6 5.3762 -5.1405 -2.1446 1.3705 7.0197 35.1125
#
#
#
# Elastic Compliance Matrix: (Units=1/GPa)
#
#
# Indices 1 2 3 4 5 6 
#
# 1 0.018969 -0.007078 -0.006181 0.008620 -0.002989 -0.004057
# 2 -0.007078 0.011701 -0.001051 0.002467 0.002958 0.002045
# 3 -0.006181 -0.001051 0.012747 -0.001150 0.003205 0.000975
# 4 0.008620 0.002467 -0.001150 0.041833 0.001379 -0.002937
# 5 -0.002989 0.002958 0.003205 0.001379 0.024369 -0.003839
# 6 -0.004057 0.002045 0.000975 -0.002937 -0.003839 0.030342
#
#
# Mechanical properties :
#
#
# Convention : Reuss Voigt Hill
#
# Bulk Modulus (GPa) = 67.57853 84.66116 76.11984
# Shear Modulus (GPa) = 28.81649 34.56952 31.69300
#
# Velocity S-wave (km/s) = 3.86719 4.23567 4.05562
# Velocity P-wave (km/s) = 7.41701 8.23763 7.83807
#
# Compressibility (1/GPa) = 0.01479760
#
# Stress axis : x y z
#
# Youngs Moduli (GPa) = 52.71676 85.46617 78.45033
#
# Poissons Ratio (x) = 0.60491 0.48493
# Poissons Ratio (y) = 0.37311 0.08242
# Poissons Ratio (z) = 0.32586 0.08979
#
# Static dielectric constant tensor:
#      x y z
#    x 1.695880 -0.005900 0.050320 
#    y -0.005900 1.702880 -0.001130 
#    z 0.050320 -0.001130 1.676700 
# 
# From -- ./inp_files/175565.got.cif
#   From: 2010.05.17/outbox.cif.g08.bks.cpg/sg2_88_cif.got.tgz:175565.got - 2010.06.03 11:33:40.
