data_PCOD9046244
_publ_section_title
;
Structure prediction by ZEFSAII (Michael W. Deem and Ramdas Pophale) SiO2 
 PCOD9046244
Probable space group: P -1
;
_chemical_formula_sum "Si O2"
_cell_formula_units_Z 12
_cell_length_a 12.067190
_cell_length_b 7.430052
_cell_length_c 7.406202
_cell_angle_alpha 105.666184
_cell_angle_beta 61.176114
_cell_angle_gamma 124.745931
_cell_volume 478.021349
_symmetry_space_group_name_H-M "P -1"
_symmetry_group_IT_number 2
_symmetry_cell_setting 'triclinic'
loop_
_space_group_symop_operation_xyz
x,y,z
-x,-y,-z
loop_
_atom_site_type_symbol
_atom_site_label
_atom_site_fract_x
_atom_site_fract_y
_atom_site_fract_z
Si Si1 0.569193 0.461760 0.168229
Si Si2 0.267678 0.206865 0.138291
Si Si3 0.099229 0.341299 0.553809
Si Si4 0.535145 0.824334 0.503390
Si Si5 0.158820 0.771555 0.546575
Si Si6 0.035745 0.827420 0.011598
O O1 0.429873 0.293460 0.110617
O O2 0.535299 0.642996 0.324969
O O3 0.573692 0.319294 0.288109
O O4 0.710591 0.607646 0.973100
O O5 0.163140 0.203924 0.376782
O O6 0.192096 0.978088 0.032924
O O7 0.207015 0.593199 0.476872
O O8 0.945273 0.271159 0.553912
O O9 0.076892 0.307105 0.776024
O O10 0.500000 0.000000 0.500000
O O11 0.703740 0.982194 0.485593
O O12 0.060069 0.716463 0.791104
O O13 0.000000 0.000000 0.000000
#
# Coordination Sequence:
#
# PCOD9046244 Si02
#       6
#     2   2   2   2   2   2
#     4  10  24  42  69  95 133 177 220 275 330 393
#     4  11  22  43  67  98 131 175 221 270 335 394
#     4  11  25  43  67  97 137 170 216 279 330 393
#     4  11  23  44  67  98 131 175 226 272 329 399
#     4  11  24  45  65 100 132 171 222 272 333 389
#     4  12  24  40  70  98 129 175 217 268 336 397
#
# _framework density 25.103480999999999
#
# number of rings (size 3 to 8) (size 9 to 14) (size 15 to 20)
#    0.000    1.000    3.333    3.000    2.333    1.333 
#    6.000    4.167    0.000    0.000    0.000    0.000 
#    0.000    0.000    0.000    0.000    0.000    0.000 
#
# Total GULP energy -67193.199401 kJ/mol
# GULP energy per Si atom -5599.433283 kJ/mol
# Density = 2.504634 g / cm^3
# Si number density = 25.103481 Si / 1000 Ang^3
#
#
#
# Elastic Constant Matrix: (Units=GPa)
#
#
# Indices 1 2 3 4 5 6 
#
# 1 73.4847 41.3051 14.2578 -5.3365 16.6220 -8.1866
# 2 41.3051 96.3494 21.8389 -4.6840 17.8784 -3.9565
# 3 14.2578 21.8389 123.9779 -22.7777 31.4956 -21.2627
# 4 -5.3365 -4.6840 -22.7777 46.4465 -3.7449 6.1829
# 5 16.6220 17.8784 31.4956 -3.7449 31.1615 -7.7660
# 6 -8.1866 -3.9565 -21.2627 6.1829 -7.7660 58.4162
#
#
#
# Elastic Compliance Matrix: (Units=1/GPa)
#
#
# Indices 1 2 3 4 5 6 
#
# 1 0.019197 -0.007112 0.001340 0.001369 -0.006944 0.001628
# 2 -0.007112 0.014284 -0.000905 -0.000006 -0.003699 -0.000850
# 3 0.001340 -0.000905 0.012297 0.004831 -0.011402 0.002575
# 4 0.001369 -0.000006 0.004831 0.023947 -0.002976 -0.000980
# 5 -0.006944 -0.003699 -0.011402 -0.002976 0.049461 0.001517
# 6 0.001628 -0.000850 0.002575 -0.000980 0.001517 0.018532
#
#
# Mechanical properties :
#
#
# Convention : Reuss Voigt Hill
#
# Bulk Modulus (GPa) = 30.84146 49.84618 40.34382
# Shear Modulus (GPa) = 30.88688 41.63219 36.25953
#
# Velocity S-wave (km/s) = 3.51149 4.07679 3.80465
# Velocity P-wave (km/s) = 5.36219 6.48534 5.95033
#
# Compressibility (1/GPa) = 0.03242389
#
# Stress axis : x y z
#
# Youngs Moduli (GPa) = 52.09092 70.00769 81.31961
#
# Poissons Ratio (x) = 0.49787 -0.10895
# Poissons Ratio (y) = 0.37045 0.07362
# Poissons Ratio (z) = -0.06979 0.06338
#
# Static dielectric constant tensor:
#      x y z
#    x 2.003940 0.015050 0.019880 
#    y 0.015050 2.056310 -0.000330 
#    z 0.019880 -0.000330 1.993750 
# 
# From -- ./inp_files/239573.got.cif
#   From: 2010.05.17/outbox.cif.g08.bks.cpg/sg2_120_cif.got.tgz:239573.got - 2010.06.03 11:33:40.
