data_PCOD9046751
_publ_section_title
;
Structure prediction by ZEFSAII (Michael W. Deem and Ramdas Pophale) SiO2 
 PCOD9046751
Probable space group: P -1
;
_chemical_formula_sum "Si O2"
_cell_formula_units_Z 14
_cell_length_a 18.925369
_cell_length_b 7.816249
_cell_length_c 10.241305
_cell_angle_alpha 133.104211
_cell_angle_beta 145.998899
_cell_angle_gamma 46.355583
_cell_volume 589.467089
_symmetry_space_group_name_H-M "P -1"
_symmetry_group_IT_number 2
_symmetry_cell_setting 'triclinic'
loop_
_space_group_symop_operation_xyz
x,y,z
-x,-y,-z
loop_
_atom_site_type_symbol
_atom_site_label
_atom_site_fract_x
_atom_site_fract_y
_atom_site_fract_z
Si Si1 0.380975 0.386671 0.251906
Si Si2 0.102716 0.640560 0.049198
Si Si3 0.690270 0.366815 0.253255
Si Si4 0.657528 0.936554 0.176035
Si Si5 0.063164 0.138549 0.350205
Si Si6 0.020264 0.719911 0.413464
Si Si7 0.527526 0.129690 0.738987
O O1 0.500000 0.500000 0.500000
O O2 0.439296 0.104532 0.238383
O O3 0.261073 0.559311 0.240482
O O4 0.316461 0.333034 0.990817
O O5 0.025303 0.742803 0.848186
O O6 0.070076 0.386050 0.874307
O O7 0.055802 0.858324 0.194058
O O8 0.681082 0.161862 0.241410
O O9 0.829370 0.407565 0.461953
O O10 0.591158 0.632289 0.276737
O O11 0.648246 0.246296 0.995410
O O12 0.779580 0.890577 0.441158
O O13 0.500000 0.000000 0.000000
O O14 0.015153 0.274649 0.484198
O O15 0.000000 0.000000 0.500000
O O16 0.500000 0.000000 0.500000
#
# Coordination Sequence:
#
# PCOD9046751 Si02
#       7
#     2   2   2   2   2   2   2
#     4  11  24  43  68 105 138 177 240 290 344 425
#     4  11  26  45  69 106 142 185 245 287 349 429
#     4  10  24  44  66 104 139 179 238 288 354 429
#     4  11  23  44  73 100 141 185 231 296 358 415
#     4  11  25  46  72 105 141 192 237 286 361 418
#     4  12  23  44  71 100 146 182 231 289 358 424
#     4  10  24  43  67  97 140 182 232 287 355 414
#
# _framework density 23.750266
#
# number of rings (size 3 to 8) (size 9 to 14) (size 15 to 20)
#    0.000    1.143    2.857    2.143    4.000    8.571 
#    0.000    0.000    0.000    0.000    0.000    0.000 
#    0.000    0.000    0.000    0.000    0.000    0.000 
#
# Total GULP energy -78090.131648 kJ/mol
# GULP energy per Si atom -5577.866546 kJ/mol
# Density = 2.369621 g / cm^3
# Si number density = 23.750266 Si / 1000 Ang^3
#
#
#
# Elastic Constant Matrix: (Units=GPa)
#
#
# Indices 1 2 3 4 5 6 
#
# 1 57.2085 18.6958 36.5893 -7.9127 13.1305 -10.0934
# 2 18.6958 109.4082 36.9403 13.0798 8.4112 -1.5476
# 3 36.5893 36.9403 156.3918 15.7653 15.4750 -7.3553
# 4 -7.9127 13.0798 15.7653 51.2497 -16.9455 -2.1222
# 5 13.1305 8.4112 15.4750 -16.9455 40.0835 -3.3892
# 6 -10.0934 -1.5476 -7.3553 -2.1222 -3.3892 27.5321
#
#
#
# Elastic Compliance Matrix: (Units=1/GPa)
#
#
# Indices 1 2 3 4 5 6 
#
# 1 0.024224 -0.002825 -0.004953 0.005476 -0.002480 0.007515
# 2 -0.002825 0.010669 -0.001316 -0.003622 -0.002452 -0.001368
# 3 -0.004953 -0.001316 0.008582 -0.004136 -0.003189 -0.000309
# 4 0.005476 -0.003622 -0.004136 0.026780 0.012246 0.004271
# 5 -0.002480 -0.002452 -0.003189 0.012246 0.032945 0.003100
# 6 0.007515 -0.001368 -0.000309 0.004271 0.003100 0.039628
#
#
# Mechanical properties :
#
#
# Convention : Reuss Voigt Hill
#
# Bulk Modulus (GPa) = 39.54600 56.38438 47.96519
# Shear Modulus (GPa) = 29.50820 39.15860 34.33340
#
# Velocity S-wave (km/s) = 3.52865 4.06490 3.80623
# Velocity P-wave (km/s) = 5.76964 6.76929 6.28936
#
# Compressibility (1/GPa) = 0.02528701
#
# Stress axis : x y z
#
# Youngs Moduli (GPa) = 41.28221 93.72761 116.52456
#
# Poissons Ratio (x) = 0.26475 0.57718
# Poissons Ratio (y) = 0.11661 0.15333
# Poissons Ratio (z) = 0.20448 0.12333
#
# Static dielectric constant tensor:
#      x y z
#    x 2.203420 -0.068220 -0.052380 
#    y -0.068220 2.101270 -0.098970 
#    z -0.052380 -0.098970 2.057300 
# 
# From -- ./inp_files/469685.got.cif
#   From: 2010.05.17/outbox.cif.g08.bks.cpg/sg2_235_cif.got.tgz:469685.got - 2010.06.03 11:33:40.
