data_PCOD9046008
_publ_section_title
;
Structure prediction by ZEFSAII (Michael W. Deem and Ramdas Pophale) SiO2 
 PCOD9046008
Probable space group: P -1
;
_chemical_formula_sum "Si O2"
_cell_formula_units_Z 13
_cell_length_a 22.182477
_cell_length_b 11.376177
_cell_length_c 11.274014
_cell_angle_alpha 154.413158
_cell_angle_beta 148.249621
_cell_angle_gamma 31.804295
_cell_volume 602.019447
_symmetry_space_group_name_H-M "P -1"
_symmetry_group_IT_number 2
_symmetry_cell_setting 'triclinic'
loop_
_space_group_symop_operation_xyz
x,y,z
-x,-y,-z
loop_
_atom_site_type_symbol
_atom_site_label
_atom_site_fract_x
_atom_site_fract_y
_atom_site_fract_z
Si Si1 0.647673 0.424945 0.404596
Si Si2 0.500000 0.000000 0.000000
Si Si3 0.211338 0.411992 0.574728
Si Si4 0.911392 0.338264 0.656589
Si Si5 0.499341 0.912115 0.281572
Si Si6 0.863574 0.095857 0.904272
Si Si7 0.650306 0.309551 0.574267
O O1 0.786326 0.387380 0.567070
O O2 0.647460 0.276880 0.396923
O O3 0.566240 0.768125 0.595948
O O4 0.583480 0.276520 0.067494
O O5 0.602770 0.056971 0.307863
O O6 0.422963 0.359332 0.206443
O O7 0.143075 0.540719 0.453831
O O8 0.359017 0.274231 0.679493
O O9 0.164602 0.168737 0.325691
O O10 0.174541 0.663823 0.838965
O O11 0.000000 0.000000 0.500000
O O12 0.000000 0.500000 0.000000
O O13 0.500000 0.000000 0.500000
O O14 0.783759 0.224123 0.771368
O O15 0.000000 0.000000 0.000000
#
# Coordination Sequence:
#
# PCOD9046008 Si02
#       7
#     2   1   2   2   2   2   2
#     4  12  27  45  76 108 145 191 235 308 363 444
#     4  10  24  42  66 102 140 184 230 286 350 434
#     4  12  28  48  79 105 145 193 244 307 368 431
#     4  12  28  49  76 105 145 192 243 296 365 439
#     4  12  26  47  74 112 150 182 244 301 381 433
#     4  12  29  50  73 103 147 200 249 299 353 439
#     4  11  26  44  71 102 146 183 241 285 366 418
#
# _framework density 21.593986999999998
#
# number of rings (size 3 to 8) (size 9 to 14) (size 15 to 20)
#    0.000    0.308    1.538    5.538   19.385    0.000 
#    0.000    0.000    0.000    0.000    0.000    0.000 
#    0.000    0.000    0.000    0.000    0.000    0.000 
#
# Total GULP energy -72458.280957 kJ/mol
# GULP energy per Si atom -5573.713920 kJ/mol
# Density = 2.154484 g / cm^3
# Si number density = 21.593987 Si / 1000 Ang^3
#
#
#
# Elastic Constant Matrix: (Units=GPa)
#
#
# Indices 1 2 3 4 5 6 
#
# 1 128.4014 62.4478 46.3601 -15.6560 -13.3427 -31.4030
# 2 62.4478 149.3068 81.9427 -12.4046 -7.4092 -25.2600
# 3 46.3601 81.9427 202.1749 6.8026 -6.1734 -42.5421
# 4 -15.6560 -12.4046 6.8026 52.8478 -1.3654 0.7496
# 5 -13.3427 -7.4092 -6.1734 -1.3654 21.8684 -0.1594
# 6 -31.4030 -25.2600 -42.5421 0.7496 -0.1594 47.5661
#
#
#
# Elastic Compliance Matrix: (Units=1/GPa)
#
#
# Indices 1 2 3 4 5 6 
#
# 1 0.011929 -0.003434 0.000030 0.002802 0.006343 0.006056
# 2 -0.003434 0.010171 -0.003358 0.001814 0.000517 0.000104
# 3 0.000030 -0.003358 0.007420 -0.001781 0.000900 0.004903
# 4 0.002802 0.001814 -0.001781 0.020475 0.003107 0.000909
# 5 0.006343 0.000517 0.000900 0.003107 0.050260 0.005386
# 6 0.006056 0.000104 0.004903 0.000909 0.005386 0.029466
#
#
# Mechanical properties :
#
#
# Convention : Reuss Voigt Hill
#
# Bulk Modulus (GPa) = 62.51779 95.70938 79.11358
# Shear Modulus (GPa) = 33.65273 43.73197 38.69235
#
# Velocity S-wave (km/s) = 3.95198 4.50510 4.23757
# Velocity P-wave (km/s) = 7.05964 8.45456 7.78839
#
# Compressibility (1/GPa) = 0.01599545
#
# Stress axis : x y z
#
# Youngs Moduli (GPa) = 83.82880 98.32021 134.77692
#
# Poissons Ratio (x) = 0.33760 -0.00404
# Poissons Ratio (y) = 0.28784 0.45263
# Poissons Ratio (z) = -0.00251 0.33019
#
# Static dielectric constant tensor:
#      x y z
#    x 1.807950 0.024620 0.041670 
#    y 0.024620 1.725170 0.009720 
#    z 0.041670 0.009720 1.770350 
# 
# From -- ./inp_files/427165.got.cif
#   From: 2010.05.17/outbox.cif.g08.bks.cpg/sg2_214_cif.got.tgz:427165.got - 2010.06.03 11:33:40.
