data_PCOD9046876
_publ_section_title
;
Structure prediction by ZEFSAII (Michael W. Deem and Ramdas Pophale) SiO2 
 PCOD9046876
Probable space group: P -1
;
_chemical_formula_sum "Si O2"
_cell_formula_units_Z 12
_cell_length_a 15.369441
_cell_length_b 5.051241
_cell_length_c 9.318637
_cell_angle_alpha 123.168070
_cell_angle_beta 122.648463
_cell_angle_gamma 61.592636
_cell_volume 492.873039
_symmetry_space_group_name_H-M "P -1"
_symmetry_group_IT_number 2
_symmetry_cell_setting 'triclinic'
loop_
_space_group_symop_operation_xyz
x,y,z
-x,-y,-z
loop_
_atom_site_type_symbol
_atom_site_label
_atom_site_fract_x
_atom_site_fract_y
_atom_site_fract_z
Si Si1 0.946245 0.371679 0.107376
Si Si2 0.604842 0.180908 0.093817
Si Si3 0.168289 0.384202 0.391890
Si Si4 0.247647 0.443379 0.799209
Si Si5 0.466817 0.362527 0.277574
Si Si6 0.227961 0.612032 0.229159
O O1 0.857051 0.391884 0.154550
O O2 0.041435 0.522443 0.289733
O O3 0.869205 0.535043 0.956185
O O4 0.000000 0.000000 0.000000
O O5 0.668494 0.341815 0.084808
O O6 0.538861 0.431343 0.230012
O O7 0.691371 0.902644 0.177950
O O8 0.528428 0.011812 0.879651
O O9 0.203831 0.424828 0.595331
O O10 0.234258 0.532421 0.378755
O O11 0.195305 0.995061 0.284524
O O12 0.500000 0.500000 0.500000
O O13 0.338825 0.490747 0.209924
#
# Coordination Sequence:
#
# PCOD9046876 Si02
#       6
#     2   2   2   2   2   2
#     4  10  24  43  69 100 137 181 227 280 343 409
#     4  11  28  45  71 106 139 181 231 285 348 406
#     4  11  24  42  71 103 134 185 229 274 345 414
#     4  12  24  48  68 101 143 176 226 290 338 409
#     4  11  24  47  73 102 139 184 231 284 346 412
#     4  11  24  44  69 100 140 176 231 285 340 404
#
# _framework density 24.347042999999999
#
# number of rings (size 3 to 8) (size 9 to 14) (size 15 to 20)
#    0.000    1.000    1.667    4.000    4.667    6.667 
#    0.000   11.667    0.000    0.000    0.000    0.000 
#    0.000    0.000    0.000    0.000    0.000    0.000 
#
# Total GULP energy -67017.210819 kJ/mol
# GULP energy per Si atom -5584.767568 kJ/mol
# Density = 2.429163 g / cm^3
# Si number density = 24.347043 Si / 1000 Ang^3
#
#
#
# Elastic Constant Matrix: (Units=GPa)
#
#
# Indices 1 2 3 4 5 6 
#
# 1 198.6335 22.3702 -78.5155 -6.0816 7.9626 -169.0125
# 2 22.3702 142.0805 164.7789 -16.5230 -71.2747 189.6932
# 3 -78.5155 164.7789 537.2457 -1.5658 -163.4668 522.8350
# 4 -6.0816 -16.5230 -1.5658 25.3372 -6.2537 15.4757
# 5 7.9626 -71.2747 -163.4668 -6.2537 106.3632 -205.8675
# 6 -169.0125 189.6932 522.8350 15.4757 -205.8675 788.3301
#
#
#
# Elastic Compliance Matrix: (Units=1/GPa)
#
#
# Indices 1 2 3 4 5 6 
#
# 1 0.009232 -0.005877 -0.000114 -0.003460 0.003716 0.004507
# 2 -0.005877 0.018485 -0.001388 0.013952 0.003473 -0.004154
# 3 -0.000114 -0.001388 0.006030 0.001936 0.002516 -0.003070
# 4 -0.003460 0.013952 0.001936 0.052346 0.006579 -0.004693
# 5 0.003716 0.003473 0.002516 0.006579 0.024566 0.004578
# 6 0.004507 -0.004154 -0.003070 -0.004693 0.004578 0.006559
#
#
# Mechanical properties :
#
#
# Convention : Reuss Voigt Hill
#
# Bulk Modulus (GPa) = 52.66939 121.69188 87.18063
# Shear Modulus (GPa) = 36.15204 235.29451 135.72327
#
# Velocity S-wave (km/s) = 3.85757 9.84133 7.47438
# Velocity P-wave (km/s) = 6.44367 13.38754 10.50588
#
# Compressibility (1/GPa) = 0.01898636
#
# Stress axis : x y z
#
# Youngs Moduli (GPa) = 108.32463 54.09854 165.84517
#
# Poissons Ratio (x) = 0.31795 0.01897
# Poissons Ratio (y) = 0.63665 0.23023
# Poissons Ratio (z) = 0.01239 0.07510
#
# Static dielectric constant tensor:
#      x y z
#    x 1.977270 -0.005190 0.052150 
#    y -0.005190 1.926440 -0.015860 
#    z 0.052150 -0.015860 2.067640 
# 
# From -- ./inp_files/44358.got.cif
#   From: 2010.05.17/outbox.cif.g08.bks.cpg/sg2_23_cif.got.tgz:44358.got - 2010.06.03 11:33:40.
