data_PCOD9046279
_publ_section_title
;
Structure prediction by ZEFSAII (Michael W. Deem and Ramdas Pophale) SiO2 
 PCOD9046279
Probable space group: P -1
;
_chemical_formula_sum "Si O2"
_cell_formula_units_Z 16
_cell_length_a 8.310416
_cell_length_b 8.969928
_cell_length_c 11.910189
_cell_angle_alpha 71.690151
_cell_angle_beta 121.215932
_cell_angle_gamma 112.503926
_cell_volume 693.899634
_symmetry_space_group_name_H-M "P -1"
_symmetry_group_IT_number 2
_symmetry_cell_setting 'triclinic'
loop_
_space_group_symop_operation_xyz
x,y,z
-x,-y,-z
loop_
_atom_site_type_symbol
_atom_site_label
_atom_site_fract_x
_atom_site_fract_y
_atom_site_fract_z
Si Si1 0.813584 0.728063 0.154794
Si Si2 0.450069 0.090017 0.850838
Si Si3 0.372642 0.309446 0.139477
Si Si4 0.331796 0.657035 0.442645
Si Si5 0.188542 0.576032 0.651690
Si Si6 0.761879 0.078310 0.788221
Si Si7 0.742961 0.632903 0.682869
Si Si8 0.081951 0.877518 0.633482
O O1 0.663249 0.782948 0.171068
O O2 0.898954 0.597638 0.281771
O O3 0.002717 0.867165 0.147216
O O4 0.699576 0.660708 0.015999
O O5 0.649220 0.138508 0.837692
O O6 0.287075 0.971643 0.740809
O O7 0.500000 0.000000 0.000000
O O8 0.603532 0.367983 0.222994
O O9 0.288272 0.394222 0.189958
O O10 0.309194 0.115994 0.187212
O O11 0.227560 0.566488 0.537012
O O12 0.304396 0.833459 0.363528
O O13 0.559811 0.680144 0.547615
O O14 0.261839 0.534365 0.342545
O O15 0.097762 0.725276 0.600701
O O16 0.930129 0.784615 0.694681
O O17 0.000000 0.000000 0.500000
#
# Coordination Sequence:
#
# PCOD9046279 Si02
#       8
#     2   2   2   2   2   2   2   2
#     4  12  27  47  75 106 148 199 249 297 373 451
#     4  12  27  48  74 109 152 195 250 308 373 443
#     4  11  24  47  70 103 144 191 246 304 366 435
#     4  10  25  46  68 107 143 193 239 306 376 442
#     4  11  26  47  73 103 152 191 239 311 376 438
#     4  12  25  45  73 105 144 192 247 304 370 435
#     4  10  24  42  70 101 145 186 244 299 372 437
#     4  12  26  44  71 112 143 192 250 310 366 446
#
# _framework density 23.058088000000001
#
# number of rings (size 3 to 8) (size 9 to 14) (size 15 to 20)
#    0.000    0.750    2.500    3.000   12.250    2.000 
#    0.000    1.250    0.000    0.000    0.000    0.000 
#    0.000    0.000    0.000    0.000    0.000    0.000 
#
# Total GULP energy -89510.784245 kJ/mol
# GULP energy per Si atom -5594.424015 kJ/mol
# Density = 2.300561 g / cm^3
# Si number density = 23.058088 Si / 1000 Ang^3
#
#
#
# Elastic Constant Matrix: (Units=GPa)
#
#
# Indices 1 2 3 4 5 6 
#
# 1 105.7124 22.7187 5.5012 5.6724 -16.1210 -11.9893
# 2 22.7187 80.1660 45.3625 -11.6374 -10.7562 -4.5700
# 3 5.5012 45.3625 87.2513 -5.1185 1.3577 -11.3143
# 4 5.6724 -11.6374 -5.1185 35.0205 0.8970 -2.1646
# 5 -16.1210 -10.7562 1.3577 0.8970 28.8795 -0.3885
# 6 -11.9893 -4.5700 -11.3143 -2.1646 -0.3885 43.6432
#
#
#
# Elastic Compliance Matrix: (Units=1/GPa)
#
#
# Indices 1 2 3 4 5 6 
#
# 1 0.011416 -0.003473 0.001232 -0.002769 0.005147 0.003000
# 2 -0.003473 0.021098 -0.010659 0.005784 0.006225 -0.001166
# 3 0.001232 -0.010659 0.017411 -0.000868 -0.004024 0.003657
# 4 -0.002769 0.005784 -0.000868 0.030877 -0.000294 0.001149
# 5 0.005147 0.006225 -0.004024 -0.000294 0.040035 0.001364
# 6 0.003000 -0.001166 0.003657 0.001149 0.001364 0.024633
#
#
# Mechanical properties :
#
#
# Convention : Reuss Voigt Hill
#
# Bulk Modulus (GPa) = 41.44868 46.69938 44.07403
# Shear Modulus (GPa) = 27.88462 34.81180 31.34821
#
# Velocity S-wave (km/s) = 3.48130 3.88976 3.69118
# Velocity P-wave (km/s) = 5.84586 6.36164 6.10920
#
# Compressibility (1/GPa) = 0.02412622
#
# Stress axis : x y z
#
# Youngs Moduli (GPa) = 87.59871 47.39769 57.43498
#
# Poissons Ratio (x) = 0.16460 -0.07077
# Poissons Ratio (y) = 0.30421 0.61219
# Poissons Ratio (z) = -0.10794 0.50520
#
# Static dielectric constant tensor:
#      x y z
#    x 2.005500 0.037840 0.016560 
#    y 0.037840 1.882350 0.024660 
#    z 0.016560 0.024660 1.802820 
# 
# From -- ./inp_files/381798.got.cif
#   From: 2010.05.17/outbox.cif.g08.bks.cpg/sg2_191_cif.got.tgz:381798.got - 2010.06.03 11:33:40.
