data_PCOD9046427
_publ_section_title
;
Structure prediction by ZEFSAII (Michael W. Deem and Ramdas Pophale) SiO2 
 PCOD9046427
Probable space group: P -1
;
_chemical_formula_sum "Si O2"
_cell_formula_units_Z 16
_cell_length_a 21.662715
_cell_length_b 22.432176
_cell_length_c 9.843435
_cell_angle_alpha 146.752627
_cell_angle_beta 145.588911
_cell_angle_gamma 17.880534
_cell_volume 793.078668
_symmetry_space_group_name_H-M "P -1"
_symmetry_group_IT_number 2
_symmetry_cell_setting 'triclinic'
loop_
_space_group_symop_operation_xyz
x,y,z
-x,-y,-z
loop_
_atom_site_type_symbol
_atom_site_label
_atom_site_fract_x
_atom_site_fract_y
_atom_site_fract_z
Si Si1 0.420208 0.597826 0.191435
Si Si2 0.188590 0.669063 0.478309
Si Si3 0.940527 0.699578 0.933829
Si Si4 0.438056 0.951119 0.886827
Si Si5 0.672134 0.221105 0.057500
Si Si6 0.813638 0.031199 0.656963
Si Si7 0.294027 0.250684 0.765528
Si Si8 0.341556 0.995228 0.240135
O O1 0.583771 0.539672 0.450590
O O2 0.223662 0.834246 0.254558
O O3 0.500000 0.500000 0.000000
O O4 0.451151 0.460642 0.071509
O O5 0.209163 0.774517 0.658985
O O6 0.035172 0.800748 0.579548
O O7 0.098239 0.659959 0.192757
O O8 0.839311 0.817667 0.833389
O O9 0.069632 0.480803 0.760202
O O10 0.752625 0.855904 0.995558
O O11 0.355028 0.918151 0.588880
O O12 0.500000 0.000000 0.000000
O O13 0.625121 0.771337 0.986768
O O14 0.779916 0.096926 0.874680
O O15 0.665264 0.122680 0.950698
O O16 0.321321 0.097384 0.521769
O O17 0.447878 0.161385 0.756658
#
# Coordination Sequence:
#
# PCOD9046427 Si02
#       8
#     2   2   2   2   2   2   2   2
#     4   8  17  30  50  75 106 140 175 212 266 320
#     4   9  19  33  54  80 110 142 176 222 275 324
#     4  10  21  38  58  79 111 148 181 221 280 325
#     4  10  21  35  59  86 110 142 179 228 275 327
#     4   9  19  34  53  81 111 136 189 221 261 328
#     4  10  17  34  56  77 116 145 171 222 285 323
#     4  10  21  39  60  74 113 144 184 228 279 324
#     4  10  21  39  55  80 106 148 187 233 269 315
#
# _framework density 20.174543
#
# number of rings (size 3 to 8) (size 9 to 14) (size 15 to 20)
#    0.750    1.750    0.000    2.250    0.000    1.000 
#    2.250    1.875    0.000    0.000    0.000    0.000 
#    0.000    0.000    0.000    0.000    0.000    0.000 
#
# Total GULP energy -89122.740896 kJ/mol
# GULP energy per Si atom -5570.171306 kJ/mol
# Density = 2.012863 g / cm^3
# Si number density = 20.174543 Si / 1000 Ang^3
#
#
#
# Elastic Constant Matrix: (Units=GPa)
#
#
# Indices 1 2 3 4 5 6 
#
# 1 52.3373 12.7612 12.9619 2.0181 23.8875 22.0251
# 2 12.7612 65.3925 -12.1061 -3.1587 -3.4968 13.9986
# 3 12.9619 -12.1061 67.4957 -5.1227 12.5741 5.5761
# 4 2.0181 -3.1587 -5.1227 25.1028 5.6667 5.0270
# 5 23.8875 -3.4968 12.5741 5.6667 24.8708 5.7434
# 6 22.0251 13.9986 5.5761 5.0270 5.7434 16.0808
#
#
#
# Elastic Compliance Matrix: (Units=1/GPa)
#
#
# Indices 1 2 3 4 5 6 
#
# 1 0.130712 0.011197 0.014330 0.051752 -0.103026 -0.173128
# 2 0.011197 0.023520 0.007254 0.012725 -0.004626 -0.040650
# 3 0.014330 0.007254 0.020610 0.014488 -0.019376 -0.030698
# 4 0.051752 0.012725 0.014488 0.069752 -0.050148 -0.090877
# 5 -0.103026 -0.004626 -0.019376 -0.050148 0.131925 0.120415
# 6 -0.173128 -0.040650 -0.030698 -0.090877 0.120415 0.330744
#
#
# Mechanical properties :
#
#
# Convention : Reuss Voigt Hill
#
# Bulk Modulus (GPa) = 4.15967 23.60662 13.88314
# Shear Modulus (GPa) = 6.92678 24.65145 15.78912
#
# Velocity S-wave (km/s) = 1.85496 3.49937 2.80058
# Velocity P-wave (km/s) = 2.57957 5.29661 4.16583
#
# Compressibility (1/GPa) = 0.24040365
#
# Stress axis : x y z
#
# Youngs Moduli (GPa) = 7.65039 42.51783 48.51981
#
# Poissons Ratio (x) = -0.47606 -0.69529
# Poissons Ratio (y) = -0.08566 -0.35197
# Poissons Ratio (z) = -0.10963 -0.30843
#
# Static dielectric constant tensor:
#      x y z
#    x 1.679040 0.011070 0.008610 
#    y 0.011070 1.733390 -0.003750 
#    z 0.008610 -0.003750 1.750450 
# 
# From -- ./inp_files/349733.got.cif
#   From: 2010.05.17/outbox.cif.g08.bks.cpg/sg2_175_cif.got.tgz:349733.got - 2010.06.03 11:33:40.
