data_PCOD9046129
_publ_section_title
;
Structure prediction by ZEFSAII (Michael W. Deem and Ramdas Pophale) SiO2 
 PCOD9046129
Probable space group: P -1
;
_chemical_formula_sum "Si O2"
_cell_formula_units_Z 16
_cell_length_a 5.244556
_cell_length_b 25.218643
_cell_length_c 6.647681
_cell_angle_alpha 89.386766
_cell_angle_beta 131.500122
_cell_angle_gamma 87.906290
_cell_volume 657.344378
_symmetry_space_group_name_H-M "P -1"
_symmetry_group_IT_number 2
_symmetry_cell_setting 'triclinic'
loop_
_space_group_symop_operation_xyz
x,y,z
-x,-y,-z
loop_
_atom_site_type_symbol
_atom_site_label
_atom_site_fract_x
_atom_site_fract_y
_atom_site_fract_z
Si Si1 0.243069 0.462006 0.762849
Si Si2 0.733874 0.962430 0.765439
Si Si3 0.881954 0.695555 0.225573
Si Si4 0.924841 0.785411 0.934727
Si Si5 0.863558 0.315911 0.198413
Si Si6 0.366682 0.127447 0.997915
Si Si7 0.814118 0.393098 0.841477
Si Si8 0.878194 0.858946 0.578739
O O1 0.464632 0.421658 0.735957
O O2 0.000000 0.500000 0.500000
O O3 0.027799 0.433296 0.822425
O O4 0.500000 0.500000 0.000000
O O5 0.581073 0.930701 0.874923
O O6 0.858624 0.914153 0.687179
O O7 0.500000 0.000000 0.500000
O O8 0.000000 0.000000 0.000000
O O9 0.940102 0.696877 0.493146
O O10 0.198106 0.658577 0.306549
O O11 0.837225 0.751654 0.087993
O O12 0.536140 0.669195 0.980400
O O13 0.957784 0.841894 0.062679
O O14 0.135556 0.737881 0.932255
O O15 0.725591 0.812000 0.633952
O O16 0.988886 0.364994 0.132116
O O17 0.715503 0.156007 0.227160
O O18 0.293725 0.130747 0.725039
#
# Coordination Sequence:
#
# PCOD9046129 Si02
#       8
#     2   2   2   2   2   2   2   2
#     4  12  28  48  76 106 146 192 240 298 356 420
#     4  11  24  41  62  92 124 169 228 279 342 412
#     4  11  25  44  72 102 141 182 229 289 347 423
#     4  10  24  42  68 100 134 178 224 278 346 420
#     4  11  25  44  72 102 141 182 229 289 347 423
#     4  11  24  41  64  93 132 171 220 281 342 417
#     4  11  26  49  74 108 146 187 244 293 360 424
#     4  11  24  41  64  93 132 171 220 281 342 417
#
# _framework density 24.340361000000001
#
# number of rings (size 3 to 8) (size 9 to 14) (size 15 to 20)
#    0.000    1.000    1.250    3.750    1.750   14.000 
#    0.000    0.000    0.000    0.000    0.000    0.000 
#    0.000    0.000    0.000    0.000    0.000    0.000 
#
# Total GULP energy -89228.473368 kJ/mol
# GULP energy per Si atom -5576.779586 kJ/mol
# Density = 2.428496 g / cm^3
# Si number density = 24.340361 Si / 1000 Ang^3
#
#
#
# Elastic Constant Matrix: (Units=GPa)
#
#
# Indices 1 2 3 4 5 6 
#
# 1 113.7913 58.7671 82.2645 -32.4982 -25.7051 8.7469
# 2 58.7671 133.5996 53.7913 -49.6340 -16.7786 4.0351
# 3 82.2645 53.7913 203.6739 -44.3228 -27.5279 27.1444
# 4 -32.4982 -49.6340 -44.3228 44.9784 8.6061 -14.8849
# 5 -25.7051 -16.7786 -27.5279 8.6061 43.8357 -10.4292
# 6 8.7469 4.0351 27.1444 -14.8849 -10.4292 44.0556
#
#
#
# Elastic Compliance Matrix: (Units=1/GPa)
#
#
# Indices 1 2 3 4 5 6 
#
# 1 0.015467 -0.003447 -0.004320 0.002840 0.004966 0.002042
# 2 -0.003447 0.014572 0.000512 0.015255 0.001991 0.004660
# 3 -0.004320 0.000512 0.007922 0.004236 0.001249 -0.002344
# 4 0.002840 0.015255 0.004236 0.048832 0.003619 0.012784
# 5 0.004966 0.001991 0.001249 0.003619 0.027965 0.005905
# 6 0.002042 0.004660 -0.002344 0.012784 0.005905 0.029028
#
#
# Mechanical properties :
#
#
# Convention : Reuss Voigt Hill
#
# Bulk Modulus (GPa) = 42.64177 93.41227 68.02702
# Shear Modulus (GPa) = 30.09981 43.65674 36.87827
#
# Velocity S-wave (km/s) = 3.52038 4.23968 3.89666
# Velocity P-wave (km/s) = 5.83790 7.90110 6.94652
#
# Compressibility (1/GPa) = 0.02345118
#
# Stress axis : x y z
#
# Youngs Moduli (GPa) = 64.65305 68.62345 126.22573
#
# Poissons Ratio (x) = 0.23656 0.54525
# Poissons Ratio (y) = 0.22287 -0.06458
# Poissons Ratio (z) = 0.27928 -0.03511
#
# Static dielectric constant tensor:
#      x y z
#    x 2.165100 -0.018080 0.036640 
#    y -0.018080 1.965540 -0.013020 
#    z 0.036640 -0.013020 1.908650 
# 
# From -- ./inp_files/14581.got.cif
#   From: 2010.05.17/outbox.cif.g08.bks.cpg/sg2_8_cif.got.tgz:14581.got - 2010.06.03 11:33:40.
