data_PCOD9046594
_publ_section_title
;
Structure prediction by ZEFSAII (Michael W. Deem and Ramdas Pophale) SiO2 
 PCOD9046594
Probable space group: P -1
;
_chemical_formula_sum "Si O2"
_cell_formula_units_Z 16
_cell_length_a 18.040377
_cell_length_b 6.692886
_cell_length_c 18.305075
_cell_angle_alpha 88.675694
_cell_angle_beta 156.671928
_cell_angle_gamma 79.845027
_cell_volume 758.290741
_symmetry_space_group_name_H-M "P -1"
_symmetry_group_IT_number 2
_symmetry_cell_setting 'triclinic'
loop_
_space_group_symop_operation_xyz
x,y,z
-x,-y,-z
loop_
_atom_site_type_symbol
_atom_site_label
_atom_site_fract_x
_atom_site_fract_y
_atom_site_fract_z
Si Si1 0.008067 0.727240 0.846600
Si Si2 0.214052 0.513465 0.175404
Si Si3 0.093181 0.988345 0.790420
Si Si4 0.576334 0.702585 0.248778
Si Si5 0.103973 0.140926 0.523618
Si Si6 0.315236 0.650913 0.774017
Si Si7 0.687231 0.206763 0.623724
Si Si8 0.224964 0.532371 0.428554
O O1 0.074830 0.829666 0.838351
O O2 0.892888 0.591809 0.713601
O O3 0.199337 0.562827 0.075410
O O4 0.840531 0.944808 0.741933
O O5 0.435092 0.285399 0.400738
O O6 0.227998 0.715381 0.230309
O O7 0.000000 0.500000 0.000000
O O8 0.008700 0.936747 0.639594
O O9 0.343720 0.912222 0.014787
O O10 0.944946 0.251223 0.678476
O O11 0.615648 0.484030 0.238335
O O12 0.594708 0.643359 0.351266
O O13 0.764564 0.755276 0.397056
O O14 0.911864 0.312689 0.401319
O O15 0.267594 0.910278 0.717528
O O16 0.500000 0.500000 0.000000
O O17 0.695893 0.362878 0.564045
#
# Coordination Sequence:
#
# PCOD9046594 Si02
#       8
#     2   2   2   2   2   2   2   2
#     4  11  23  43  66  93 131 169 210 261 316 370
#     4  11  22  43  67  96 128 170 211 262 311 373
#     4  11  24  42  64  94 127 166 214 259 314 380
#     4  12  24  41  68  93 125 172 210 260 324 371
#     4  11  24  43  64  94 127 163 214 262 313 383
#     4  11  24  44  67  92 129 165 210 266 318 374
#     4  10  24  43  65  94 133 165 213 261 312 371
#     4  11  23  43  64  95 129 169 211 263 313 376
#
# _framework density 21.100086999999998
#
# number of rings (size 3 to 8) (size 9 to 14) (size 15 to 20)
#    0.000    1.000    5.000    1.500    0.000    4.000 
#    2.250    0.000    0.000    0.000    0.000    0.000 
#    0.000    0.000    0.000    0.000    0.000    0.000 
#
# Total GULP energy -89484.708734 kJ/mol
# GULP energy per Si atom -5592.794296 kJ/mol
# Density = 2.105206 g / cm^3
# Si number density = 21.100087 Si / 1000 Ang^3
#
#
#
# Elastic Constant Matrix: (Units=GPa)
#
#
# Indices 1 2 3 4 5 6 
#
# 1 47.9774 -6.5861 3.1678 5.7420 -13.6127 1.6578
# 2 -6.5861 41.2936 13.7066 11.1239 -5.6076 -3.0738
# 3 3.1678 13.7066 93.6749 7.1530 -12.1613 0.6515
# 4 5.7420 11.1239 7.1530 22.9595 0.9876 -3.6736
# 5 -13.6127 -5.6076 -12.1613 0.9876 42.0909 1.2077
# 6 1.6578 -3.0738 0.6515 -3.6736 1.2077 36.9812
#
#
#
# Elastic Compliance Matrix: (Units=1/GPa)
#
#
# Indices 1 2 3 4 5 6 
#
# 1 0.026259 0.008455 0.000053 -0.011418 0.009958 -0.001935
# 2 0.008455 0.031992 -0.002823 -0.016948 0.006566 0.000432
# 3 0.000053 -0.002823 0.011689 -0.002548 0.003101 -0.000797
# 4 -0.011418 -0.016948 -0.002548 0.056572 -0.008159 0.005034
# 5 0.009958 0.006566 0.003101 -0.008159 0.028990 -0.001712
# 6 -0.001935 0.000432 -0.000797 0.005034 -0.001712 0.027733
#
#
# Mechanical properties :
#
#
# Convention : Reuss Voigt Hill
#
# Bulk Modulus (GPa) = 12.29886 22.61362 17.45624
# Shear Modulus (GPa) = 25.12940 31.91681 28.52311
#
# Velocity S-wave (km/s) = 3.45478 3.89349 3.68067
# Velocity P-wave (km/s) = 4.66427 5.56353 5.13363
#
# Compressibility (1/GPa) = 0.08130834
#
# Stress axis : x y z
#
# Youngs Moduli (GPa) = 38.08229 31.25792 85.54863
#
# Poissons Ratio (x) = -0.26427 -0.00453
# Poissons Ratio (y) = -0.32197 0.24154
# Poissons Ratio (z) = -0.00202 0.08825
#
# Static dielectric constant tensor:
#      x y z
#    x 1.770230 0.005290 0.013360 
#    y 0.005290 1.713820 -0.011260 
#    z 0.013360 -0.011260 1.754980 
# 
# From -- ./inp_files/600799.got.cif
#   From: 2010.05.17/outbox.cif.g08.bks.cpg/sg2_301_cif.got.tgz:600799.got - 2010.06.03 11:33:40.
