data_PCOD9046653
_publ_section_title
;
Structure prediction by ZEFSAII (Michael W. Deem and Ramdas Pophale) SiO2 
 PCOD9046653
Probable space group: P -1
;
_chemical_formula_sum "Si O2"
_cell_formula_units_Z 16
_cell_length_a 5.456303
_cell_length_b 12.769042
_cell_length_c 14.305383
_cell_angle_alpha 65.590179
_cell_angle_beta 113.700677
_cell_angle_gamma 70.074995
_cell_volume 659.835807
_symmetry_space_group_name_H-M "P -1"
_symmetry_group_IT_number 2
_symmetry_cell_setting 'triclinic'
loop_
_space_group_symop_operation_xyz
x,y,z
-x,-y,-z
loop_
_atom_site_type_symbol
_atom_site_label
_atom_site_fract_x
_atom_site_fract_y
_atom_site_fract_z
Si Si1 0.268265 0.694836 0.787420
Si Si2 0.811331 0.729297 0.558269
Si Si3 0.222606 0.531794 0.373468
Si Si4 0.960237 0.266619 0.892296
Si Si5 0.633808 0.947672 0.286417
Si Si6 0.475182 0.181352 0.849341
Si Si7 0.135830 0.973952 0.425340
Si Si8 0.866033 0.708852 0.885465
O O1 0.637229 0.654351 0.863764
O O2 0.167582 0.667984 0.681837
O O3 0.143208 0.645426 0.869910
O O4 0.022887 0.869132 0.695245
O O5 0.769671 0.605369 0.589421
O O6 0.705364 0.826022 0.414139
O O7 0.529931 0.852747 0.539735
O O8 0.500000 0.500000 0.500000
O O9 0.260151 0.595609 0.260985
O O10 0.843915 0.663891 0.297950
O O11 0.790834 0.184699 0.900069
O O12 0.325957 0.179907 0.927638
O O13 0.974940 0.316783 0.978398
O O14 0.493833 0.932114 0.175398
O O15 0.997257 0.914330 0.353979
O O16 0.388326 0.113635 0.222621
O O17 0.000000 0.000000 0.500000
#
# Coordination Sequence:
#
# PCOD9046653 Si02
#       8
#     2   2   2   2   2   2   2   2
#     4  11  23  40  64  99 127 172 210 269 326 386
#     4  12  22  39  65  97 135 170 217 265 329 384
#     4  10  24  44  67  95 130 172 218 268 325 376
#     4  10  24  47  65  90 133 171 218 274 318 374
#     4  11  23  35  67  97 132 172 211 265 333 388
#     4  10  24  43  66  96 129 167 219 271 316 386
#     4  11  21  38  59  99 143 164 207 266 331 387
#     4  11  24  43  67  92 133 170 217 266 327 389
#
# _framework density 24.248455
#
# number of rings (size 3 to 8) (size 9 to 14) (size 15 to 20)
#    0.750    0.500    2.500    4.125    1.750    4.000 
#    0.000    1.250    0.000    0.000    0.000    0.000 
#    0.000    0.000    0.000    0.000    0.000    0.000 
#
# Total GULP energy -89469.557444 kJ/mol
# GULP energy per Si atom -5591.847340 kJ/mol
# Density = 2.419326 g / cm^3
# Si number density = 24.248455 Si / 1000 Ang^3
#
#
#
# Elastic Constant Matrix: (Units=GPa)
#
#
# Indices 1 2 3 4 5 6 
#
# 1 137.0441 39.8401 48.0560 5.3349 1.7685 33.0822
# 2 39.8401 84.0608 30.1927 2.8416 7.4951 25.7822
# 3 48.0560 30.1927 147.9888 14.1447 -1.3263 23.0092
# 4 5.3349 2.8416 14.1447 25.1304 5.2563 8.2917
# 5 1.7685 7.4951 -1.3263 5.2563 38.3759 5.2470
# 6 33.0822 25.7822 23.0092 8.2917 5.2470 43.4461
#
#
#
# Elastic Compliance Matrix: (Units=1/GPa)
#
#
# Indices 1 2 3 4 5 6 
#
# 1 0.009945 -0.002452 -0.001987 0.000920 0.000552 -0.005307
# 2 -0.002452 0.015884 -0.001630 0.002416 -0.002438 -0.006862
# 3 -0.001987 -0.001630 0.008335 -0.003936 0.001422 -0.001354
# 4 0.000920 0.002416 -0.003936 0.045391 -0.005771 -0.008016
# 5 0.000552 -0.002438 0.001422 -0.005771 0.027616 -0.001960
# 6 -0.005307 -0.006862 -0.001354 -0.008016 -0.001960 0.033614
#
#
# Mechanical properties :
#
#
# Convention : Reuss Voigt Hill
#
# Bulk Modulus (GPa) = 45.40287 67.25236 56.32761
# Shear Modulus (GPa) = 31.19815 38.12414 34.66115
#
# Velocity S-wave (km/s) = 3.59082 3.96944 3.78486
# Velocity P-wave (km/s) = 5.99639 6.98595 6.51000
#
# Compressibility (1/GPa) = 0.02202504
#
# Stress axis : x y z
#
# Youngs Moduli (GPa) = 100.55583 62.95501 119.98247
#
# Poissons Ratio (x) = 0.15437 0.23839
# Poissons Ratio (y) = 0.24657 0.19561
# Poissons Ratio (z) = 0.19979 0.10264
#
# Static dielectric constant tensor:
#      x y z
#    x 2.051170 -0.008180 -0.037840 
#    y -0.008180 1.915000 -0.029580 
#    z -0.037840 -0.029580 1.937920 
# 
# From -- ./inp_files/483888.got.cif
#   From: 2010.05.17/outbox.cif.g08.bks.cpg/sg2_242_cif.got.tgz:483888.got - 2010.06.03 11:33:40.
