data_PCOD9046434
_publ_section_title
;
Structure prediction by ZEFSAII (Michael W. Deem and Ramdas Pophale) SiO2 
 PCOD9046434
Probable space group: P -1
;
_chemical_formula_sum "Si O2"
_cell_formula_units_Z 14
_cell_length_a 12.877574
_cell_length_b 13.538459
_cell_length_c 7.204432
_cell_angle_alpha 41.246796
_cell_angle_beta 121.108453
_cell_angle_gamma 137.047029
_cell_volume 562.688059
_symmetry_space_group_name_H-M "P -1"
_symmetry_group_IT_number 2
_symmetry_cell_setting 'triclinic'
loop_
_space_group_symop_operation_xyz
x,y,z
-x,-y,-z
loop_
_atom_site_type_symbol
_atom_site_label
_atom_site_fract_x
_atom_site_fract_y
_atom_site_fract_z
Si Si1 0.966766 0.197299 0.612800
Si Si2 0.071636 0.839016 0.932303
Si Si3 0.816034 0.772925 0.509281
Si Si4 0.652903 0.800812 0.817002
Si Si5 0.359489 0.565979 0.671807
Si Si6 0.171148 0.615532 0.135534
Si Si7 0.364635 0.637705 0.982246
O O1 0.091743 0.179642 0.664711
O O2 0.021717 0.395737 0.293705
O O3 0.967307 0.212933 0.813362
O O4 0.807016 0.009336 0.662638
O O5 0.929437 0.799942 0.739336
O O6 0.201045 0.064169 0.718855
O O7 0.127141 0.732354 0.033808
O O8 0.674656 0.554607 0.695331
O O9 0.669457 0.633592 0.088826
O O10 0.545055 0.782537 0.909619
O O11 0.541326 0.728045 0.637710
O O12 0.281131 0.601808 0.392158
O O13 0.299144 0.581057 0.792927
O O14 0.275227 0.693819 0.936797
#
# Coordination Sequence:
#
# PCOD9046434 Si02
#       7
#     2   2   2   2   2   2   2
#     4  11  24  43  69 105 125 177 221 281 315 402
#     4  11  25  41  67 103 132 173 220 282 321 395
#     4  10  24  42  72  92 132 174 233 261 331 386
#     4   9  22  43  70  96 139 168 230 258 338 386
#     4   9  21  42  70  95 135 178 213 277 325 395
#     4  11  24  42  71  98 137 169 224 268 343 374
#     4   9  21  43  68  99 126 180 218 270 320 405
#
# _framework density 24.880569999999999
#
# number of rings (size 3 to 8) (size 9 to 14) (size 15 to 20)
#    0.857    1.143    0.000    1.714   10.000    4.000 
#    2.571    1.429    0.000    0.000    0.000    0.000 
#    0.000    0.000    0.000    0.000    0.000    0.000 
#
# Total GULP energy -78343.380388 kJ/mol
# GULP energy per Si atom -5595.955742 kJ/mol
# Density = 2.482394 g / cm^3
# Si number density = 24.880570 Si / 1000 Ang^3
#
#
#
# Elastic Constant Matrix: (Units=GPa)
#
#
# Indices 1 2 3 4 5 6 
#
# 1 135.5773 45.9700 51.4895 -11.3218 -14.4573 -30.5181
# 2 45.9700 125.1308 33.9320 -14.1667 -8.1665 -0.8853
# 3 51.4895 33.9320 54.3915 -8.6261 -4.4644 -4.8001
# 4 -11.3218 -14.1667 -8.6261 45.7541 -8.4338 -7.8368
# 5 -14.4573 -8.1665 -4.4644 -8.4338 51.4844 -3.2415
# 6 -30.5181 -0.8853 -4.8001 -7.8368 -3.2415 45.3100
#
#
#
# Elastic Compliance Matrix: (Units=1/GPa)
#
#
# Indices 1 2 3 4 5 6 
#
# 1 0.015427 -0.001736 -0.011719 0.003575 0.004258 0.010038
# 2 -0.001736 0.010080 -0.004360 0.001871 0.000974 -0.001041
# 3 -0.011719 -0.004360 0.031790 0.000699 -0.001400 -0.004590
# 4 0.003575 0.001871 0.000699 0.025840 0.006061 0.007421
# 5 0.004258 0.000974 -0.001400 0.006061 0.021983 0.005360
# 6 0.010038 -0.001041 -0.004590 0.007421 0.005360 0.029992
#
#
# Mechanical properties :
#
#
# Convention : Reuss Voigt Hill
#
# Bulk Modulus (GPa) = 46.15321 64.20919 55.18120
# Shear Modulus (GPa) = 28.09568 40.75692 34.42630
#
# Velocity S-wave (km/s) = 3.36403 4.05174 3.72380
# Velocity P-wave (km/s) = 5.80337 6.91027 6.38087
#
# Compressibility (1/GPa) = 0.02166697
#
# Stress axis : x y z
#
# Youngs Moduli (GPa) = 64.82008 99.20878 31.45684
#
# Poissons Ratio (x) = 0.17224 0.36863
# Poissons Ratio (y) = 0.11254 0.13715
# Poissons Ratio (z) = 0.75961 0.43255
#
# Static dielectric constant tensor:
#      x y z
#    x 1.961790 0.025090 -0.014100 
#    y 0.025090 2.018100 0.047960 
#    z -0.014100 0.047960 2.013350 
# 
# From -- ./inp_files/271595.got.cif
#   From: 2010.05.17/outbox.cif.g08.bks.cpg/sg2_136_cif.got.tgz:271595.got - 2010.06.03 11:33:40.
