data_PCOD9046936
_publ_section_title
;
Structure prediction by ZEFSAII (Michael W. Deem and Ramdas Pophale) SiO2 
 PCOD9046936
Probable space group: P -1
;
_chemical_formula_sum "Si O2"
_cell_formula_units_Z 16
_cell_length_a 9.908901
_cell_length_b 9.434827
_cell_length_c 15.665245
_cell_angle_alpha 66.877413
_cell_angle_beta 148.064452
_cell_angle_gamma 117.365735
_cell_volume 687.977202
_symmetry_space_group_name_H-M "P -1"
_symmetry_group_IT_number 2
_symmetry_cell_setting 'triclinic'
loop_
_space_group_symop_operation_xyz
x,y,z
-x,-y,-z
loop_
_atom_site_type_symbol
_atom_site_label
_atom_site_fract_x
_atom_site_fract_y
_atom_site_fract_z
Si Si1 0.633010 0.677385 0.433236
Si Si2 0.296939 0.958336 0.593587
Si Si3 0.059719 0.495727 0.229411
Si Si4 0.870832 0.183495 0.106065
Si Si5 0.220613 0.293546 0.868012
Si Si6 0.589690 0.067541 0.150865
Si Si7 0.868781 0.648257 0.384778
Si Si8 0.275020 0.012931 0.309472
O O1 0.322003 0.612853 0.302304
O O2 0.811697 0.587773 0.605848
O O3 0.687607 0.651463 0.369284
O O4 0.714391 0.860438 0.463904
O O5 0.267273 0.920472 0.686172
O O6 0.088447 0.818251 0.467216
O O7 0.586236 0.958676 0.714276
O O8 0.920527 0.364967 0.116411
O O9 0.845564 0.576454 0.135815
O O10 0.774259 0.080401 0.164683
O O11 0.144122 0.154118 0.229086
O O12 0.637452 0.099281 0.936352
O O13 0.254904 0.355530 0.774612
O O14 0.452708 0.212951 0.035976
O O15 0.956951 0.147406 0.769581
O O16 0.000000 0.500000 0.500000
O O17 0.500000 0.000000 0.500000
#
# Coordination Sequence:
#
# PCOD9046936 Si02
#       8
#     2   2   2   2   2   2   2   2
#     4  11  25  40  69 101 144 172 231 286 354 401
#     4  12  25  44  72 102 140 180 234 284 345 416
#     4  11  23  44  68 103 136 182 227 291 346 402
#     4  10  24  43  69  93 139 186 230 275 342 409
#     4  11  24  45  69  98 142 180 228 281 350 411
#     4  10  26  47  69  99 137 194 230 275 343 427
#     4  12  26  43  68 108 136 176 233 294 340 404
#     4  11  22  41  72 102 130 182 228 287 346 401
#
# _framework density 23.256585999999999
#
# number of rings (size 3 to 8) (size 9 to 14) (size 15 to 20)
#    0.000    1.000    3.750    1.875   10.500    2.500 
#    0.000    0.625    0.000    0.000    0.000    0.000 
#    0.000    0.000    0.000    0.000    0.000    0.000 
#
# Total GULP energy -89642.913860 kJ/mol
# GULP energy per Si atom -5602.682116 kJ/mol
# Density = 2.320365 g / cm^3
# Si number density = 23.256586 Si / 1000 Ang^3
#
#
#
# Elastic Constant Matrix: (Units=GPa)
#
#
# Indices 1 2 3 4 5 6 
#
# 1 144.8755 41.3201 9.4362 -7.7347 21.8768 -15.7701
# 2 41.3201 148.6993 33.3738 -4.7454 6.9701 -26.6026
# 3 9.4362 33.3738 43.9852 2.5642 12.2975 -6.2517
# 4 -7.7347 -4.7454 2.5642 25.8572 -2.6698 1.3987
# 5 21.8768 6.9701 12.2975 -2.6698 24.7219 -2.8059
# 6 -15.7701 -26.6026 -6.2517 1.3987 -2.8059 47.0074
#
#
#
# Elastic Compliance Matrix: (Units=1/GPa)
#
#
# Indices 1 2 3 4 5 6 
#
# 1 0.008833 -0.002281 0.002212 0.001100 -0.007989 0.001457
# 2 -0.002281 0.009594 -0.007375 0.001977 0.003631 0.003842
# 3 0.002212 -0.007375 0.032916 -0.005702 -0.016855 0.000110
# 4 0.001100 0.001977 -0.005702 0.040524 0.005666 -0.000138
# 5 -0.007989 0.003631 -0.016855 0.005666 0.055524 0.000279
# 6 0.001457 0.003842 0.000110 -0.000138 0.000279 0.023971
#
#
# Mechanical properties :
#
#
# Convention : Reuss Voigt Hill
#
# Bulk Modulus (GPa) = 27.42964 56.20226 41.81595
# Shear Modulus (GPa) = 25.20149 36.41263 30.80706
#
# Velocity S-wave (km/s) = 3.29542 3.96117 3.64354
# Velocity P-wave (km/s) = 5.12832 6.71862 5.97660
#
# Compressibility (1/GPa) = 0.03645691
#
# Stress axis : x y z
#
# Youngs Moduli (GPa) = 113.21650 104.23187 30.37998
#
# Poissons Ratio (x) = 0.23771 -0.06721
# Poissons Ratio (y) = 0.25820 0.22404
# Poissons Ratio (z) = -0.25045 0.76867
#
# Static dielectric constant tensor:
#      x y z
#    x 1.878500 -0.002140 0.010090 
#    y -0.002140 1.888410 0.009430 
#    z 0.010090 0.009430 1.877980 
# 
# From -- ./inp_files/494776.got.cif
#   From: 2010.05.17/outbox.cif.g08.bks.cpg/sg2_248_cif.got.tgz:494776.got - 2010.06.03 11:33:40.
