data_PCOD9046439
_publ_section_title
;
Structure prediction by ZEFSAII (Michael W. Deem and Ramdas Pophale) SiO2 
 PCOD9046439
Probable space group: P -1
;
_chemical_formula_sum "Si O2"
_cell_formula_units_Z 14
_cell_length_a 17.343769
_cell_length_b 9.104450
_cell_length_c 5.529150
_cell_angle_alpha 51.718152
_cell_angle_beta 122.899258
_cell_angle_gamma 118.624378
_cell_volume 561.813101
_symmetry_space_group_name_H-M "P -1"
_symmetry_group_IT_number 2
_symmetry_cell_setting 'triclinic'
loop_
_space_group_symop_operation_xyz
x,y,z
-x,-y,-z
loop_
_atom_site_type_symbol
_atom_site_label
_atom_site_fract_x
_atom_site_fract_y
_atom_site_fract_z
Si Si1 0.755044 0.624848 0.569943
Si Si2 0.363662 0.576481 0.059488
Si Si3 0.476235 0.257889 0.528676
Si Si4 0.241274 0.751981 0.309891
Si Si5 0.076593 0.047433 0.379502
Si Si6 0.946897 0.278528 0.664468
Si Si7 0.381311 0.130676 0.011455
O O1 0.725003 0.583013 0.838902
O O2 0.780275 0.435859 0.702128
O O3 0.836336 0.808798 0.506223
O O4 0.666392 0.685138 0.234438
O O5 0.440815 0.457708 0.232492
O O6 0.414518 0.691106 0.262979
O O7 0.320493 0.708967 0.675868
O O8 0.449315 0.147399 0.344628
O O9 0.427478 0.152577 0.798623
O O10 0.142449 0.754733 0.272159
O O11 0.296629 0.945411 0.080347
O O12 0.095094 0.849611 0.508100
O O13 0.000000 0.000000 0.500000
O O14 0.031400 0.175317 0.985339
O O15 0.000000 0.500000 0.500000
#
# Coordination Sequence:
#
# PCOD9046439 Si02
#       7
#     2   2   2   2   2   2   2
#     4  11  25  44  68 103 144 189 240 297 362 433
#     4  10  24  42  72  97 146 189 247 292 365 419
#     4  10  24  47  71 103 145 199 243 303 356 433
#     4  12  26  42  70 107 141 186 242 301 360 430
#     4  11  25  46  73 100 141 187 230 290 364 435
#     4  11  26  45  72 105 140 180 236 294 360 435
#     4  11  26  44  74 103 149 191 249 297 366 419
#
# _framework density 24.919321
#
# number of rings (size 3 to 8) (size 9 to 14) (size 15 to 20)
#    0.000    1.143    1.429    2.571    8.000    9.714 
#    0.000    0.000    0.000    0.000    0.000    0.000 
#    0.000    0.000    0.000    0.000    0.000    0.000 
#
# Total GULP energy -78299.026266 kJ/mol
# GULP energy per Si atom -5592.787590 kJ/mol
# Density = 2.486260 g / cm^3
# Si number density = 24.919321 Si / 1000 Ang^3
#
#
#
# Elastic Constant Matrix: (Units=GPa)
#
#
# Indices 1 2 3 4 5 6 
#
# 1 121.6901 46.0423 17.6895 -16.7346 -4.3516 3.3662
# 2 46.0423 141.2287 38.3492 -22.1356 -4.2572 2.7903
# 3 17.6895 38.3492 104.8866 -8.5864 -1.1219 6.3661
# 4 -16.7346 -22.1356 -8.5864 46.2220 6.2162 -0.9010
# 5 -4.3516 -4.2572 -1.1219 6.2162 34.9060 -12.2660
# 6 3.3662 2.7903 6.3661 -0.9010 -12.2660 49.4059
#
#
#
# Elastic Compliance Matrix: (Units=1/GPa)
#
#
# Indices 1 2 3 4 5 6 
#
# 1 0.009597 -0.002666 -0.000452 0.002057 0.000380 -0.000313
# 2 -0.002666 0.009128 -0.002656 0.002885 0.000223 0.000116
# 3 -0.000452 -0.002656 0.010706 0.000610 -0.000616 -0.001340
# 4 0.002057 0.002885 0.000610 0.024400 -0.004048 -0.000942
# 5 0.000380 0.000223 -0.000616 -0.004048 0.032224 0.007967
# 6 -0.000313 0.000116 -0.001340 -0.000942 0.007967 0.022389
#
#
# Mechanical properties :
#
#
# Convention : Reuss Voigt Hill
#
# Bulk Modulus (GPa) = 55.92227 63.55193 59.73710
# Shear Modulus (GPa) = 39.69711 43.82173 41.75942
#
# Velocity S-wave (km/s) = 3.99560 4.19805 4.09808
# Velocity P-wave (km/s) = 6.61638 7.00404 6.81297
#
# Compressibility (1/GPa) = 0.01788196
#
# Stress axis : x y z
#
# Youngs Moduli (GPa) = 104.19786 109.55677 93.40321
#
# Poissons Ratio (x) = 0.29207 0.04226
# Poissons Ratio (y) = 0.27778 0.24810
# Poissons Ratio (z) = 0.04714 0.29101
#
# Static dielectric constant tensor:
#      x y z
#    x 1.969040 -0.032530 0.036170 
#    y -0.032530 1.981820 0.064810 
#    z 0.036170 0.064810 2.122840 
# 
# From -- ./inp_files/91245.got.cif
#   From: 2010.05.17/outbox.cif.g08.bks.cpg/sg2_46_cif.got.tgz:91245.got - 2010.06.03 11:33:40.
