data_PCOD9046522
_publ_section_title
;
Structure prediction by ZEFSAII (Michael W. Deem and Ramdas Pophale) SiO2 
 PCOD9046522
Probable space group: P -1
;
_chemical_formula_sum "Si O2"
_cell_formula_units_Z 16
_cell_length_a 14.789001
_cell_length_b 14.346911
_cell_length_c 7.697867
_cell_angle_alpha 116.752175
_cell_angle_beta 90.481556
_cell_angle_gamma 37.490863
_cell_volume 680.816957
_symmetry_space_group_name_H-M "P -1"
_symmetry_group_IT_number 2
_symmetry_cell_setting 'triclinic'
loop_
_space_group_symop_operation_xyz
x,y,z
-x,-y,-z
loop_
_atom_site_type_symbol
_atom_site_label
_atom_site_fract_x
_atom_site_fract_y
_atom_site_fract_z
Si Si1 0.441240 0.221540 0.984655
Si Si2 0.181888 0.180182 0.169105
Si Si3 0.590203 0.513318 0.798764
Si Si4 0.677589 0.396775 0.117537
Si Si5 0.364508 0.038474 0.557078
Si Si6 0.349897 0.871169 0.654134
Si Si7 0.035590 0.527022 0.258282
Si Si8 0.916118 0.030388 0.352103
O O1 0.604885 0.997557 0.914407
O O2 0.554323 0.121550 0.722603
O O3 0.401516 0.378498 0.179455
O O4 0.241837 0.364470 0.073832
O O5 0.076986 0.368938 0.198538
O O6 0.046704 0.320388 0.454015
O O7 0.231401 0.017663 0.950588
O O8 0.393284 0.649112 0.891217
O O9 0.748799 0.281382 0.506839
O O10 0.632398 0.469177 0.972145
O O11 0.546875 0.605129 0.410400
O O12 0.907487 0.169171 0.941568
O O13 0.140649 0.291603 0.728320
O O14 0.500000 0.000000 0.500000
O O15 0.390319 0.947385 0.654722
O O16 0.196244 0.963505 0.611437
O O17 0.000000 0.000000 0.500000
#
# Coordination Sequence:
#
# PCOD9046522 Si02
#       8
#     2   2   2   2   2   2   2   2
#     4  11  22  40  66  90 122 170 213 255 313 376
#     4  10  24  43  61  88 127 172 215 255 313 379
#     4   9  18  34  58  91 119 158 202 251 311 370
#     4   9  18  35  57  89 128 154 193 259 315 364
#     4  11  25  39  62  99 127 156 207 272 317 373
#     4  11  22  38  62  94 125 163 208 258 321 368
#     4  10  24  44  64  87 127 171 215 257 313 376
#     4   9  20  33  58  91 127 160 200 252 316 374
#
# _framework density 23.501176000000001
#
# number of rings (size 3 to 8) (size 9 to 14) (size 15 to 20)
#    0.000    2.000    1.250    1.875    3.500    7.000 
#    0.000    2.500    0.000    4.500    0.000    0.000 
#    0.000    0.000    0.000    0.000    0.000    0.000 
#
# Total GULP energy -89285.734788 kJ/mol
# GULP energy per Si atom -5580.358424 kJ/mol
# Density = 2.344769 g / cm^3
# Si number density = 23.501176 Si / 1000 Ang^3
#
#
#
# Elastic Constant Matrix: (Units=GPa)
#
#
# Indices 1 2 3 4 5 6 
#
# 1 56.9884 5.5299 15.6753 18.9624 -10.0245 -10.1287
# 2 5.5299 43.0514 13.8560 12.9167 -9.6126 -4.9540
# 3 15.6753 13.8560 166.1787 16.9662 0.3776 -12.3020
# 4 18.9624 12.9167 16.9662 32.4868 -13.2543 0.0093
# 5 -10.0245 -9.6126 0.3776 -13.2543 35.7483 9.9394
# 6 -10.1287 -4.9540 -12.3020 0.0093 9.9394 23.8017
#
#
#
# Elastic Compliance Matrix: (Units=1/GPa)
#
#
# Indices 1 2 3 4 5 6 
#
# 1 0.024370 0.002630 -0.000036 -0.015893 -0.001565 0.011559
# 2 0.002630 0.027705 -0.001068 -0.010887 0.002715 0.005205
# 3 -0.000036 -0.001068 0.006936 -0.004559 -0.003385 0.004763
# 4 -0.015893 -0.010887 -0.004559 0.054112 0.017987 -0.018918
# 5 -0.001565 0.002715 -0.003385 0.017987 0.040147 -0.018622
# 6 0.011559 0.005205 0.004763 -0.018918 -0.018622 0.058261
#
#
# Mechanical properties :
#
#
# Convention : Reuss Voigt Hill
#
# Bulk Modulus (GPa) = 16.11234 37.37120 26.74177
# Shear Modulus (GPa) = 21.81831 33.81786 27.81809
#
# Velocity S-wave (km/s) = 3.05026 3.79751 3.44421
# Velocity P-wave (km/s) = 4.39048 5.92997 5.21732
#
# Compressibility (1/GPa) = 0.06206423
#
# Stress axis : x y z
#
# Youngs Moduli (GPa) = 41.03483 36.09412 144.18036
#
# Poissons Ratio (x) = -0.09495 0.00521
# Poissons Ratio (y) = -0.10794 0.15392
# Poissons Ratio (z) = 0.00148 0.03853
#
# Static dielectric constant tensor:
#      x y z
#    x 1.878030 -0.013170 0.035910 
#    y -0.013170 1.961480 -0.060960 
#    z 0.035910 -0.060960 1.939730 
# 
# From -- ./inp_files/313907.got.cif
#   From: 2010.05.17/outbox.cif.g08.bks.cpg/sg2_157_cif.got.tgz:313907.got - 2010.06.03 11:33:40.
