data_PCOD9046344
_publ_section_title
;
Structure prediction by ZEFSAII (Michael W. Deem and Ramdas Pophale) SiO2 
 PCOD9046344
Probable space group: P -1
;
_chemical_formula_sum "Si O2"
_cell_formula_units_Z 16
_cell_length_a 17.433201
_cell_length_b 9.245486
_cell_length_c 5.228616
_cell_angle_alpha 81.117673
_cell_angle_beta 101.411092
_cell_angle_gamma 60.996232
_cell_volume 690.992953
_symmetry_space_group_name_H-M "P -1"
_symmetry_group_IT_number 2
_symmetry_cell_setting 'triclinic'
loop_
_space_group_symop_operation_xyz
x,y,z
-x,-y,-z
loop_
_atom_site_type_symbol
_atom_site_label
_atom_site_fract_x
_atom_site_fract_y
_atom_site_fract_z
Si Si1 0.433259 0.240238 0.318089
Si Si2 0.450186 0.848184 0.060294
Si Si3 0.020584 0.727912 0.507939
Si Si4 0.281580 0.819431 0.481129
Si Si5 0.082821 0.379209 0.891500
Si Si6 0.367761 0.628800 0.082050
Si Si7 0.078677 0.963089 0.262287
Si Si8 0.295450 0.117432 0.226684
O O1 0.489608 0.200588 0.627760
O O2 0.393871 0.434586 0.147798
O O3 0.351399 0.206048 0.314450
O O4 0.500432 0.128455 0.157247
O O5 0.439508 0.685404 0.040430
O O6 0.349316 0.010026 0.033993
O O7 0.080519 0.526749 0.673449
O O8 0.083361 0.804093 0.459173
O O9 0.951042 0.731901 0.249078
O O10 0.957161 0.862873 0.647834
O O11 0.347321 0.681524 0.352157
O O12 0.181070 0.899405 0.267395
O O13 0.304180 0.969062 0.459216
O O14 0.289026 0.740395 0.786515
O O15 0.186586 0.256469 0.090466
O O16 0.000000 0.500000 0.000000
O O17 0.000000 0.000000 0.000000
#
# Coordination Sequence:
#
# PCOD9046344 Si02
#       8
#     2   2   2   2   2   2   2   2
#     4  12  25  46  74 107 143 187 244 304 363 431
#     4  11  24  47  71 106 144 189 240 300 367 436
#     4  10  24  42  71 100 136 192 236 301 362 434
#     4  11  26  44  69 105 145 184 248 287 367 437
#     4  11  24  48  68 107 147 187 239 301 368 430
#     4  11  25  45  73 104 139 190 233 305 361 434
#     4  11  24  42  71  97 144 190 245 298 366 425
#     4  11  26  44  72 103 143 190 240 296 363 435
#
# _framework density 23.155083000000001
#
# number of rings (size 3 to 8) (size 9 to 14) (size 15 to 20)
#    0.000    1.000    0.000    6.000    8.750    3.000 
#    9.000    0.000    0.000    0.000    0.000    0.000 
#    0.000    0.000    0.000    0.000    0.000    0.000 
#
# Total GULP energy -89450.719722 kJ/mol
# GULP energy per Si atom -5590.669983 kJ/mol
# Density = 2.310238 g / cm^3
# Si number density = 23.155083 Si / 1000 Ang^3
#
#
#
# Elastic Constant Matrix: (Units=GPa)
#
#
# Indices 1 2 3 4 5 6 
#
# 1 101.5019 43.7061 29.7050 -8.6529 23.5571 2.2454
# 2 43.7061 131.5878 40.4555 -6.4173 19.4107 19.3227
# 3 29.7050 40.4555 105.7312 4.4109 16.0652 -1.5934
# 4 -8.6529 -6.4173 4.4109 40.2942 7.5715 -5.5367
# 5 23.5571 19.4107 16.0652 7.5715 27.2632 -3.4533
# 6 2.2454 19.3227 -1.5934 -5.5367 -3.4533 20.8121
#
#
#
# Elastic Compliance Matrix: (Units=1/GPa)
#
#
# Indices 1 2 3 4 5 6 
#
# 1 0.014366 -0.002386 -0.001640 0.004978 -0.011129 0.000017
# 2 -0.002386 0.012199 -0.003229 0.001374 -0.006629 -0.012050
# 3 -0.001640 -0.003229 0.011615 -0.001235 -0.002362 0.003344
# 4 0.004978 0.001374 -0.001235 0.029044 -0.012136 0.003806
# 5 -0.011129 -0.006629 -0.002362 -0.012136 0.057485 0.013484
# 6 0.000017 -0.012050 0.003344 0.003806 0.013484 0.062741
#
#
# Mechanical properties :
#
#
# Convention : Reuss Voigt Hill
#
# Bulk Modulus (GPa) = 42.24582 62.95045 52.59813
# Shear Modulus (GPa) = 23.82667 32.67086 28.24877
#
# Velocity S-wave (km/s) = 3.21129 3.76035 3.49661
# Velocity P-wave (km/s) = 5.65987 6.78963 6.25033
#
# Compressibility (1/GPa) = 0.02367098
#
# Stress axis : x y z
#
# Youngs Moduli (GPa) = 69.60915 81.97426 86.09592
#
# Poissons Ratio (x) = 0.19555 0.14118
# Poissons Ratio (y) = 0.16606 0.27801
# Poissons Ratio (z) = 0.11414 0.26470
#
# Static dielectric constant tensor:
#      x y z
#    x 1.881860 -0.019150 0.006370 
#    y -0.019150 1.870460 -0.008550 
#    z 0.006370 -0.008550 1.835120 
# 
# From -- ./inp_files/116964.got.cif
#   From: 2010.05.17/outbox.cif.g08.bks.cpg/sg2_59_cif.got.tgz:116964.got - 2010.06.03 11:33:40.
