data_PCOD9046894
_publ_section_title
;
Structure prediction by ZEFSAII (Michael W. Deem and Ramdas Pophale) SiO2 
 PCOD9046894
Probable space group: P -1
;
_chemical_formula_sum "Si O2"
_cell_formula_units_Z 16
_cell_length_a 5.229230
_cell_length_b 26.191039
_cell_length_c 8.807881
_cell_angle_alpha 34.797926
_cell_angle_beta 90.899750
_cell_angle_gamma 95.786463
_cell_volume 680.120367
_symmetry_space_group_name_H-M "P -1"
_symmetry_group_IT_number 2
_symmetry_cell_setting 'triclinic'
loop_
_space_group_symop_operation_xyz
x,y,z
-x,-y,-z
loop_
_atom_site_type_symbol
_atom_site_label
_atom_site_fract_x
_atom_site_fract_y
_atom_site_fract_z
Si Si1 0.171213 0.429159 0.536773
Si Si2 0.176978 0.239742 0.869852
Si Si3 0.064983 0.454803 0.957461
Si Si4 0.455628 0.026141 0.760572
Si Si5 0.734520 0.267388 0.325990
Si Si6 0.997160 0.855888 0.579915
Si Si7 0.355073 0.826880 0.137040
Si Si8 0.584900 0.608427 0.079892
O O1 0.243159 0.347569 0.635810
O O2 0.371109 0.521796 0.319866
O O3 0.177916 0.392701 0.797233
O O4 0.932652 0.465463 0.364332
O O5 0.079202 0.192775 0.142514
O O6 0.424850 0.201495 0.900316
O O7 0.930948 0.217653 0.809956
O O8 0.859008 0.364792 0.152696
O O9 0.000000 0.500000 0.000000
O O10 0.323398 0.412106 0.038086
O O11 0.228603 0.087250 0.604263
O O12 0.725473 0.078543 0.569782
O O13 0.373128 0.934600 0.888100
O O14 0.500000 0.000000 0.000000
O O15 0.940245 0.214762 0.375622
O O16 0.603742 0.208913 0.605642
O O17 0.527752 0.298572 0.131188
#
# Coordination Sequence:
#
# PCOD9046894 Si02
#       8
#     2   2   2   2   2   2   2   2
#     4  10  24  43  69 101 147 196 244 298 363 434
#     4  12  29  47  76 112 154 193 246 303 374 436
#     4  11  24  41  67 103 149 193 244 305 366 427
#     4  12  27  51  81 111 149 189 249 305 381 435
#     4  11  27  43  75 108 144 195 257 298 366 444
#     4  12  28  49  81 110 147 197 246 308 364 454
#     4  12  29  48  76 111 149 195 241 312 374 448
#     4  10  24  44  70 102 145 196 249 303 359 438
#
# _framework density 23.525247
#
# number of rings (size 3 to 8) (size 9 to 14) (size 15 to 20)
#    0.000    0.750    1.250    3.750   14.000    5.000 
#    0.000    0.000    0.000    0.000    0.000    0.000 
#    0.000    0.000    0.000    0.000    0.000    0.000 
#
# Total GULP energy -89474.611205 kJ/mol
# GULP energy per Si atom -5592.163200 kJ/mol
# Density = 2.347170 g / cm^3
# Si number density = 23.525247 Si / 1000 Ang^3
#
#
#
# Elastic Constant Matrix: (Units=GPa)
#
#
# Indices 1 2 3 4 5 6 
#
# 1 98.3390 28.1486 41.4805 -7.5241 25.4175 -27.0058
# 2 28.1486 127.7245 44.9747 -30.9625 21.2963 -23.3049
# 3 41.4805 44.9747 120.7319 -20.0521 12.3132 -13.0584
# 4 -7.5241 -30.9625 -20.0521 40.3955 -12.0589 0.7133
# 5 25.4175 21.2963 12.3132 -12.0589 34.3217 -5.0563
# 6 -27.0058 -23.3049 -13.0584 0.7133 -5.0563 43.7252
#
#
#
# Elastic Compliance Matrix: (Units=1/GPa)
#
#
# Indices 1 2 3 4 5 6 
#
# 1 0.016640 0.000659 -0.004305 -0.001852 -0.010639 0.008143
# 2 0.000659 0.011817 -0.002549 0.006698 -0.003757 0.005401
# 3 -0.004305 -0.002549 0.011002 0.003281 0.001891 -0.000566
# 4 -0.001852 0.006698 0.003281 0.033617 0.008414 0.003831
# 5 -0.010639 -0.003757 0.001891 0.008414 0.041125 -0.003390
# 6 0.008143 0.005401 -0.000566 0.003831 -0.003390 0.030154
#
#
# Mechanical properties :
#
#
# Convention : Reuss Voigt Hill
#
# Bulk Modulus (GPa) = 36.93929 64.00032 50.46980
# Shear Modulus (GPa) = 30.16275 39.16792 34.66534
#
# Velocity S-wave (km/s) = 3.58459 4.08478 3.84283
# Velocity P-wave (km/s) = 5.73310 7.03643 6.41793
#
# Compressibility (1/GPa) = 0.02707145
#
# Stress axis : x y z
#
# Youngs Moduli (GPa) = 60.09485 84.62243 90.89310
#
# Poissons Ratio (x) = -0.05579 0.39125
# Poissons Ratio (y) = -0.03962 0.23167
# Poissons Ratio (z) = 0.25868 0.21568
#
# Static dielectric constant tensor:
#      x y z
#    x 1.991700 0.045660 0.030510 
#    y 0.045660 1.887030 0.029510 
#    z 0.030510 0.029510 1.916570 
# 
# From -- ./inp_files/142912.got.cif
#   From: 2010.05.17/outbox.cif.g08.bks.cpg/sg2_72_cif.got.tgz:142912.got - 2010.06.03 11:33:40.
