data_PCOD9046219
_publ_section_title
;
Structure prediction by ZEFSAII (Michael W. Deem and Ramdas Pophale) SiO2 
 PCOD9046219
Probable space group: P -1
;
_chemical_formula_sum "Si O2"
_cell_formula_units_Z 16
_cell_length_a 18.540176
_cell_length_b 19.566407
_cell_length_c 5.075886
_cell_angle_alpha 110.998372
_cell_angle_beta 78.695237
_cell_angle_gamma 157.213259
_cell_volume 618.136233
_symmetry_space_group_name_H-M "P -1"
_symmetry_group_IT_number 2
_symmetry_cell_setting 'triclinic'
loop_
_space_group_symop_operation_xyz
x,y,z
-x,-y,-z
loop_
_atom_site_type_symbol
_atom_site_label
_atom_site_fract_x
_atom_site_fract_y
_atom_site_fract_z
Si Si1 0.097400 0.715169 0.695583
Si Si2 0.051460 0.124296 0.837725
Si Si3 0.946758 0.773996 0.522891
Si Si4 0.159555 0.625324 0.292847
Si Si5 0.473199 0.682861 0.875790
Si Si6 0.340215 0.297572 0.201911
Si Si7 0.270123 0.002179 0.265435
Si Si8 0.546987 0.911318 0.379863
O O1 0.178357 0.704926 0.614809
O O2 0.894793 0.500633 0.690177
O O3 0.227863 0.854386 0.531116
O O4 0.116872 0.814329 0.940819
O O5 0.076649 0.182878 0.615821
O O6 0.231119 0.238183 0.958896
O O7 0.840591 0.889448 0.724798
O O8 0.047896 0.186781 0.139284
O O9 0.758976 0.546402 0.327618
O O10 0.147224 0.920832 0.483470
O O11 0.378042 0.810664 0.275316
O O12 0.000000 0.500000 0.000000
O O13 0.557733 0.684643 0.933531
O O14 0.606254 0.819152 0.708707
O O15 0.495571 0.782289 0.134963
O O16 0.500000 0.500000 0.500000
O O17 0.426855 0.080859 0.319188
#
# Coordination Sequence:
#
# PCOD9046219 Si02
#       8
#     2   2   2   2   2   2   2   2
#     4  10  24  42  69 101 138 184 231 298 356 438
#     4  11  27  48  76 108 151 199 254 322 386 446
#     4  12  26  49  75 107 151 197 253 315 376 451
#     4  11  24  44  69 104 140 184 238 293 368 441
#     4  11  25  45  70 106 141 198 240 307 373 448
#     4  11  23  49  72 112 146 200 255 319 379 455
#     4  11  25  45  70 102 147 188 247 303 367 449
#     4  11  25  43  69 102 140 188 238 297 369 439
#
# _framework density 25.884260999999999
#
# number of rings (size 3 to 8) (size 9 to 14) (size 15 to 20)
#    0.000    1.000    2.500    2.625    3.500    8.500 
#    4.500    0.000    0.000    0.000    0.000    0.000 
#    0.000    0.000    0.000    0.000    0.000    0.000 
#
# Total GULP energy -89175.995141 kJ/mol
# GULP energy per Si atom -5573.499696 kJ/mol
# Density = 2.582535 g / cm^3
# Si number density = 25.884261 Si / 1000 Ang^3
#
#
#
# Elastic Constant Matrix: (Units=GPa)
#
#
# Indices 1 2 3 4 5 6 
#
# 1 103.9200 28.8468 19.1019 1.6679 9.0849 1.6529
# 2 28.8468 87.8566 26.1930 31.9121 -5.4132 -9.7015
# 3 19.1019 26.1930 39.4758 8.6605 -15.2276 -0.1006
# 4 1.6679 31.9121 8.6605 36.4403 4.9618 -14.8660
# 5 9.0849 -5.4132 -15.2276 4.9618 37.2888 4.1586
# 6 1.6529 -9.7015 -0.1006 -14.8660 4.1586 50.6521
#
#
#
# Elastic Compliance Matrix: (Units=1/GPa)
#
#
# Indices 1 2 3 4 5 6 
#
# 1 0.012995 -0.004942 -0.007753 0.007268 -0.008175 0.001418
# 2 -0.004942 0.021693 -0.006237 -0.018500 0.004434 -0.001490
# 3 -0.007753 -0.006237 0.043152 -0.009380 0.020443 -0.005287
# 4 0.007268 -0.018500 -0.009380 0.053219 -0.016841 0.013203
# 5 -0.008175 0.004434 0.020443 -0.016841 0.040839 -0.007139
# 6 0.001418 -0.001490 -0.005287 0.013203 -0.007139 0.023861
#
#
# Mechanical properties :
#
#
# Convention : Reuss Voigt Hill
#
# Bulk Modulus (GPa) = 25.01515 42.17063 33.59289
# Shear Modulus (GPa) = 20.24707 35.35028 27.79867
#
# Velocity S-wave (km/s) = 2.79985 3.69955 3.28069
# Velocity P-wave (km/s) = 4.48747 5.88016 5.23038
#
# Compressibility (1/GPa) = 0.03997578
#
# Stress axis : x y z
#
# Youngs Moduli (GPa) = 76.95074 46.09813 23.17389
#
# Poissons Ratio (x) = 0.22783 0.17967
# Poissons Ratio (y) = 0.38031 0.14453
# Poissons Ratio (z) = 0.59662 0.28750
#
# Static dielectric constant tensor:
#      x y z
#    x 2.115120 -0.001560 0.109600 
#    y -0.001560 2.110690 -0.030630 
#    z 0.109600 -0.030630 2.227450 
# 
# From -- ./inp_files/120443.got.cif
#   From: 2010.05.17/outbox.cif.g08.bks.cpg/sg2_61_cif.got.tgz:120443.got - 2010.06.03 11:33:40.
