data_PCOD9046577
_publ_section_title
;
Structure prediction by ZEFSAII (Michael W. Deem and Ramdas Pophale) SiO2 
 PCOD9046577
Probable space group: P -1
;
_chemical_formula_sum "Si O2"
_cell_formula_units_Z 15
_cell_length_a 9.204890
_cell_length_b 20.653289
_cell_length_c 16.667172
_cell_angle_alpha 19.400709
_cell_angle_beta 33.308217
_cell_angle_gamma 36.789646
_cell_volume 576.615403
_symmetry_space_group_name_H-M "P -1"
_symmetry_group_IT_number 2
_symmetry_cell_setting 'triclinic'
loop_
_space_group_symop_operation_xyz
x,y,z
-x,-y,-z
loop_
_atom_site_type_symbol
_atom_site_label
_atom_site_fract_x
_atom_site_fract_y
_atom_site_fract_z
Si Si1 0.712736 0.295668 0.511355
Si Si2 0.750467 0.398657 0.198861
Si Si3 0.785470 0.080022 0.072454
Si Si4 0.034289 0.080420 0.214669
Si Si5 0.000000 0.000000 0.500000
Si Si6 0.502610 0.701192 0.183506
Si Si7 0.050883 0.297523 0.485781
Si Si8 0.246744 0.648148 0.088369
O O1 0.626784 0.316206 0.433918
O O2 0.517435 0.469873 0.433195
O O3 0.997012 0.353593 0.352260
O O4 0.774118 0.063311 0.760488
O O5 0.540255 0.558931 0.073010
O O6 0.840315 0.218309 0.312131
O O7 0.000000 0.500000 0.000000
O O8 0.532673 0.170693 0.032141
O O9 0.864072 0.254780 0.890470
O O10 0.754937 0.890775 0.363113
O O11 0.000000 0.000000 0.000000
O O12 0.955116 0.964953 0.464641
O O13 0.231141 0.237588 0.971411
O O14 0.797409 0.180376 0.156496
O O15 0.246382 0.757549 0.288651
O O16 0.111554 0.467574 0.320497
#
# Coordination Sequence:
#
# PCOD9046577 Si02
#       8
#     2   2   2   2   1   2   2   2
#     4  11  22  43  66  98 138 183 225 282 345 404
#     4  11  26  47  71  95 135 180 232 295 349 400
#     4  10  24  43  65 101 143 184 224 280 334 412
#     4  11  25  44  70 100 136 181 233 284 343 410
#     4  10  26  48  70 100 128 178 236 294 352 392
#     4  11  23  42  67  97 145 182 221 280 343 413
#     4  11  25  41  66 105 140 182 229 279 336 420
#     4  12  25  44  71 102 140 182 231 280 344 416
#
# _framework density 26.013874000000001
#
# number of rings (size 3 to 8) (size 9 to 14) (size 15 to 20)
#    0.000    1.067    4.000    1.200    3.733    5.333 
#    0.000    1.333    0.000    0.000    0.000    0.000 
#    0.000    0.000    0.000    0.000    0.000    0.000 
#
# Total GULP energy -83523.200211 kJ/mol
# GULP energy per Si atom -5568.213347 kJ/mol
# Density = 2.595467 g / cm^3
# Si number density = 26.013874 Si / 1000 Ang^3
#
#
#
# Elastic Constant Matrix: (Units=GPa)
#
#
# Indices 1 2 3 4 5 6 
#
# 1 165.6729 70.0370 39.8599 -26.7068 21.7571 -15.6658
# 2 70.0370 116.1081 39.1522 -31.3002 11.7263 5.2936
# 3 39.8599 39.1522 58.9001 -32.9436 16.0255 -6.3105
# 4 -26.7068 -31.3002 -32.9436 37.8733 -8.3755 0.3457
# 5 21.7571 11.7263 16.0255 -8.3755 51.3085 -28.5024
# 6 -15.6658 5.2936 -6.3105 0.3457 -28.5024 56.6406
#
#
#
# Elastic Compliance Matrix: (Units=1/GPa)
#
#
# Indices 1 2 3 4 5 6 
#
# 1 0.008865 -0.004491 -0.002461 0.000230 -0.000673 0.002258
# 2 -0.004491 0.014235 -0.003459 0.005296 -0.001479 -0.003734
# 3 -0.002461 -0.003459 0.037407 0.026878 -0.004770 0.001246
# 4 0.000230 0.005296 0.026878 0.054429 0.000585 0.002525
# 5 -0.000673 -0.001479 -0.004770 0.000585 0.029668 0.014347
# 6 0.002258 -0.003734 0.001246 0.002525 0.014347 0.025971
#
#
# Mechanical properties :
#
#
# Convention : Reuss Voigt Hill
#
# Bulk Modulus (GPa) = 25.19739 70.97548 48.08644
# Shear Modulus (GPa) = 24.43494 41.93994 33.18744
#
# Velocity S-wave (km/s) = 3.06813 4.01959 3.57565
# Velocity P-wave (km/s) = 4.71788 6.99184 5.96423
#
# Compressibility (1/GPa) = 0.03968665
#
# Stress axis : x y z
#
# Youngs Moduli (GPa) = 112.79768 70.24812 26.73327
#
# Poissons Ratio (x) = 0.31547 0.06578
# Poissons Ratio (y) = 0.50655 0.09247
# Poissons Ratio (z) = 0.27756 0.24298
#
# Static dielectric constant tensor:
#      x y z
#    x 2.741020 -0.028870 0.398250 
#    y -0.028870 2.102910 0.012060 
#    z 0.398250 0.012060 2.263920 
# 
# From -- ./inp_files/562476.got.cif
#   From: 2010.05.17/outbox.cif.g08.bks.cpg/sg2_282_cif.got.tgz:562476.got - 2010.06.03 11:33:40.
