data_PCOD9046760
_publ_section_title
;
Structure prediction by ZEFSAII (Michael W. Deem and Ramdas Pophale) SiO2 
 PCOD9046760
Probable space group: P -1
;
_chemical_formula_sum "Si O2"
_cell_formula_units_Z 14
_cell_length_a 17.555227
_cell_length_b 8.817032
_cell_length_c 9.985249
_cell_angle_alpha 118.646179
_cell_angle_beta 148.221598
_cell_angle_gamma 71.548115
_cell_volume 700.329116
_symmetry_space_group_name_H-M "P -1"
_symmetry_group_IT_number 2
_symmetry_cell_setting 'triclinic'
loop_
_space_group_symop_operation_xyz
x,y,z
-x,-y,-z
loop_
_atom_site_type_symbol
_atom_site_label
_atom_site_fract_x
_atom_site_fract_y
_atom_site_fract_z
Si Si1 0.386863 0.287162 0.186075
Si Si2 0.815118 0.778160 0.563277
Si Si3 0.296017 0.630707 0.790206
Si Si4 0.847239 0.049273 0.252751
Si Si5 0.153619 0.917110 0.049174
Si Si6 0.470083 0.191853 0.003891
Si Si7 0.645638 0.361214 0.800798
O O1 0.481790 0.308201 0.471953
O O2 0.299144 0.443817 0.095560
O O3 0.495412 0.299985 0.225778
O O4 0.283884 0.097370 0.947356
O O5 0.769755 0.569698 0.433560
O O6 0.699055 0.817674 0.296168
O O7 0.984385 0.828088 0.790289
O O8 0.801819 0.907988 0.721464
O O9 0.177615 0.758439 0.660325
O O10 0.429344 0.714126 0.926656
O O11 0.346132 0.633388 0.022894
O O12 0.834755 0.037180 0.069545
O O13 0.000000 0.000000 0.500000
O O14 0.259594 0.777618 0.169106
O O15 0.500000 0.000000 0.000000
#
# Coordination Sequence:
#
# PCOD9046760 Si02
#       7
#     2   2   2   2   2   2   2
#     4  11  23  41  68  97 137 163 222 270 325 383
#     4  11  24  44  65  97 130 174 219 269 330 387
#     4  11  25  41  73  94 130 176 219 266 329 386
#     4  11  25  42  66  98 129 177 214 272 323 389
#     4  10  25  43  67  91 134 176 217 268 328 391
#     4  12  23  41  67  98 132 169 214 277 318 393
#     4  10  24  43  67  99 126 178 215 271 325 385
#
# _framework density 19.990603
#
# number of rings (size 3 to 8) (size 9 to 14) (size 15 to 20)
#    0.000    1.143    2.857    2.143    4.000    3.429 
#    0.000    0.714    0.000    0.000    0.000    0.000 
#    0.000    0.000    0.000    0.000    0.000    0.000 
#
# Total GULP energy -78221.084936 kJ/mol
# GULP energy per Si atom -5587.220353 kJ/mol
# Density = 1.994510 g / cm^3
# Si number density = 19.990603 Si / 1000 Ang^3
#
#
#
# Elastic Constant Matrix: (Units=GPa)
#
#
# Indices 1 2 3 4 5 6 
#
# 1 96.7846 61.3156 35.4666 9.7592 -10.0015 -8.2989
# 2 61.3156 196.4453 72.2038 3.4326 -1.9985 -8.8683
# 3 35.4666 72.2038 82.7977 5.6331 -2.7693 -2.9951
# 4 9.7592 3.4326 5.6331 37.3663 -2.8420 -1.6863
# 5 -10.0015 -1.9985 -2.7693 -2.8420 15.1880 5.7576
# 6 -8.2989 -8.8683 -2.9951 -1.6863 5.7576 25.4858
#
#
#
# Elastic Compliance Matrix: (Units=1/GPa)
#
#
# Indices 1 2 3 4 5 6 
#
# 1 0.014665 -0.003325 -0.002909 -0.002438 0.007713 0.001373
# 2 -0.003325 0.008351 -0.005943 0.000873 -0.002690 0.001790
# 3 -0.002909 -0.005943 0.018594 -0.001484 0.000839 -0.001118
# 4 -0.002438 0.000873 -0.001484 0.027811 0.003278 0.000435
# 5 0.007713 -0.002690 0.000839 0.003278 0.077230 -0.015556
# 6 0.001373 0.001790 -0.001118 0.000435 -0.015556 0.043719
#
#
# Mechanical properties :
#
#
# Convention : Reuss Voigt Hill
#
# Bulk Modulus (GPa) = 57.94569 79.33327 68.63948
# Shear Modulus (GPa) = 22.67818 29.41079 26.04449
#
# Velocity S-wave (km/s) = 3.37180 3.83982 3.61340
# Velocity P-wave (km/s) = 6.64892 7.70911 7.19856
#
# Compressibility (1/GPa) = 0.01725754
#
# Stress axis : x y z
#
# Youngs Moduli (GPa) = 68.18823 119.74963 53.77987
#
# Poissons Ratio (x) = 0.39821 0.15642
# Poissons Ratio (y) = 0.22675 0.31959
# Poissons Ratio (z) = 0.19833 0.71161
#
# Static dielectric constant tensor:
#      x y z
#    x 1.716350 -0.017220 -0.008650 
#    y -0.017220 1.727800 0.000310 
#    z -0.008650 0.000310 1.693310 
# 
# From -- ./inp_files/185154.got.cif
#   From: 2010.05.17/outbox.cif.g08.bks.cpg/sg2_93_cif.got.tgz:185154.got - 2010.06.03 11:33:40.
