data_PCOD9046387
_publ_section_title
;
Structure prediction by ZEFSAII (Michael W. Deem and Ramdas Pophale) SiO2 
 PCOD9046387
Probable space group: P -1
;
_chemical_formula_sum "Si O2"
_cell_formula_units_Z 16
_cell_length_a 12.456897
_cell_length_b 9.686098
_cell_length_c 10.648486
_cell_angle_alpha 92.575670
_cell_angle_beta 144.501691
_cell_angle_gamma 106.059366
_cell_volume 627.336239
_symmetry_space_group_name_H-M "P -1"
_symmetry_group_IT_number 2
_symmetry_cell_setting 'triclinic'
loop_
_space_group_symop_operation_xyz
x,y,z
-x,-y,-z
loop_
_atom_site_type_symbol
_atom_site_label
_atom_site_fract_x
_atom_site_fract_y
_atom_site_fract_z
Si Si1 0.165236 0.519879 0.048081
Si Si2 0.898533 0.786431 0.727687
Si Si3 0.678603 0.719488 0.763311
Si Si4 0.363173 0.893925 0.247578
Si Si5 0.046405 0.087337 0.730212
Si Si6 0.513296 0.669024 0.992374
Si Si7 0.762327 0.420450 0.516698
Si Si8 0.424230 0.041573 0.802558
O O1 0.986179 0.428390 0.761960
O O2 0.000000 0.500000 0.000000
O O3 0.301879 0.439539 0.210449
O O4 0.319295 0.713309 0.186009
O O5 0.735636 0.780868 0.677488
O O6 0.822848 0.605572 0.603857
O O7 0.955864 0.897357 0.664114
O O8 0.121595 0.859059 0.021644
O O9 0.447364 0.683750 0.593799
O O10 0.868605 0.839014 0.047175
O O11 0.468133 0.979628 0.218962
O O12 0.500000 0.000000 0.500000
O O13 0.254176 0.196934 0.844675
O O14 0.835009 0.075464 0.471086
O O15 0.328406 0.631965 0.711899
O O16 0.500000 0.500000 0.000000
O O17 0.500640 0.767896 0.101230
O O18 0.500000 0.000000 0.000000
#
# Coordination Sequence:
#
# PCOD9046387 Si02
#       8
#     2   2   2   2   2   2   2   2
#     4  11  24  41  68 106 145 188 246 298 359 442
#     4  11  22  46  66 107 143 191 236 302 360 442
#     4  11  23  43  70 107 143 195 240 297 374 431
#     4  11  26  46  72 107 149 187 241 305 371 433
#     4  11  26  43  73  98 144 184 248 294 366 443
#     4  11  26  49  73 100 137 192 246 304 366 439
#     4  10  24  42  71  99 147 187 243 301 363 433
#     4  12  28  47  74 108 147 193 243 304 374 441
#
# _framework density 25.504663999999998
#
# number of rings (size 3 to 8) (size 9 to 14) (size 15 to 20)
#    0.000    1.000    2.500    3.375    7.000    4.000 
#    0.000    3.125    0.000    0.000    0.000    0.000 
#    0.000    0.000    0.000    0.000    0.000    0.000 
#
# Total GULP energy -89681.074891 kJ/mol
# GULP energy per Si atom -5605.067181 kJ/mol
# Density = 2.544661 g / cm^3
# Si number density = 25.504664 Si / 1000 Ang^3
#
#
#
# Elastic Constant Matrix: (Units=GPa)
#
#
# Indices 1 2 3 4 5 6 
#
# 1 101.8060 38.0210 49.0422 11.4068 -11.9330 12.6128
# 2 38.0210 130.1097 33.9241 12.1578 8.2366 4.0607
# 3 49.0422 33.9241 202.6995 -12.7601 3.3967 7.0240
# 4 11.4068 12.1578 -12.7601 33.1374 -11.6040 -3.4946
# 5 -11.9330 8.2366 3.3967 -11.6040 39.9062 0.5152
# 6 12.6128 4.0607 7.0240 -3.4946 0.5152 39.0497
#
#
#
# Elastic Compliance Matrix: (Units=1/GPa)
#
#
# Indices 1 2 3 4 5 6 
#
# 1 0.013777 -0.003010 -0.002999 -0.003837 0.003932 -0.003993
# 2 -0.003010 0.009500 -0.001058 -0.004279 -0.004013 -0.000155
# 3 -0.002999 -0.001058 0.006063 0.003752 -0.000107 0.000325
# 4 -0.003837 -0.004279 0.003752 0.038685 0.010609 0.004331
# 5 0.003932 -0.004013 -0.000107 0.010609 0.030160 -0.000282
# 6 -0.003993 -0.000155 0.000325 0.004331 -0.000282 0.027247
#
#
# Mechanical properties :
#
#
# Convention : Reuss Voigt Hill
#
# Bulk Modulus (GPa) = 65.76438 75.17663 70.47050
# Shear Modulus (GPa) = 34.57019 43.32719 38.94869
#
# Velocity S-wave (km/s) = 3.68563 4.12612 3.91208
# Velocity P-wave (km/s) = 6.62971 7.22768 6.93514
#
# Compressibility (1/GPa) = 0.01520580
#
# Stress axis : x y z
#
# Youngs Moduli (GPa) = 72.58736 105.26324 164.94207
#
# Poissons Ratio (x) = 0.31682 0.49458
# Poissons Ratio (y) = 0.21847 0.17458
# Poissons Ratio (z) = 0.21765 0.11142
#
# Static dielectric constant tensor:
#      x y z
#    x 2.034220 0.001530 0.002330 
#    y 0.001530 2.106180 0.031530 
#    z 0.002330 0.031530 2.028990 
# 
# From -- ./inp_files/452417.got.cif
#   From: 2010.05.17/outbox.cif.g08.bks.cpg/sg2_227_cif.got.tgz:452417.got - 2010.06.03 11:33:40.
