data_PCOD9046259
_publ_section_title
;
Structure prediction by ZEFSAII (Michael W. Deem and Ramdas Pophale) SiO2 
 PCOD9046259
Probable space group: P -1
;
_chemical_formula_sum "Si O2"
_cell_formula_units_Z 16
_cell_length_a 24.644946
_cell_length_b 5.324849
_cell_length_c 8.166088
_cell_angle_alpha 93.590923
_cell_angle_beta 136.108621
_cell_angle_gamma 65.338098
_cell_volume 625.136920
_symmetry_space_group_name_H-M "P -1"
_symmetry_group_IT_number 2
_symmetry_cell_setting 'triclinic'
loop_
_space_group_symop_operation_xyz
x,y,z
-x,-y,-z
loop_
_atom_site_type_symbol
_atom_site_label
_atom_site_fract_x
_atom_site_fract_y
_atom_site_fract_z
Si Si1 0.446568 0.347088 0.438350
Si Si2 0.118398 0.019945 0.294196
Si Si3 0.874870 0.332180 0.420938
Si Si4 0.972655 0.618147 0.188785
Si Si5 0.248908 0.741620 0.070229
Si Si6 0.787780 0.676231 0.810683
Si Si7 0.730986 0.876377 0.325186
Si Si8 0.515897 0.214536 0.929253
O O1 0.500000 0.500000 0.500000
O O2 0.341625 0.546877 0.157173
O O3 0.444791 0.344906 0.630513
O O4 0.500000 0.000000 0.500000
O O5 0.224401 0.921899 0.551615
O O6 0.052896 0.343930 0.247041
O O7 0.097443 0.811088 0.343262
O O8 0.090703 0.084555 0.047818
O O9 0.784600 0.658976 0.279002
O O10 0.963654 0.330036 0.548993
O O11 0.841154 0.154230 0.234136
O O12 0.897703 0.536927 0.065866
O O13 0.243962 0.518682 0.176388
O O14 0.253648 0.003112 0.178516
O O15 0.760698 0.713223 0.561863
O O16 0.621125 0.039537 0.081875
O O17 0.500000 0.500000 0.000000
O O18 0.500000 0.000000 0.000000
#
# Coordination Sequence:
#
# PCOD9046259 Si02
#       8
#     2   2   2   2   2   2   2   2
#     4  12  26  47  74  99 140 183 230 282 347 414
#     4   9  20  38  66  95 130 168 232 280 321 388
#     4  11  24  39  72  93 136 172 237 273 324 403
#     4   9  21  40  63  98 127 180 224 275 328 392
#     4  12  28  45  66 102 140 177 215 281 347 402
#     4  11  26  45  67  96 144 177 216 275 348 399
#     4  10  24  42  69  98 127 180 232 278 327 400
#     4  12  26  44  72 104 139 177 232 289 345 411
#
# _framework density 25.594394999999999
#
# number of rings (size 3 to 8) (size 9 to 14) (size 15 to 20)
#    0.000    1.250    0.000    4.875   12.250    1.000 
#    0.000    0.000    0.000    0.000    0.000    0.000 
#    0.000    0.000    0.000    0.000    0.000    0.000 
#
# Total GULP energy -89571.708254 kJ/mol
# GULP energy per Si atom -5598.231766 kJ/mol
# Density = 2.553614 g / cm^3
# Si number density = 25.594395 Si / 1000 Ang^3
#
#
#
# Elastic Constant Matrix: (Units=GPa)
#
#
# Indices 1 2 3 4 5 6 
#
# 1 98.3781 24.3987 24.4180 -9.6037 26.9255 30.7224
# 2 24.3987 137.2469 8.1207 8.6542 6.6548 10.2679
# 3 24.4180 8.1207 105.1719 2.3179 24.6940 -0.3951
# 4 -9.6037 8.6542 2.3179 23.4925 -6.5871 1.4378
# 5 26.9255 6.6548 24.6940 -6.5871 63.5973 -1.3884
# 6 30.7224 10.2679 -0.3951 1.4378 -1.3884 38.6179
#
#
#
# Elastic Compliance Matrix: (Units=1/GPa)
#
#
# Indices 1 2 3 4 5 6 
#
# 1 0.018375 -0.002211 -0.002935 0.007849 -0.005914 -0.014565
# 2 -0.002211 0.007955 0.000063 -0.003920 -0.000331 -0.000221
# 3 -0.002935 0.000063 0.011057 -0.003404 -0.003357 0.002437
# 4 0.007849 -0.003920 -0.003404 0.048912 0.003323 -0.006938
# 5 -0.005914 -0.000331 -0.003357 0.003323 0.020027 0.005355
# 6 -0.014565 -0.000221 0.002437 -0.006938 0.005355 0.038017
#
#
# Mechanical properties :
#
#
# Convention : Reuss Voigt Hill
#
# Bulk Modulus (GPa) = 36.73718 50.51908 43.62813
# Shear Modulus (GPa) = 30.56549 44.06552 37.31551
#
# Velocity S-wave (km/s) = 3.45951 4.15382 3.82246
# Velocity P-wave (km/s) = 5.50839 6.54117 6.04687
#
# Compressibility (1/GPa) = 0.02722038
#
# Stress axis : x y z
#
# Youngs Moduli (GPa) = 54.42181 125.70113 90.43976
#
# Poissons Ratio (x) = 0.27798 0.26541
# Poissons Ratio (y) = 0.12035 -0.00566
# Poissons Ratio (z) = 0.15971 -0.00786
#
# Static dielectric constant tensor:
#      x y z
#    x 1.999660 -0.032980 -0.026290 
#    y -0.032980 2.010990 -0.020750 
#    z -0.026290 -0.020750 2.010480 
# 
# From -- ./inp_files/356024.got.cif
#   From: 2010.05.17/outbox.cif.g08.bks.cpg/sg2_179_cif.got.tgz:356024.got - 2010.06.03 11:33:40.
