data_PCOD9046642
_publ_section_title
;
Structure prediction by ZEFSAII (Michael W. Deem and Ramdas Pophale) SiO2 
 PCOD9046642
Probable space group: P -1
;
_chemical_formula_sum "Si O2"
_cell_formula_units_Z 16
_cell_length_a 16.682176
_cell_length_b 25.906152
_cell_length_c 4.964853
_cell_angle_alpha 82.511713
_cell_angle_beta 80.298928
_cell_angle_gamma 17.403600
_cell_volume 629.205463
_symmetry_space_group_name_H-M "P -1"
_symmetry_group_IT_number 2
_symmetry_cell_setting 'triclinic'
loop_
_space_group_symop_operation_xyz
x,y,z
-x,-y,-z
loop_
_atom_site_type_symbol
_atom_site_label
_atom_site_fract_x
_atom_site_fract_y
_atom_site_fract_z
Si Si1 0.231268 0.897323 0.817861
Si Si2 0.262255 0.351957 0.143375
Si Si3 0.066675 0.814109 0.265019
Si Si4 0.474468 0.053392 0.729524
Si Si5 0.913795 0.636090 0.525650
Si Si6 0.975704 0.805270 0.825692
Si Si7 0.604237 0.532550 0.965557
Si Si8 0.600686 0.604132 0.409982
O O1 0.460541 0.784245 0.967463
O O2 0.385229 0.772105 0.575526
O O3 0.080024 0.041392 0.696010
O O4 0.000000 0.000000 0.000000
O O5 0.312617 0.263073 0.289014
O O6 0.125490 0.469959 0.370302
O O7 0.000000 0.500000 0.000000
O O8 0.123781 0.749987 0.555320
O O9 0.348377 0.651742 0.061831
O O10 0.909840 0.876553 0.086397
O O11 0.206944 0.249857 0.694079
O O12 0.500000 0.000000 0.500000
O O13 0.711898 0.949156 0.714563
O O14 0.500000 0.000000 0.000000
O O15 0.105279 0.548957 0.683592
O O16 0.140737 0.654052 0.934327
O O17 0.531938 0.624526 0.142889
O O18 0.639084 0.532620 0.645813
#
# Coordination Sequence:
#
# PCOD9046642 Si02
#       8
#     2   2   2   2   2   2   2   2
#     4  11  25  47  70 108 144 186 245 295 369 428
#     4  10  24  43  74  99 140 190 233 302 357 426
#     4  12  26  44  70 101 140 188 231 300 351 427
#     4  12  26  44  71 103 141 186 230 298 355 424
#     4  10  24  43  66 107 139 184 241 288 360 429
#     4  12  26  45  70 101 141 184 241 288 356 427
#     4  12  24  46  70 103 140 190 240 287 358 422
#     4  11  25  43  74 104 142 189 233 302 352 431
#
# _framework density 25.428896000000002
#
# number of rings (size 3 to 8) (size 9 to 14) (size 15 to 20)
#    0.000    0.750    1.250    5.250    7.000    1.500 
#    0.000    0.000    0.000    0.000    0.000    0.000 
#    0.000    0.000    0.000    0.000    0.000    0.000 
#
# Total GULP energy -89539.546114 kJ/mol
# GULP energy per Si atom -5596.221632 kJ/mol
# Density = 2.537102 g / cm^3
# Si number density = 25.428896 Si / 1000 Ang^3
#
#
#
# Elastic Constant Matrix: (Units=GPa)
#
#
# Indices 1 2 3 4 5 6 
#
# 1 93.6534 27.5137 38.3837 7.5704 -14.5016 -8.9616
# 2 27.5137 84.7629 -2.3353 4.1429 -4.5592 -10.7279
# 3 38.3837 -2.3353 117.8038 0.5763 -5.9657 -1.4466
# 4 7.5704 4.1429 0.5763 28.0306 -3.1794 -2.4561
# 5 -14.5016 -4.5592 -5.9657 -3.1794 37.1708 -5.7537
# 6 -8.9616 -10.7279 -1.4466 -2.4561 -5.7537 50.8429
#
#
#
# Elastic Compliance Matrix: (Units=1/GPa)
#
#
# Indices 1 2 3 4 5 6 
#
# 1 0.015012 -0.004373 -0.004705 -0.002610 0.004650 0.001990
# 2 -0.004373 0.013599 0.001751 -0.000614 0.000528 0.002179
# 3 -0.004705 0.001751 0.010053 0.000798 0.000041 -0.000131
# 4 -0.002610 -0.000614 0.000798 0.036859 0.002418 0.001487
# 5 0.004650 0.000528 0.000041 0.002418 0.029677 0.004407
# 6 0.001990 0.002179 -0.000131 0.001487 0.004407 0.021046
#
#
# Mechanical properties :
#
#
# Convention : Reuss Voigt Hill
#
# Bulk Modulus (GPa) = 41.64981 47.03824 44.34403
# Shear Modulus (GPa) = 33.57845 38.71940 36.14893
#
# Velocity S-wave (km/s) = 3.63779 3.90635 3.77446
# Velocity P-wave (km/s) = 5.83602 6.23572 6.03918
#
# Compressibility (1/GPa) = 0.02400971
#
# Stress axis : x y z
#
# Youngs Moduli (GPa) = 66.61229 73.53230 99.47191
#
# Poissons Ratio (x) = 0.32156 0.46806
# Poissons Ratio (y) = 0.29130 -0.17417
# Poissons Ratio (z) = 0.31344 -0.12875
#
# Static dielectric constant tensor:
#      x y z
#    x 2.225960 -0.096700 -0.098070 
#    y -0.096700 2.022560 -0.009200 
#    z -0.098070 -0.009200 1.984350 
# 
# From -- ./inp_files/101052.got.cif
#   From: 2010.05.17/outbox.cif.g08.bks.cpg/sg2_51_cif.got.tgz:101052.got - 2010.06.03 11:33:40.
