data_PCOD9046218
_publ_section_title
;
Structure prediction by ZEFSAII (Michael W. Deem and Ramdas Pophale) SiO2 
 PCOD9046218
Probable space group: P -1
;
_chemical_formula_sum "Si O2"
_cell_formula_units_Z 13
_cell_length_a 11.804651
_cell_length_b 5.361143
_cell_length_c 11.706071
_cell_angle_alpha 80.442302
_cell_angle_beta 49.163349
_cell_angle_gamma 92.533823
_cell_volume 541.004958
_symmetry_space_group_name_H-M "P -1"
_symmetry_group_IT_number 2
_symmetry_cell_setting 'triclinic'
loop_
_space_group_symop_operation_xyz
x,y,z
-x,-y,-z
loop_
_atom_site_type_symbol
_atom_site_label
_atom_site_fract_x
_atom_site_fract_y
_atom_site_fract_z
Si Si1 0.871392 0.264118 0.052724
Si Si2 0.164673 0.237054 0.235203
Si Si3 0.957207 0.951276 0.222225
Si Si4 0.706187 0.503787 0.488263
Si Si5 0.587601 0.263817 0.360172
Si Si6 0.500000 0.500000 0.000000
Si Si7 0.758703 0.299388 0.704300
O O1 0.693686 0.272102 0.179146
O O2 0.878024 0.030828 0.154698
O O3 0.000000 0.500000 0.000000
O O4 0.916360 0.193894 0.902046
O O5 0.335367 0.350027 0.069707
O O6 0.135417 0.437049 0.335870
O O7 0.176113 0.954087 0.294605
O O8 0.040013 0.193276 0.221953
O O9 0.833502 0.762774 0.391763
O O10 0.706872 0.392809 0.369092
O O11 0.540279 0.576198 0.597789
O O12 0.730078 0.316685 0.587229
O O13 0.500000 0.000000 0.500000
O O14 0.401345 0.679947 0.129401
#
# Coordination Sequence:
#
# PCOD9046218 Si02
#       7
#     2   2   2   2   2   1   2
#     4  11  24  44  70 102 136 183 229 295 347 423
#     4  10  24  43  69 100 137 182 231 290 343 424
#     4  11  25  43  68 102 138 179 237 285 358 415
#     4  11  25  43  67 103 137 182 232 293 345 430
#     4  11  24  43  70  97 140 180 232 287 356 407
#     4   8  22  44  62 100 136 180 232 278 346 420
#     4  10  24  42  69 101 137 178 237 280 352 411
#
# _framework density 24.029357000000001
#
# number of rings (size 3 to 8) (size 9 to 14) (size 15 to 20)
#    0.923    0.615    3.077    0.462    4.308    4.923 
#    0.000    0.000    0.000    0.000    0.000    0.000 
#    0.000    0.000    0.000    0.000    0.000    0.000 
#
# Total GULP energy -72393.742738 kJ/mol
# GULP energy per Si atom -5568.749441 kJ/mol
# Density = 2.397466 g / cm^3
# Si number density = 24.029357 Si / 1000 Ang^3
#
#
#
# Elastic Constant Matrix: (Units=GPa)
#
#
# Indices 1 2 3 4 5 6 
#
# 1 88.4559 16.3926 22.7815 -4.3005 5.7646 8.1812
# 2 16.3926 71.3996 17.3700 3.5542 4.2040 0.5298
# 3 22.7815 17.3700 75.1621 12.7648 -15.0721 -5.0939
# 4 -4.3005 3.5542 12.7648 33.2339 -2.2853 -2.6577
# 5 5.7646 4.2040 -15.0721 -2.2853 33.0407 -12.9575
# 6 8.1812 0.5298 -5.0939 -2.6577 -12.9575 41.2548
#
#
#
# Elastic Compliance Matrix: (Units=1/GPa)
#
#
# Indices 1 2 3 4 5 6 
#
# 1 0.014417 -0.001438 -0.006487 0.003555 -0.007281 -0.005699
# 2 -0.001438 0.015627 -0.004045 -0.000749 -0.004352 -0.001830
# 3 -0.006487 -0.004045 0.020607 -0.006769 0.013606 0.007720
# 4 0.003555 -0.000749 -0.006769 0.033162 -0.001233 0.000218
# 5 -0.007281 -0.004352 0.013606 -0.001233 0.044966 0.017223
# 6 -0.005699 -0.001830 0.007720 0.000218 0.017223 0.031770
#
#
# Mechanical properties :
#
#
# Convention : Reuss Voigt Hill
#
# Bulk Modulus (GPa) = 37.43907 38.67844 38.05875
# Shear Modulus (GPa) = 25.85408 33.40410 29.62909
#
# Velocity S-wave (km/s) = 3.28371 3.73250 3.51527
# Velocity P-wave (km/s) = 5.47644 5.89124 5.68762
#
# Compressibility (1/GPa) = 0.02671007
#
# Stress axis : x y z
#
# Youngs Moduli (GPa) = 69.36378 63.99174 48.52722
#
# Poissons Ratio (x) = 0.09200 0.31482
# Poissons Ratio (y) = 0.09972 0.19631
# Poissons Ratio (z) = 0.44999 0.25886
#
# Static dielectric constant tensor:
#      x y z
#    x 1.874310 -0.033020 -0.013360 
#    y -0.033020 2.048480 0.040810 
#    z -0.013360 0.040810 1.916100 
# 
# From -- ./inp_files/410180.got.cif
#   From: 2010.05.17/outbox.cif.g08.bks.cpg/sg2_206_cif.got.tgz:410180.got - 2010.06.03 11:33:40.
