data_PCOD9046810
_publ_section_title
;
Structure prediction by ZEFSAII (Michael W. Deem and Ramdas Pophale) SiO2 
 PCOD9046810
Probable space group: P -1
;
_chemical_formula_sum "Si O2"
_cell_formula_units_Z 15
_cell_length_a 9.403748
_cell_length_b 19.981690
_cell_length_c 5.277342
_cell_angle_alpha 101.586045
_cell_angle_beta 105.826849
_cell_angle_gamma 39.729611
_cell_volume 609.722071
_symmetry_space_group_name_H-M "P -1"
_symmetry_group_IT_number 2
_symmetry_cell_setting 'triclinic'
loop_
_space_group_symop_operation_xyz
x,y,z
-x,-y,-z
loop_
_atom_site_type_symbol
_atom_site_label
_atom_site_fract_x
_atom_site_fract_y
_atom_site_fract_z
Si Si1 0.978939 0.870717 0.504635
Si Si2 0.223121 0.839695 0.099550
Si Si3 0.129520 0.215781 0.299558
Si Si4 0.886651 0.486587 0.740978
Si Si5 0.681097 0.617084 0.335055
Si Si6 0.425022 0.915500 0.334950
Si Si7 0.500000 0.000000 0.000000
Si Si8 0.748980 0.440718 0.027970
O O1 0.082734 0.859198 0.284038
O O2 0.978886 0.792357 0.533788
O O3 0.106429 0.863611 0.794519
O O4 0.712501 0.986384 0.461883
O O5 0.466045 0.719168 0.164011
O O6 0.274332 0.901932 0.202424
O O7 0.337161 0.185431 0.497640
O O8 0.938506 0.326062 0.151477
O O9 0.261394 0.117796 0.100293
O O10 0.669411 0.603865 0.617370
O O11 0.105019 0.407541 0.603542
O O12 0.815749 0.438051 0.771803
O O13 0.000000 0.500000 0.000000
O O14 0.735708 0.521272 0.198244
O O15 0.468439 0.943551 0.127227
O O16 0.500000 0.500000 0.000000
#
# Coordination Sequence:
#
# PCOD9046810 Si02
#       8
#     2   2   2   2   2   2   1   2
#     4  11  27  50  71 112 154 196 247 320 376 441
#     4  12  28  45  81 109 155 197 249 309 388 438
#     4  11  27  45  78 102 149 202 255 305 379 450
#     4   9  22  42  67  93 144 182 245 298 356 433
#     4  10  24  43  68 103 142 194 241 305 359 454
#     4  11  27  46  76 108 145 199 257 308 371 455
#     4  10  24  46  72 104 146 182 256 304 372 432
#     4  11  25  45  68 107 146 191 242 309 373 444
#
# _framework density 24.601372999999999
#
# number of rings (size 3 to 8) (size 9 to 14) (size 15 to 20)
#    0.000    1.333    0.000    3.200   22.400    0.533 
#    0.000    0.000    0.000    0.000    0.000    0.000 
#    0.000    0.000    0.000    0.000    0.000    0.000 
#
# Total GULP energy -83645.014040 kJ/mol
# GULP energy per Si atom -5576.334269 kJ/mol
# Density = 2.454538 g / cm^3
# Si number density = 24.601373 Si / 1000 Ang^3
#
#
#
# Elastic Constant Matrix: (Units=GPa)
#
#
# Indices 1 2 3 4 5 6 
#
# 1 159.4637 39.6559 29.6852 -7.4796 -18.7087 -24.8866
# 2 39.6559 146.2290 35.1786 -46.5318 -6.1559 3.1345
# 3 29.6852 35.1786 65.2371 -17.9132 -17.3971 -15.4451
# 4 -7.4796 -46.5318 -17.9132 46.8987 -2.7292 4.9159
# 5 -18.7087 -6.1559 -17.3971 -2.7292 44.0926 -0.0379
# 6 -24.8866 3.1345 -15.4451 4.9159 -0.0379 32.0285
#
#
#
# Elastic Compliance Matrix: (Units=1/GPa)
#
#
# Indices 1 2 3 4 5 6 
#
# 1 0.008393 -0.002925 -0.000481 -0.002310 0.002826 0.006934
# 2 -0.002925 0.012171 -0.004086 0.010762 -0.000494 -0.007087
# 3 -0.000481 -0.004086 0.023920 0.004383 0.008944 0.010899
# 4 -0.002310 0.010762 0.004383 0.034187 0.004363 -0.005976
# 5 0.002826 -0.000494 0.008944 0.004363 0.027614 0.005921
# 6 0.006934 -0.007087 0.010899 -0.005976 0.005921 0.043484
#
#
# Mechanical properties :
#
#
# Convention : Reuss Voigt Hill
#
# Bulk Modulus (GPa) = 33.89869 64.44102 49.16985
# Shear Modulus (GPa) = 28.63905 42.36462 35.50183
#
# Velocity S-wave (km/s) = 3.41563 4.15425 3.80292
# Velocity P-wave (km/s) = 5.41890 7.01864 6.27000
#
# Compressibility (1/GPa) = 0.02949967
#
# Stress axis : x y z
#
# Youngs Moduli (GPa) = 119.14179 82.16431 41.80557
#
# Poissons Ratio (x) = 0.24034 0.02010
# Poissons Ratio (y) = 0.34851 0.17084
# Poissons Ratio (z) = 0.05728 0.33576
#
# Static dielectric constant tensor:
#      x y z
#    x 1.853700 -0.025890 -0.511570 
#    y -0.025890 1.942860 0.150810 
#    z -0.511570 0.150810 1.241790 
# 
# From -- ./inp_files/51547.got.cif
#   From: 2010.05.17/outbox.cif.g08.bks.cpg/sg2_26_cif.got.tgz:51547.got - 2010.06.03 11:33:40.
