data_PCOD9046036
_publ_section_title
;
Structure prediction by ZEFSAII (Michael W. Deem and Ramdas Pophale) SiO2 
 PCOD9046036
Probable space group: P -1
;
_chemical_formula_sum "Si O2"
_cell_formula_units_Z 14
_cell_length_a 9.853258
_cell_length_b 19.041357
_cell_length_c 6.882821
_cell_angle_alpha 129.228530
_cell_angle_beta 46.895539
_cell_angle_gamma 132.240970
_cell_volume 661.259952
_symmetry_space_group_name_H-M "P -1"
_symmetry_group_IT_number 2
_symmetry_cell_setting 'triclinic'
loop_
_space_group_symop_operation_xyz
x,y,z
-x,-y,-z
loop_
_atom_site_type_symbol
_atom_site_label
_atom_site_fract_x
_atom_site_fract_y
_atom_site_fract_z
Si Si1 0.157443 0.176302 0.725627
Si Si2 0.873798 0.466894 0.366716
Si Si3 0.136965 0.830800 0.335687
Si Si4 0.434126 0.400734 0.757607
Si Si5 0.857175 0.042328 0.110059
Si Si6 0.864703 0.609027 0.299718
Si Si7 0.542260 0.907652 0.877664
O O1 0.268051 0.297429 0.831209
O O2 0.329776 0.133422 0.458108
O O3 0.010612 0.144894 0.624218
O O4 0.005363 0.127496 0.966927
O O5 0.642933 0.388668 0.498853
O O6 0.844576 0.554661 0.429261
O O7 0.000000 0.500000 0.500000
O O8 0.998849 0.427094 0.034889
O O9 0.228910 0.911614 0.556140
O O10 0.991680 0.727307 0.397370
O O11 0.320758 0.826593 0.022186
O O12 0.338995 0.413738 0.667743
O O13 0.500000 0.500000 0.000000
O O14 0.685584 0.954850 0.004878
O O15 0.000000 0.000000 0.000000
O O16 0.500000 0.000000 0.000000
#
# Coordination Sequence:
#
# PCOD9046036 Si02
#       7
#     2   2   2   2   2   2   2
#     4  11  25  45  66  99 140 170 221 286 325 392
#     4  11  22  43  64  94 133 167 222 274 323 385
#     4  11  24  43  67  99 131 174 223 267 335 394
#     4  11  23  43  69  95 131 179 220 265 337 391
#     4  12  24  44  68  96 134 174 220 271 333 398
#     4  10  24  42  66  94 131 175 217 273 323 396
#     4  12  23  45  71  94 135 176 217 275 337 393
#
# _framework density 21.171706
#
# number of rings (size 3 to 8) (size 9 to 14) (size 15 to 20)
#    0.000    0.857    4.286    3.000    2.000    0.000 
#    5.143    0.000    0.000    0.000    0.000    0.000 
#    0.000    0.000    0.000    0.000    0.000    0.000 
#
# Total GULP energy -78240.764684 kJ/mol
# GULP energy per Si atom -5588.626049 kJ/mol
# Density = 2.112352 g / cm^3
# Si number density = 21.171706 Si / 1000 Ang^3
#
#
#
# Elastic Constant Matrix: (Units=GPa)
#
#
# Indices 1 2 3 4 5 6 
#
# 1 114.7186 24.0991 6.7391 0.8080 0.3056 4.4715
# 2 24.0991 70.1183 4.0471 -10.1970 11.0184 -1.9480
# 3 6.7391 4.0471 74.1218 -1.3870 -8.9643 1.5924
# 4 0.8080 -10.1970 -1.3870 34.9053 4.5571 -1.9197
# 5 0.3056 11.0184 -8.9643 4.5571 35.3334 -8.3750
# 6 4.4715 -1.9480 1.5924 -1.9197 -8.3750 36.6830
#
#
#
# Elastic Compliance Matrix: (Units=1/GPa)
#
#
# Indices 1 2 3 4 5 6 
#
# 1 0.009570 -0.003631 -0.000576 -0.001477 0.000803 -0.001228
# 2 -0.003631 0.017479 -0.001299 0.005997 -0.006459 0.000266
# 3 -0.000576 -0.001299 0.014098 -0.000324 0.004102 0.000309
# 4 -0.001477 0.005997 -0.000324 0.031221 -0.005770 0.000829
# 5 0.000803 -0.006459 0.004102 -0.005770 0.033699 0.006773
# 6 -0.001228 0.000266 0.000309 0.000829 0.006773 0.029001
#
#
# Mechanical properties :
#
#
# Convention : Reuss Voigt Hill
#
# Bulk Modulus (GPa) = 33.18406 36.52548 34.85477
# Shear Modulus (GPa) = 32.02578 36.32256 34.17417
#
# Velocity S-wave (km/s) = 3.89352 4.14650 4.02200
# Velocity P-wave (km/s) = 5.99337 6.34145 6.16987
#
# Compressibility (1/GPa) = 0.03013495
#
# Stress axis : x y z
#
# Youngs Moduli (GPa) = 104.49623 57.21168 70.93220
#
# Poissons Ratio (x) = 0.20773 0.04086
# Poissons Ratio (y) = 0.37942 0.09213
# Poissons Ratio (z) = 0.06019 0.07431
#
# Static dielectric constant tensor:
#      x y z
#    x 1.731480 -0.019340 0.004180 
#    y -0.019340 1.791420 0.029160 
#    z 0.004180 0.029160 1.741830 
# 
# From -- ./inp_files/38294.got.cif
#   From: 2010.05.17/outbox.cif.g08.bks.cpg/sg2_20_cif.got.tgz:38294.got - 2010.06.03 11:33:40.
