data_PCOD9046094
_publ_section_title
;
Structure prediction by ZEFSAII (Michael W. Deem and Ramdas Pophale) SiO2 
 PCOD9046094
Probable space group: P -1
;
_chemical_formula_sum "Si O2"
_cell_formula_units_Z 11
_cell_length_a 5.083977
_cell_length_b 8.771696
_cell_length_c 16.924286
_cell_angle_alpha 37.235041
_cell_angle_beta 82.202777
_cell_angle_gamma 67.373608
_cell_volume 401.379463
_symmetry_space_group_name_H-M "P -1"
_symmetry_group_IT_number 2
_symmetry_cell_setting 'triclinic'
loop_
_space_group_symop_operation_xyz
x,y,z
-x,-y,-z
loop_
_atom_site_type_symbol
_atom_site_label
_atom_site_fract_x
_atom_site_fract_y
_atom_site_fract_z
Si Si1 0.994737 0.709568 0.089655
Si Si2 0.000000 0.500000 0.000000
Si Si3 0.389708 0.719680 0.816065
Si Si4 0.740563 0.508625 0.607813
Si Si5 0.781490 0.260928 0.346559
Si Si6 0.566151 0.801385 0.325617
O O1 0.865192 0.523782 0.222971
O O2 0.347322 0.522573 0.141189
O O3 0.873726 0.688792 0.016178
O O4 0.000000 0.000000 0.000000
O O5 0.196513 0.657284 0.910127
O O6 0.184269 0.882352 0.682494
O O7 0.552246 0.863474 0.802019
O O8 0.539555 0.643036 0.637148
O O9 0.603676 0.710950 0.453411
O O10 0.662249 0.260338 0.687947
O O11 0.098197 0.375779 0.648968
O O12 0.000000 0.000000 0.500000
#
# Coordination Sequence:
#
# PCOD9046094 Si02
#       6
#     2   1   2   2   2   2
#     4  11  27  49  77 113 151 211 263 326 404 477
#     4  10  26  48  72 106 150 202 268 328 380 478
#     4  11  26  46  74 107 151 205 258 328 405 460
#     4  10  24  42  67 107 147 201 253 308 388 478
#     4  11  27  45  74 111 158 198 257 329 399 475
#     4  10  24  42  70 101 149 197 254 313 388 461
#
# _framework density 27.405487000000001
#
# number of rings (size 3 to 8) (size 9 to 14) (size 15 to 20)
#    0.000    1.455    0.000    1.636   17.818    5.818 
#    0.000    0.000    0.000    0.000    0.000    0.000 
#    0.000    0.000    0.000    0.000    0.000    0.000 
#
# Total GULP energy -61328.778873 kJ/mol
# GULP energy per Si atom -5575.343534 kJ/mol
# Density = 2.734311 g / cm^3
# Si number density = 27.405487 Si / 1000 Ang^3
#
#
#
# Elastic Constant Matrix: (Units=GPa)
#
#
# Indices 1 2 3 4 5 6 
#
# 1 79.4651 12.3754 24.5922 18.6337 -26.7189 -6.2200
# 2 12.3754 132.6481 69.1039 31.2894 -12.5755 -1.1334
# 3 24.5922 69.1039 106.0275 9.5982 -14.8198 -2.4089
# 4 18.6337 31.2894 9.5982 60.7614 5.1802 -16.0606
# 5 -26.7189 -12.5755 -14.8198 5.1802 41.9902 3.2714
# 6 -6.2200 -1.1334 -2.4089 -16.0606 3.2714 68.2502
#
#
#
# Elastic Compliance Matrix: (Units=1/GPa)
#
#
# Indices 1 2 3 4 5 6 
#
# 1 0.019812 0.003763 -0.004419 -0.008709 0.013324 -0.000976
# 2 0.003763 0.013979 -0.008666 -0.007854 0.004632 -0.001801
# 3 -0.004419 -0.008666 0.015749 0.003591 -0.000360 0.000872
# 4 -0.008709 -0.007854 0.003591 0.024939 -0.010136 0.005557
# 5 0.013324 0.004632 -0.000360 -0.010136 0.035021 -0.002785
# 6 -0.000976 -0.001801 0.000872 0.005557 -0.002785 0.016005
#
#
# Mechanical properties :
#
#
# Convention : Reuss Voigt Hill
#
# Bulk Modulus (GPa) = 32.36749 58.92040 45.64394
# Shear Modulus (GPa) = 32.37353 48.33829 40.35591
#
# Velocity S-wave (km/s) = 3.44070 4.20434 3.84154
# Velocity P-wave (km/s) = 5.25555 6.71675 6.03057
#
# Compressibility (1/GPa) = 0.03089520
#
# Stress axis : x y z
#
# Youngs Moduli (GPa) = 50.47552 71.53729 63.49599
#
# Poissons Ratio (x) = -0.26920 0.28060
# Poissons Ratio (y) = -0.18994 0.55026
# Poissons Ratio (z) = 0.22306 0.61994
#
# Static dielectric constant tensor:
#      x y z
#    x 2.109140 0.142700 -0.042610 
#    y 0.142700 2.169410 -0.079400 
#    z -0.042610 -0.079400 2.325870 
# 
# From -- ./inp_files/547648.got.cif
#   From: 2010.05.17/outbox.cif.g08.bks.cpg/sg2_274_cif.got.tgz:547648.got - 2010.06.03 11:33:40.
