data_PCOD9046107
_publ_section_title
;
Structure prediction by ZEFSAII (Michael W. Deem and Ramdas Pophale) SiO2 
 PCOD9046107
Probable space group: P -1
;
_chemical_formula_sum "Si O2"
_cell_formula_units_Z 16
_cell_length_a 11.820613
_cell_length_b 9.381554
_cell_length_c 14.859108
_cell_angle_alpha 74.261844
_cell_angle_beta 27.788154
_cell_angle_gamma 73.707782
_cell_volume 736.387429
_symmetry_space_group_name_H-M "P -1"
_symmetry_group_IT_number 2
_symmetry_cell_setting 'triclinic'
loop_
_space_group_symop_operation_xyz
x,y,z
-x,-y,-z
loop_
_atom_site_type_symbol
_atom_site_label
_atom_site_fract_x
_atom_site_fract_y
_atom_site_fract_z
Si Si1 0.037972 0.132893 0.680127
Si Si2 0.852866 0.574103 0.876367
Si Si3 0.781560 0.050517 0.575238
Si Si4 0.545043 0.823272 0.500465
Si Si5 0.356176 0.087490 0.004839
Si Si6 0.641508 0.332416 0.513800
Si Si7 0.568420 0.421741 0.255410
Si Si8 0.006476 0.562179 0.385673
O O1 0.890639 0.276481 0.716109
O O2 0.176526 0.193599 0.657276
O O3 0.216777 0.067562 0.486480
O O4 0.880281 0.998276 0.833454
O O5 0.856744 0.528302 0.776135
O O6 0.140137 0.580426 0.695545
O O7 0.717268 0.739129 0.955461
O O8 0.727401 0.463180 0.051157
O O9 0.532837 0.064046 0.800941
O O10 0.786613 0.213077 0.499362
O O11 0.000000 0.000000 0.500000
O O12 0.490341 0.754857 0.454794
O O13 0.382975 0.735354 0.699940
O O14 0.500000 0.000000 0.500000
O O15 0.500000 0.000000 0.000000
O O16 0.448098 0.442599 0.684618
O O17 0.283266 0.421343 0.431852
O O18 0.000000 0.500000 0.500000
#
# Coordination Sequence:
#
# PCOD9046107 Si02
#       8
#     2   2   2   2   2   2   2   2
#     4  11  25  44  64 100 134 175 225 276 336 398
#     4  11  23  43  65 103 133 172 237 271 334 406
#     4  12  23  40  69  99 132 171 222 276 336 394
#     4  11  22  45  69  94 136 179 223 280 342 401
#     4  12  24  39  70  98 131 178 226 272 325 405
#     4  11  22  44  69  95 134 180 223 281 334 399
#     4  10  24  42  67  96 130 179 228 278 336 398
#     4  10  26  42  65  94 144 182 214 277 345 401
#
# _framework density 21.727691
#
# number of rings (size 3 to 8) (size 9 to 14) (size 15 to 20)
#    0.000    1.000    5.000    0.375    7.000    3.000 
#    0.000    1.875    0.000    0.000    0.000    0.000 
#    0.000    0.000    0.000    0.000    0.000    0.000 
#
# Total GULP energy -89327.342528 kJ/mol
# GULP energy per Si atom -5582.958908 kJ/mol
# Density = 2.167824 g / cm^3
# Si number density = 21.727691 Si / 1000 Ang^3
#
#
#
# Elastic Constant Matrix: (Units=GPa)
#
#
# Indices 1 2 3 4 5 6 
#
# 1 88.9722 40.0489 37.2070 -8.7534 19.4601 -2.6371
# 2 40.0489 139.2404 48.4590 -16.1624 29.6164 2.3632
# 3 37.2070 48.4590 132.5921 -2.2566 35.3523 10.6738
# 4 -8.7534 -16.1624 -2.2566 35.4838 0.9726 10.6128
# 5 19.4601 29.6164 35.3523 0.9726 22.9489 0.7077
# 6 -2.6371 2.3632 10.6738 10.6128 0.7077 33.5038
#
#
#
# Elastic Compliance Matrix: (Units=1/GPa)
#
#
# Indices 1 2 3 4 5 6 
#
# 1 0.014676 -0.001682 -0.001291 0.002702 -0.008432 0.001007
# 2 -0.001682 0.011185 0.000350 0.005855 -0.013715 -0.002598
# 3 -0.001291 0.000350 0.013639 0.002733 -0.020332 -0.004908
# 4 0.002702 0.005855 0.002733 0.035713 -0.015199 -0.012063
# 5 -0.008432 -0.013715 -0.020332 -0.015199 0.100096 0.009481
# 6 0.001007 -0.002598 -0.004908 -0.012063 0.009481 0.035294
#
#
# Mechanical properties :
#
#
# Convention : Reuss Voigt Hill
#
# Bulk Modulus (GPa) = 29.19390 68.02606 48.60998
# Shear Modulus (GPa) = 22.00053 34.05994 28.03024
#
# Velocity S-wave (km/s) = 3.18552 3.96357 3.59565
# Velocity P-wave (km/s) = 5.19572 7.23346 6.29756
#
# Compressibility (1/GPa) = 0.03425374
#
# Stress axis : x y z
#
# Youngs Moduli (GPa) = 68.13746 89.40801 73.32034
#
# Poissons Ratio (x) = 0.15039 0.09462
# Poissons Ratio (y) = 0.11461 -0.02564
# Poissons Ratio (z) = 0.08793 -0.03126
#
# Static dielectric constant tensor:
#      x y z
#    x 1.900020 -0.076710 -0.012280 
#    y -0.076710 1.880430 -0.024850 
#    z -0.012280 -0.024850 1.797500 
# 
# From -- ./inp_files/515274.got.cif
#   From: 2010.05.17/outbox.cif.g08.bks.cpg/sg2_258_cif.got.tgz:515274.got - 2010.06.03 11:33:40.
