data_PCOD9046506
_publ_section_title
;
Structure prediction by ZEFSAII (Michael W. Deem and Ramdas Pophale) SiO2 
 PCOD9046506
Probable space group: P -1
;
_chemical_formula_sum "Si O2"
_cell_formula_units_Z 13
_cell_length_a 4.970604
_cell_length_b 5.230526
_cell_length_c 24.174935
_cell_angle_alpha 56.107466
_cell_angle_beta 92.739250
_cell_angle_gamma 98.934932
_cell_volume 514.817149
_symmetry_space_group_name_H-M "P -1"
_symmetry_group_IT_number 2
_symmetry_cell_setting 'triclinic'
loop_
_space_group_symop_operation_xyz
x,y,z
-x,-y,-z
loop_
_atom_site_type_symbol
_atom_site_label
_atom_site_fract_x
_atom_site_fract_y
_atom_site_fract_z
Si Si1 0.274940 0.632789 0.016048
Si Si2 0.000000 0.500000 0.500000
Si Si3 0.586290 0.988733 0.614554
Si Si4 0.999667 0.300007 0.806107
Si Si5 0.041561 0.674971 0.599419
Si Si6 0.091497 0.986521 0.281028
Si Si7 0.479952 0.773156 0.111411
O O1 0.330562 0.997227 0.956316
O O2 0.500000 0.500000 0.000000
O O3 0.313814 0.553483 0.089839
O O4 0.000000 0.500000 0.000000
O O5 0.910527 0.292193 0.469026
O O6 0.735207 0.319568 0.554347
O O7 0.273446 0.919724 0.602391
O O8 0.759275 0.743467 0.616055
O O9 0.636327 0.980269 0.682015
O O10 0.922822 0.120648 0.769734
O O11 0.303312 0.299365 0.832515
O O12 0.772662 0.142742 0.866343
O O13 0.981779 0.667886 0.756726
O O14 0.085422 0.321290 0.656466
#
# Coordination Sequence:
#
# PCOD9046506 Si02
#       7
#     2   1   2   2   2   2   2
#     4  11  24  47  74 103 143 184 234 303 358 421
#     4  10  24  42  76 104 144 182 250 292 368 424
#     4  11  25  46  71 105 143 191 237 303 358 427
#     4  12  28  47  76 105 148 194 240 296 356 434
#     4  11  25  46  71 105 143 191 237 303 358 427
#     4  11  28  49  72 107 150 191 244 296 360 427
#     4  11  28  46  72 110 140 187 244 294 358 427
#
# _framework density 25.251681000000001
#
# number of rings (size 3 to 8) (size 9 to 14) (size 15 to 20)
#    0.000    0.923    1.538    2.769    8.615   11.077 
#    0.000    0.000    0.000    0.000    0.000    0.000 
#    0.000    0.000    0.000    0.000    0.000    0.000 
#
# Total GULP energy -72417.009080 kJ/mol
# GULP energy per Si atom -5570.539160 kJ/mol
# Density = 2.519421 g / cm^3
# Si number density = 25.251681 Si / 1000 Ang^3
#
#
#
# Elastic Constant Matrix: (Units=GPa)
#
#
# Indices 1 2 3 4 5 6 
#
# 1 102.6706 3.0900 20.4737 32.4610 0.8788 14.5293
# 2 3.0900 109.2707 50.3852 35.3322 0.6361 3.1029
# 3 20.4737 50.3852 110.9939 57.9389 2.3242 2.9298
# 4 32.4610 35.3322 57.9389 84.1109 12.3089 -4.5583
# 5 0.8788 0.6361 2.3242 12.3089 17.1246 -1.3174
# 6 14.5293 3.1029 2.9298 -4.5583 -1.3174 36.3701
#
#
#
# Elastic Compliance Matrix: (Units=1/GPa)
#
#
# Indices 1 2 3 4 5 6 
#
# 1 0.012534 0.001747 0.000512 -0.006777 0.003639 -0.005915
# 2 0.001747 0.012104 -0.004038 -0.003413 0.002327 -0.001749
# 3 0.000512 -0.004038 0.016221 -0.010583 0.005352 -0.002299
# 4 -0.006777 -0.003413 -0.010583 0.025959 -0.016247 0.006516
# 5 0.003639 0.002327 0.005352 -0.016247 0.068949 -0.001622
# 6 -0.005915 -0.001749 -0.002299 0.006516 -0.001622 0.030950
#
#
# Mechanical properties :
#
#
# Convention : Reuss Voigt Hill
#
# Bulk Modulus (GPa) = 26.80789 52.31476 39.56132
# Shear Modulus (GPa) = 27.36623 44.12019 35.74321
#
# Velocity S-wave (km/s) = 3.29559 4.18451 3.76637
# Velocity P-wave (km/s) = 5.01204 6.64147 5.88344
#
# Compressibility (1/GPa) = 0.03730245
#
# Stress axis : x y z
#
# Youngs Moduli (GPa) = 79.78449 82.61991 61.64853
#
# Poissons Ratio (x) = -0.14437 -0.03159
# Poissons Ratio (y) = -0.13942 0.24893
# Poissons Ratio (z) = -0.04089 0.33361
#
# Static dielectric constant tensor:
#      x y z
#    x 2.023600 -0.201110 0.611930 
#    y -0.201110 2.840860 -1.960710 
#    z 0.611930 -1.960710 6.796050 
# 
# From -- ./inp_files/11500.got.cif
#   From: 2010.05.17/outbox.cif.g08.bks.cpg/sg2_6_cif.got.tgz:11500.got - 2010.06.03 11:33:40.
