data_PCOD9046270
_publ_section_title
;
Structure prediction by ZEFSAII (Michael W. Deem and Ramdas Pophale) SiO2 
 PCOD9046270
Probable space group: P -1
;
_chemical_formula_sum "Si O2"
_cell_formula_units_Z 16
_cell_length_a 11.924771
_cell_length_b 6.188658
_cell_length_c 11.025614
_cell_angle_alpha 103.087266
_cell_angle_beta 109.473005
_cell_angle_gamma 100.558132
_cell_volume 716.936630
_symmetry_space_group_name_H-M "P -1"
_symmetry_group_IT_number 2
_symmetry_cell_setting 'triclinic'
loop_
_space_group_symop_operation_xyz
x,y,z
-x,-y,-z
loop_
_atom_site_type_symbol
_atom_site_label
_atom_site_fract_x
_atom_site_fract_y
_atom_site_fract_z
Si Si1 0.193568 0.033493 0.027303
Si Si2 0.513454 0.632931 0.149489
Si Si3 0.941824 0.642907 0.904761
Si Si4 0.940727 0.212161 0.465754
Si Si5 0.630043 0.075972 0.739879
Si Si6 0.767542 0.356560 0.604260
Si Si7 0.274720 0.947431 0.796353
Si Si8 0.592532 0.352133 0.341436
O O1 0.281923 0.003959 0.947451
O O2 0.163494 0.276363 0.051044
O O3 0.059959 0.851963 0.939228
O O4 0.254774 0.996014 0.170952
O O5 0.408085 0.757995 0.153997
O O6 0.519039 0.491680 0.255095
O O7 0.644995 0.826371 0.214084
O O8 0.500000 0.500000 0.000000
O O9 0.874192 0.520934 0.745224
O O10 0.000000 0.500000 0.000000
O O11 0.836228 0.209191 0.528714
O O12 0.866871 0.121420 0.304726
O O13 0.000000 0.500000 0.500000
O O14 0.000000 0.000000 0.500000
O O15 0.671724 0.202263 0.645139
O O16 0.509853 0.857996 0.660225
O O17 0.691807 0.468842 0.495301
O O18 0.333135 0.747709 0.747460
#
# Coordination Sequence:
#
# PCOD9046270 Si02
#       8
#     2   2   2   2   2   2   2   2
#     4  11  24  43  69  97 139 179 236 299 358 427
#     4  11  24  43  70 104 140 187 239 294 363 442
#     4  11  25  43  64 101 135 183 231 286 356 429
#     4  11  27  48  75 107 144 195 247 305 373 440
#     4  11  24  43  66 106 133 183 238 294 365 434
#     4  11  25  46  71 101 144 182 241 296 364 441
#     4  10  24  42  69  99 137 186 240 299 363 434
#     4  10  24  45  66 101 141 181 234 298 367 430
#
# _framework density 22.317174999999999
#
# number of rings (size 3 to 8) (size 9 to 14) (size 15 to 20)
#    0.000    1.250    1.250    2.625    8.750    4.500 
#    4.500    0.000    0.000    0.000    0.000    0.000 
#    0.000    0.000    0.000    0.000    0.000    0.000 
#
# Total GULP energy -89277.133014 kJ/mol
# GULP energy per Si atom -5579.820813 kJ/mol
# Density = 2.226638 g / cm^3
# Si number density = 22.317175 Si / 1000 Ang^3
#
#
#
# Elastic Constant Matrix: (Units=GPa)
#
#
# Indices 1 2 3 4 5 6 
#
# 1 74.7492 22.8692 20.6144 -8.3451 -7.1043 0.7576
# 2 22.8692 75.4660 32.9132 -10.8691 8.4563 -14.1936
# 3 20.6144 32.9132 125.5087 -8.4672 7.1969 -17.4368
# 4 -8.3451 -10.8691 -8.4672 23.9668 0.9496 7.7034
# 5 -7.1043 8.4563 7.1969 0.9496 39.9948 -10.8580
# 6 0.7576 -14.1936 -17.4368 7.7034 -10.8580 28.9039
#
#
#
# Elastic Compliance Matrix: (Units=1/GPa)
#
#
# Indices 1 2 3 4 5 6 
#
# 1 0.016040 -0.004509 -0.001871 0.003937 0.003050 -0.003667
# 2 -0.004509 0.017647 -0.002764 0.003951 -0.002764 0.005025
# 3 -0.001871 -0.002764 0.009630 0.000108 -0.000300 0.004360
# 4 0.003937 0.003951 0.000108 0.049321 -0.004876 -0.013075
# 5 0.003050 -0.002764 -0.000300 -0.004876 0.029190 0.010647
# 6 -0.003667 0.005025 0.004360 -0.013075 0.010647 0.047276
#
#
# Mechanical properties :
#
#
# Convention : Reuss Voigt Hill
#
# Bulk Modulus (GPa) = 39.95384 47.61307 43.78346
# Shear Modulus (GPa) = 25.54493 31.86157 28.70325
#
# Velocity S-wave (km/s) = 3.38691 3.78255 3.59019
# Velocity P-wave (km/s) = 5.76511 6.36066 6.07019
#
# Compressibility (1/GPa) = 0.02502888
#
# Stress axis : x y z
#
# Youngs Moduli (GPa) = 62.34334 56.66743 103.84438
#
# Poissons Ratio (x) = 0.25553 0.19427
# Poissons Ratio (y) = 0.28113 0.28701
# Poissons Ratio (z) = 0.11663 0.15662
#
# Static dielectric constant tensor:
#      x y z
#    x 1.805800 0.001030 0.009890 
#    y 0.001030 1.891730 0.006880 
#    z 0.009890 0.006880 1.812970 
# 
# From -- ./inp_files/410918.got.cif
#   From: 2010.05.17/outbox.cif.g08.bks.cpg/sg2_206_cif.got.tgz:410918.got - 2010.06.03 11:33:40.
