data_PCOD9046671
_publ_section_title
;
Structure prediction by ZEFSAII (Michael W. Deem and Ramdas Pophale) SiO2 
 PCOD9046671
Probable space group: P -1
;
_chemical_formula_sum "Si O2"
_cell_formula_units_Z 14
_cell_length_a 13.775010
_cell_length_b 10.075233
_cell_length_c 12.088630
_cell_angle_alpha 62.464378
_cell_angle_beta 30.726752
_cell_angle_gamma 47.318100
_cell_volume 596.890912
_symmetry_space_group_name_H-M "P -1"
_symmetry_group_IT_number 2
_symmetry_cell_setting 'triclinic'
loop_
_space_group_symop_operation_xyz
x,y,z
-x,-y,-z
loop_
_atom_site_type_symbol
_atom_site_label
_atom_site_fract_x
_atom_site_fract_y
_atom_site_fract_z
Si Si1 0.297551 0.781312 0.051150
Si Si2 0.559880 0.009291 0.060525
Si Si3 0.937288 0.374201 0.291868
Si Si4 0.127295 0.244599 0.815037
Si Si5 0.374243 0.999802 0.462961
Si Si6 0.829744 0.463804 0.615335
Si Si7 0.832595 0.203939 0.279066
O O1 0.553386 0.654288 0.784912
O O2 0.372919 0.849125 0.054568
O O3 0.218509 0.656021 0.213665
O O4 0.071629 0.981564 0.145852
O O5 0.362222 0.063392 0.324823
O O6 0.792959 0.797955 0.945230
O O7 0.500000 0.000000 0.000000
O O8 0.886896 0.570410 0.238864
O O9 0.929871 0.365270 0.435626
O O10 0.786336 0.326879 0.386190
O O11 0.368679 0.076854 0.708653
O O12 0.170835 0.167107 0.677703
O O13 0.898557 0.280327 0.083964
O O14 0.365537 0.824300 0.539892
O O15 0.000000 0.500000 0.500000
#
# Coordination Sequence:
#
# PCOD9046671 Si02
#       7
#     2   2   2   2   2   2   2
#     4  10  24  43  66  98 138 174 240 272 340 415
#     4  11  24  44  69 101 139 180 226 281 350 405
#     4  11  25  42  70  99 143 172 228 293 336 398
#     4  11  24  48  67  99 140 178 237 275 331 419
#     4  11  25  44  72  96 136 189 223 278 344 403
#     4  11  25  44  67 100 136 187 227 289 339 409
#     4  11  25  44  68 102 134 179 227 287 341 403
#
# _framework density 23.454872999999999
#
# number of rings (size 3 to 8) (size 9 to 14) (size 15 to 20)
#    0.000    1.143    2.857    2.571   10.000    1.714 
#    0.000    0.000    0.000    0.000    0.000    0.000 
#    0.000    0.000    0.000    0.000    0.000    0.000 
#
# Total GULP energy -78281.631344 kJ/mol
# GULP energy per Si atom -5591.545096 kJ/mol
# Density = 2.340149 g / cm^3
# Si number density = 23.454873 Si / 1000 Ang^3
#
#
#
# Elastic Constant Matrix: (Units=GPa)
#
#
# Indices 1 2 3 4 5 6 
#
# 1 86.6855 24.8617 60.0010 -5.3313 15.9235 35.4934
# 2 24.8617 113.6505 27.5838 -11.2406 -0.4895 29.0612
# 3 60.0010 27.5838 115.3874 -14.7752 14.2732 26.2320
# 4 -5.3313 -11.2406 -14.7752 39.1496 13.8881 -3.2913
# 5 15.9235 -0.4895 14.2732 13.8881 35.7025 -0.5157
# 6 35.4934 29.0612 26.2320 -3.2913 -0.5157 43.9528
#
#
#
# Elastic Compliance Matrix: (Units=1/GPa)
#
#
# Indices 1 2 3 4 5 6 
#
# 1 0.025506 0.000750 -0.008340 0.002464 -0.009222 -0.016039
# 2 0.000750 0.010930 -0.000942 0.002619 -0.000929 -0.007085
# 3 -0.008340 -0.000942 0.014733 0.005620 -0.004385 -0.001066
# 4 0.002464 0.002619 0.005620 0.034285 -0.016715 -0.004704
# 5 -0.009222 -0.000929 -0.004385 -0.016715 0.040507 0.009902
# 6 -0.016039 -0.007085 -0.001066 -0.004704 0.009902 0.040789
#
#
# Mechanical properties :
#
#
# Convention : Reuss Voigt Hill
#
# Bulk Modulus (GPa) = 29.32081 60.06849 44.69465
# Shear Modulus (GPa) = 25.61705 37.31277 31.46491
#
# Velocity S-wave (km/s) = 3.30841 3.99285 3.66663
# Velocity P-wave (km/s) = 5.20789 6.85004 6.08462
#
# Compressibility (1/GPa) = 0.03410546
#
# Stress axis : x y z
#
# Youngs Moduli (GPa) = 39.20612 91.48957 67.87680
#
# Poissons Ratio (x) = -0.06860 0.56608
# Poissons Ratio (y) = -0.02940 0.06393
# Poissons Ratio (z) = 0.32697 0.08617
#
# Static dielectric constant tensor:
#      x y z
#    x 1.936280 -0.048350 -0.044720 
#    y -0.048350 1.913700 0.041430 
#    z -0.044720 0.041430 1.872460 
# 
# From -- ./inp_files/236534.got.cif
#   From: 2010.05.17/outbox.cif.g08.bks.cpg/sg2_119_cif.got.tgz:236534.got - 2010.06.03 11:33:40.
