data_PCOD9046411
_publ_section_title
;
Structure prediction by ZEFSAII (Michael W. Deem and Ramdas Pophale) SiO2 
 PCOD9046411
Probable space group: P -1
;
_chemical_formula_sum "Si O2"
_cell_formula_units_Z 14
_cell_length_a 4.873649
_cell_length_b 15.019175
_cell_length_c 15.097803
_cell_angle_alpha 152.590652
_cell_angle_beta 93.928294
_cell_angle_gamma 80.551318
_cell_volume 494.528890
_symmetry_space_group_name_H-M "P -1"
_symmetry_group_IT_number 2
_symmetry_cell_setting 'triclinic'
loop_
_space_group_symop_operation_xyz
x,y,z
-x,-y,-z
loop_
_atom_site_type_symbol
_atom_site_label
_atom_site_fract_x
_atom_site_fract_y
_atom_site_fract_z
Si Si1 0.487263 0.462065 0.609567
Si Si2 0.659990 0.525674 0.192480
Si Si3 0.000000 0.500000 0.000000
Si Si4 0.510543 0.882922 0.215728
Si Si5 0.709525 0.159084 0.640914
Si Si6 0.064789 0.949867 0.734495
Si Si7 0.250171 0.161780 0.094017
Si Si8 0.000000 0.500000 0.500000
O O1 0.288664 0.482774 0.709619
O O2 0.618010 0.655411 0.776286
O O3 0.303037 0.423712 0.489159
O O4 0.756192 0.275093 0.455462
O O5 0.905056 0.533869 0.135640
O O6 0.444043 0.736469 0.356725
O O7 0.522361 0.337417 0.004414
O O8 0.200181 0.652352 0.146575
O O9 0.494516 0.891703 0.330462
O O10 0.797517 0.928926 0.228650
O O11 0.254348 0.026104 0.284592
O O12 0.000000 0.000000 0.500000
O O13 0.104759 0.063271 0.925654
O O14 0.022908 0.276319 0.259978
O O15 0.500000 0.000000 0.000000
#
# Coordination Sequence:
#
# PCOD9046411 Si02
#       8
#     2   2   1   2   2   2   2   1
#     4  12  28  49  79 119 156 215 274 336 413 500
#     4  11  25  47  75 110 159 214 271 331 406 484
#     4  10  24  42  72 102 152 206 256 328 392 472
#     4  11  26  48  77 114 160 216 266 337 404 481
#     4  11  26  44  71 108 154 207 269 329 397 474
#     4  12  28  50  81 117 164 213 275 335 412 492
#     4  12  28  52  80 115 162 209 268 346 416 493
#     4  12  28  50  80 112 162 206 276 336 418 490
#
# _framework density 28.309771999999999
#
# number of rings (size 3 to 8) (size 9 to 14) (size 15 to 20)
#    0.000    0.571    2.857    3.857   12.000    2.286 
#    0.000    0.000    0.000    0.000    0.000    0.000 
#    0.000    0.000    0.000    0.000    0.000    0.000 
#
# Total GULP energy -78200.744021 kJ/mol
# GULP energy per Si atom -5585.767430 kJ/mol
# Density = 2.824534 g / cm^3
# Si number density = 28.309772 Si / 1000 Ang^3
#
#
#
# Elastic Constant Matrix: (Units=GPa)
#
#
# Indices 1 2 3 4 5 6 
#
# 1 82.8404 42.5214 3.2516 6.9369 -5.9891 -5.8933
# 2 42.5214 134.3342 60.1439 1.2044 -2.0491 -12.4372
# 3 3.2516 60.1439 131.1923 10.0785 -9.8644 1.0536
# 4 6.9369 1.2044 10.0785 76.5223 -4.1993 -4.5817
# 5 -5.9891 -2.0491 -9.8644 -4.1993 35.6801 10.1410
# 6 -5.8933 -12.4372 1.0536 -4.5817 10.1410 62.3748
#
#
#
# Elastic Compliance Matrix: (Units=1/GPa)
#
#
# Indices 1 2 3 4 5 6 
#
# 1 0.015396 -0.006081 0.002747 -0.001525 0.002926 -0.000392
# 2 -0.006081 0.012088 -0.005681 0.001119 -0.002451 0.002412
# 3 0.002747 -0.005681 0.010537 -0.001465 0.003360 -0.001705
# 4 -0.001525 0.001119 -0.001465 0.013479 0.000712 0.000978
# 5 0.002926 -0.002451 0.003360 0.000712 0.030879 -0.005237
# 6 -0.000392 0.002412 -0.001705 0.000978 -0.005237 0.017428
#
#
# Mechanical properties :
#
#
# Convention : Reuss Voigt Hill
#
# Bulk Modulus (GPa) = 50.02100 62.24453 56.13276
# Shear Modulus (GPa) = 40.15980 51.07877 45.61929
#
# Velocity S-wave (km/s) = 3.77050 4.25229 4.01862
# Velocity P-wave (km/s) = 6.05500 6.79294 6.43456
#
# Compressibility (1/GPa) = 0.01999160
#
# Stress axis : x y z
#
# Youngs Moduli (GPa) = 64.95034 82.72463 94.89920
#
# Poissons Ratio (x) = 0.50306 -0.26065
# Poissons Ratio (y) = 0.39497 0.53909
# Poissons Ratio (z) = -0.17839 0.46993
#
# Static dielectric constant tensor:
#      x y z
#    x 2.134030 0.072960 -0.068030 
#    y 0.072960 2.980940 0.078740 
#    z -0.068030 0.078740 2.282840 
# 
# From -- ./inp_files/484632.got.cif
#   From: 2010.05.17/outbox.cif.g08.bks.cpg/sg2_243_cif.got.tgz:484632.got - 2010.06.03 11:33:40.
