data_PCOD9046738
_publ_section_title
;
Structure prediction by ZEFSAII (Michael W. Deem and Ramdas Pophale) SiO2 
 PCOD9046738
Probable space group: P -1
;
_chemical_formula_sum "Si O2"
_cell_formula_units_Z 16
_cell_length_a 4.989850
_cell_length_b 8.974096
_cell_length_c 16.825830
_cell_angle_alpha 111.262364
_cell_angle_beta 82.317712
_cell_angle_gamma 93.485485
_cell_volume 695.798698
_symmetry_space_group_name_H-M "P -1"
_symmetry_group_IT_number 2
_symmetry_cell_setting 'triclinic'
loop_
_space_group_symop_operation_xyz
x,y,z
-x,-y,-z
loop_
_atom_site_type_symbol
_atom_site_label
_atom_site_fract_x
_atom_site_fract_y
_atom_site_fract_z
Si Si1 0.709605 0.992112 0.223874
Si Si2 0.813683 0.353793 0.445420
Si Si3 0.765062 0.389520 0.026518
Si Si4 0.097658 0.702553 0.315816
Si Si5 0.396187 0.676259 0.142476
Si Si6 0.451991 0.412840 0.612539
Si Si7 0.173876 0.053183 0.335986
Si Si8 0.737415 0.083912 0.058302
O O1 0.484898 0.077617 0.304084
O O2 0.698816 0.056168 0.147749
O O3 0.002921 0.008712 0.254440
O O4 0.608543 0.807778 0.190628
O O5 0.573770 0.326284 0.513185
O O6 0.672856 0.423075 0.384867
O O7 0.000000 0.500000 0.500000
O O8 0.012566 0.204901 0.402969
O O9 0.533621 0.508123 0.087076
O O10 0.799596 0.270218 0.074318
O O11 0.693960 0.274810 0.932553
O O12 0.000000 0.500000 0.000000
O O13 0.162274 0.661468 0.213830
O O14 0.296971 0.591684 0.337862
O O15 0.794389 0.674283 0.350516
O O16 0.161457 0.892509 0.358738
O O17 0.500000 0.000000 0.000000
O O18 0.000000 0.000000 0.000000
#
# Coordination Sequence:
#
# PCOD9046738 Si02
#       8
#     2   2   2   2   2   2   2   2
#     4  11  24  46  69 103 139 186 238 296 346 422
#     4  11  26  50  73 101 148 181 224 290 354 429
#     4  11  25  42  69 101 137 196 235 294 359 414
#     4  11  24  45  70 104 134 180 234 291 340 415
#     4  10  24  43  67  95 144 177 235 291 354 407
#     4  11  25  45  73 101 137 182 224 286 346 419
#     4  11  27  44  75 103 140 186 232 289 362 412
#     4  12  25  44  71  99 142 189 243 291 349 421
#
# _framework density 22.995155
#
# number of rings (size 3 to 8) (size 9 to 14) (size 15 to 20)
#    0.000    1.000    2.500    3.000   12.250    3.000 
#    0.000    0.000    0.000    0.000    0.000    0.000 
#    0.000    0.000    0.000    0.000    0.000    0.000 
#
# Total GULP energy -89463.549893 kJ/mol
# GULP energy per Si atom -5591.471868 kJ/mol
# Density = 2.294282 g / cm^3
# Si number density = 22.995155 Si / 1000 Ang^3
#
#
#
# Elastic Constant Matrix: (Units=GPa)
#
#
# Indices 1 2 3 4 5 6 
#
# 1 99.5684 19.8455 15.6385 -6.1150 -15.9408 -6.9930
# 2 19.8455 86.7439 43.7033 -4.6040 -21.2461 0.0025
# 3 15.6385 43.7033 81.7949 -5.1865 -32.3658 1.4767
# 4 -6.1150 -4.6040 -5.1865 41.5880 2.3268 -5.3008
# 5 -15.9408 -21.2461 -32.3658 2.3268 51.4803 -1.1047
# 6 -6.9930 0.0025 1.4767 -5.3008 -1.1047 33.3508
#
#
#
# Elastic Compliance Matrix: (Units=1/GPa)
#
#
# Indices 1 2 3 4 5 6 
#
# 1 0.011120 -0.001770 -0.000078 0.001623 0.002648 0.002681
# 2 -0.001770 0.016186 -0.007803 0.000503 0.001206 0.000093
# 3 -0.000078 -0.007803 0.020205 0.001064 0.009401 -0.000430
# 4 0.001623 0.000503 0.001064 0.024999 0.000341 0.004278
# 5 0.002648 0.001206 0.009401 0.000341 0.026661 0.001076
# 6 0.002681 0.000093 -0.000430 0.004278 0.001076 0.031281
#
#
# Mechanical properties :
#
#
# Convention : Reuss Voigt Hill
#
# Bulk Modulus (GPa) = 35.44872 47.38686 41.41779
# Shear Modulus (GPa) = 31.41560 37.87849 34.64704
#
# Velocity S-wave (km/s) = 3.70020 4.06302 3.88585
# Velocity P-wave (km/s) = 5.80556 6.53169 6.17930
#
# Compressibility (1/GPa) = 0.02820977
#
# Stress axis : x y z
#
# Youngs Moduli (GPa) = 89.92533 61.78061 49.49320
#
# Poissons Ratio (x) = 0.10937 0.00386
# Poissons Ratio (y) = 0.15919 0.38618
# Poissons Ratio (z) = 0.00701 0.48205
#
# Static dielectric constant tensor:
#      x y z
#    x 1.836370 0.002860 0.036470 
#    y 0.002860 1.877380 0.004910 
#    z 0.036470 0.004910 1.860290 
# 
# From -- ./inp_files/480740.got.cif
#   From: 2010.05.17/outbox.cif.g08.bks.cpg/sg2_241_cif.got.tgz:480740.got - 2010.06.03 11:33:40.
