data_PCOD9046539
_publ_section_title
;
Structure prediction by ZEFSAII (Michael W. Deem and Ramdas Pophale) SiO2 
 PCOD9046539
Probable space group: P -1
;
_chemical_formula_sum "Si O2"
_cell_formula_units_Z 16
_cell_length_a 11.350928
_cell_length_b 6.772791
_cell_length_c 15.266279
_cell_angle_alpha 137.396973
_cell_angle_beta 75.296045
_cell_angle_gamma 89.982028
_cell_volume 736.373390
_symmetry_space_group_name_H-M "P -1"
_symmetry_group_IT_number 2
_symmetry_cell_setting 'triclinic'
loop_
_space_group_symop_operation_xyz
x,y,z
-x,-y,-z
loop_
_atom_site_type_symbol
_atom_site_label
_atom_site_fract_x
_atom_site_fract_y
_atom_site_fract_z
Si Si1 0.254942 0.592388 0.637073
Si Si2 0.187313 0.371749 0.203615
Si Si3 0.113707 0.636499 0.495091
Si Si4 0.754807 0.781895 0.184303
Si Si5 0.509385 0.899034 0.564820
Si Si6 0.084938 0.343676 0.719317
Si Si7 0.621888 0.301406 0.796783
Si Si8 0.354247 0.741729 0.022212
O O1 0.207649 0.582826 0.543068
O O2 0.406850 0.450851 0.567303
O O3 0.186616 0.407068 0.652590
O O4 0.213821 0.948579 0.787573
O O5 0.169800 0.473414 0.341638
O O6 0.258117 0.588057 0.213645
O O7 0.050009 0.426242 0.204242
O O8 0.274645 0.026012 0.074694
O O9 0.000000 0.500000 0.500000
O O10 0.073920 0.998966 0.602090
O O11 0.863812 0.634540 0.185536
O O12 0.629946 0.969216 0.324549
O O13 0.715001 0.525219 0.054741
O O14 0.500000 0.000000 0.500000
O O15 0.598101 0.059609 0.654843
O O16 0.632703 0.175840 0.852270
O O17 0.495859 0.589443 0.910529
#
# Coordination Sequence:
#
# PCOD9046539 Si02
#       8
#     2   2   2   2   2   2   2   2
#     4  11  22  40  63  96 133 170 212 265 331 388
#     4  12  24  39  70  95 131 175 215 267 328 384
#     4  11  24  39  65  97 136 169 210 267 327 394
#     4  10  24  43  63  94 134 170 221 270 318 387
#     4  11  21  40  68  97 129 165 214 273 334 385
#     4  11  24  40  64 100 129 167 215 268 328 387
#     4  10  24  44  67  96 131 168 222 273 318 388
#     4  10  24  47  65  94 129 176 226 265 315 384
#
# _framework density 21.728106
#
# number of rings (size 3 to 8) (size 9 to 14) (size 15 to 20)
#    0.000    1.250    2.500    2.625    5.250    1.500 
#    6.750    1.250    0.000    0.000    0.000    0.000 
#    0.000    0.000    0.000    0.000    0.000    0.000 
#
# Total GULP energy -89473.302504 kJ/mol
# GULP energy per Si atom -5592.081406 kJ/mol
# Density = 2.167865 g / cm^3
# Si number density = 21.728106 Si / 1000 Ang^3
#
#
#
# Elastic Constant Matrix: (Units=GPa)
#
#
# Indices 1 2 3 4 5 6 
#
# 1 66.6744 -4.3131 0.1270 8.7818 1.6942 -10.5796
# 2 -4.3131 57.5488 0.0407 9.1858 -4.9667 -4.8165
# 3 0.1270 0.0407 26.2366 -4.2002 8.3085 -8.9144
# 4 8.7818 9.1858 -4.2002 18.6749 -4.7776 -10.4897
# 5 1.6942 -4.9667 8.3085 -4.7776 34.7265 2.9586
# 6 -10.5796 -4.8165 -8.9144 -10.4897 2.9586 49.0029
#
#
#
# Elastic Compliance Matrix: (Units=1/GPa)
#
#
# Indices 1 2 3 4 5 6 
#
# 1 0.016657 0.002618 -0.000155 -0.008403 -0.001739 0.002132
# 2 0.002618 0.019476 -0.002567 -0.011213 0.001771 -0.000495
# 3 -0.000155 -0.002567 0.048532 0.016664 -0.010766 0.012760
# 4 -0.008403 -0.011213 0.016664 0.076974 0.004016 0.016350
# 5 -0.001739 0.001771 -0.010766 0.004016 0.032541 -0.003265
# 6 0.002132 -0.000495 0.012760 0.016350 -0.003265 0.026837
#
#
# Mechanical properties :
#
#
# Convention : Reuss Voigt Hill
#
# Bulk Modulus (GPa) = 11.84039 15.79657 13.81848
# Shear Modulus (GPa) = 20.05000 30.78788 25.41894
#
# Velocity S-wave (km/s) = 3.04101 3.76834 3.42404
# Velocity P-wave (km/s) = 4.21799 5.12052 4.69101
#
# Compressibility (1/GPa) = 0.08445669
#
# Stress axis : x y z
#
# Youngs Moduli (GPa) = 60.03432 51.34560 20.60510
#
# Poissons Ratio (x) = -0.13443 0.00320
# Poissons Ratio (y) = -0.15718 0.05289
# Poissons Ratio (z) = 0.00931 0.13181
#
# Static dielectric constant tensor:
#      x y z
#    x 1.772600 0.008700 -0.011010 
#    y 0.008700 1.795310 0.035260 
#    z -0.011010 0.035260 1.791640 
# 
# From -- ./inp_files/123762.got.cif
#   From: 2010.05.17/outbox.cif.g08.bks.cpg/sg2_62_cif.got.tgz:123762.got - 2010.06.03 11:33:40.
