data_PCOD9046934
_publ_section_title
;
Structure prediction by ZEFSAII (Michael W. Deem and Ramdas Pophale) SiO2 
 PCOD9046934
Probable space group: P -1
;
_chemical_formula_sum "Si O2"
_cell_formula_units_Z 14
_cell_length_a 20.772983
_cell_length_b 5.550553
_cell_length_c 20.647784
_cell_angle_alpha 57.166690
_cell_angle_beta 159.731902
_cell_angle_gamma 131.077913
_cell_volume 596.055894
_symmetry_space_group_name_H-M "P -1"
_symmetry_group_IT_number 2
_symmetry_cell_setting 'triclinic'
loop_
_space_group_symop_operation_xyz
x,y,z
-x,-y,-z
loop_
_atom_site_type_symbol
_atom_site_label
_atom_site_fract_x
_atom_site_fract_y
_atom_site_fract_z
Si Si1 0.735800 0.496939 0.589880
Si Si2 0.099038 0.264139 0.615700
Si Si3 0.081992 0.385827 0.394349
Si Si4 0.356532 0.542787 0.169483
Si Si5 0.130316 0.216745 0.874653
Si Si6 0.457733 0.746452 0.801129
Si Si7 0.987607 0.336517 0.942703
O O1 0.828940 0.467846 0.613362
O O2 0.501279 0.438745 0.362384
O O3 0.778542 0.292187 0.713998
O O4 0.898116 0.883540 0.703774
O O5 0.344949 0.526489 0.789860
O O6 0.000000 0.500000 0.500000
O O7 0.000000 0.000000 0.500000
O O8 0.034327 0.011303 0.651138
O O9 0.286413 0.553172 0.610241
O O10 0.908097 0.492753 0.229911
O O11 0.506875 0.883708 0.222260
O O12 0.213835 0.284800 0.017368
O O13 0.197940 0.586692 0.061877
O O14 0.314706 0.212934 0.007172
O O15 0.000000 0.500000 0.000000
O O16 0.000000 0.000000 0.000000
#
# Coordination Sequence:
#
# PCOD9046934 Si02
#       7
#     2   2   2   2   2   2   2
#     4  12  25  46  77 105 147 195 243 296 369 442
#     4  10  24  43  69 109 155 193 248 310 357 421
#     4  11  23  42  75 105 149 199 247 299 364 425
#     4  12  25  46  77 105 147 195 243 296 369 442
#     4  12  23  43  72 111 142 190 255 300 350 438
#     4  11  23  42  75 105 149 199 247 299 364 425
#     4  12  29  50  76 112 148 183 241 310 372 445
#
# _framework density 23.487729999999999
#
# number of rings (size 3 to 8) (size 9 to 14) (size 15 to 20)
#    0.000    0.571    5.714    1.714    4.000    1.714 
#    0.000    2.857    0.000    0.000    0.000    0.000 
#    0.000    0.000    0.000    0.000    0.000    0.000 
#
# Total GULP energy -78335.652680 kJ/mol
# GULP energy per Si atom -5595.403763 kJ/mol
# Density = 2.343427 g / cm^3
# Si number density = 23.487730 Si / 1000 Ang^3
#
#
#
# Elastic Constant Matrix: (Units=GPa)
#
#
# Indices 1 2 3 4 5 6 
#
# 1 70.2285 -10.1035 28.6594 3.3978 1.2977 -19.3770
# 2 -10.1035 111.0718 30.8812 -15.5455 4.7338 -14.5846
# 3 28.6594 30.8812 128.1290 -23.9426 -15.4895 -3.9021
# 4 3.3978 -15.5455 -23.9426 43.2782 -0.9507 7.7514
# 5 1.2977 4.7338 -15.4895 -0.9507 38.9232 3.5486
# 6 -19.3770 -14.5846 -3.9021 7.7514 3.5486 28.0146
#
#
#
# Elastic Compliance Matrix: (Units=1/GPa)
#
#
# Indices 1 2 3 4 5 6 
#
# 1 0.026655 0.007386 -0.009734 -0.009402 -0.008129 0.024557
# 2 0.007386 0.012738 -0.005167 -0.001114 -0.004969 0.011958
# 3 -0.009734 -0.005167 0.013371 0.008410 0.007467 -0.010833
# 4 -0.009402 -0.001114 0.008410 0.030955 0.005940 -0.015229
# 5 -0.008129 -0.004969 0.007467 0.005940 0.030843 -0.012720
# 6 0.024557 0.011958 -0.010833 -0.015229 -0.012720 0.063223
#
#
# Mechanical properties :
#
#
# Convention : Reuss Voigt Hill
#
# Bulk Modulus (GPa) = 26.50064 45.36705 35.93385
# Shear Modulus (GPa) = 24.34360 39.37599 31.85979
#
# Velocity S-wave (km/s) = 3.22287 4.09889 3.68699
# Velocity P-wave (km/s) = 5.01562 6.46207 5.78424
#
# Compressibility (1/GPa) = 0.03773493
#
# Stress axis : x y z
#
# Youngs Moduli (GPa) = 37.51656 78.50752 74.78596
#
# Poissons Ratio (x) = -0.57987 0.72796
# Poissons Ratio (y) = -0.27710 0.38640
# Poissons Ratio (z) = 0.36518 0.40563
#
# Static dielectric constant tensor:
#      x y z
#    x 1.959100 0.018090 -0.023530 
#    y 0.018090 1.965900 -0.004570 
#    z -0.023530 -0.004570 1.882180 
# 
# From -- ./inp_files/584213.got.cif
#   From: 2010.05.17/outbox.cif.g08.bks.cpg/sg2_293_cif.got.tgz:584213.got - 2010.06.03 11:33:40.
