data_PCOD9046759
_publ_section_title
;
Structure prediction by ZEFSAII (Michael W. Deem and Ramdas Pophale) SiO2 
 PCOD9046759
Probable space group: P -1
;
_chemical_formula_sum "Si O2"
_cell_formula_units_Z 14
_cell_length_a 13.703628
_cell_length_b 13.107208
_cell_length_c 5.204125
_cell_angle_alpha 76.114073
_cell_angle_beta 75.484574
_cell_angle_gamma 41.555601
_cell_volume 598.263955
_symmetry_space_group_name_H-M "P -1"
_symmetry_group_IT_number 2
_symmetry_cell_setting 'triclinic'
loop_
_space_group_symop_operation_xyz
x,y,z
-x,-y,-z
loop_
_atom_site_type_symbol
_atom_site_label
_atom_site_fract_x
_atom_site_fract_y
_atom_site_fract_z
Si Si1 0.740154 0.794183 0.925386
Si Si2 0.137747 0.520514 0.953662
Si Si3 0.039023 0.271902 0.549021
Si Si4 0.543940 0.058544 0.241480
Si Si5 0.033474 0.905639 0.287549
Si Si6 0.451670 0.349627 0.073546
Si Si7 0.379375 0.611718 0.291461
O O1 0.842423 0.618168 0.037000
O O2 0.584060 0.856835 0.939366
O O3 0.812220 0.788389 0.625688
O O4 0.699536 0.913918 0.088401
O O5 0.035369 0.621938 0.210545
O O6 0.300562 0.439666 0.967117
O O7 0.071963 0.624492 0.681896
O O8 0.056629 0.134160 0.653239
O O9 0.511388 0.201247 0.272902
O O10 0.500000 0.000000 0.500000
O O11 0.202943 0.742806 0.325115
O O12 0.000000 0.000000 0.500000
O O13 0.000000 0.000000 0.000000
O O14 0.415235 0.482974 0.170621
O O15 0.586663 0.291737 0.853869
O O16 0.500000 0.500000 0.500000
#
# Coordination Sequence:
#
# PCOD9046759 Si02
#       7
#     2   2   2   2   2   2   2
#     4  10  25  41  66 106 136 188 232 299 362 439
#     4  11  24  44  72 106 140 186 242 303 354 449
#     4  12  25  45  74 100 144 192 241 291 376 437
#     4  10  24  43  67  98 145 182 238 297 366 432
#     4  12  29  48  71 109 153 188 245 315 374 430
#     4  10  24  43  71 101 140 185 253 295 363 434
#     4  11  25  46  77 104 141 200 255 301 365 445
#
# _framework density 23.401042
#
# number of rings (size 3 to 8) (size 9 to 14) (size 15 to 20)
#    0.000    1.143    1.429    2.571   12.000    3.429 
#    0.000    0.000    0.000    0.000    0.000    0.000 
#    0.000    0.000    0.000    0.000    0.000    0.000 
#
# Total GULP energy -78107.256258 kJ/mol
# GULP energy per Si atom -5579.089733 kJ/mol
# Density = 2.334778 g / cm^3
# Si number density = 23.401042 Si / 1000 Ang^3
#
#
#
# Elastic Constant Matrix: (Units=GPa)
#
#
# Indices 1 2 3 4 5 6 
#
# 1 100.8496 36.4504 20.0740 1.0108 -4.2180 8.4934
# 2 36.4504 143.4581 57.2955 -5.6914 -6.6098 26.7203
# 3 20.0740 57.2955 110.4293 -17.2418 2.6731 22.8391
# 4 1.0108 -5.6914 -17.2418 36.2487 4.9547 -6.4894
# 5 -4.2180 -6.6098 2.6731 4.9547 44.6800 -6.4656
# 6 8.4934 26.7203 22.8391 -6.4894 -6.4656 40.3848
#
#
#
# Elastic Compliance Matrix: (Units=1/GPa)
#
#
# Indices 1 2 3 4 5 6 
#
# 1 0.011038 -0.002393 -0.000928 -0.001292 0.000845 -0.000285
# 2 -0.002393 0.009938 -0.004157 -0.001167 0.001082 -0.003736
# 3 -0.000928 -0.004157 0.013101 0.005243 -0.002653 -0.004045
# 4 -0.001292 -0.001167 0.005243 0.030875 -0.003677 0.002451
# 5 0.000845 0.001082 -0.002653 -0.003677 0.023740 0.003817
# 6 -0.000285 -0.003736 -0.004045 0.002451 0.003817 0.030586
#
#
# Mechanical properties :
#
#
# Convention : Reuss Voigt Hill
#
# Bulk Modulus (GPa) = 52.30001 64.70852 58.50426
# Shear Modulus (GPa) = 35.55975 40.32385 37.94180
#
# Velocity S-wave (km/s) = 3.90241 4.15561 4.03100
# Velocity P-wave (km/s) = 6.53475 7.12302 6.83522
#
# Compressibility (1/GPa) = 0.01912046
#
# Stress axis : x y z
#
# Youngs Moduli (GPa) = 90.59840 100.61977 76.33160
#
# Poissons Ratio (x) = 0.24079 0.07083
# Poissons Ratio (y) = 0.21680 0.31733
# Poissons Ratio (z) = 0.08407 0.41830
#
# Static dielectric constant tensor:
#      x y z
#    x 1.893200 -0.016970 -0.063050 
#    y -0.016970 1.909360 0.085100 
#    z -0.063050 0.085100 2.070350 
# 
# From -- ./inp_files/94571.got.cif
#   From: 2010.05.17/outbox.cif.g08.bks.cpg/sg2_48_cif.got.tgz:94571.got - 2010.06.03 11:33:40.
