data_PCOD9046978
_publ_section_title
;
Structure prediction by ZEFSAII (Michael W. Deem and Ramdas Pophale) SiO2 
 PCOD9046978
Probable space group: P -1
;
_chemical_formula_sum "Si O2"
_cell_formula_units_Z 12
_cell_length_a 14.563389
_cell_length_b 13.084098
_cell_length_c 8.076445
_cell_angle_alpha 146.967654
_cell_angle_beta 38.100187
_cell_angle_gamma 147.943203
_cell_volume 429.451683
_symmetry_space_group_name_H-M "P -1"
_symmetry_group_IT_number 2
_symmetry_cell_setting 'triclinic'
loop_
_space_group_symop_operation_xyz
x,y,z
-x,-y,-z
loop_
_atom_site_type_symbol
_atom_site_label
_atom_site_fract_x
_atom_site_fract_y
_atom_site_fract_z
Si Si1 0.744949 0.486715 0.224028
Si Si2 0.915869 0.828604 0.698627
Si Si3 0.530883 0.194257 0.875642
Si Si4 0.068420 0.596449 0.358805
Si Si5 0.601624 0.772636 0.240164
Si Si6 0.283228 0.972128 0.236753
O O1 0.760272 0.664751 0.568083
O O2 0.613359 0.429285 0.179315
O O3 0.936002 0.591110 0.003463
O O4 0.734447 0.265498 0.017729
O O5 0.813559 0.898750 0.059735
O O6 0.950006 0.668172 0.540400
O O7 0.100794 0.964429 0.516644
O O8 0.719237 0.210372 0.651926
O O9 0.492387 0.188558 0.729857
O O10 0.370560 0.034830 0.014959
O O11 0.000000 0.500000 0.500000
O O12 0.595670 0.846741 0.539266
O O13 0.500000 0.500000 0.000000
#
# Coordination Sequence:
#
# PCOD9046978 Si02
#       6
#     2   2   2   2   2   2
#     4   9  22  43  70  98 132 179 226 278 337 398
#     4  11  23  45  69  98 137 181 220 284 344 397
#     4  10  24  43  70 101 131 186 224 282 342 400
#     4   9  19  39  64  99 126 173 228 270 325 404
#     4  12  27  45  67 100 143 178 226 283 343 409
#     4  11  23  46  70 100 140 175 232 282 334 409
#
# _framework density 27.942606999999999
#
# number of rings (size 3 to 8) (size 9 to 14) (size 15 to 20)
#    1.000    0.667    0.000    5.000    0.000    4.000 
#   12.000    0.000    0.000    0.000    0.000    0.000 
#    0.000    0.000    0.000    0.000    0.000    0.000 
#
# Total GULP energy -66848.290549 kJ/mol
# GULP energy per Si atom -5570.690879 kJ/mol
# Density = 2.787901 g / cm^3
# Si number density = 27.942607 Si / 1000 Ang^3
#
#
#
# Elastic Constant Matrix: (Units=GPa)
#
#
# Indices 1 2 3 4 5 6 
#
# 1 123.7814 19.3689 10.4087 -5.8313 4.5243 2.4538
# 2 19.3689 63.2753 20.8290 -26.4199 18.2494 -1.0206
# 3 10.4087 20.8290 153.5835 -18.8676 -2.4687 4.4470
# 4 -5.8313 -26.4199 -18.8676 53.0534 12.7693 5.1741
# 5 4.5243 18.2494 -2.4687 12.7693 70.0392 -1.8293
# 6 2.4538 -1.0206 4.4470 5.1741 -1.8293 44.4301
#
#
#
# Elastic Compliance Matrix: (Units=1/GPa)
#
#
# Indices 1 2 3 4 5 6 
#
# 1 0.008518 -0.002871 -0.000246 -0.000608 0.000289 -0.000429
# 2 -0.002871 0.025852 -0.001671 0.014299 -0.009246 -0.001126
# 3 -0.000246 -0.001671 0.006986 0.001622 0.000378 -0.000897
# 4 -0.000608 0.014299 0.001622 0.028994 -0.009008 -0.003548
# 5 0.000289 -0.009246 0.000378 -0.009008 0.018364 0.001539
# 6 -0.000429 -0.001126 -0.000897 -0.003548 0.001539 0.023071
#
#
# Mechanical properties :
#
#
# Convention : Reuss Voigt Hill
#
# Bulk Modulus (GPa) = 31.46560 49.09483 40.28021
# Shear Modulus (GPa) = 37.89251 52.84010 45.36631
#
# Velocity S-wave (km/s) = 3.68650 4.35331 4.03371
# Velocity P-wave (km/s) = 5.42269 6.54801 6.01174
#
# Compressibility (1/GPa) = 0.03178074
#
# Stress axis : x y z
#
# Youngs Moduli (GPa) = 117.39965 38.68236 143.15059
#
# Poissons Ratio (x) = 0.11105 0.03516
# Poissons Ratio (y) = 0.33703 0.23918
# Poissons Ratio (z) = 0.02884 0.06463
#
# Static dielectric constant tensor:
#      x y z
#    x 2.227180 0.134860 0.041470 
#    y 0.134860 2.471120 0.204010 
#    z 0.041470 0.204010 2.456990 
# 
# From -- ./inp_files/303832.got.cif
#   From: 2010.05.17/outbox.cif.g08.bks.cpg/sg2_152_cif.got.tgz:303832.got - 2010.06.03 11:33:40.
