data_PCOD9046322
_publ_section_title
;
Structure prediction by ZEFSAII (Michael W. Deem and Ramdas Pophale) SiO2 
 PCOD9046322
Probable space group: P -1
;
_chemical_formula_sum "Si O2"
_cell_formula_units_Z 15
_cell_length_a 8.525226
_cell_length_b 19.222826
_cell_length_c 8.473026
_cell_angle_alpha 56.693397
_cell_angle_beta 34.518596
_cell_angle_gamma 57.442947
_cell_volume 646.753860
_symmetry_space_group_name_H-M "P -1"
_symmetry_group_IT_number 2
_symmetry_cell_setting 'triclinic'
loop_
_space_group_symop_operation_xyz
x,y,z
-x,-y,-z
loop_
_atom_site_type_symbol
_atom_site_label
_atom_site_fract_x
_atom_site_fract_y
_atom_site_fract_z
Si Si1 0.212673 0.807904 0.554027
Si Si2 0.209916 0.499799 0.966545
Si Si3 0.000000 0.500000 0.500000
Si Si4 0.132043 0.234622 0.401525
Si Si5 0.235279 0.059092 0.723082
Si Si6 0.329648 0.089498 0.972427
Si Si7 0.544246 0.359491 0.271783
Si Si8 0.628198 0.338708 0.868479
O O1 0.467213 0.846634 0.221150
O O2 0.373372 0.737889 0.628048
O O3 0.028920 0.769482 0.624766
O O4 0.983812 0.880303 0.737687
O O5 0.089198 0.484026 0.258622
O O6 0.474861 0.425139 0.809157
O O7 0.299900 0.589834 0.797418
O O8 0.000000 0.500000 0.000000
O O9 0.231631 0.413121 0.463719
O O10 0.161963 0.142596 0.572063
O O11 0.423805 0.269568 0.108767
O O12 0.925191 0.299866 0.599779
O O13 0.303038 0.087024 0.808408
O O14 0.500000 0.000000 0.500000
O O15 0.000000 0.000000 0.000000
O O16 0.500000 0.000000 0.000000
O O17 0.657270 0.365853 0.992131
#
# Coordination Sequence:
#
# PCOD9046322 Si02
#       8
#     2   2   1   2   2   2   2   2
#     4  12  26  44  72 102 142 183 237 294 353 436
#     4  11  26  44  70 101 140 190 244 299 367 432
#     4  10  24  42  70  92 142 182 240 296 364 422
#     4  12  25  44  67 103 135 181 232 291 352 419
#     4  12  24  43  70  99 136 178 227 282 351 428
#     4  12  25  46  71 104 141 185 229 292 361 425
#     4  11  26  44  69 100 138 190 240 297 363 427
#     4  11  25  43  68  97 138 182 231 292 350 420
#
# _framework density 23.19275
#
# number of rings (size 3 to 8) (size 9 to 14) (size 15 to 20)
#    0.000    0.533    0.000    8.400   11.200    0.533 
#    0.000    0.000    0.000    0.000    0.000    0.000 
#    0.000    0.000    0.000    0.000    0.000    0.000 
#
# Total GULP energy -83777.502152 kJ/mol
# GULP energy per Si atom -5585.166810 kJ/mol
# Density = 2.313996 g / cm^3
# Si number density = 23.192750 Si / 1000 Ang^3
#
#
#
# Elastic Constant Matrix: (Units=GPa)
#
#
# Indices 1 2 3 4 5 6 
#
# 1 91.4199 15.9053 -4.8956 -8.9240 -4.3761 -3.3578
# 2 15.9053 115.0087 8.2020 18.1254 -1.6808 -29.4080
# 3 -4.8956 8.2020 66.4652 14.7111 -20.1797 0.8429
# 4 -8.9240 18.1254 14.7111 44.8525 11.6404 -7.3056
# 5 -4.3761 -1.6808 -20.1797 11.6404 26.0380 -7.5989
# 6 -3.3578 -29.4080 0.8429 -7.3056 -7.5989 59.3898
#
#
#
# Elastic Compliance Matrix: (Units=1/GPa)
#
#
# Indices 1 2 3 4 5 6 
#
# 1 0.011660 -0.001999 0.001082 0.002368 0.001657 0.000158
# 2 -0.001999 0.011311 0.001539 -0.006118 0.005919 0.005471
# 3 0.001082 0.001539 0.027775 -0.016953 0.030024 0.002185
# 4 0.002368 -0.006118 -0.016953 0.038514 -0.030899 -0.001871
# 5 0.001657 0.005919 0.030024 -0.030899 0.078737 0.008872
# 6 0.000158 0.005471 0.002185 -0.001871 0.008872 0.020430
#
#
# Mechanical properties :
#
#
# Convention : Reuss Voigt Hill
#
# Bulk Modulus (GPa) = 19.23366 34.59079 26.91222
# Shear Modulus (GPa) = 24.44825 42.96820 33.70823
#
# Velocity S-wave (km/s) = 3.25026 4.30892 3.81648
# Velocity P-wave (km/s) = 4.73250 6.30100 5.57222
#
# Compressibility (1/GPa) = 0.05199219
#
# Stress axis : x y z
#
# Youngs Moduli (GPa) = 85.75973 88.40720 36.00310
#
# Poissons Ratio (x) = 0.17668 -0.03897
# Poissons Ratio (y) = 0.17139 -0.05540
# Poissons Ratio (z) = -0.09282 -0.13604
#
# Static dielectric constant tensor:
#      x y z
#    x 1.847210 0.050640 -0.042810 
#    y 0.050640 1.821400 -0.024670 
#    z -0.042810 -0.024670 1.835230 
# 
# From -- ./inp_files/139523.got.cif
#   From: 2010.05.17/outbox.cif.g08.bks.cpg/sg2_70_cif.got.tgz:139523.got - 2010.06.03 11:33:40.
