data_PCOD9046186
_publ_section_title
;
Structure prediction by ZEFSAII (Michael W. Deem and Ramdas Pophale) SiO2 
 PCOD9046186
Probable space group: P -1
;
_chemical_formula_sum "Si O2"
_cell_formula_units_Z 15
_cell_length_a 10.021500
_cell_length_b 9.588084
_cell_length_c 12.512899
_cell_angle_alpha 53.820578
_cell_angle_beta 125.917605
_cell_angle_gamma 136.398442
_cell_volume 641.350424
_symmetry_space_group_name_H-M "P -1"
_symmetry_group_IT_number 2
_symmetry_cell_setting 'triclinic'
loop_
_space_group_symop_operation_xyz
x,y,z
-x,-y,-z
loop_
_atom_site_type_symbol
_atom_site_label
_atom_site_fract_x
_atom_site_fract_y
_atom_site_fract_z
Si Si1 0.872749 0.651266 0.471281
Si Si2 0.696868 0.999198 0.082755
Si Si3 0.429627 0.326977 0.377413
Si Si4 0.079457 0.735596 0.316533
Si Si5 0.980342 0.618483 0.087817
Si Si6 0.993224 0.778976 0.694355
Si Si7 0.532993 0.459079 0.913487
Si Si8 0.500000 0.000000 0.500000
O O1 0.633916 0.529839 0.433162
O O2 0.920384 0.473851 0.579035
O O3 0.944832 0.736286 0.347057
O O4 0.995064 0.809113 0.554079
O O5 0.812632 0.036793 0.232413
O O6 0.621900 0.781132 0.088286
O O7 0.859110 0.198709 0.997467
O O8 0.500000 0.000000 0.000000
O O9 0.471818 0.389546 0.242950
O O10 0.440249 0.129829 0.487922
O O11 0.217739 0.277256 0.333929
O O12 0.004539 0.722589 0.168226
O O13 0.305957 0.924761 0.364562
O O14 0.012567 0.432852 0.196997
O O15 0.756205 0.513991 0.987999
O O16 0.500000 0.500000 0.000000
#
# Coordination Sequence:
#
# PCOD9046186 Si02
#       8
#     2   2   2   2   2   2   2   1
#     4   9  20  40  67  98 136 184 240 292 361 426
#     4  12  25  44  73 109 147 196 241 293 382 442
#     4  11  23  44  67 101 147 186 247 302 367 432
#     4   9  20  40  68  96 136 184 237 300 358 423
#     4  11  23  45  71 106 149 189 243 305 366 439
#     4  11  22  43  74 103 148 191 237 310 364 441
#     4  12  27  44  73 109 149 192 242 305 368 443
#     4  10  24  42  68  96 138 194 238 302 360 432
#
# _framework density 23.388148999999999
#
# number of rings (size 3 to 8) (size 9 to 14) (size 15 to 20)
#    0.000    1.333    2.667    2.400    1.867    4.800 
#    0.000    4.000    0.000    0.000    0.000    0.000 
#    0.000    0.000    0.000    0.000    0.000    0.000 
#
# Total GULP energy -83679.850827 kJ/mol
# GULP energy per Si atom -5578.656722 kJ/mol
# Density = 2.333492 g / cm^3
# Si number density = 23.388149 Si / 1000 Ang^3
#
#
#
# Elastic Constant Matrix: (Units=GPa)
#
#
# Indices 1 2 3 4 5 6 
#
# 1 131.1340 59.7090 45.1066 10.9652 7.8448 12.4917
# 2 59.7090 147.4447 43.1940 37.9125 1.8150 -12.5295
# 3 45.1066 43.1940 70.9644 39.3938 -7.7439 9.9134
# 4 10.9652 37.9125 39.3938 48.8544 -2.7900 2.2954
# 5 7.8448 1.8150 -7.7439 -2.7900 44.4619 14.3954
# 6 12.4917 -12.5295 9.9134 2.2954 14.3954 30.1917
#
#
#
# Elastic Compliance Matrix: (Units=1/GPa)
#
#
# Indices 1 2 3 4 5 6 
#
# 1 0.013070 -0.005023 -0.009933 0.009048 -0.001976 -0.003977
# 2 -0.005023 0.012197 -0.001867 -0.007515 -0.003670 0.010074
# 3 -0.009933 -0.001867 0.039536 -0.026953 0.011215 -0.012945
# 4 0.009048 -0.007515 -0.026953 0.045827 -0.003103 -0.000017
# 5 -0.001976 -0.003670 0.011215 -0.003103 0.030856 -0.018864
# 6 -0.003977 0.010074 -0.012945 -0.000017 -0.018864 0.052194
#
#
# Mechanical properties :
#
#
# Convention : Reuss Voigt Hill
#
# Bulk Modulus (GPa) = 32.09646 71.72917 51.91282
# Shear Modulus (GPa) = 21.03383 38.13716 29.58549
#
# Velocity S-wave (km/s) = 3.00215 4.04247 3.56051
# Velocity P-wave (km/s) = 5.07645 7.24737 6.25679
#
# Compressibility (1/GPa) = 0.03115608
#
# Stress axis : x y z
#
# Youngs Moduli (GPa) = 76.51046 81.98738 25.29338
#
# Poissons Ratio (x) = 0.41183 0.25124
# Poissons Ratio (y) = 0.38432 0.04723
# Poissons Ratio (z) = 0.75999 0.15309
#
# Static dielectric constant tensor:
#      x y z
#    x 1.842940 -0.015820 -0.006860 
#    y -0.015820 1.903020 -0.018670 
#    z -0.006860 -0.018670 1.890370 
# 
# From -- ./inp_files/381506.got.cif
#   From: 2010.05.17/outbox.cif.g08.bks.cpg/sg2_191_cif.got.tgz:381506.got - 2010.06.03 11:33:40.
