data_PCOD9046265
_publ_section_title
;
Structure prediction by ZEFSAII (Michael W. Deem and Ramdas Pophale) SiO2 
 PCOD9046265
Probable space group: P -1
;
_chemical_formula_sum "Si O2"
_cell_formula_units_Z 14
_cell_length_a 9.698352
_cell_length_b 9.165128
_cell_length_c 13.471100
_cell_angle_alpha 122.655144
_cell_angle_beta 130.376741
_cell_angle_gamma 48.840185
_cell_volume 673.246873
_symmetry_space_group_name_H-M "P -1"
_symmetry_group_IT_number 2
_symmetry_cell_setting 'triclinic'
loop_
_space_group_symop_operation_xyz
x,y,z
-x,-y,-z
loop_
_atom_site_type_symbol
_atom_site_label
_atom_site_fract_x
_atom_site_fract_y
_atom_site_fract_z
Si Si1 0.450364 0.618988 0.623470
Si Si2 0.035949 0.683989 0.564891
Si Si3 0.819180 0.943324 0.388097
Si Si4 0.720129 0.669074 0.142320
Si Si5 0.287811 0.003130 0.097235
Si Si6 0.245300 0.362283 0.079093
Si Si7 0.050232 0.773310 0.827606
O O1 0.500000 0.500000 0.500000
O O2 0.253005 0.621198 0.586498
O O3 0.642612 0.552919 0.764268
O O4 0.379238 0.848636 0.649257
O O5 0.039567 0.775387 0.705600
O O6 0.000000 0.500000 0.500000
O O7 0.845060 0.835139 0.464410
O O8 0.857411 0.778976 0.262168
O O9 0.000000 0.000000 0.500000
O O10 0.825114 0.452161 0.157567
O O11 0.513107 0.823806 0.157881
O O12 0.666214 0.665181 0.000888
O O13 0.284335 0.155430 0.068846
O O14 0.170525 0.128609 0.185032
O O15 0.161282 0.897098 0.958881
O O16 0.000000 0.500000 0.000000
#
# Coordination Sequence:
#
# PCOD9046265 Si02
#       7
#     2   2   2   2   2   2   2
#     4  11  27  47  71 107 142 185 247 291 355 440
#     4  11  24  45  72  99 143 192 230 295 365 423
#     4  10  24  42  69  99 134 189 229 291 355 419
#     4  12  23  45  71  98 143 183 240 293 356 423
#     4  11  25  43  68 100 137 186 232 301 349 426
#     4  12  26  43  74 104 141 194 242 295 359 421
#     4  11  25  45  66 101 144 181 237 292 364 421
#
# _framework density 20.794747999999998
#
# number of rings (size 3 to 8) (size 9 to 14) (size 15 to 20)
#    0.000    0.857    4.286    1.714   10.000    0.000 
#    2.571    1.429    0.000    0.000    0.000    0.000 
#    0.000    0.000    0.000    0.000    0.000    0.000 
#
# Total GULP energy -78211.188891 kJ/mol
# GULP energy per Si atom -5586.513492 kJ/mol
# Density = 2.074742 g / cm^3
# Si number density = 20.794748 Si / 1000 Ang^3
#
#
#
# Elastic Constant Matrix: (Units=GPa)
#
#
# Indices 1 2 3 4 5 6 
#
# 1 81.1041 48.4533 38.5953 -10.1684 -15.4587 -7.8392
# 2 48.4533 120.0212 43.2467 -5.1428 -7.8399 -5.8486
# 3 38.5953 43.2467 155.5330 -4.5420 -12.2945 -2.9099
# 4 -10.1684 -5.1428 -4.5420 27.9515 -3.3195 7.4733
# 5 -15.4587 -7.8399 -12.2945 -3.3195 40.0235 3.9536
# 6 -7.8392 -5.8486 -2.9099 7.4733 3.9536 38.1745
#
#
#
# Elastic Compliance Matrix: (Units=1/GPa)
#
#
# Indices 1 2 3 4 5 6 
#
# 1 0.019085 -0.006170 -0.002371 0.005832 0.005815 0.001049
# 2 -0.006170 0.011384 -0.001706 -0.000670 -0.000788 0.000560
# 3 -0.002371 -0.001706 0.007584 0.000283 0.001137 -0.000343
# 4 0.005832 -0.000670 0.000283 0.040570 0.006312 -0.007479
# 5 0.005815 -0.000788 0.001137 0.006312 0.028246 -0.003001
# 6 0.001049 0.000560 -0.000343 -0.007479 -0.003001 0.028246
#
#
# Mechanical properties :
#
#
# Convention : Reuss Voigt Hill
#
# Bulk Modulus (GPa) = 56.94584 68.58321 62.76453
# Shear Modulus (GPa) = 30.96731 36.32076 33.64404
#
# Velocity S-wave (km/s) = 3.86319 4.18381 4.02669
# Velocity P-wave (km/s) = 6.88063 7.50943 7.20190
#
# Compressibility (1/GPa) = 0.01756055
#
# Stress axis : x y z
#
# Youngs Moduli (GPa) = 52.39772 87.84015 131.85873
#
# Poissons Ratio (x) = 0.54193 0.31261
# Poissons Ratio (y) = 0.32327 0.22494
# Poissons Ratio (z) = 0.12423 0.14985
#
# Static dielectric constant tensor:
#      x y z
#    x 1.794460 -0.034190 0.053590 
#    y -0.034190 1.722360 0.018070 
#    z 0.053590 0.018070 1.784120 
# 
# From -- ./inp_files/185547.got.cif
#   From: 2010.05.17/outbox.cif.g08.bks.cpg/sg2_93_cif.got.tgz:185547.got - 2010.06.03 11:33:40.
