data_PCOD9046275
_publ_section_title
;
Structure prediction by ZEFSAII (Michael W. Deem and Ramdas Pophale) SiO2 
 PCOD9046275
Probable space group: P -1
;
_chemical_formula_sum "Si O2"
_cell_formula_units_Z 16
_cell_length_a 5.629342
_cell_length_b 11.237923
_cell_length_c 19.028517
_cell_angle_alpha 130.430454
_cell_angle_beta 77.723977
_cell_angle_gamma 66.641891
_cell_volume 622.803946
_symmetry_space_group_name_H-M "P -1"
_symmetry_group_IT_number 2
_symmetry_cell_setting 'triclinic'
loop_
_space_group_symop_operation_xyz
x,y,z
-x,-y,-z
loop_
_atom_site_type_symbol
_atom_site_label
_atom_site_fract_x
_atom_site_fract_y
_atom_site_fract_z
Si Si1 0.896192 0.819713 0.087004
Si Si2 0.348719 0.429132 0.687071
Si Si3 0.714986 0.835716 0.658946
Si Si4 0.049230 0.892444 0.881680
Si Si5 0.153902 0.654185 0.157121
Si Si6 0.290474 0.283341 0.067314
Si Si7 0.379160 0.856361 0.306191
Si Si8 0.384188 0.398476 0.510212
O O1 0.140715 0.670903 0.080284
O O2 0.513490 0.954419 0.194060
O O3 0.864664 0.015823 0.144979
O O4 0.951184 0.692058 0.965487
O O5 0.332514 0.625655 0.765614
O O6 0.604343 0.223998 0.647112
O O7 0.424209 0.354314 0.573356
O O8 0.950444 0.579125 0.796754
O O9 0.494071 0.809769 0.619611
O O10 0.969700 0.614596 0.605531
O O11 0.858420 0.889501 0.611007
O O12 0.000000 0.000000 0.000000
O O13 0.650322 0.020740 0.944108
O O14 0.392110 0.406183 0.078725
O O15 0.268849 0.761296 0.227770
O O16 0.764330 0.761959 0.240332
O O17 0.500000 0.500000 0.500000
#
# Coordination Sequence:
#
# PCOD9046275 Si02
#       8
#     2   2   2   2   2   2   2   2
#     4  11  24  41  69  99 138 190 229 294 340 425
#     4  11  24  45  68 100 143 182 233 294 354 414
#     4  10  25  46  71 101 137 181 237 289 352 414
#     4  12  24  37  64 100 144 183 239 280 353 417
#     4  10  24  42  70 100 147 188 239 284 351 418
#     4  11  24  42  63 103 141 186 232 290 350 417
#     4  10  24  47  71 104 140 190 234 292 353 424
#     4  11  25  47  75 103 133 178 239 293 355 424
#
# _framework density 25.690265
#
# number of rings (size 3 to 8) (size 9 to 14) (size 15 to 20)
#    0.000    1.250    1.250    3.000   12.250    1.000 
#    9.000    0.625    0.000    0.000    0.000    0.000 
#    0.000    0.000    0.000    0.000    0.000    0.000 
#
# Total GULP energy -89359.659175 kJ/mol
# GULP energy per Si atom -5584.978698 kJ/mol
# Density = 2.563179 g / cm^3
# Si number density = 25.690265 Si / 1000 Ang^3
#
#
#
# Elastic Constant Matrix: (Units=GPa)
#
#
# Indices 1 2 3 4 5 6 
#
# 1 108.5325 35.2484 24.6577 -16.6915 16.9823 10.1368
# 2 35.2484 158.7151 18.3754 -20.3766 4.0600 19.3577
# 3 24.6577 18.3754 66.8142 -28.9452 -0.3020 -0.5802
# 4 -16.6915 -20.3766 -28.9452 52.9008 2.0170 6.3044
# 5 16.9823 4.0600 -0.3020 2.0170 37.5854 6.8363
# 6 10.1368 19.3577 -0.5802 6.3044 6.8363 55.7453
#
#
#
# Elastic Compliance Matrix: (Units=1/GPa)
#
#
# Indices 1 2 3 4 5 6 
#
# 1 0.011624 -0.001750 -0.003152 0.001591 -0.004972 -0.001109
# 2 -0.001750 0.007337 -0.000369 0.002362 0.000331 -0.002541
# 3 -0.003152 -0.000369 0.020632 0.010153 0.001153 -0.000374
# 4 0.001591 0.002362 0.010153 0.026384 -0.001619 -0.003789
# 5 -0.004972 0.000331 0.001153 -0.001619 0.029390 -0.002620
# 6 -0.001109 -0.002541 -0.000374 -0.003789 -0.002620 0.019769
#
#
# Mechanical properties :
#
#
# Convention : Reuss Voigt Hill
#
# Bulk Modulus (GPa) = 34.42156 54.51387 44.46771
# Shear Modulus (GPa) = 36.93838 46.29831 41.61835
#
# Velocity S-wave (km/s) = 3.79599 4.24981 4.02929
# Velocity P-wave (km/s) = 5.71319 6.73401 6.24449
#
# Compressibility (1/GPa) = 0.02905156
#
# Stress axis : x y z
#
# Youngs Moduli (GPa) = 86.02526 136.30102 48.46859
#
# Poissons Ratio (x) = 0.23853 0.15275
# Poissons Ratio (y) = 0.15055 0.01789
# Poissons Ratio (z) = 0.27111 0.05032
#
# Static dielectric constant tensor:
#      x y z
#    x 2.212130 -0.114900 -0.122280 
#    y -0.114900 2.180760 0.059210 
#    z -0.122280 0.059210 2.002180 
# 
# From -- ./inp_files/549552.got.cif
#   From: 2010.05.17/outbox.cif.g08.bks.cpg/sg2_275_cif.got.tgz:549552.got - 2010.06.03 11:33:40.
