data_PCOD9046510
_publ_section_title
;
Structure prediction by ZEFSAII (Michael W. Deem and Ramdas Pophale) SiO2 
 PCOD9046510
Probable space group: P -1
;
_chemical_formula_sum "Si O2"
_cell_formula_units_Z 13
_cell_length_a 9.244101
_cell_length_b 15.199817
_cell_length_c 9.081967
_cell_angle_alpha 73.394257
_cell_angle_beta 131.487162
_cell_angle_gamma 136.969186
_cell_volume 601.149441
_symmetry_space_group_name_H-M "P -1"
_symmetry_group_IT_number 2
_symmetry_cell_setting 'triclinic'
loop_
_space_group_symop_operation_xyz
x,y,z
-x,-y,-z
loop_
_atom_site_type_symbol
_atom_site_label
_atom_site_fract_x
_atom_site_fract_y
_atom_site_fract_z
Si Si1 0.831209 0.243494 0.399167
Si Si2 0.783176 0.880265 0.532654
Si Si3 0.395865 0.373534 0.585538
Si Si4 0.000000 0.500000 0.500000
Si Si5 0.286959 0.490174 0.953376
Si Si6 0.186074 0.999020 0.022448
Si Si7 0.730089 0.168775 0.699881
O O1 0.002461 0.395615 0.492530
O O2 0.762843 0.171419 0.544587
O O3 0.049532 0.263224 0.438361
O O4 0.520237 0.153707 0.156934
O O5 0.587458 0.720911 0.432830
O O6 0.569322 0.884513 0.442227
O O7 0.000000 0.000000 0.500000
O O8 0.998321 0.925074 0.784890
O O9 0.500000 0.500000 0.500000
O O10 0.562656 0.431365 0.827426
O O11 0.803981 0.460066 0.239416
O O12 0.989018 0.326847 0.858306
O O13 0.500000 0.500000 0.000000
O O14 0.224870 0.912702 0.158005
O O15 0.000000 0.000000 0.000000
#
# Coordination Sequence:
#
# PCOD9046510 Si02
#       7
#     2   2   2   1   2   2   2
#     4  11  25  45  79 105 145 191 253 295 361 452
#     4  12  30  49  72 112 155 191 244 311 379 429
#     4  12  28  48  75 113 157 195 242 316 385 433
#     4  10  24  42  76 108 130 188 262 286 358 424
#     4  11  24  45  78 102 147 191 248 303 357 444
#     4  12  27  45  81 104 143 200 248 303 360 445
#     4  11  25  48  74 111 139 190 261 291 361 455
#
# _framework density 21.625240000000002
#
# number of rings (size 3 to 8) (size 9 to 14) (size 15 to 20)
#    0.000    0.615    4.615    2.308   10.769    4.308 
#    0.000    0.000    0.000    0.000    0.000    0.000 
#    0.000    0.000    0.000    0.000    0.000    0.000 
#
# Total GULP energy -72441.695795 kJ/mol
# GULP energy per Si atom -5572.438138 kJ/mol
# Density = 2.157602 g / cm^3
# Si number density = 21.625240 Si / 1000 Ang^3
#
#
#
# Elastic Constant Matrix: (Units=GPa)
#
#
# Indices 1 2 3 4 5 6 
#
# 1 94.7085 42.1456 49.8802 -14.7852 9.6609 0.7759
# 2 42.1456 61.6410 44.5244 -17.1057 8.2754 -11.0346
# 3 49.8802 44.5244 177.3646 -5.2605 -10.4747 -13.2670
# 4 -14.7852 -17.1057 -5.2605 54.0229 -3.9897 7.6792
# 5 9.6609 8.2754 -10.4747 -3.9897 45.3665 7.8894
# 6 0.7759 -11.0346 -13.2670 7.6792 7.8894 33.0511
#
#
#
# Elastic Compliance Matrix: (Units=1/GPa)
#
#
# Indices 1 2 3 4 5 6 
#
# 1 0.016738 -0.009675 -0.002666 0.001832 -0.001423 -0.004779
# 2 -0.009675 0.029412 -0.004201 0.004644 -0.005355 0.008560
# 3 -0.002666 -0.004201 0.007670 -0.001307 0.002749 0.001386
# 4 0.001832 0.004644 -0.001307 0.021021 0.001031 -0.004147
# 5 -0.001423 -0.005355 0.002749 0.001031 0.025251 -0.006918
# 6 -0.004779 0.008560 0.001386 -0.004147 -0.006918 0.036398
#
#
# Mechanical properties :
#
#
# Convention : Reuss Voigt Hill
#
# Bulk Modulus (GPa) = 48.22261 67.42380 57.82321
# Shear Modulus (GPa) = 28.33095 39.63236 33.98165
#
# Velocity S-wave (km/s) = 3.62344 4.28564 3.96837
# Velocity P-wave (km/s) = 6.31295 7.46558 6.91333
#
# Compressibility (1/GPa) = 0.02073716
#
# Stress axis : x y z
#
# Youngs Moduli (GPa) = 59.74269 33.99937 130.38488
#
# Poissons Ratio (x) = 0.32895 0.34758
# Poissons Ratio (y) = 0.57801 0.54772
# Poissons Ratio (z) = 0.15926 0.14282
#
# Static dielectric constant tensor:
#      x y z
#    x 1.795080 0.002300 -0.011750 
#    y 0.002300 1.875670 0.022570 
#    z -0.011750 0.022570 1.765540 
# 
# From -- ./inp_files/196440.got.cif
#   From: 2010.05.17/outbox.cif.g08.bks.cpg/sg2_99_cif.got.tgz:196440.got - 2010.06.03 11:33:40.
