data_PCOD9046895
_publ_section_title
;
Structure prediction by ZEFSAII (Michael W. Deem and Ramdas Pophale) SiO2 
 PCOD9046895
Probable space group: P -1
;
_chemical_formula_sum "Si O2"
_cell_formula_units_Z 16
_cell_length_a 16.589557
_cell_length_b 12.931494
_cell_length_c 8.920500
_cell_angle_alpha 32.643579
_cell_angle_beta 41.403574
_cell_angle_gamma 41.860621
_cell_volume 647.431268
_symmetry_space_group_name_H-M "P -1"
_symmetry_group_IT_number 2
_symmetry_cell_setting 'triclinic'
loop_
_space_group_symop_operation_xyz
x,y,z
-x,-y,-z
loop_
_atom_site_type_symbol
_atom_site_label
_atom_site_fract_x
_atom_site_fract_y
_atom_site_fract_z
Si Si1 0.604862 0.124995 0.526825
Si Si2 0.774299 0.266082 0.361694
Si Si3 0.865084 0.030856 0.784415
Si Si4 0.024300 0.632850 0.665257
Si Si5 0.564214 0.496146 0.579602
Si Si6 0.233519 0.294550 0.243435
Si Si7 0.105148 0.353447 0.640788
Si Si8 0.408571 0.859894 0.815699
O O1 0.696961 0.182329 0.448881
O O2 0.468078 0.280657 0.579076
O O3 0.625608 0.180366 0.258564
O O4 0.640018 0.881130 0.776177
O O5 0.864845 0.067109 0.562373
O O6 0.708457 0.381848 0.467577
O O7 0.784373 0.468710 0.025208
O O8 0.918042 0.192615 0.590574
O O9 0.719696 0.045548 0.021002
O O10 0.944701 0.812313 0.005842
O O11 0.124744 0.486247 0.588196
O O12 0.888032 0.722149 0.660796
O O13 0.000000 0.500000 0.000000
O O14 0.500000 0.500000 0.500000
O O15 0.524268 0.351154 0.930517
O O16 0.217823 0.252607 0.491033
O O17 0.000000 0.500000 0.500000
O O18 0.500000 0.000000 0.500000
#
# Coordination Sequence:
#
# PCOD9046895 Si02
#       8
#     2   2   2   2   2   2   2   2
#     4  11  24  43  73  99 141 186 229 292 355 414
#     4  10  24  43  69 101 148 184 235 288 353 417
#     4  11  24  48  71 104 143 187 238 296 354 420
#     4  11  25  46  73 104 142 187 239 293 357 421
#     4   9  22  45  67 102 139 183 230 289 347 417
#     4  11  24  44  68 107 138 187 237 287 352 426
#     4  10  25  44  69 104 144 186 237 297 347 427
#     4  11  25  47  71 106 137 185 240 288 353 431
#
# _framework density 24.713049999999999
#
# number of rings (size 3 to 8) (size 9 to 14) (size 15 to 20)
#    0.000    1.500    2.500    0.375    7.000    5.000 
#    9.000    0.000    0.000    0.000    0.000    0.000 
#    0.000    0.000    0.000    0.000    0.000    0.000 
#
# Total GULP energy -89249.993546 kJ/mol
# GULP energy per Si atom -5578.124597 kJ/mol
# Density = 2.465680 g / cm^3
# Si number density = 24.713050 Si / 1000 Ang^3
#
#
#
# Elastic Constant Matrix: (Units=GPa)
#
#
# Indices 1 2 3 4 5 6 
#
# 1 79.6696 17.1624 41.6610 -14.0285 25.2782 23.0057
# 2 17.1624 139.1795 39.2101 -10.0068 10.1823 18.6578
# 3 41.6610 39.2101 167.7939 -7.5348 30.8046 7.7767
# 4 -14.0285 -10.0068 -7.5348 39.2991 5.2477 4.2329
# 5 25.2782 10.1823 30.8046 5.2477 49.2414 -1.6502
# 6 23.0057 18.6578 7.7767 4.2329 -1.6502 35.7043
#
#
#
# Elastic Compliance Matrix: (Units=1/GPa)
#
#
# Indices 1 2 3 4 5 6 
#
# 1 0.026034 0.002207 -0.002893 0.013284 -0.014081 -0.019523
# 2 0.002207 0.008648 -0.001666 0.003661 -0.002474 -0.006127
# 3 -0.002893 -0.001666 0.007571 0.000284 -0.002906 0.000918
# 4 0.013284 0.003661 0.000284 0.034400 -0.011928 -0.015163
# 5 -0.014081 -0.002474 -0.002906 -0.011928 0.031602 0.013874
# 6 -0.019523 -0.006127 0.000918 -0.015163 0.013874 0.046028
#
#
# Mechanical properties :
#
#
# Convention : Reuss Voigt Hill
#
# Bulk Modulus (GPa) = 26.63249 64.74554 45.68902
# Shear Modulus (GPa) = 29.15395 44.08959 36.62177
#
# Velocity S-wave (km/s) = 3.43840 4.22840 3.85370
# Velocity P-wave (km/s) = 5.15398 7.07778 6.19106
#
# Compressibility (1/GPa) = 0.03754812
#
# Stress axis : x y z
#
# Youngs Moduli (GPa) = 38.41191 115.63705 132.08092
#
# Poissons Ratio (x) = -0.25524 0.38214
# Poissons Ratio (y) = -0.08479 0.22008
# Poissons Ratio (z) = 0.11113 0.19268
#
# Static dielectric constant tensor:
#      x y z
#    x 2.044840 -0.187720 0.059090 
#    y -0.187720 2.131430 -0.038430 
#    z 0.059090 -0.038430 2.030040 
# 
# From -- ./inp_files/332635.got.cif
#   From: 2010.05.17/outbox.cif.g08.bks.cpg/sg2_167_cif.got.tgz:332635.got - 2010.06.03 11:33:40.
