data_PCOD9046603
_publ_section_title
;
Structure prediction by ZEFSAII (Michael W. Deem and Ramdas Pophale) SiO2 
 PCOD9046603
Probable space group: P -1
;
_chemical_formula_sum "Si O2"
_cell_formula_units_Z 16
_cell_length_a 9.410649
_cell_length_b 14.020816
_cell_length_c 15.183613
_cell_angle_alpha 47.514133
_cell_angle_beta 35.185599
_cell_angle_gamma 46.283524
_cell_volume 804.422189
_symmetry_space_group_name_H-M "P -1"
_symmetry_group_IT_number 2
_symmetry_cell_setting 'triclinic'
loop_
_space_group_symop_operation_xyz
x,y,z
-x,-y,-z
loop_
_atom_site_type_symbol
_atom_site_label
_atom_site_fract_x
_atom_site_fract_y
_atom_site_fract_z
Si Si1 0.772894 0.945798 0.611795
Si Si2 0.699520 0.545807 0.652962
Si Si3 0.219497 0.687439 0.519382
Si Si4 0.531529 0.775813 0.953879
Si Si5 0.546683 0.767780 0.458777
Si Si6 0.460596 0.341770 0.801397
Si Si7 0.021554 0.504995 0.150102
Si Si8 0.866071 0.349996 0.842110
O O1 0.613386 0.900094 0.797581
O O2 0.940507 0.803669 0.570805
O O3 0.578748 0.068569 0.578453
O O4 0.000000 0.000000 0.500000
O O5 0.565099 0.697341 0.589017
O O6 0.563455 0.453014 0.727253
O O7 0.721608 0.493139 0.774330
O O8 0.000000 0.500000 0.500000
O O9 0.362033 0.717806 0.516068
O O10 0.391268 0.691035 0.345737
O O11 0.159476 0.548001 0.657312
O O12 0.767981 0.633555 0.904643
O O13 0.486187 0.779215 0.079387
O O14 0.289903 0.752669 0.039409
O O15 0.837871 0.715907 0.302438
O O16 0.158872 0.410485 0.888197
O O17 0.131600 0.606031 0.086040
#
# Coordination Sequence:
#
# PCOD9046603 Si02
#       8
#     2   2   2   2   2   2   2   2
#     4   9  21  38  58  79 108 152 191 231 271 328
#     4   9  18  30  52  87 114 138 176 231 278 325
#     4  10  18  32  58  86 110 145 191 229 264 331
#     4  10  23  37  53  84 118 145 181 237 282 326
#     4  10  17  34  56  81 112 152 188 219 275 334
#     4  11  19  33  58  87 114 142 185 235 282 325
#     4  11  19  34  58  85 117 147 184 225 284 337
#     4  10  20  33  57  84 116 145 179 230 289 331
#
# _framework density 19.890052000000001
#
# number of rings (size 3 to 8) (size 9 to 14) (size 15 to 20)
#    0.000    2.000    2.500    2.625    0.000    0.500 
#    0.000    2.500    0.000   18.750    0.000    0.000 
#    0.000    0.000    0.000    0.000    0.000    0.000 
#
# Total GULP energy -89235.431731 kJ/mol
# GULP energy per Si atom -5577.214483 kJ/mol
# Density = 1.984478 g / cm^3
# Si number density = 19.890052 Si / 1000 Ang^3
#
#
#
# Elastic Constant Matrix: (Units=GPa)
#
#
# Indices 1 2 3 4 5 6 
#
# 1 94.4307 14.7751 18.4603 -8.2258 -6.1045 -20.9472
# 2 14.7751 77.0971 18.0294 -15.7493 7.1504 -28.3367
# 3 18.4603 18.0294 85.3625 -16.7485 -9.5857 -11.7047
# 4 -8.2258 -15.7493 -16.7485 30.9524 -0.4440 5.1918
# 5 -6.1045 7.1504 -9.5857 -0.4440 20.2816 -0.7097
# 6 -20.9472 -28.3367 -11.7047 5.1918 -0.7097 22.8716
#
#
#
# Elastic Compliance Matrix: (Units=1/GPa)
#
#
# Indices 1 2 3 4 5 6 
#
# 1 0.014366 0.003979 -0.000706 0.002616 0.003248 0.017232
# 2 0.003979 0.028045 -0.001070 0.008660 -0.007759 0.035636
# 3 -0.000706 -0.001070 0.014837 0.006676 0.007475 0.004338
# 4 0.002616 0.008660 0.006676 0.039780 0.002026 0.007574
# 5 0.003248 -0.007759 0.007475 0.002026 0.056543 -0.001518
# 6 0.017232 0.035636 0.004338 0.007574 -0.001518 0.104109
#
#
# Mechanical properties :
#
#
# Convention : Reuss Voigt Hill
#
# Bulk Modulus (GPa) = 16.21964 39.93553 28.07758
# Shear Modulus (GPa) = 18.25985 28.52949 23.39467
#
# Velocity S-wave (km/s) = 3.03320 3.79140 3.43330
# Velocity P-wave (km/s) = 4.52100 6.26802 5.46477
#
# Compressibility (1/GPa) = 0.06165366
#
# Stress axis : x y z
#
# Youngs Moduli (GPa) = 69.61065 35.65744 67.39683
#
# Poissons Ratio (x) = -0.14188 0.04760
# Poissons Ratio (y) = -0.27697 0.07209
# Poissons Ratio (z) = 0.04916 0.03814
#
# Static dielectric constant tensor:
#      x y z
#    x 1.672360 -0.029130 -0.035690 
#    y -0.029130 1.721200 -0.012550 
#    z -0.035690 -0.012550 1.700350 
# 
# From -- ./inp_files/176677.got.cif
#   From: 2010.05.17/outbox.cif.g08.bks.cpg/sg2_89_cif.got.tgz:176677.got - 2010.06.03 11:33:40.
