data_PCOD9046465
_publ_section_title
;
Structure prediction by ZEFSAII (Michael W. Deem and Ramdas Pophale) SiO2 
 PCOD9046465
Probable space group: P -1
;
_chemical_formula_sum "Si O2"
_cell_formula_units_Z 16
_cell_length_a 8.952269
_cell_length_b 15.558121
_cell_length_c 12.429045
_cell_angle_alpha 107.122274
_cell_angle_beta 123.468044
_cell_angle_gamma 33.074382
_cell_volume 732.659727
_symmetry_space_group_name_H-M "P -1"
_symmetry_group_IT_number 2
_symmetry_cell_setting 'triclinic'
loop_
_space_group_symop_operation_xyz
x,y,z
-x,-y,-z
loop_
_atom_site_type_symbol
_atom_site_label
_atom_site_fract_x
_atom_site_fract_y
_atom_site_fract_z
Si Si1 0.198647 0.068141 0.353860
Si Si2 0.262881 0.516850 0.897607
Si Si3 0.077457 0.728984 0.262773
Si Si4 0.176872 0.596497 0.651002
Si Si5 0.170315 0.327721 0.015825
Si Si6 0.765546 0.766850 0.341957
Si Si7 0.670592 0.187670 0.894680
Si Si8 0.952279 0.977383 0.231792
O O1 0.890993 0.268032 0.306501
O O2 0.500000 0.000000 0.500000
O O3 0.385562 0.968355 0.278814
O O4 0.103572 0.010314 0.342879
O O5 0.150948 0.560881 0.743990
O O6 0.539737 0.323598 0.963364
O O7 0.500000 0.500000 0.000000
O O8 0.957281 0.647472 0.907149
O O9 0.463993 0.569622 0.322397
O O10 0.930138 0.893302 0.257556
O O11 0.929118 0.712691 0.119613
O O12 0.011030 0.725099 0.356946
O O13 0.909546 0.681006 0.484373
O O14 0.574774 0.161041 0.111638
O O15 0.000000 0.500000 0.000000
O O16 0.677664 0.718137 0.220244
O O17 0.797042 0.158473 0.815068
O O18 0.000000 0.000000 0.000000
#
# Coordination Sequence:
#
# PCOD9046465 Si02
#       8
#     2   2   2   2   2   2   2   2
#     4   9  22  45  68  91 131 182 223 275 346 409
#     4  12  25  42  68 100 135 184 224 282 338 408
#     4  12  23  43  65 104 137 175 229 287 337 407
#     4  11  23  45  68  95 138 176 231 272 345 409
#     4  12  25  42  67 102 142 180 227 281 348 405
#     4  10  24  42  73  94 133 183 224 280 345 403
#     4  11  23  43  67  96 132 179 227 278 345 411
#     4  11  23  41  66  99 134 174 229 287 338 406
#
# _framework density 21.838242999999999
#
# number of rings (size 3 to 8) (size 9 to 14) (size 15 to 20)
#    0.000    1.000    2.500    3.750    5.250    0.500 
#    2.250    2.500    0.000    0.000    0.000    0.000 
#    0.000    0.000    0.000    0.000    0.000    0.000 
#
# Total GULP energy -89111.486380 kJ/mol
# GULP energy per Si atom -5569.467899 kJ/mol
# Density = 2.178854 g / cm^3
# Si number density = 21.838243 Si / 1000 Ang^3
#
#
#
# Elastic Constant Matrix: (Units=GPa)
#
#
# Indices 1 2 3 4 5 6 
#
# 1 100.9271 22.5282 30.7621 -7.2554 -4.7849 -0.7870
# 2 22.5282 122.5783 16.3487 -10.6749 12.5890 12.3321
# 3 30.7621 16.3487 86.4624 -6.2698 5.0101 12.1235
# 4 -7.2554 -10.6749 -6.2698 23.8533 2.1121 5.7860
# 5 -4.7849 12.5890 5.0101 2.1121 43.1467 7.2421
# 6 -0.7870 12.3321 12.1235 5.7860 7.2421 32.6054
#
#
#
# Elastic Compliance Matrix: (Units=1/GPa)
#
#
# Indices 1 2 3 4 5 6 
#
# 1 0.011780 -0.001924 -0.004142 0.000988 0.001975 0.001938
# 2 -0.001924 0.009609 -0.000075 0.004881 -0.002585 -0.003945
# 3 -0.004142 -0.000075 0.014226 0.003962 -0.001314 -0.005772
# 4 0.000988 0.004881 0.003962 0.048410 -0.002232 -0.011390
# 5 0.001975 -0.002585 -0.001314 -0.002232 0.025024 -0.003648
# 6 0.001938 -0.003945 -0.005772 -0.011390 -0.003648 0.037186
#
#
# Mechanical properties :
#
#
# Convention : Reuss Voigt Hill
#
# Bulk Modulus (GPa) = 42.85888 49.91621 46.38755
# Shear Modulus (GPa) = 30.06675 35.94300 33.00487
#
# Velocity S-wave (km/s) = 3.71454 4.06134 3.89180
# Velocity P-wave (km/s) = 6.16971 6.70071 6.44068
#
# Compressibility (1/GPa) = 0.02333239
#
# Stress axis : x y z
#
# Youngs Moduli (GPa) = 84.89058 104.06686 70.29158
#
# Poissons Ratio (x) = 0.20026 0.29113
# Poissons Ratio (y) = 0.16336 0.00530
# Poissons Ratio (z) = 0.35160 0.00785
#
# Static dielectric constant tensor:
#      x y z
#    x 1.892790 0.087770 -0.016040 
#    y 0.087770 1.810650 0.014710 
#    z -0.016040 0.014710 1.878490 
# 
# From -- ./inp_files/397495.got.cif
#   From: 2010.05.17/outbox.cif.g08.bks.cpg/sg2_199_cif.got.tgz:397495.got - 2010.06.03 11:33:40.
