data_PCOD9046958
_publ_section_title
;
Structure prediction by ZEFSAII (Michael W. Deem and Ramdas Pophale) SiO2 
 PCOD9046958
Probable space group: P -1
;
_chemical_formula_sum "Si O2"
_cell_formula_units_Z 16
_cell_length_a 5.253843
_cell_length_b 11.881401
_cell_length_c 25.506382
_cell_angle_alpha 34.561886
_cell_angle_beta 85.867138
_cell_angle_gamma 106.215938
_cell_volume 721.766858
_symmetry_space_group_name_H-M "P -1"
_symmetry_group_IT_number 2
_symmetry_cell_setting 'triclinic'
loop_
_space_group_symop_operation_xyz
x,y,z
-x,-y,-z
loop_
_atom_site_type_symbol
_atom_site_label
_atom_site_fract_x
_atom_site_fract_y
_atom_site_fract_z
Si Si1 0.166006 0.504348 0.644081
Si Si2 0.762023 0.090447 0.005678
Si Si3 0.202155 0.293179 0.378479
Si Si4 0.289110 0.896854 0.783171
Si Si5 0.342431 0.633399 0.471021
Si Si6 0.343712 0.620161 0.042721
Si Si7 0.182198 0.046043 0.172402
Si Si8 0.408320 0.400043 0.839480
O O1 0.476669 0.584733 0.640224
O O2 0.279117 0.606990 0.544004
O O3 0.993385 0.608225 0.635332
O O4 0.933716 0.208494 0.756002
O O5 0.753205 0.849048 0.099043
O O6 0.684522 0.155421 0.036336
O O7 0.080953 0.349067 0.881886
O O8 0.500000 0.000000 0.000000
O O9 0.323963 0.376917 0.284984
O O10 0.000000 0.000000 0.500000
O O11 0.566972 0.903355 0.805557
O O12 0.988158 0.623534 0.876763
O O13 0.128356 0.989808 0.786603
O O14 0.439286 0.083988 0.660265
O O15 0.500000 0.500000 0.500000
O O16 0.000000 0.500000 0.500000
O O17 0.446052 0.596297 0.108165
O O18 0.627039 0.721466 0.958829
#
# Coordination Sequence:
#
# PCOD9046958 Si02
#       8
#     2   2   2   2   2   2   2   2
#     4  12  26  47  76  98 141 189 227 288 351 404
#     4   9  21  42  65  97 129 179 230 280 328 421
#     4  12  29  47  70 106 143 178 236 292 342 409
#     4  12  26  45  70 103 144 176 229 294 341 418
#     4  12  23  48  72 104 135 182 240 281 339 415
#     4  11  26  40  71  98 143 181 222 289 358 398
#     4  12  26  46  69 106 137 181 234 280 346 423
#     4  10  24  43  69  98 136 184 234 278 344 420
#
# _framework density 22.167822000000001
#
# number of rings (size 3 to 8) (size 9 to 14) (size 15 to 20)
#    0.000    0.750    2.500    3.375   14.000    1.000 
#    0.000    0.000    0.000    0.000    0.000    0.000 
#    0.000    0.000    0.000    0.000    0.000    0.000 
#
# Total GULP energy -89442.717986 kJ/mol
# GULP energy per Si atom -5590.169874 kJ/mol
# Density = 2.211737 g / cm^3
# Si number density = 22.167822 Si / 1000 Ang^3
#
#
#
# Elastic Constant Matrix: (Units=GPa)
#
#
# Indices 1 2 3 4 5 6 
#
# 1 75.0415 -2.4925 -2.0458 12.3788 -15.6767 2.9926
# 2 -2.4925 48.5883 27.2428 -3.8946 3.5764 6.6134
# 3 -2.0458 27.2428 154.1333 15.0979 -11.3213 8.7707
# 4 12.3788 -3.8946 15.0979 46.9608 1.9386 1.1294
# 5 -15.6767 3.5764 -11.3213 1.9386 28.5333 3.3727
# 6 2.9926 6.6134 8.7707 1.1294 3.3727 38.7522
#
#
#
# Elastic Compliance Matrix: (Units=1/GPa)
#
#
# Indices 1 2 3 4 5 6 
#
# 1 0.016540 -0.001096 0.001853 -0.005429 0.010598 -0.002274
# 2 -0.001096 0.024442 -0.005015 0.004223 -0.005637 -0.002584
# 3 0.001853 -0.005015 0.008244 -0.003739 0.005350 -0.001510
# 4 -0.005429 0.004223 -0.003739 0.024545 -0.006713 0.000414
# 5 0.010598 -0.005637 0.005350 -0.006713 0.044718 -0.004763
# 6 -0.002274 -0.002584 -0.001510 0.000414 -0.004763 0.027166
#
#
# Mechanical properties :
#
#
# Convention : Reuss Voigt Hill
#
# Bulk Modulus (GPa) = 24.56447 35.90801 30.23624
# Shear Modulus (GPa) = 29.80763 39.85316 34.83040
#
# Velocity S-wave (km/s) = 3.67090 4.24464 3.96815
# Velocity P-wave (km/s) = 5.39190 6.34476 5.88764
#
# Compressibility (1/GPa) = 0.04070920
#
# Stress axis : x y z
#
# Youngs Moduli (GPa) = 60.45842 40.91306 121.29862
#
# Poissons Ratio (x) = 0.04485 -0.22476
# Poissons Ratio (y) = 0.06627 0.60836
# Poissons Ratio (z) = -0.11202 0.20519
#
# Static dielectric constant tensor:
#      x y z
#    x 1.907810 -0.060320 0.016350 
#    y -0.060320 1.835690 0.022070 
#    z 0.016350 0.022070 1.856880 
# 
# From -- ./inp_files/604445.got.cif
#   From: 2010.05.17/outbox.cif.g08.bks.cpg/sg2_303_cif.got.tgz:604445.got - 2010.06.03 11:33:40.
