data_PCOD9046164
_publ_section_title
;
Structure prediction by ZEFSAII (Michael W. Deem and Ramdas Pophale) SiO2 
 PCOD9046164
Probable space group: P -1
;
_chemical_formula_sum "Si O2"
_cell_formula_units_Z 13
_cell_length_a 5.341990
_cell_length_b 12.524165
_cell_length_c 9.424805
_cell_angle_alpha 100.699327
_cell_angle_beta 68.925103
_cell_angle_gamma 115.594609
_cell_volume 530.299433
_symmetry_space_group_name_H-M "P -1"
_symmetry_group_IT_number 2
_symmetry_cell_setting 'triclinic'
loop_
_space_group_symop_operation_xyz
x,y,z
-x,-y,-z
loop_
_atom_site_type_symbol
_atom_site_label
_atom_site_fract_x
_atom_site_fract_y
_atom_site_fract_z
Si Si1 0.464758 0.666805 0.587575
Si Si2 0.059666 0.915625 0.080766
Si Si3 0.487099 0.091352 0.227393
Si Si4 0.128987 0.722098 0.417070
Si Si5 0.688868 0.465799 0.132482
Si Si6 0.521361 0.675690 0.118864
Si Si7 0.500000 0.000000 0.500000
O O1 0.536738 0.791933 0.682025
O O2 0.256894 0.661998 0.497262
O O3 0.314235 0.568653 0.712782
O O4 0.781119 0.673881 0.481103
O O5 0.783041 0.797438 0.134784
O O6 0.182522 0.990031 0.215399
O O7 0.306914 0.882682 0.945348
O O8 0.000000 0.000000 0.000000
O O9 0.596924 0.041099 0.326629
O O10 0.236246 0.690833 0.237975
O O11 0.285626 0.862784 0.452747
O O12 0.568271 0.566850 0.155965
O O13 0.483054 0.351264 0.053999
O O14 0.000000 0.500000 0.000000
#
# Coordination Sequence:
#
# PCOD9046164 Si02
#       7
#     2   2   2   2   2   2   1
#     4  11  27  47  75 106 149 193 242 299 370 437
#     4  11  23  42  73 107 144 189 246 303 366 440
#     4  10  24  42  71 106 146 194 238 301 364 445
#     4  11  28  46  73 110 150 194 238 301 369 442
#     4  11  27  49  76 100 141 192 253 310 362 430
#     4  11  27  45  74 105 142 192 248 305 365 435
#     4  10  24  42  68 106 154 188 236 284 370 438
#
# _framework density 24.514453
#
# number of rings (size 3 to 8) (size 9 to 14) (size 15 to 20)
#    0.000    1.231    0.000    2.769   19.385    4.923 
#    0.000    0.000    0.000    0.000    0.000    0.000 
#    0.000    0.000    0.000    0.000    0.000    0.000 
#
# Total GULP energy -72626.991427 kJ/mol
# GULP energy per Si atom -5586.691648 kJ/mol
# Density = 2.445866 g / cm^3
# Si number density = 24.514453 Si / 1000 Ang^3
#
#
#
# Elastic Constant Matrix: (Units=GPa)
#
#
# Indices 1 2 3 4 5 6 
#
# 1 75.8039 13.9757 10.1314 5.4311 -15.9911 -9.8825
# 2 13.9757 63.3359 37.7597 6.6450 -12.8729 11.0673
# 3 10.1314 37.7597 68.3491 2.7204 1.0370 -13.2465
# 4 5.4311 6.6450 2.7204 46.6661 4.1299 5.7594
# 5 -15.9911 -12.8729 1.0370 4.1299 45.7009 -2.0645
# 6 -9.8825 11.0673 -13.2465 5.7594 -2.0645 26.9266
#
#
#
# Elastic Compliance Matrix: (Units=1/GPa)
#
#
# Indices 1 2 3 4 5 6 
#
# 1 0.016611 -0.006296 0.003255 -0.003042 0.004750 0.011300
# 2 -0.006296 0.041821 -0.028664 -0.000270 0.008767 -0.032871
# 3 0.003255 -0.028664 0.036072 -0.001625 -0.006225 0.030592
# 4 -0.003042 -0.000270 -0.001625 0.023092 -0.003507 -0.007013
# 5 0.004750 0.008767 -0.006225 -0.003507 0.026374 -0.002150
# 6 0.011300 -0.032871 0.030592 -0.007013 -0.002150 0.071180
#
#
# Mechanical properties :
#
#
# Convention : Reuss Voigt Hill
#
# Bulk Modulus (GPa) = 32.16037 36.80248 34.48143
# Shear Modulus (GPa) = 17.30559 33.56686 25.43622
#
# Velocity S-wave (km/s) = 2.65982 3.70438 3.22468
# Velocity P-wave (km/s) = 4.75187 5.77423 5.28782
#
# Compressibility (1/GPa) = 0.03109417
#
# Stress axis : x y z
#
# Youngs Moduli (GPa) = 60.20160 23.91145 27.72259
#
# Poissons Ratio (x) = 0.15054 -0.09024
# Poissons Ratio (y) = 0.37902 0.79463
# Poissons Ratio (z) = -0.19596 0.68539
#
# Static dielectric constant tensor:
#      x y z
#    x 1.983810 0.012130 0.012390 
#    y 0.012130 1.931730 0.012240 
#    z 0.012390 0.012240 1.890090 
# 
# From -- ./inp_files/23000.got.cif
#   From: 2010.05.17/outbox.cif.g08.bks.cpg/sg2_12_cif.got.tgz:23000.got - 2010.06.03 11:33:40.
