data_PCOD9046445
_publ_section_title
;
Structure prediction by ZEFSAII (Michael W. Deem and Ramdas Pophale) SiO2 
 PCOD9046445
Probable space group: P -1
;
_chemical_formula_sum "Si O2"
_cell_formula_units_Z 15
_cell_length_a 12.630664
_cell_length_b 5.405597
_cell_length_c 15.240842
_cell_angle_alpha 62.346613
_cell_angle_beta 50.652539
_cell_angle_gamma 83.893925
_cell_volume 685.442235
_symmetry_space_group_name_H-M "P -1"
_symmetry_group_IT_number 2
_symmetry_cell_setting 'triclinic'
loop_
_space_group_symop_operation_xyz
x,y,z
-x,-y,-z
loop_
_atom_site_type_symbol
_atom_site_label
_atom_site_fract_x
_atom_site_fract_y
_atom_site_fract_z
Si Si1 0.749700 0.283496 0.950120
Si Si2 0.081661 0.151501 0.018424
Si Si3 0.568580 0.403202 0.722588
Si Si4 0.190211 0.752170 0.770553
Si Si5 0.947339 0.308312 0.322627
Si Si6 0.580215 0.101501 0.244497
Si Si7 0.101360 0.374939 0.528078
Si Si8 0.500000 0.000000 0.000000
O O1 0.890187 0.549263 0.818980
O O2 0.815858 0.010616 0.964045
O O3 0.632520 0.240690 0.943054
O O4 0.678878 0.276988 0.083961
O O5 0.953567 0.159758 0.147695
O O6 0.170342 0.457119 0.884024
O O7 0.000000 0.000000 0.000000
O O8 0.516116 0.692832 0.709069
O O9 0.737124 0.492548 0.608171
O O10 0.501341 0.198555 0.709548
O O11 0.523261 0.207076 0.865601
O O12 0.173970 0.694273 0.686039
O O13 0.327379 0.955122 0.712045
O O14 0.921517 0.507118 0.382966
O O15 0.933569 0.972512 0.405185
O O16 0.000000 0.500000 0.500000
#
# Coordination Sequence:
#
# PCOD9046445 Si02
#       8
#     2   2   2   2   2   2   2   1
#     4  11  22  41  68 111 140 182 229 286 359 410
#     4  11  19  37  62  99 152 182 219 289 347 406
#     4  11  26  47  68 100 134 183 231 278 357 412
#     4  11  22  37  65 105 138 187 230 283 348 412
#     4  12  26  43  75 104 138 181 242 283 335 423
#     4  11  24  42  70  99 146 176 215 292 358 415
#     4  12  28  51  72  96 136 188 235 293 340 406
#     4  10  24  42  72  98 138 172 226 290 344 424
#
# _framework density 21.883683999999999
#
# number of rings (size 3 to 8) (size 9 to 14) (size 15 to 20)
#    0.000    0.800    2.667    5.200    0.000    6.400 
#    0.000    5.333    0.000    0.000    0.000    0.000 
#    0.000    0.000    0.000    0.000    0.000    0.000 
#
# Total GULP energy -83628.211399 kJ/mol
# GULP energy per Si atom -5575.214093 kJ/mol
# Density = 2.183388 g / cm^3
# Si number density = 21.883684 Si / 1000 Ang^3
#
#
#
# Elastic Constant Matrix: (Units=GPa)
#
#
# Indices 1 2 3 4 5 6 
#
# 1 171.6497 39.1125 24.5944 17.9800 -11.8566 20.8151
# 2 39.1125 112.6174 21.6386 9.1814 -11.3539 0.9752
# 3 24.5944 21.6386 49.2816 4.6983 -22.7419 -9.5650
# 4 17.9800 9.1814 4.6983 48.9869 -9.9809 1.6336
# 5 -11.8566 -11.3539 -22.7419 -9.9809 37.3791 3.7770
# 6 20.8151 0.9752 -9.5650 1.6336 3.7770 28.8659
#
#
#
# Elastic Compliance Matrix: (Units=1/GPa)
#
#
# Indices 1 2 3 4 5 6 
#
# 1 0.007892 -0.001685 -0.004680 -0.002041 -0.000695 -0.006978
# 2 -0.001685 0.010240 -0.003521 -0.000909 0.000219 -0.000275
# 3 -0.004680 -0.003521 0.034622 0.002278 0.017856 0.012500
# 4 -0.002041 -0.000909 0.002278 0.022421 0.006434 0.000147
# 5 -0.000695 0.000219 0.017856 0.006434 0.039086 0.000932
# 6 -0.006978 -0.000275 0.012500 0.000147 0.000932 0.043696
#
#
# Mechanical properties :
#
#
# Convention : Reuss Voigt Hill
#
# Bulk Modulus (GPa) = 30.31887 56.02664 43.17275
# Shear Modulus (GPa) = 26.49392 39.59325 33.04359
#
# Velocity S-wave (km/s) = 3.48324 4.25815 3.89004
# Velocity P-wave (km/s) = 5.48288 7.05928 6.32042
#
# Compressibility (1/GPa) = 0.03298276
#
# Stress axis : x y z
#
# Youngs Moduli (GPa) = 126.70600 97.65664 28.88363
#
# Poissons Ratio (x) = 0.16457 0.13516
# Poissons Ratio (y) = 0.21352 0.10170
# Poissons Ratio (z) = 0.59292 0.34384
#
# Static dielectric constant tensor:
#      x y z
#    x 1.765840 0.033620 -0.018450 
#    y 0.033620 1.832830 0.009830 
#    z -0.018450 0.009830 1.855900 
# 
# From -- ./inp_files/510167.got.cif
#   From: 2010.05.17/outbox.cif.g08.bks.cpg/sg2_256_cif.got.tgz:510167.got - 2010.06.03 11:33:40.
