data_PCOD9046499
_publ_section_title
;
Structure prediction by ZEFSAII (Michael W. Deem and Ramdas Pophale) SiO2 
 PCOD9046499
Probable space group: P -1
;
_chemical_formula_sum "Si O2"
_cell_formula_units_Z 16
_cell_length_a 23.205594
_cell_length_b 5.454341
_cell_length_c 9.616952
_cell_angle_alpha 66.380165
_cell_angle_beta 34.590966
_cell_angle_gamma 62.695207
_cell_volume 613.401465
_symmetry_space_group_name_H-M "P -1"
_symmetry_group_IT_number 2
_symmetry_cell_setting 'triclinic'
loop_
_space_group_symop_operation_xyz
x,y,z
-x,-y,-z
loop_
_atom_site_type_symbol
_atom_site_label
_atom_site_fract_x
_atom_site_fract_y
_atom_site_fract_z
Si Si1 0.262851 0.747020 0.274447
Si Si2 0.373198 0.408950 0.616092
Si Si3 0.890444 0.570832 0.282054
Si Si4 0.779863 0.947843 0.991829
Si Si5 0.019928 0.553717 0.287465
Si Si6 0.539728 0.164819 0.009537
Si Si7 0.427545 0.384698 0.829909
Si Si8 0.181202 0.854347 0.842102
O O1 0.337738 0.870612 0.195086
O O2 0.175784 0.652961 0.556407
O O3 0.336699 0.486689 0.102290
O O4 0.213651 0.950399 0.200627
O O5 0.285614 0.621101 0.650191
O O6 0.330209 0.135104 0.755420
O O7 0.379199 0.465038 0.756808
O O8 0.920785 0.555837 0.388166
O O9 0.824703 0.862264 0.288921
O O10 0.000000 0.500000 0.000000
O O11 0.876102 0.687744 0.890846
O O12 0.798024 0.141766 0.034324
O O13 0.000000 0.500000 0.500000
O O14 0.064416 0.807371 0.086292
O O15 0.514193 0.550188 0.659705
O O16 0.500000 0.500000 0.000000
O O17 0.500000 0.000000 0.000000
O O18 0.518221 0.943373 0.216625
#
# Coordination Sequence:
#
# PCOD9046499 Si02
#       8
#     2   2   2   2   2   2   2   2
#     4  12  27  47  79 110 158 211 272 324 399 497
#     4  10  24  42  75 110 153 198 258 333 394 479
#     4  12  28  50  73 113 157 203 261 339 410 468
#     4  11  23  45  75 113 149 202 269 322 397 484
#     4  11  26  47  77 106 148 207 264 328 401 483
#     4  12  27  49  76 113 159 208 260 328 404 479
#     4  11  24  47  72 113 153 206 264 327 401 479
#     4  11  24  46  71 107 151 200 255 326 404 474
#
# _framework density 26.084060000000001
#
# number of rings (size 3 to 8) (size 9 to 14) (size 15 to 20)
#    0.000    0.750    5.000    1.125    5.250    3.500 
#    2.250    0.000    0.000    0.000    0.000    0.000 
#    0.000    0.000    0.000    0.000    0.000    0.000 
#
# Total GULP energy -89375.397280 kJ/mol
# GULP energy per Si atom -5585.962330 kJ/mol
# Density = 2.602469 g / cm^3
# Si number density = 26.084060 Si / 1000 Ang^3
#
#
#
# Elastic Constant Matrix: (Units=GPa)
#
#
# Indices 1 2 3 4 5 6 
#
# 1 142.1717 10.5350 7.8080 -15.2129 3.9369 -6.5901
# 2 10.5350 90.6528 7.7251 -25.5769 3.4268 -14.7573
# 3 7.8080 7.7251 88.2186 -9.0775 -1.9105 -6.0970
# 4 -15.2129 -25.5769 -9.0775 36.6636 2.5442 5.8804
# 5 3.9369 3.4268 -1.9105 2.5442 49.4124 -14.3902
# 6 -6.5901 -14.7573 -6.0970 5.8804 -14.3902 43.7181
#
#
#
# Elastic Compliance Matrix: (Units=1/GPa)
#
#
# Indices 1 2 3 4 5 6 
#
# 1 0.007409 0.000132 -0.000333 0.003047 -0.000624 0.000500
# 2 0.000132 0.014267 -0.000062 0.009484 -0.000505 0.003385
# 3 -0.000333 -0.000062 0.011741 0.002429 0.000797 0.001502
# 4 0.003047 0.009484 0.002429 0.036295 -0.003243 -0.001950
# 5 -0.000624 -0.000505 0.000797 -0.003243 0.022787 0.007784
# 6 0.000500 0.003385 0.001502 -0.001950 0.007784 0.027126
#
#
# Mechanical properties :
#
#
# Convention : Reuss Voigt Hill
#
# Bulk Modulus (GPa) = 30.40285 41.46437 35.93361
# Shear Modulus (GPa) = 38.13457 45.62382 41.87919
#
# Velocity S-wave (km/s) = 3.82774 4.18677 4.01128
# Velocity P-wave (km/s) = 5.58717 6.26921 5.93799
#
# Compressibility (1/GPa) = 0.03289165
#
# Stress axis : x y z
#
# Youngs Moduli (GPa) = 134.97626 70.09105 85.16858
#
# Poissons Ratio (x) = -0.00925 0.02834
# Poissons Ratio (y) = -0.01781 0.00529
# Poissons Ratio (z) = 0.04491 0.00435
#
# Static dielectric constant tensor:
#      x y z
#    x 2.114220 0.006230 -0.061470 
#    y 0.006230 2.259800 0.045930 
#    z -0.061470 0.045930 2.326290 
# 
# From -- ./inp_files/350638.got.cif
#   From: 2010.05.17/outbox.cif.g08.bks.cpg/sg2_176_cif.got.tgz:350638.got - 2010.06.03 11:33:40.
