data_PCOD9046362
_publ_section_title
;
Structure prediction by ZEFSAII (Michael W. Deem and Ramdas Pophale) SiO2 
 PCOD9046362
Probable space group: P -1
;
_chemical_formula_sum "Si O2"
_cell_formula_units_Z 14
_cell_length_a 9.497527
_cell_length_b 14.099386
_cell_length_c 11.566272
_cell_angle_alpha 47.862199
_cell_angle_beta 55.461668
_cell_angle_gamma 29.077903
_cell_volume 557.365040
_symmetry_space_group_name_H-M "P -1"
_symmetry_group_IT_number 2
_symmetry_cell_setting 'triclinic'
loop_
_space_group_symop_operation_xyz
x,y,z
-x,-y,-z
loop_
_atom_site_type_symbol
_atom_site_label
_atom_site_fract_x
_atom_site_fract_y
_atom_site_fract_z
Si Si1 0.655526 0.037495 0.441378
Si Si2 0.860637 0.674855 0.019918
Si Si3 0.037843 0.159369 0.318524
Si Si4 0.753527 0.551953 0.543636
Si Si5 0.520978 0.638163 0.914999
Si Si6 0.367643 0.639363 0.216558
Si Si7 0.421340 0.777605 0.290652
O O1 0.501398 0.217715 0.464025
O O2 0.500000 0.000000 0.500000
O O3 0.916785 0.840572 0.566692
O O4 0.364365 0.844396 0.746888
O O5 0.589701 0.779741 0.129167
O O6 0.134092 0.540696 0.086626
O O7 0.786994 0.840972 0.838954
O O8 0.000000 0.500000 0.000000
O O9 0.697021 0.384773 0.271961
O O10 0.151535 0.970573 0.344517
O O11 0.824430 0.369126 0.707169
O O12 0.668873 0.587142 0.421552
O O13 0.000000 0.500000 0.500000
O O14 0.500000 0.500000 0.000000
O O15 0.370252 0.733499 0.032380
O O16 0.318600 0.735532 0.281683
#
# Coordination Sequence:
#
# PCOD9046362 Si02
#       7
#     2   2   2   2   2   2   2
#     4  11  24  41  70 107 143 183 238 296 358 419
#     4  11  20  41  71  99 141 190 234 290 360 427
#     4  10  24  42  71 104 141 183 242 296 348 429
#     4  11  25  45  68 105 140 186 235 298 358 429
#     4  11  22  42  71 101 140 196 235 287 364 426
#     4  11  24  47  74 100 144 192 240 293 365 423
#     4  11  23  41  72 104 140 185 243 292 358 426
#
# _framework density 25.118189999999998
#
# number of rings (size 3 to 8) (size 9 to 14) (size 15 to 20)
#    0.000    1.143    4.286    2.571    2.000    2.286 
#    2.571    0.000    0.000    4.286    0.000    0.000 
#    0.000    0.000    0.000    0.000    0.000    0.000 
#
# Total GULP energy -78160.758942 kJ/mol
# GULP energy per Si atom -5582.911353 kJ/mol
# Density = 2.506102 g / cm^3
# Si number density = 25.118190 Si / 1000 Ang^3
#
#
#
# Elastic Constant Matrix: (Units=GPa)
#
#
# Indices 1 2 3 4 5 6 
#
# 1 130.3471 50.4256 63.6207 12.0563 -10.0038 17.4330
# 2 50.4256 104.8897 21.8624 15.2075 7.0793 38.9450
# 3 63.6207 21.8624 148.5334 15.7413 6.6136 10.8302
# 4 12.0563 15.2075 15.7413 25.1041 5.2637 5.3012
# 5 -10.0038 7.0793 6.6136 5.2637 44.1957 4.5403
# 6 17.4330 38.9450 10.8302 5.3012 4.5403 32.9173
#
#
#
# Elastic Compliance Matrix: (Units=1/GPa)
#
#
# Indices 1 2 3 4 5 6 
#
# 1 0.012361 -0.005552 -0.004667 -0.000791 0.004369 0.001082
# 2 -0.005552 0.020541 0.001583 -0.006001 -0.001948 -0.020648
# 3 -0.004667 0.001583 0.009090 -0.003661 -0.002078 -0.001515
# 4 -0.000791 -0.006001 -0.003661 0.046688 -0.004417 0.001814
# 5 0.004369 -0.001948 -0.002078 -0.004417 0.024976 -0.002059
# 6 0.001082 -0.020648 -0.001515 0.001814 -0.002059 0.054725
#
#
# Mechanical properties :
#
#
# Convention : Reuss Voigt Hill
#
# Bulk Modulus (GPa) = 40.45394 72.84307 56.64850
# Shear Modulus (GPa) = 25.78743 36.96752 31.37747
#
# Velocity S-wave (km/s) = 3.20760 3.84049 3.53823
# Velocity P-wave (km/s) = 5.46431 6.98061 6.26848
#
# Compressibility (1/GPa) = 0.02471947
#
# Stress axis : x y z
#
# Youngs Moduli (GPa) = 80.89782 48.68346 110.01615
#
# Poissons Ratio (x) = 0.27029 0.51345
# Poissons Ratio (y) = 0.44914 -0.17414
# Poissons Ratio (z) = 0.37755 -0.07706
#
# Static dielectric constant tensor:
#      x y z
#    x 2.023540 0.061790 -0.070110 
#    y 0.061790 2.127990 -0.091460 
#    z -0.070110 -0.091460 2.265830 
# 
# From -- ./inp_files/391975.got.cif
#   From: 2010.05.17/outbox.cif.g08.bks.cpg/sg2_196_cif.got.tgz:391975.got - 2010.06.03 11:33:40.
