data_PCOD9046880
_publ_section_title
;
Structure prediction by ZEFSAII (Michael W. Deem and Ramdas Pophale) SiO2 
 PCOD9046880
Probable space group: P -1
;
_chemical_formula_sum "Si O2"
_cell_formula_units_Z 16
_cell_length_a 12.260069
_cell_length_b 8.830641
_cell_length_c 9.965380
_cell_angle_alpha 90.059521
_cell_angle_beta 78.014117
_cell_angle_gamma 53.046176
_cell_volume 832.362527
_symmetry_space_group_name_H-M "P -1"
_symmetry_group_IT_number 2
_symmetry_cell_setting 'triclinic'
loop_
_space_group_symop_operation_xyz
x,y,z
-x,-y,-z
loop_
_atom_site_type_symbol
_atom_site_label
_atom_site_fract_x
_atom_site_fract_y
_atom_site_fract_z
Si Si1 0.603373 0.285176 0.099456
Si Si2 0.623127 0.303073 0.391494
Si Si3 0.138968 0.780386 0.479661
Si Si4 0.726959 0.404136 0.844909
Si Si5 0.095877 0.463374 0.102812
Si Si6 0.910448 0.516970 0.398014
Si Si7 0.369787 0.068427 0.625186
Si Si8 0.627541 0.923599 0.068681
O O1 0.627227 0.349361 0.234815
O O2 0.432747 0.395805 0.135898
O O3 0.666625 0.066303 0.074093
O O4 0.679572 0.314805 0.962414
O O5 0.500000 0.500000 0.500000
O O6 0.760115 0.219543 0.443030
O O7 0.620365 0.122882 0.379207
O O8 0.213923 0.697898 0.314914
O O9 0.120576 0.630386 0.552898
O O10 0.000000 0.000000 0.500000
O O11 0.849966 0.411255 0.873551
O O12 0.013352 0.456975 0.246453
O O13 0.243085 0.264857 0.032857
O O14 0.000000 0.500000 0.000000
O O15 0.771129 0.734466 0.399477
O O16 0.000000 0.500000 0.500000
O O17 0.392537 0.109676 0.771564
O O18 0.500000 0.000000 0.500000
O O19 0.500000 0.000000 0.000000
#
# Coordination Sequence:
#
# PCOD9046880 Si02
#       8
#     2   2   2   2   2   2   2   2
#     4  10  24  43  69 101 132 178 226 289 336 400
#     4  11  23  43  69 100 135 176 229 281 339 403
#     4  12  27  45  67 100 138 183 227 280 349 416
#     4  11  24  45  67  98 140 173 229 284 342 407
#     4  12  26  45  68 100 140 179 231 284 348 417
#     4  12  26  46  69  97 141 185 229 289 348 405
#     4  11  26  43  69 104 137 180 236 285 339 412
#     4  11  24  44  69 100 135 181 232 282 341 412
#
# _framework density 19.222393
#
# number of rings (size 3 to 8) (size 9 to 14) (size 15 to 20)
#    0.000    0.750    5.000    1.500    7.000    2.000 
#    0.000    1.250    0.000    0.000    0.000    0.000 
#    0.000    0.000    0.000    0.000    0.000    0.000 
#
# Total GULP energy -89137.880046 kJ/mol
# GULP energy per Si atom -5571.117503 kJ/mol
# Density = 1.917864 g / cm^3
# Si number density = 19.222393 Si / 1000 Ang^3
#
#
#
# Elastic Constant Matrix: (Units=GPa)
#
#
# Indices 1 2 3 4 5 6 
#
# 1 102.4889 24.4028 68.6538 -3.0803 7.4718 -16.4659
# 2 24.4028 82.3820 36.9642 -2.9392 -6.7380 -11.9813
# 3 68.6538 36.9642 173.7966 -5.5764 -8.0560 -4.6026
# 4 -3.0803 -2.9392 -5.5764 26.4499 -7.1165 5.8247
# 5 7.4718 -6.7380 -8.0560 -7.1165 42.3971 -5.0304
# 6 -16.4659 -11.9813 -4.6026 5.8247 -5.0304 39.1908
#
#
#
# Elastic Compliance Matrix: (Units=1/GPa)
#
#
# Indices 1 2 3 4 5 6 
#
# 1 0.014918 -0.001521 -0.005662 -0.001690 -0.003647 0.004921
# 2 -0.001521 0.014372 -0.002203 0.000869 0.002720 0.003716
# 3 -0.005662 -0.002203 0.008579 0.001991 0.002370 -0.002037
# 4 -0.001690 0.000869 0.001991 0.041230 0.007091 -0.005428
# 5 -0.003647 0.002720 0.002370 0.007091 0.026531 0.001929
# 6 0.004921 0.003716 -0.002037 -0.005428 0.001929 0.029535
#
#
# Mechanical properties :
#
#
# Convention : Reuss Voigt Hill
#
# Bulk Modulus (GPa) = 52.36998 68.74545 60.55772
# Shear Modulus (GPa) = 31.19080 36.85065 34.02072
#
# Velocity S-wave (km/s) = 4.03256 4.38318 4.21152
# Velocity P-wave (km/s) = 6.99896 7.83947 7.43111
#
# Compressibility (1/GPa) = 0.01909491
#
# Stress axis : x y z
#
# Youngs Moduli (GPa) = 67.03297 69.58114 116.56264
#
# Poissons Ratio (x) = 0.10584 0.66002
# Poissons Ratio (y) = 0.10197 0.25683
# Poissons Ratio (z) = 0.37957 0.15332
#
# Static dielectric constant tensor:
#      x y z
#    x 1.517080 -0.036810 -0.061240 
#    y -0.036810 1.695630 -0.047440 
#    z -0.061240 -0.047440 1.609090 
# 
# From -- ./inp_files/184301.got.cif
#   From: 2010.05.17/outbox.cif.g08.bks.cpg/sg2_93_cif.got.tgz:184301.got - 2010.06.03 11:33:40.
