data_PCOD9046964
_publ_section_title
;
Structure prediction by ZEFSAII (Michael W. Deem and Ramdas Pophale) SiO2 
 PCOD9046964
Probable space group: P -1
;
_chemical_formula_sum "Si O2"
_cell_formula_units_Z 14
_cell_length_a 8.972808
_cell_length_b 11.942559
_cell_length_c 11.621236
_cell_angle_alpha 63.654889
_cell_angle_beta 122.790578
_cell_angle_gamma 142.629601
_cell_volume 635.200534
_symmetry_space_group_name_H-M "P -1"
_symmetry_group_IT_number 2
_symmetry_cell_setting 'triclinic'
loop_
_space_group_symop_operation_xyz
x,y,z
-x,-y,-z
loop_
_atom_site_type_symbol
_atom_site_label
_atom_site_fract_x
_atom_site_fract_y
_atom_site_fract_z
Si Si1 0.946050 0.350600 0.122181
Si Si2 0.141299 0.956202 0.519790
Si Si3 0.453202 0.286861 0.122244
Si Si4 0.411589 0.719891 0.588539
Si Si5 0.105342 0.325495 0.987948
Si Si6 0.938576 0.600452 0.582170
Si Si7 0.459030 0.007438 0.179872
O O1 0.643340 0.152524 0.088043
O O2 0.026945 0.407350 0.263528
O O3 0.000000 0.500000 0.000000
O O4 0.090734 0.319232 0.123178
O O5 0.353686 0.991287 0.672741
O O6 0.919282 0.738819 0.499391
O O7 0.312083 0.079295 0.423693
O O8 0.000000 0.000000 0.500000
O O9 0.546908 0.359488 0.258493
O O10 0.685708 0.462095 0.061277
O O11 0.408009 0.115152 0.171729
O O12 0.204658 0.244750 0.018510
O O13 0.291265 0.597251 0.479980
O O14 0.194033 0.696568 0.567387
O O15 0.814643 0.195117 0.876606
#
# Coordination Sequence:
#
# PCOD9046964 Si02
#       7
#     2   2   2   2   2   2   2
#     4  11  21  43  66  98 139 172 225 278 333 404
#     4  11  26  43  66 101 138 174 228 280 331 408
#     4  11  24  45  69 104 134 175 231 282 333 406
#     4  11  23  44  72  94 135 180 228 277 336 406
#     4  11  25  43  71 101 136 177 225 281 340 406
#     4  10  24  43  69  99 128 184 225 277 345 391
#     4  11  24  44  70  97 133 182 227 275 343 399
#
# _framework density 22.040285000000001
#
# number of rings (size 3 to 8) (size 9 to 14) (size 15 to 20)
#    0.000    1.143    4.286    1.286   10.000    0.571 
#    0.000    0.000    0.000    0.000    0.000    0.000 
#    0.000    0.000    0.000    0.000    0.000    0.000 
#
# Total GULP energy -78091.526429 kJ/mol
# GULP energy per Si atom -5577.966173 kJ/mol
# Density = 2.199012 g / cm^3
# Si number density = 22.040285 Si / 1000 Ang^3
#
#
#
# Elastic Constant Matrix: (Units=GPa)
#
#
# Indices 1 2 3 4 5 6 
#
# 1 116.8533 43.2182 48.8029 -10.1700 -2.6881 -5.2897
# 2 43.2182 72.5372 24.1752 -1.4060 -15.1779 -5.4890
# 3 48.8029 24.1752 65.2133 4.1787 -20.9081 0.9436
# 4 -10.1700 -1.4060 4.1787 31.5693 0.2513 -6.8545
# 5 -2.6881 -15.1779 -20.9081 0.2513 39.2214 -6.1884
# 6 -5.2897 -5.4890 0.9436 -6.8545 -6.1884 35.6864
#
#
#
# Elastic Compliance Matrix: (Units=1/GPa)
#
#
# Indices 1 2 3 4 5 6 
#
# 1 0.017585 -0.007459 -0.013717 0.007601 -0.008764 0.001762
# 2 -0.007459 0.019869 0.000842 -0.001012 0.008129 0.003144
# 3 -0.013717 0.000842 0.030903 -0.008973 0.015644 -0.001732
# 4 0.007601 -0.001012 -0.008973 0.036962 -0.003680 0.007670
# 5 -0.008764 0.008129 0.015644 -0.003680 0.037239 0.005288
# 6 0.001762 0.003144 -0.001732 0.007670 0.005288 0.031203
#
#
# Mechanical properties :
#
#
# Convention : Reuss Voigt Hill
#
# Bulk Modulus (GPa) = 36.11619 54.11072 45.11345
# Shear Modulus (GPa) = 22.35557 30.52258 26.43908
#
# Velocity S-wave (km/s) = 3.18827 3.72540 3.46725
# Velocity P-wave (km/s) = 5.47498 6.56574 6.04501
#
# Compressibility (1/GPa) = 0.02768842
#
# Stress axis : x y z
#
# Youngs Moduli (GPa) = 56.86681 50.33063 32.35915
#
# Poissons Ratio (x) = 0.37540 0.44388
# Poissons Ratio (y) = 0.42416 -0.02724
# Poissons Ratio (z) = 0.78006 -0.04237
#
# Static dielectric constant tensor:
#      x y z
#    x 1.908250 -0.038460 0.015280 
#    y -0.038460 1.809330 0.009950 
#    z 0.015280 0.009950 1.838940 
# 
# From -- ./inp_files/389832.got.cif
#   From: 2010.05.17/outbox.cif.g08.bks.cpg/sg2_195_cif.got.tgz:389832.got - 2010.06.03 11:33:40.
