data_PCOD9046147
_publ_section_title
;
Structure prediction by ZEFSAII (Michael W. Deem and Ramdas Pophale) SiO2 
 PCOD9046147
Probable space group: P -1
;
_chemical_formula_sum "Si O2"
_cell_formula_units_Z 14
_cell_length_a 9.406169
_cell_length_b 26.931070
_cell_length_c 4.935450
_cell_angle_alpha 120.090654
_cell_angle_beta 75.296280
_cell_angle_gamma 147.873359
_cell_volume 534.175470
_symmetry_space_group_name_H-M "P -1"
_symmetry_group_IT_number 2
_symmetry_cell_setting 'triclinic'
loop_
_space_group_symop_operation_xyz
x,y,z
-x,-y,-z
loop_
_atom_site_type_symbol
_atom_site_label
_atom_site_fract_x
_atom_site_fract_y
_atom_site_fract_z
Si Si1 0.992168 0.152839 0.240837
Si Si2 0.492596 0.618753 0.709967
Si Si3 0.000000 0.500000 0.000000
Si Si4 0.212887 0.121745 0.337017
Si Si5 0.109612 0.417760 0.912312
Si Si6 0.551095 0.198541 0.904603
Si Si7 0.487509 0.941794 0.543174
Si Si8 0.500000 0.500000 0.500000
O O1 0.263076 0.263814 0.238955
O O2 0.087075 0.143234 0.414208
O O3 0.810235 0.147560 0.399280
O O4 0.759358 0.037535 0.871601
O O5 0.598565 0.601149 0.793735
O O6 0.310377 0.520960 0.307651
O O7 0.276973 0.588521 0.888966
O O8 0.009680 0.572145 0.189343
O O9 0.323270 0.143362 0.639016
O O10 0.478982 0.207787 0.235268
O O11 0.000000 0.000000 0.000000
O O12 0.270420 0.427501 0.667720
O O13 0.864459 0.310073 0.927787
O O14 0.508612 0.117375 0.763869
O O15 0.500000 0.000000 0.500000
#
# Coordination Sequence:
#
# PCOD9046147 Si02
#       8
#     2   2   1   2   2   2   2   1
#     4  11  26  45  72 107 145 194 246 308 376 440
#     4  11  24  45  70 105 145 191 243 302 371 447
#     4  10  24  42  68 102 142 184 240 294 362 432
#     4  12  26  49  75 109 151 193 250 306 376 449
#     4  11  25  44  71 105 144 192 242 300 371 441
#     4  12  28  46  78 110 150 195 247 310 374 446
#     4  11  26  47  73 105 147 193 248 310 368 448
#     4  10  24  44  70  98 144 190 248 292 364 442
#
# _framework density 26.208617
#
# number of rings (size 3 to 8) (size 9 to 14) (size 15 to 20)
#    0.000    0.857    1.429    3.857   10.000    3.429 
#    0.000    0.000    0.000    0.000    0.000    0.000 
#    0.000    0.000    0.000    0.000    0.000    0.000 
#
# Total GULP energy -78020.026302 kJ/mol
# GULP energy per Si atom -5572.859022 kJ/mol
# Density = 2.614896 g / cm^3
# Si number density = 26.208617 Si / 1000 Ang^3
#
#
#
# Elastic Constant Matrix: (Units=GPa)
#
#
# Indices 1 2 3 4 5 6 
#
# 1 118.5625 39.7160 22.4129 7.2149 -14.3776 2.4342
# 2 39.7160 186.5257 29.9712 -11.3252 0.5368 20.1375
# 3 22.4129 29.9712 77.1521 -0.4839 6.0343 25.9820
# 4 7.2149 -11.3252 -0.4839 43.7933 8.5730 -16.0015
# 5 -14.3776 0.5368 6.0343 8.5730 29.3395 -19.7506
# 6 2.4342 20.1375 25.9820 -16.0015 -19.7506 52.8256
#
#
#
# Elastic Compliance Matrix: (Units=1/GPa)
#
#
# Indices 1 2 3 4 5 6 
#
# 1 0.012008 -0.002585 -0.006028 -0.002516 0.012936 0.007471
# 2 -0.002585 0.006422 -0.000404 0.001723 -0.003859 -0.003051
# 3 -0.006028 -0.000404 0.022645 -0.001816 -0.019579 -0.018576
# 4 -0.002516 0.001723 -0.001816 0.027036 -0.004063 0.007023
# 5 0.012936 -0.003859 -0.019579 -0.004063 0.069424 0.035230
# 6 0.007471 -0.003051 -0.018576 0.007023 0.035230 0.044185
#
#
# Mechanical properties :
#
#
# Convention : Reuss Voigt Hill
#
# Bulk Modulus (GPa) = 43.39882 62.93783 53.16832
# Shear Modulus (GPa) = 24.10420 44.53435 34.31928
#
# Velocity S-wave (km/s) = 3.03595 4.12664 3.62258
# Velocity P-wave (km/s) = 5.37441 6.83899 6.15045
#
# Compressibility (1/GPa) = 0.02304210
#
# Stress axis : x y z
#
# Youngs Moduli (GPa) = 83.27639 155.72649 44.15975
#
# Poissons Ratio (x) = 0.40253 0.26619
# Poissons Ratio (y) = 0.21526 0.01782
# Poissons Ratio (z) = 0.50199 0.06284
#
# Static dielectric constant tensor:
#      x y z
#    x 2.283940 0.125830 0.160860 
#    y 0.125830 2.164650 0.028300 
#    z 0.160860 0.028300 2.052380 
# 
# From -- ./inp_files/56527.got.cif
#   From: 2010.05.17/outbox.cif.g08.bks.cpg/sg2_29_cif.got.tgz:56527.got - 2010.06.03 11:33:40.
