data_PCOD9046795
_publ_section_title
;
Structure prediction by ZEFSAII (Michael W. Deem and Ramdas Pophale) SiO2 
 PCOD9046795
Probable space group: P -1
;
_chemical_formula_sum "Si O2"
_cell_formula_units_Z 14
_cell_length_a 28.401600
_cell_length_b 19.182189
_cell_length_c 10.594271
_cell_angle_alpha 30.407708
_cell_angle_beta 21.169489
_cell_angle_gamma 16.849145
_cell_volume 578.746192
_symmetry_space_group_name_H-M "P -1"
_symmetry_group_IT_number 2
_symmetry_cell_setting 'triclinic'
loop_
_space_group_symop_operation_xyz
x,y,z
-x,-y,-z
loop_
_atom_site_type_symbol
_atom_site_label
_atom_site_fract_x
_atom_site_fract_y
_atom_site_fract_z
Si Si1 0.646772 0.646930 0.424226
Si Si2 0.328841 0.781676 0.362624
Si Si3 0.018033 0.438547 0.404941
Si Si4 0.588164 0.910395 0.565916
Si Si5 0.308107 0.946066 0.382383
Si Si6 0.176610 0.662209 0.307293
Si Si7 0.472382 0.416404 0.407880
O O1 0.812485 0.454702 0.424081
O O2 0.601124 0.558745 0.586598
O O3 0.425087 0.919600 0.616518
O O4 0.760317 0.664863 0.029432
O O5 0.304087 0.802358 0.544273
O O6 0.305665 0.666223 0.514595
O O7 0.605337 0.577458 0.957071
O O8 0.094795 0.079887 0.454961
O O9 0.000000 0.500000 0.500000
O O10 0.827238 0.642680 0.453438
O O11 0.077243 0.223972 0.580297
O O12 0.500000 0.000000 0.500000
O O13 0.403786 0.968411 0.004333
O O14 0.486262 0.759828 0.341944
O O15 0.279898 0.718481 0.005766
#
# Coordination Sequence:
#
# PCOD9046795 Si02
#       7
#     2   2   2   2   2   2   2
#     4  11  24  44  69  99 143 180 239 291 357 420
#     4  10  25  44  71 105 142 184 236 286 359 420
#     4  11  26  43  72 102 137 189 239 297 356 424
#     4  11  26  43  70 102 140 186 236 297 360 422
#     4  11  24  44  69  99 143 180 239 291 357 420
#     4  10  25  44  71 105 142 184 236 286 359 420
#     4  10  24  43  68 101 140 188 232 290 354 424
#
# _framework density 24.190225999999999
#
# number of rings (size 3 to 8) (size 9 to 14) (size 15 to 20)
#    0.857    0.571    0.000    3.429    8.000    8.000 
#    0.000    0.000    0.000    0.000    0.000    0.000 
#    0.000    0.000    0.000    0.000    0.000    0.000 
#
# Total GULP energy -77935.324762 kJ/mol
# GULP energy per Si atom -5566.808912 kJ/mol
# Density = 2.413517 g / cm^3
# Si number density = 24.190226 Si / 1000 Ang^3
#
#
#
# Elastic Constant Matrix: (Units=GPa)
#
#
# Indices 1 2 3 4 5 6 
#
# 1 122.2267 68.7957 14.6670 26.3919 11.2862 19.6319
# 2 68.7957 154.6765 20.5384 28.0045 19.7265 -2.3856
# 3 14.6670 20.5384 66.2364 1.4103 10.6792 5.4266
# 4 26.3919 28.0045 1.4103 31.8152 -5.9073 2.1622
# 5 11.2862 19.7265 10.6792 -5.9073 36.5739 -4.7709
# 6 19.6319 -2.3856 5.4266 2.1622 -4.7709 40.8522
#
#
#
# Elastic Compliance Matrix: (Units=1/GPa)
#
#
# Indices 1 2 3 4 5 6 
#
# 1 0.013821 -0.004238 -0.000355 -0.008006 -0.004068 -0.006893
# 2 -0.004238 0.010373 -0.001628 -0.006564 -0.004522 0.002678
# 3 -0.000355 -0.001628 0.016552 0.000408 -0.004122 -0.002626
# 4 -0.008006 -0.006564 0.000408 0.046200 0.013688 0.002563
# 5 -0.004068 -0.004522 -0.004122 0.013688 0.035184 0.005623
# 6 -0.006893 0.002678 -0.002626 0.002563 0.005623 0.028817
#
#
# Mechanical properties :
#
#
# Convention : Reuss Voigt Hill
#
# Bulk Modulus (GPa) = 35.33293 61.23799 48.28546
# Shear Modulus (GPa) = 28.93101 37.79082 33.36091
#
# Velocity S-wave (km/s) = 3.46204 3.95680 3.71766
# Velocity P-wave (km/s) = 5.53344 6.80038 6.19936
#
# Compressibility (1/GPa) = 0.02830221
#
# Stress axis : x y z
#
# Youngs Moduli (GPa) = 72.35346 96.40546 60.41542
#
# Poissons Ratio (x) = 0.40858 0.02146
# Poissons Ratio (y) = 0.30665 0.09838
# Poissons Ratio (z) = 0.02570 0.15699
#
# Static dielectric constant tensor:
#      x y z
#    x 2.000360 0.073280 0.001010 
#    y 0.073280 2.021540 -0.002400 
#    z 0.001010 -0.002400 1.969570 
# 
# From -- ./inp_files/357594.got.cif
#   From: 2010.05.17/outbox.cif.g08.bks.cpg/sg2_179_cif.got.tgz:357594.got - 2010.06.03 11:33:40.
