data_PCOD9046222
_publ_section_title
;
Structure prediction by ZEFSAII (Michael W. Deem and Ramdas Pophale) SiO2 
 PCOD9046222
Probable space group: P -1
;
_chemical_formula_sum "Si O2"
_cell_formula_units_Z 16
_cell_length_a 12.156275
_cell_length_b 8.034583
_cell_length_c 16.702349
_cell_angle_alpha 150.565440
_cell_angle_beta 52.771721
_cell_angle_gamma 117.470724
_cell_volume 629.289393
_symmetry_space_group_name_H-M "P -1"
_symmetry_group_IT_number 2
_symmetry_cell_setting 'triclinic'
loop_
_space_group_symop_operation_xyz
x,y,z
-x,-y,-z
loop_
_atom_site_type_symbol
_atom_site_label
_atom_site_fract_x
_atom_site_fract_y
_atom_site_fract_z
Si Si1 0.648936 0.636310 0.676317
Si Si2 0.098251 0.625255 0.803090
Si Si3 0.929325 0.798236 0.214156
Si Si4 0.642554 0.090933 0.133429
Si Si5 0.077690 0.463516 0.560271
Si Si6 0.618581 0.937185 0.354610
Si Si7 0.767276 0.409250 0.702026
Si Si8 0.484557 0.779839 0.195826
O O1 0.490836 0.833578 0.835523
O O2 0.787137 0.772029 0.639048
O O3 0.696311 0.497041 0.684272
O O4 0.634897 0.328007 0.491397
O O5 0.037549 0.357741 0.776505
O O6 0.246503 0.668533 0.794816
O O7 0.114128 0.526648 0.662317
O O8 0.000000 0.000000 0.000000
O O9 0.765814 0.800716 0.271296
O O10 0.953506 0.174657 0.326775
O O11 0.000000 0.500000 0.000000
O O12 0.557745 0.063327 0.240822
O O13 0.735661 0.743434 0.912819
O O14 0.931060 0.326601 0.577313
O O15 0.575970 0.706078 0.205182
O O16 0.500000 0.000000 0.500000
O O17 0.675948 0.151845 0.676016
O O18 0.500000 0.500000 0.000000
#
# Coordination Sequence:
#
# PCOD9046222 Si02
#       8
#     2   2   2   2   2   2   2   2
#     4  11  24  42  69 101 138 178 237 292 352 414
#     4  12  23  43  70 103 139 177 236 297 345 416
#     4  11  23  40  70 104 132 185 236 284 353 419
#     4  11  23  43  69 104 133 184 237 293 349 419
#     4  11  25  45  67 103 141 184 228 292 356 419
#     4  11  22  41  69  99 135 180 231 292 346 413
#     4  11  22  46  68  92 148 188 227 288 352 425
#     4  10  24  42  69 101 142 183 235 287 357 413
#
# _framework density 25.425504
#
# number of rings (size 3 to 8) (size 9 to 14) (size 15 to 20)
#    0.000    1.000    3.750    3.000    0.000    3.000 
#    6.750    0.625    0.000    0.000    0.000    0.000 
#    0.000    0.000    0.000    0.000    0.000    0.000 
#
# Total GULP energy -89313.119791 kJ/mol
# GULP energy per Si atom -5582.069987 kJ/mol
# Density = 2.536763 g / cm^3
# Si number density = 25.425504 Si / 1000 Ang^3
#
#
#
# Elastic Constant Matrix: (Units=GPa)
#
#
# Indices 1 2 3 4 5 6 
#
# 1 63.1857 36.5548 27.0347 -11.3237 -7.3179 2.4058
# 2 36.5548 155.1519 46.7031 -27.3648 -7.1705 0.6742
# 3 27.0347 46.7031 77.1788 -13.2118 -11.8550 -7.0343
# 4 -11.3237 -27.3648 -13.2118 35.9418 0.6537 -5.1546
# 5 -7.3179 -7.1705 -11.8550 0.6537 47.2964 -18.9663
# 6 2.4058 0.6742 -7.0343 -5.1546 -18.9663 46.5027
#
#
#
# Elastic Compliance Matrix: (Units=1/GPa)
#
#
# Indices 1 2 3 4 5 6 
#
# 1 0.020110 -0.002821 -0.004908 0.002209 0.000984 -0.001096
# 2 -0.002821 0.009038 -0.003710 0.004620 -0.000088 -0.000070
# 3 -0.004908 -0.003710 0.018903 0.003315 0.005724 0.005869
# 4 0.002209 0.004620 0.003315 0.033988 0.003638 0.005571
# 5 0.000984 -0.000088 0.005724 0.003638 0.027683 0.012510
# 6 -0.001096 -0.000070 0.005869 0.005571 0.012510 0.028169
#
#
# Mechanical properties :
#
#
# Convention : Reuss Voigt Hill
#
# Bulk Modulus (GPa) = 39.72521 57.34464 48.53492
# Shear Modulus (GPa) = 29.55804 38.29642 33.92723
#
# Velocity S-wave (km/s) = 3.41330 3.88522 3.65688
# Velocity P-wave (km/s) = 5.58500 6.53678 6.07954
#
# Compressibility (1/GPa) = 0.02517293
#
# Stress axis : x y z
#
# Youngs Moduli (GPa) = 49.72727 110.64702 52.90251
#
# Poissons Ratio (x) = 0.31212 0.25964
# Poissons Ratio (y) = 0.14027 0.19626
# Poissons Ratio (z) = 0.24405 0.41049
#
# Static dielectric constant tensor:
#      x y z
#    x 2.094530 0.025380 -0.017640 
#    y 0.025380 2.089370 0.055760 
#    z -0.017640 0.055760 1.989520 
# 
# From -- ./inp_files/567105.got.cif
#   From: 2010.05.17/outbox.cif.g08.bks.cpg/sg2_284_cif.got.tgz:567105.got - 2010.06.03 11:33:40.
