data_PCOD9046410
_publ_section_title
;
Structure prediction by ZEFSAII (Michael W. Deem and Ramdas Pophale) SiO2 
 PCOD9046410
Probable space group: P -1
;
_chemical_formula_sum "Si O2"
_cell_formula_units_Z 15
_cell_length_a 6.949022
_cell_length_b 8.157245
_cell_length_c 16.920583
_cell_angle_alpha 54.495263
_cell_angle_beta 106.409090
_cell_angle_gamma 123.166906
_cell_volume 652.722864
_symmetry_space_group_name_H-M "P -1"
_symmetry_group_IT_number 2
_symmetry_cell_setting 'triclinic'
loop_
_space_group_symop_operation_xyz
x,y,z
-x,-y,-z
loop_
_atom_site_type_symbol
_atom_site_label
_atom_site_fract_x
_atom_site_fract_y
_atom_site_fract_z
Si Si1 0.381560 0.949899 0.370556
Si Si2 0.354324 0.842555 0.805028
Si Si3 0.972133 0.564141 0.330502
Si Si4 0.209474 0.969106 0.505618
Si Si5 0.500000 0.500000 0.000000
Si Si6 0.031056 0.857611 0.972942
Si Si7 0.132232 0.534325 0.180492
Si Si8 0.630475 0.754211 0.217527
O O1 0.181639 0.733193 0.363228
O O2 0.276016 0.032720 0.404698
O O3 0.525655 0.143739 0.268393
O O4 0.565882 0.897310 0.450990
O O5 0.427861 0.699587 0.911546
O O6 0.079194 0.710799 0.799588
O O7 0.426674 0.101531 0.765908
O O8 0.055694 0.586824 0.242461
O O9 0.871260 0.301083 0.418409
O O10 0.776556 0.637150 0.294876
O O11 0.000000 0.000000 0.500000
O O12 0.775103 0.684599 0.961179
O O13 0.206975 0.045386 0.880673
O O14 0.136975 0.711707 0.065999
O O15 0.000000 0.000000 0.000000
O O16 0.386236 0.569642 0.204803
#
# Coordination Sequence:
#
# PCOD9046410 Si02
#       8
#     2   2   2   2   1   2   2   2
#     4  11  25  49  75 105 148 177 237 302 346 433
#     4  11  24  47  69 108 144 191 237 293 354 416
#     4  12  25  46  73 108 137 186 234 295 357 424
#     4  11  28  50  74 108 138 187 234 293 367 423
#     4  10  24  42  72 102 148 184 242 286 344 418
#     4  11  22  42  66 102 146 189 238 294 341 412
#     4  11  24  43  68 103 145 190 243 283 352 422
#     4  12  26  43  73 103 145 191 239 289 359 418
#
# _framework density 22.980656
#
# number of rings (size 3 to 8) (size 9 to 14) (size 15 to 20)
#    0.000    0.800    4.000    2.400    1.867    6.933 
#    0.000    0.000    0.000    0.000    0.000    0.000 
#    0.000    0.000    0.000    0.000    0.000    0.000 
#
# Total GULP energy -83732.057796 kJ/mol
# GULP energy per Si atom -5582.137186 kJ/mol
# Density = 2.292835 g / cm^3
# Si number density = 22.980656 Si / 1000 Ang^3
#
#
#
# Elastic Constant Matrix: (Units=GPa)
#
#
# Indices 1 2 3 4 5 6 
#
# 1 150.6419 45.1012 48.7411 -5.5846 6.0986 26.2159
# 2 45.1012 84.8112 36.1094 -3.6154 25.3761 35.5944
# 3 48.7411 36.1094 74.9933 -18.2268 1.6029 4.6518
# 4 -5.5846 -3.6154 -18.2268 30.9227 2.6271 0.7758
# 5 6.0986 25.3761 1.6029 2.6271 29.7634 8.4495
# 6 26.2159 35.5944 4.6518 0.7758 8.4495 42.1010
#
#
#
# Elastic Compliance Matrix: (Units=1/GPa)
#
#
# Indices 1 2 3 4 5 6 
#
# 1 0.009536 -0.000808 -0.005974 -0.001822 0.000543 -0.004671
# 2 -0.000808 0.034318 -0.014725 -0.002405 -0.021706 -0.022484
# 3 -0.005974 -0.014725 0.026272 0.011711 0.008086 0.011428
# 4 -0.001822 -0.002405 0.011711 0.038768 -0.002076 0.001576
# 5 0.000543 -0.021706 0.008086 -0.002076 0.049702 0.007183
# 6 -0.004671 -0.022484 0.011428 0.001576 0.007183 0.042936
#
#
# Mechanical properties :
#
#
# Convention : Reuss Voigt Hill
#
# Bulk Modulus (GPa) = 36.88288 63.37221 50.12755
# Shear Modulus (GPa) = 19.71738 32.59038 26.15388
#
# Velocity S-wave (km/s) = 2.93234 3.76994 3.37721
# Velocity P-wave (km/s) = 5.24873 6.82540 6.08832
#
# Compressibility (1/GPa) = 0.02711285
#
# Stress axis : x y z
#
# Youngs Moduli (GPa) = 104.86318 29.13931 38.06344
#
# Poissons Ratio (x) = 0.02354 0.22738
# Poissons Ratio (y) = 0.08471 0.56048
# Poissons Ratio (z) = 0.62643 0.42907
#
# Static dielectric constant tensor:
#      x y z
#    x 1.662920 0.131650 0.088030 
#    y 0.131650 1.753150 -0.066990 
#    z 0.088030 -0.066990 1.763990 
# 
# From -- ./inp_files/547811.got.cif
#   From: 2010.05.17/outbox.cif.g08.bks.cpg/sg2_274_cif.got.tgz:547811.got - 2010.06.03 11:33:40.
