data_PCOD9046029
_publ_section_title
;
Structure prediction by ZEFSAII (Michael W. Deem and Ramdas Pophale) SiO2 
 PCOD9046029
Probable space group: P -1
;
_chemical_formula_sum "Si O2"
_cell_formula_units_Z 14
_cell_length_a 12.004002
_cell_length_b 15.185200
_cell_length_c 9.639077
_cell_angle_alpha 127.787108
_cell_angle_beta 106.286209
_cell_angle_gamma 116.892302
_cell_volume 757.540412
_symmetry_space_group_name_H-M "P -1"
_symmetry_group_IT_number 2
_symmetry_cell_setting 'triclinic'
loop_
_space_group_symop_operation_xyz
x,y,z
-x,-y,-z
loop_
_atom_site_type_symbol
_atom_site_label
_atom_site_fract_x
_atom_site_fract_y
_atom_site_fract_z
Si Si1 0.645474 0.433321 0.116589
Si Si2 0.798448 0.651790 0.101844
Si Si3 0.250112 0.037944 0.721242
Si Si4 0.874016 0.472969 0.819821
Si Si5 0.446401 0.961000 0.781892
Si Si6 0.859829 0.374441 0.195340
Si Si7 0.546411 0.604508 0.755512
O O1 0.685654 0.538095 0.097615
O O2 0.796150 0.447096 0.188990
O O3 0.650228 0.506996 0.333464
O O4 0.415351 0.201816 0.818872
O O5 0.021559 0.874046 0.433584
O O6 0.830105 0.558882 0.947669
O O7 0.673143 0.630909 0.934878
O O8 0.294806 0.945766 0.687629
O O9 0.319705 0.176416 0.002939
O O10 0.010621 0.584798 0.837263
O O11 0.667754 0.241936 0.494372
O O12 0.000000 0.500000 0.000000
O O13 0.651631 0.148074 0.947825
O O14 0.500000 0.000000 0.000000
O O15 0.000000 0.500000 0.500000
O O16 0.500000 0.500000 0.500000
#
# Coordination Sequence:
#
# PCOD9046029 Si02
#       7
#     2   2   2   2   2   2   2
#     4   9  22  40  64  87 123 163 204 247 312 359
#     4  12  22  42  67  87 127 163 205 247 310 378
#     4   9  22  40  64  87 123 163 204 247 312 359
#     4  12  24  38  64  99 121 161 210 253 307 377
#     4  11  22  39  63  91 131 164 202 255 315 368
#     4  11  22  39  63  91 131 164 202 255 315 368
#     4  10  24  42  66  89 120 160 210 262 300 355
#
# _framework density 18.480862999999999
#
# number of rings (size 3 to 8) (size 9 to 14) (size 15 to 20)
#    0.857    0.571    4.286    0.857    4.000    1.714 
#    0.000    0.714    0.000    0.000    0.000    0.000 
#    0.000    0.000    0.000    0.000    0.000    0.000 
#
# Total GULP energy -78088.381782 kJ/mol
# GULP energy per Si atom -5577.741556 kJ/mol
# Density = 1.843880 g / cm^3
# Si number density = 18.480863 Si / 1000 Ang^3
#
#
#
# Elastic Constant Matrix: (Units=GPa)
#
#
# Indices 1 2 3 4 5 6 
#
# 1 65.5356 11.0631 15.7175 4.7744 -19.4534 6.5846
# 2 11.0631 74.2081 19.5565 -2.7187 3.5518 16.2774
# 3 15.7175 19.5565 99.0074 3.3636 -9.5457 12.8099
# 4 4.7744 -2.7187 3.3636 23.4061 2.1663 -2.8713
# 5 -19.4534 3.5518 -9.5457 2.1663 37.5631 -8.0080
# 6 6.5846 16.2774 12.8099 -2.8713 -8.0080 27.5475
#
#
#
# Elastic Compliance Matrix: (Units=1/GPa)
#
#
# Indices 1 2 3 4 5 6 
#
# 1 0.019593 -0.003362 -0.001315 -0.005118 0.010519 0.000439
# 2 -0.003362 0.017100 -0.002250 0.002363 -0.006155 -0.009797
# 3 -0.001315 -0.002250 0.011443 -0.002222 0.001849 -0.003372
# 4 -0.005118 0.002363 -0.002222 0.045342 -0.005184 0.004079
# 5 0.010519 -0.006155 0.001849 -0.005184 0.035565 0.010061
# 6 0.000439 -0.009797 -0.003372 0.004079 0.010061 0.046903
#
#
# Mechanical properties :
#
#
# Convention : Reuss Voigt Hill
#
# Bulk Modulus (GPa) = 29.16936 36.82504 32.99720
# Shear Modulus (GPa) = 24.84749 30.53094 27.68922
#
# Velocity S-wave (km/s) = 3.67072 4.06893 3.87494
# Velocity P-wave (km/s) = 5.81235 6.48415 6.15742
#
# Compressibility (1/GPa) = 0.03428255
#
# Stress axis : x y z
#
# Youngs Moduli (GPa) = 51.03854 58.47993 87.38593
#
# Poissons Ratio (x) = 0.19659 0.11492
# Poissons Ratio (y) = 0.17158 0.19663
# Poissons Ratio (z) = 0.06712 0.13158
#
# Static dielectric constant tensor:
#      x y z
#    x 1.652010 -0.004270 -0.007500 
#    y -0.004270 1.626600 0.007380 
#    z -0.007500 0.007380 1.625610 
# 
# From -- ./inp_files/245991.got.cif
#   From: 2010.05.17/outbox.cif.g08.bks.cpg/sg2_123_cif.got.tgz:245991.got - 2010.06.03 11:33:40.
