data_PCOD9046135
_publ_section_title
;
Structure prediction by ZEFSAII (Michael W. Deem and Ramdas Pophale) SiO2 
 PCOD9046135
Probable space group: P -1
;
_chemical_formula_sum "Si O2"
_cell_formula_units_Z 11
_cell_length_a 5.180400
_cell_length_b 7.959168
_cell_length_c 11.069470
_cell_angle_alpha 85.144950
_cell_angle_beta 118.797997
_cell_angle_gamma 100.885631
_cell_volume 392.757667
_symmetry_space_group_name_H-M "P -1"
_symmetry_group_IT_number 2
_symmetry_cell_setting 'triclinic'
loop_
_space_group_symop_operation_xyz
x,y,z
-x,-y,-z
loop_
_atom_site_type_symbol
_atom_site_label
_atom_site_fract_x
_atom_site_fract_y
_atom_site_fract_z
Si Si1 0.248454 0.621167 0.422723
Si Si2 0.327627 0.183413 0.341929
Si Si3 0.000000 0.000000 0.500000
Si Si4 0.608147 0.131174 0.769682
Si Si5 0.643828 0.439404 0.220705
Si Si6 0.246816 0.658933 0.999302
O O1 0.500000 0.500000 0.500000
O O2 0.331523 0.786922 0.521491
O O3 0.275626 0.697329 0.290091
O O4 0.920155 0.514614 0.361695
O O5 0.381976 0.338468 0.250200
O O6 0.258401 0.020107 0.253364
O O7 0.141851 0.148870 0.423121
O O8 0.739272 0.918572 0.342703
O O9 0.729514 0.168833 0.929275
O O10 0.549174 0.594782 0.116326
O O11 0.740080 0.320699 0.143140
O O12 0.000000 0.500000 0.000000
#
# Coordination Sequence:
#
# PCOD9046135 Si02
#       6
#     2   2   1   2   2   2
#     4  11  23  44  74 107 146 190 243 306 366 435
#     4  11  26  43  71 111 142 190 238 310 367 435
#     4  10  24  42  68 100 152 178 234 292 386 408
#     4  11  25  43  73 104 147 191 237 305 371 431
#     4  11  26  45  75 108 146 192 258 290 362 441
#     4  11  25  48  75 103 146 202 244 300 356 438
#
# _framework density 28.007086999999999
#
# number of rings (size 3 to 8) (size 9 to 14) (size 15 to 20)
#    0.000    1.091    1.818    3.818   10.182    0.727 
#    0.000    1.818    0.000    0.000    0.000    0.000 
#    0.000    0.000    0.000    0.000    0.000    0.000 
#
# Total GULP energy -61387.976682 kJ/mol
# GULP energy per Si atom -5580.725153 kJ/mol
# Density = 2.794334 g / cm^3
# Si number density = 28.007087 Si / 1000 Ang^3
#
#
#
# Elastic Constant Matrix: (Units=GPa)
#
#
# Indices 1 2 3 4 5 6 
#
# 1 117.1238 38.8277 42.4164 12.7293 -12.4063 37.6466
# 2 38.8277 121.8633 43.7121 12.3259 -13.9627 25.8836
# 3 42.4164 43.7121 185.1219 28.8071 -35.3337 0.8731
# 4 12.7293 12.3259 28.8071 62.3474 -9.6245 -14.4595
# 5 -12.4063 -13.9627 -35.3337 -9.6245 56.5395 3.9908
# 6 37.6466 25.8836 0.8731 -14.4595 3.9908 48.0964
#
#
#
# Elastic Compliance Matrix: (Units=1/GPa)
#
#
# Indices 1 2 3 4 5 6 
#
# 1 0.013985 -0.000524 -0.002003 -0.004351 0.001800 -0.012086
# 2 -0.000524 0.010717 -0.001722 -0.002420 0.001479 -0.006176
# 3 -0.002003 -0.001722 0.007131 -0.001683 0.003193 0.001594
# 4 -0.004351 -0.002420 -0.001683 0.020750 0.000154 0.010964
# 5 0.001800 0.001479 0.003193 0.000154 0.020746 -0.003938
# 6 -0.012086 -0.006176 0.001594 0.010964 -0.003938 0.037169
#
#
# Mechanical properties :
#
#
# Convention : Reuss Voigt Hill
#
# Bulk Modulus (GPa) = 42.85536 74.89125 58.87331
# Shear Modulus (GPa) = 39.43951 53.34018 46.38985
#
# Velocity S-wave (km/s) = 3.75667 4.36882 4.07426
# Velocity P-wave (km/s) = 5.84393 7.22820 6.57261
#
# Compressibility (1/GPa) = 0.02333431
#
# Stress axis : x y z
#
# Youngs Moduli (GPa) = 71.50307 93.31190 140.22853
#
# Poissons Ratio (x) = 0.04891 0.28088
# Poissons Ratio (y) = 0.03748 0.24153
# Poissons Ratio (z) = 0.14322 0.16072
#
# Static dielectric constant tensor:
#      x y z
#    x 2.347400 -0.133120 -0.022230 
#    y -0.133120 2.190690 0.057190 
#    z -0.022230 0.057190 2.185690 
# 
# From -- ./inp_files/58897.got.cif
#   From: 2010.05.17/outbox.cif.g08.bks.cpg/sg2_30_cif.got.tgz:58897.got - 2010.06.03 11:33:40.
