data_PCOD9046293
_publ_section_title
;
Structure prediction by ZEFSAII (Michael W. Deem and Ramdas Pophale) SiO2 
 PCOD9046293
Probable space group: P -1
;
_chemical_formula_sum "Si O2"
_cell_formula_units_Z 12
_cell_length_a 8.772422
_cell_length_b 13.175131
_cell_length_c 15.016412
_cell_angle_alpha 22.207688
_cell_angle_beta 126.732031
_cell_angle_gamma 116.180516
_cell_volume 488.124647
_symmetry_space_group_name_H-M "P -1"
_symmetry_group_IT_number 2
_symmetry_cell_setting 'triclinic'
loop_
_space_group_symop_operation_xyz
x,y,z
-x,-y,-z
loop_
_atom_site_type_symbol
_atom_site_label
_atom_site_fract_x
_atom_site_fract_y
_atom_site_fract_z
Si Si1 0.073048 0.201376 0.483878
Si Si2 0.264742 0.102071 0.949360
Si Si3 0.410272 0.673710 0.043957
Si Si4 0.355092 0.147528 0.460164
Si Si5 0.827512 0.459209 0.599485
Si Si6 0.314961 0.404728 0.064102
O O1 0.200024 0.139055 0.487396
O O2 0.124611 0.416403 0.392789
O O3 0.840789 0.358095 0.245751
O O4 0.179294 0.880798 0.821887
O O5 0.439913 0.162102 0.017555
O O6 0.271455 0.261900 0.727366
O O7 0.043585 0.277916 0.773769
O O8 0.282320 0.768545 0.231650
O O9 0.455930 0.368909 0.355130
O O10 0.430906 0.557042 0.044267
O O11 0.224076 0.283368 0.214288
O O12 0.540152 0.874540 0.709667
#
# Coordination Sequence:
#
# PCOD9046293 Si02
#       6
#     2   2   2   2   2   2
#     4  12  24  41  73 107 142 183 245 297 363 428
#     4  10  24  50  71 103 146 191 250 286 378 426
#     4  10  24  42  70 103 139 190 235 300 354 434
#     4   9  23  45  65 108 138 195 232 292 367 427
#     4  10  26  45  74 106 142 195 237 312 352 437
#     4   9  22  47  66 104 148 189 231 298 365 433
#
# _framework density 24.583884000000001
#
# number of rings (size 3 to 8) (size 9 to 14) (size 15 to 20)
#    1.000    1.000    0.000    1.000    7.000    4.667 
#    3.000    0.000    0.000    0.000    0.000    0.000 
#    0.000    0.000    0.000    0.000    0.000    0.000 
#
# Total GULP energy -66903.698537 kJ/mol
# GULP energy per Si atom -5575.308211 kJ/mol
# Density = 2.452793 g / cm^3
# Si number density = 24.583884 Si / 1000 Ang^3
#
#
#
# Elastic Constant Matrix: (Units=GPa)
#
#
# Indices 1 2 3 4 5 6 
#
# 1 62.1682 23.3137 39.0873 -0.4984 -1.2451 -0.1234
# 2 23.3137 120.1756 34.0194 9.1809 3.9228 6.1818
# 3 39.0873 34.0194 92.4841 11.7455 2.5929 -11.3210
# 4 -0.4984 9.1809 11.7455 21.5955 -5.8852 6.3495
# 5 -1.2451 3.9228 2.5929 -5.8852 18.2732 -3.5611
# 6 -0.1234 6.1818 -11.3210 6.3495 -3.5611 29.9794
#
#
#
# Elastic Compliance Matrix: (Units=1/GPa)
#
#
# Indices 1 2 3 4 5 6 
#
# 1 0.024593 -0.002194 -0.011891 0.011354 0.006403 -0.005581
# 2 -0.002194 0.009971 -0.002614 -0.002970 -0.003427 -0.002830
# 3 -0.011891 -0.002614 0.020132 -0.014796 -0.005818 0.010535
# 4 0.011354 -0.002970 -0.014796 0.066649 0.021769 -0.016458
# 5 0.006403 -0.003427 -0.005818 0.021769 0.064032 0.001532
# 6 -0.005581 -0.002830 0.010535 -0.016458 0.001532 0.041563
#
#
# Mechanical properties :
#
#
# Convention : Reuss Voigt Hill
#
# Bulk Modulus (GPa) = 46.95443 51.96319 49.45881
# Shear Modulus (GPa) = 18.69599 25.86345 22.27972
#
# Velocity S-wave (km/s) = 2.76070 3.24705 3.01370
# Velocity P-wave (km/s) = 5.41324 5.93639 5.68084
#
# Compressibility (1/GPa) = 0.02129725
#
# Stress axis : x y z
#
# Youngs Moduli (GPa) = 40.66208 100.29086 49.67324
#
# Poissons Ratio (x) = 0.22004 0.59069
# Poissons Ratio (y) = 0.08921 0.12983
# Poissons Ratio (z) = 0.48353 0.26212
#
# Static dielectric constant tensor:
#      x y z
#    x 2.021870 0.042330 -0.143990 
#    y 0.042330 1.959340 0.046480 
#    z -0.143990 0.046480 2.188530 
# 
# From -- ./inp_files/560270.got.cif
#   From: 2010.05.17/outbox.cif.g08.bks.cpg/sg2_281_cif.got.tgz:560270.got - 2010.06.03 11:33:40.
