data_PCOD9046408
_publ_section_title
;
Structure prediction by ZEFSAII (Michael W. Deem and Ramdas Pophale) SiO2 
 PCOD9046408
Probable space group: P -1
;
_chemical_formula_sum "Si O2"
_cell_formula_units_Z 14
_cell_length_a 12.436309
_cell_length_b 8.593730
_cell_length_c 10.337969
_cell_angle_alpha 64.803488
_cell_angle_beta 56.756205
_cell_angle_gamma 105.338647
_cell_volume 629.664630
_symmetry_space_group_name_H-M "P -1"
_symmetry_group_IT_number 2
_symmetry_cell_setting 'triclinic'
loop_
_space_group_symop_operation_xyz
x,y,z
-x,-y,-z
loop_
_atom_site_type_symbol
_atom_site_label
_atom_site_fract_x
_atom_site_fract_y
_atom_site_fract_z
Si Si1 0.112361 0.685301 0.973737
Si Si2 0.451092 0.153780 0.996552
Si Si3 0.863862 0.918465 0.733168
Si Si4 0.555020 0.508194 0.603940
Si Si5 0.352836 0.614185 0.977740
Si Si6 0.406125 0.084381 0.476478
Si Si7 0.044107 0.170698 0.795821
O O1 0.228360 0.916203 0.727808
O O2 0.224625 0.641951 0.990934
O O3 0.000000 0.500000 0.000000
O O4 0.016043 0.703260 0.143879
O O5 0.456730 0.263465 0.818811
O O6 0.605831 0.369364 0.903697
O O7 0.261794 0.028758 0.218817
O O8 0.500000 0.000000 0.000000
O O9 0.734609 0.642480 0.913457
O O10 0.000000 0.000000 0.500000
O O11 0.955474 0.030913 0.770787
O O12 0.500000 0.500000 0.500000
O O13 0.519174 0.661533 0.636410
O O14 0.754985 0.645620 0.426946
O O15 0.539184 0.862645 0.727409
O O16 0.500000 0.000000 0.500000
O O17 0.000000 0.000000 0.000000
#
# Coordination Sequence:
#
# PCOD9046408 Si02
#       7
#     2   2   2   2   2   2   2
#     4  11  25  44  72 113 150 190 241 312 379 441
#     4  12  28  48  74 106 148 200 250 308 374 450
#     4  12  27  47  72 105 149 197 246 312 377 441
#     4  12  27  46  74 104 144 194 249 302 372 448
#     4  11  25  45  72 103 148 192 252 296 373 452
#     4  10  24  42  72 102 143 187 247 291 368 439
#     4  12  25  43  72 107 146 187 249 311 374 436
#
# _framework density 22.234058000000001
#
# number of rings (size 3 to 8) (size 9 to 14) (size 15 to 20)
#    0.000    0.571    2.857    3.857   10.000    1.143 
#    0.000    2.857    0.000    0.000    0.000    0.000 
#    0.000    0.000    0.000    0.000    0.000    0.000 
#
# Total GULP energy -78009.226937 kJ/mol
# GULP energy per Si atom -5572.087638 kJ/mol
# Density = 2.218345 g / cm^3
# Si number density = 22.234058 Si / 1000 Ang^3
#
#
#
# Elastic Constant Matrix: (Units=GPa)
#
#
# Indices 1 2 3 4 5 6 
#
# 1 127.0176 55.1458 40.3428 23.0910 0.4641 9.4298
# 2 55.1458 105.9270 42.0861 13.9186 -10.3366 7.1235
# 3 40.3428 42.0861 132.3550 5.7962 -4.5174 -3.4178
# 4 23.0910 13.9186 5.7962 28.3874 -4.2805 6.6756
# 5 0.4641 -10.3366 -4.5174 -4.2805 34.1241 2.6977
# 6 9.4298 7.1235 -3.4178 6.6756 2.6977 58.1277
#
#
#
# Elastic Compliance Matrix: (Units=1/GPa)
#
#
# Indices 1 2 3 4 5 6 
#
# 1 0.011893 -0.004706 -0.001916 -0.007266 -0.002712 -0.000505
# 2 -0.004706 0.013602 -0.002727 -0.001472 0.003723 -0.001068
# 3 -0.001916 -0.002727 0.009010 0.000871 0.000419 0.001055
# 4 -0.007266 -0.001472 0.000871 0.043414 0.005517 -0.003832
# 5 -0.002712 0.003723 0.000419 0.005517 0.031382 -0.002082
# 6 -0.000505 -0.001068 0.001055 -0.003832 -0.002082 0.018015
#
#
# Mechanical properties :
#
#
# Convention : Reuss Voigt Hill
#
# Bulk Modulus (GPa) = 63.26255 71.16099 67.21177
# Shear Modulus (GPa) = 33.05066 39.30950 36.18008
#
# Velocity S-wave (km/s) = 3.85968 4.20930 4.03828
# Velocity P-wave (km/s) = 6.95540 7.46319 7.21377
#
# Compressibility (1/GPa) = 0.01580714
#
# Stress axis : x y z
#
# Youngs Moduli (GPa) = 84.08313 73.51593 110.98865
#
# Poissons Ratio (x) = 0.34599 0.21265
# Poissons Ratio (y) = 0.39572 0.30265
# Poissons Ratio (z) = 0.16110 0.20046
#
# Static dielectric constant tensor:
#      x y z
#    x 1.412070 -0.200800 -0.422870 
#    y -0.200800 1.734090 -0.185270 
#    z -0.422870 -0.185270 1.411100 
# 
# From -- ./inp_files/242901.got.cif
#   From: 2010.05.17/outbox.cif.g08.bks.cpg/sg2_122_cif.got.tgz:242901.got - 2010.06.03 11:33:40.
