data_PCOD9046268
_publ_section_title
;
Structure prediction by ZEFSAII (Michael W. Deem and Ramdas Pophale) SiO2 
 PCOD9046268
Probable space group: P -1
;
_chemical_formula_sum "Si O2"
_cell_formula_units_Z 15
_cell_length_a 8.589825
_cell_length_b 18.416173
_cell_length_c 8.836746
_cell_angle_alpha 147.610227
_cell_angle_beta 68.646716
_cell_angle_gamma 121.001248
_cell_volume 634.178718
_symmetry_space_group_name_H-M "P -1"
_symmetry_group_IT_number 2
_symmetry_cell_setting 'triclinic'
loop_
_space_group_symop_operation_xyz
x,y,z
-x,-y,-z
loop_
_atom_site_type_symbol
_atom_site_label
_atom_site_fract_x
_atom_site_fract_y
_atom_site_fract_z
Si Si1 0.051977 0.369918 0.426566
Si Si2 0.576346 0.518166 0.835105
Si Si3 0.509682 0.050123 0.340501
Si Si4 0.076887 0.963917 0.062070
Si Si5 0.503366 0.187450 0.299987
Si Si6 0.500000 0.500000 0.500000
Si Si7 0.215347 0.972368 0.552474
Si Si8 0.994505 0.648557 0.937258
O O1 0.272198 0.422398 0.434712
O O2 0.967409 0.348382 0.249506
O O3 0.013228 0.504658 0.745801
O O4 0.953948 0.206548 0.243350
O O5 0.553968 0.350324 0.504884
O O6 0.491313 0.555158 0.779768
O O7 0.786292 0.628021 0.978650
O O8 0.500000 0.500000 0.000000
O O9 0.355729 0.056891 0.517864
O O10 0.579625 0.187186 0.440712
O O11 0.660603 0.022295 0.336612
O O12 0.432996 0.906778 0.004378
O O13 0.283587 0.089533 0.224598
O O14 0.941412 0.971686 0.256072
O O15 0.000000 0.000000 0.000000
O O16 0.123020 0.800555 0.235979
#
# Coordination Sequence:
#
# PCOD9046268 Si02
#       8
#     2   2   2   2   2   1   2   2
#     4  10  24  42  69  99 136 185 223 280 353 411
#     4  11  25  45  70 103 139 183 230 285 352 415
#     4  10  25  42  70  98 135 179 228 284 350 404
#     4  12  24  42  67  99 137 176 227 284 346 405
#     4  11  24  44  69  97 140 178 224 287 348 415
#     4  10  24  44  68  98 142 182 226 286 350 408
#     4  11  24  44  69 102 135 179 237 287 337 424
#     4  10  24  43  69  99 137 177 232 281 342 419
#
# _framework density 23.652639000000001
#
# number of rings (size 3 to 8) (size 9 to 14) (size 15 to 20)
#    0.000    1.333    1.333    2.400    9.333    6.400 
#    0.000    2.000    0.000    0.000    0.000    0.000 
#    0.000    0.000    0.000    0.000    0.000    0.000 
#
# Total GULP energy -83623.542486 kJ/mol
# GULP energy per Si atom -5574.902832 kJ/mol
# Density = 2.359880 g / cm^3
# Si number density = 23.652639 Si / 1000 Ang^3
#
#
#
# Elastic Constant Matrix: (Units=GPa)
#
#
# Indices 1 2 3 4 5 6 
#
# 1 72.0682 36.3985 7.5920 -10.0958 13.0867 17.2637
# 2 36.3985 65.0993 14.6401 -5.5545 13.7536 1.5150
# 3 7.5920 14.6401 63.8219 3.8226 7.6017 -7.6375
# 4 -10.0958 -5.5545 3.8226 45.2373 -4.1167 -2.5310
# 5 13.0867 13.7536 7.6017 -4.1167 27.9040 -2.6692
# 6 17.2637 1.5150 -7.6375 -2.5310 -2.6692 33.7875
#
#
#
# Elastic Compliance Matrix: (Units=1/GPa)
#
#
# Indices 1 2 3 4 5 6 
#
# 1 0.024304 -0.011483 -0.001180 0.002855 -0.006186 -0.012445
# 2 -0.011483 0.023439 -0.002990 0.000329 -0.004943 0.003775
# 3 -0.001180 -0.002990 0.017450 -0.002102 -0.002624 0.004317
# 4 0.002855 0.000329 -0.002102 0.023187 0.002491 -0.000015
# 5 -0.006186 -0.004943 -0.002624 0.002491 0.042866 0.006362
# 6 -0.012445 0.003775 0.004317 -0.000015 0.006362 0.037264
#
#
# Mechanical properties :
#
#
# Convention : Reuss Voigt Hill
#
# Bulk Modulus (GPa) = 29.51115 35.36118 32.43616
# Shear Modulus (GPa) = 23.68418 30.87634 27.28026
#
# Velocity S-wave (km/s) = 3.16782 3.61696 3.39982
# Velocity P-wave (km/s) = 5.08764 5.69437 5.39954
#
# Compressibility (1/GPa) = 0.03388550
#
# Stress axis : x y z
#
# Youngs Moduli (GPa) = 41.14499 42.66440 57.30697
#
# Poissons Ratio (x) = 0.48994 0.06764
# Poissons Ratio (y) = 0.47249 0.17134
# Poissons Ratio (z) = 0.04857 0.12756
#
# Static dielectric constant tensor:
#      x y z
#    x 1.922250 -0.014050 -0.048860 
#    y -0.014050 1.965730 -0.022630 
#    z -0.048860 -0.022630 1.914430 
# 
# From -- ./inp_files/219025.got.cif
#   From: 2010.05.17/outbox.cif.g08.bks.cpg/sg2_110_cif.got.tgz:219025.got - 2010.06.03 11:33:40.
