data_PCOD9046162
_publ_section_title
;
Structure prediction by ZEFSAII (Michael W. Deem and Ramdas Pophale) SiO2 
 PCOD9046162
Probable space group: P -1
;
_chemical_formula_sum "Si O2"
_cell_formula_units_Z 10
_cell_length_a 5.234749
_cell_length_b 20.310357
_cell_length_c 8.628158
_cell_angle_alpha 32.958180
_cell_angle_beta 121.073606
_cell_angle_gamma 115.543974
_cell_volume 427.442922
_symmetry_space_group_name_H-M "P -1"
_symmetry_group_IT_number 2
_symmetry_cell_setting 'triclinic'
loop_
_space_group_symop_operation_xyz
x,y,z
-x,-y,-z
loop_
_atom_site_type_symbol
_atom_site_label
_atom_site_fract_x
_atom_site_fract_y
_atom_site_fract_z
Si Si1 0.207473 0.671863 0.750029
Si Si2 0.785227 0.669200 0.082329
Si Si3 0.129636 0.114593 0.903807
Si Si4 0.972351 0.466712 0.306744
Si Si5 0.165674 0.884667 0.852544
O O1 0.247664 0.614624 0.704391
O O2 0.942930 0.767312 0.455736
O O3 0.490964 0.733043 0.798083
O O4 0.128611 0.560666 0.056072
O O5 0.815993 0.550851 0.218444
O O6 0.793907 0.618491 0.360213
O O7 0.056740 0.762521 0.973743
O O8 0.480228 0.103150 0.066038
O O9 0.951495 0.125225 0.988374
O O10 0.000000 0.000000 0.000000
O O11 0.000000 0.000000 0.500000
#
# Coordination Sequence:
#
# PCOD9046162 Si02
#       5
#     2   2   2   2   2
#     4  11  24  43  72 104 147 189 243 293 362 422
#     4  11  24  43  72 104 147 189 243 293 362 422
#     4  12  28  49  76 107 146 188 244 301 365 430
#     4  10  24  42  68 106 148 190 242 288 362 426
#     4  12  28  49  76 107 146 188 244 301 365 430
#
# _framework density 23.394936999999999
#
# number of rings (size 3 to 8) (size 9 to 14) (size 15 to 20)
#    0.000    0.800    2.000    3.600    8.400    6.400 
#    0.000    0.000    0.000    0.000    0.000    0.000 
#    0.000    0.000    0.000    0.000    0.000    0.000 
#
# Total GULP energy -55964.915247 kJ/mol
# GULP energy per Si atom -5596.491525 kJ/mol
# Density = 2.334169 g / cm^3
# Si number density = 23.394937 Si / 1000 Ang^3
#
#
#
# Elastic Constant Matrix: (Units=GPa)
#
#
# Indices 1 2 3 4 5 6 
#
# 1 32.4820 -2.9004 -5.3376 5.6642 -5.6790 4.2872
# 2 -2.9004 87.0103 56.3319 9.9623 -12.2497 19.1380
# 3 -5.3376 56.3319 114.1061 4.8873 6.0258 2.5195
# 4 5.6642 9.9623 4.8873 41.4463 2.2288 -0.9156
# 5 -5.6790 -12.2497 6.0258 2.2288 31.1451 8.6147
# 6 4.2872 19.1380 2.5195 -0.9156 8.6147 38.0730
#
#
#
# Elastic Compliance Matrix: (Units=1/GPa)
#
#
# Indices 1 2 3 4 5 6 
#
# 1 0.036410 0.008211 -0.002513 -0.007662 0.014064 -0.011428
# 2 0.008211 0.029769 -0.014690 -0.008184 0.022204 -0.020137
# 3 -0.002513 -0.014690 0.016213 0.002826 -0.012180 0.009418
# 4 -0.007662 -0.008184 0.002826 0.027471 -0.009213 0.007535
# 5 0.014064 0.022204 -0.012180 -0.009213 0.053108 -0.024177
# 6 -0.011428 -0.020137 0.009418 0.007535 -0.024177 0.042703
#
#
# Mechanical properties :
#
#
# Convention : Reuss Voigt Hill
#
# Bulk Modulus (GPa) = 15.52568 36.64289 26.08428
# Shear Modulus (GPa) = 20.39764 34.49983 27.44874
#
# Velocity S-wave (km/s) = 2.95597 3.84431 3.42903
# Velocity P-wave (km/s) = 4.27798 5.94993 5.18183
#
# Compressibility (1/GPa) = 0.06440941
#
# Stress axis : x y z
#
# Youngs Moduli (GPa) = 27.46501 33.59159 61.68075
#
# Poissons Ratio (x) = -0.27584 0.15500
# Poissons Ratio (y) = -0.22553 0.90608
# Poissons Ratio (z) = 0.06902 0.49345
#
# Static dielectric constant tensor:
#      x y z
#    x 1.947220 -0.045340 0.040730 
#    y -0.045340 1.904370 0.011310 
#    z 0.040730 0.011310 1.899670 
# 
# From -- ./inp_files/1644.got.cif
#   From: 2010.05.17/outbox.cif.g08.bks.cpg/sg2_1_cif.got.tgz:1644.got - 2010.06.03 11:33:40.
