data_PCOD9046840
_publ_section_title
;
Structure prediction by ZEFSAII (Michael W. Deem and Ramdas Pophale) SiO2 
 PCOD9046840
Probable space group: P -1
;
_chemical_formula_sum "Si O2"
_cell_formula_units_Z 16
_cell_length_a 11.004143
_cell_length_b 7.096811
_cell_length_c 22.468445
_cell_angle_alpha 64.460689
_cell_angle_beta 30.858158
_cell_angle_gamma 55.205425
_cell_volume 731.855646
_symmetry_space_group_name_H-M "P -1"
_symmetry_group_IT_number 2
_symmetry_cell_setting 'triclinic'
loop_
_space_group_symop_operation_xyz
x,y,z
-x,-y,-z
loop_
_atom_site_type_symbol
_atom_site_label
_atom_site_fract_x
_atom_site_fract_y
_atom_site_fract_z
Si Si1 0.153647 0.356624 0.575871
Si Si2 0.303637 0.427692 0.820955
Si Si3 0.512682 0.910969 0.416594
Si Si4 0.628739 0.093623 0.883346
Si Si5 0.063012 0.912150 0.812026
Si Si6 0.692041 0.989008 0.066659
Si Si7 0.525474 0.567460 0.822348
Si Si8 0.268585 0.772477 0.427573
O O1 0.309711 0.277448 0.583640
O O2 0.224878 0.542954 0.486577
O O3 0.839497 0.477409 0.698234
O O4 0.265938 0.117935 0.523879
O O5 0.126205 0.642158 0.825350
O O6 0.179177 0.267793 0.923799
O O7 0.409973 0.545538 0.810425
O O8 0.547152 0.259777 0.702105
O O9 0.412454 0.802444 0.421516
O O10 0.689777 0.029899 0.298547
O O11 0.566219 0.005914 0.859212
O O12 0.493245 0.370276 0.901689
O O13 0.922399 0.008926 0.794863
O O14 0.500000 0.000000 0.000000
O O15 0.873232 0.017251 0.934655
O O16 0.614535 0.184836 0.121924
O O17 0.000000 0.000000 0.500000
#
# Coordination Sequence:
#
# PCOD9046840 Si02
#       8
#     2   2   2   2   2   2   2   2
#     4  11  24  45  68  94 132 167 216 278 317 382
#     4  11  25  42  64  98 133 169 219 265 323 381
#     4  11  25  45  67  97 130 170 218 267 331 376
#     4   9  21  43  65  95 128 169 216 264 317 379
#     4  11  22  45  66  96 133 170 213 272 321 384
#     4  10  24  43  68  94 133 173 216 262 323 388
#     4  11  23  43  67  98 130 174 215 264 326 381
#     4  12  26  43  68  97 129 174 220 264 323 389
#
# _framework density 21.862234999999998
#
# number of rings (size 3 to 8) (size 9 to 14) (size 15 to 20)
#    0.000    1.250    2.500    2.250    3.500    5.500 
#    6.750    0.000    0.000    0.000    0.000    0.000 
#    0.000    0.000    0.000    0.000    0.000    0.000 
#
# Total GULP energy -89484.256845 kJ/mol
# GULP energy per Si atom -5592.766053 kJ/mol
# Density = 2.181248 g / cm^3
# Si number density = 21.862235 Si / 1000 Ang^3
#
#
#
# Elastic Constant Matrix: (Units=GPa)
#
#
# Indices 1 2 3 4 5 6 
#
# 1 60.0632 27.3105 4.6623 19.9486 11.9888 3.7989
# 2 27.3105 84.5185 1.2832 6.6826 10.9721 -3.1413
# 3 4.6623 1.2832 81.1244 12.3259 6.4027 7.5386
# 4 19.9486 6.6826 12.3259 44.2783 -2.9678 10.1441
# 5 11.9888 10.9721 6.4027 -2.9678 25.3306 0.7643
# 6 3.7989 -3.1413 7.5386 10.1441 0.7643 40.1423
#
#
#
# Elastic Compliance Matrix: (Units=1/GPa)
#
#
# Indices 1 2 3 4 5 6 
#
# 1 0.025274 -0.005820 0.001278 -0.011624 -0.011128 0.000062
# 2 -0.005820 0.014256 0.000265 -0.000242 -0.003568 0.001746
# 3 0.001278 0.000265 0.013400 -0.004323 -0.004570 -0.001437
# 4 -0.011624 -0.000242 -0.004323 0.031186 0.010540 -0.006188
# 5 -0.011128 -0.003568 -0.004570 0.010540 0.048740 -0.001959
# 6 0.000062 0.001746 -0.001437 -0.006188 -0.001959 0.026913
#
#
# Mechanical properties :
#
#
# Convention : Reuss Voigt Hill
#
# Bulk Modulus (GPa) = 22.53445 32.46867 27.50156
# Shear Modulus (GPa) = 27.30531 34.78025 31.04278
#
# Velocity S-wave (km/s) = 3.53791 3.99291 3.77228
# Velocity P-wave (km/s) = 5.19798 6.01178 5.61963
#
# Compressibility (1/GPa) = 0.04437650
#
# Stress axis : x y z
#
# Youngs Moduli (GPa) = 39.56580 70.14739 74.62573
#
# Poissons Ratio (x) = 0.40828 -0.09539
# Poissons Ratio (y) = 0.23028 -0.01979
# Poissons Ratio (z) = -0.05057 -0.01860
#
# Static dielectric constant tensor:
#      x y z
#    x 1.831320 -0.025140 -0.036200 
#    y -0.025140 1.762040 -0.009620 
#    z -0.036200 -0.009620 1.814350 
# 
# From -- ./inp_files/349388.got.cif
#   From: 2010.05.17/outbox.cif.g08.bks.cpg/sg2_175_cif.got.tgz:349388.got - 2010.06.03 11:33:40.
