data_PCOD9046442
_publ_section_title
;
Structure prediction by ZEFSAII (Michael W. Deem and Ramdas Pophale) SiO2 
 PCOD9046442
Probable space group: P -1
;
_chemical_formula_sum "Si O2"
_cell_formula_units_Z 16
_cell_length_a 17.031868
_cell_length_b 8.980608
_cell_length_c 8.660706
_cell_angle_alpha 96.239904
_cell_angle_beta 135.533463
_cell_angle_gamma 59.698118
_cell_volume 728.681567
_symmetry_space_group_name_H-M "P -1"
_symmetry_group_IT_number 2
_symmetry_cell_setting 'triclinic'
loop_
_space_group_symop_operation_xyz
x,y,z
-x,-y,-z
loop_
_atom_site_type_symbol
_atom_site_label
_atom_site_fract_x
_atom_site_fract_y
_atom_site_fract_z
Si Si1 0.154652 0.519890 0.835501
Si Si2 0.920132 0.663771 0.777497
Si Si3 0.718948 0.791473 0.238572
Si Si4 0.103868 0.021283 0.044754
Si Si5 0.663291 0.413700 0.711058
Si Si6 0.073224 0.805704 0.485262
Si Si7 0.353346 0.575899 0.650927
Si Si8 0.540077 0.216819 0.079332
O O1 0.191714 0.326962 0.799211
O O2 0.093755 0.657498 0.618981
O O3 0.040012 0.613219 0.818707
O O4 0.287928 0.502193 0.088610
O O5 0.800160 0.689863 0.501957
O O6 0.857628 0.864578 0.789752
O O7 0.000000 0.500000 0.000000
O O8 0.670396 0.002948 0.194583
O O9 0.582541 0.795091 0.039777
O O10 0.235242 0.812923 0.152479
O O11 0.000000 0.000000 0.000000
O O12 0.022820 0.143409 0.792886
O O13 0.500000 0.500000 0.500000
O O14 0.695976 0.442748 0.585628
O O15 0.229000 0.700962 0.615918
O O16 0.000000 0.000000 0.500000
O O17 0.414685 0.692756 0.726996
O O18 0.472811 0.368641 0.862937
#
# Coordination Sequence:
#
# PCOD9046442 Si02
#       8
#     2   2   2   2   2   2   2   2
#     4  12  25  46  67 103 142 180 237 295 344 427
#     4  12  27  47  71  99 139 190 232 291 356 418
#     4  11  24  45  68  98 141 183 230 282 355 428
#     4  12  23  47  74 104 139 184 239 291 351 415
#     4  12  26  43  71 107 143 180 233 299 352 408
#     4  12  23  40  75 106 136 176 239 296 349 408
#     4  11  23  45  73 102 137 182 238 294 354 409
#     4  10  24  42  72  98 135 183 233 278 357 420
#
# _framework density 21.957462
#
# number of rings (size 3 to 8) (size 9 to 14) (size 15 to 20)
#    0.000    0.500    5.000    2.625    5.250    1.000 
#    2.250    0.625    0.000    0.000    0.000    0.000 
#    0.000    0.000    0.000    0.000    0.000    0.000 
#
# Total GULP energy -89507.309949 kJ/mol
# GULP energy per Si atom -5594.206872 kJ/mol
# Density = 2.190749 g / cm^3
# Si number density = 21.957462 Si / 1000 Ang^3
#
#
#
# Elastic Constant Matrix: (Units=GPa)
#
#
# Indices 1 2 3 4 5 6 
#
# 1 84.6439 16.3273 35.1464 -1.1687 -7.0137 -8.6864
# 2 16.3273 126.2942 46.4016 3.3661 -11.5511 -12.9163
# 3 35.1464 46.4016 112.7056 -6.1671 -16.6386 -13.4367
# 4 -1.1687 3.3661 -6.1671 36.9958 -4.5831 -5.4206
# 5 -7.0137 -11.5511 -16.6386 -4.5831 37.5073 -0.2020
# 6 -8.6864 -12.9163 -13.4367 -5.4206 -0.2020 27.6300
#
#
#
# Elastic Compliance Matrix: (Units=1/GPa)
#
#
# Indices 1 2 3 4 5 6 
#
# 1 0.013745 -0.000041 -0.003821 0.000281 0.000910 0.002506
# 2 -0.000041 0.009618 -0.003492 -0.000913 0.001308 0.002615
# 3 -0.003821 -0.003492 0.012825 0.003476 0.004346 0.004117
# 4 0.000281 -0.000913 0.003476 0.029361 0.004940 0.007148
# 5 0.000910 0.001308 0.004346 0.004940 0.029789 0.004198
# 6 0.002506 0.002615 0.004117 0.007148 0.004198 0.041638
#
#
# Mechanical properties :
#
#
# Convention : Reuss Voigt Hill
#
# Bulk Modulus (GPa) = 46.55623 57.71049 52.13336
# Shear Modulus (GPa) = 31.47770 35.47785 33.47777
#
# Velocity S-wave (km/s) = 3.79037 4.02400 3.90893
# Velocity P-wave (km/s) = 6.35648 6.92315 6.64586
#
# Compressibility (1/GPa) = 0.02147940
#
# Stress axis : x y z
#
# Youngs Moduli (GPa) = 72.75305 103.97459 77.97574
#
# Poissons Ratio (x) = 0.00427 0.29794
# Poissons Ratio (y) = 0.00299 0.27229
# Poissons Ratio (z) = 0.27798 0.36308
#
# Static dielectric constant tensor:
#      x y z
#    x 1.803730 -0.008630 0.042210 
#    y -0.008630 1.806630 -0.005200 
#    z 0.042210 -0.005200 1.828360 
# 
# From -- ./inp_files/329224.got.cif
#   From: 2010.05.17/outbox.cif.g08.bks.cpg/sg2_165_cif.got.tgz:329224.got - 2010.06.03 11:33:40.
