data_PCOD9046509
_publ_section_title
;
Structure prediction by ZEFSAII (Michael W. Deem and Ramdas Pophale) SiO2 
 PCOD9046509
Probable space group: P -1
;
_chemical_formula_sum "Si O2"
_cell_formula_units_Z 13
_cell_length_a 12.073063
_cell_length_b 5.065027
_cell_length_c 9.143479
_cell_angle_alpha 99.593086
_cell_angle_beta 102.630113
_cell_angle_gamma 79.987095
_cell_volume 532.451823
_symmetry_space_group_name_H-M "P -1"
_symmetry_group_IT_number 2
_symmetry_cell_setting 'triclinic'
loop_
_space_group_symop_operation_xyz
x,y,z
-x,-y,-z
loop_
_atom_site_type_symbol
_atom_site_label
_atom_site_fract_x
_atom_site_fract_y
_atom_site_fract_z
Si Si1 0.615267 0.130507 0.522078
Si Si2 0.065889 0.745406 0.576581
Si Si3 0.886592 0.065205 0.071409
Si Si4 0.705854 0.751592 0.107378
Si Si5 0.500000 0.000000 0.000000
Si Si6 0.304018 0.458359 0.599147
Si Si7 0.651184 0.324682 0.869941
O O1 0.601074 0.377129 0.424501
O O2 0.652799 0.263122 0.694832
O O3 0.500000 0.000000 0.500000
O O4 0.697680 0.848289 0.483916
O O5 0.077475 0.796752 0.757316
O O6 0.191480 0.659664 0.539717
O O7 0.000000 0.500000 0.500000
O O8 0.000000 0.000000 0.500000
O O9 0.827293 0.810024 0.090123
O O10 0.778935 0.229144 0.965818
O O11 0.000000 0.000000 0.000000
O O12 0.619153 0.022789 0.134681
O O13 0.704749 0.574063 0.232607
O O14 0.628500 0.640624 0.944505
O O15 0.446425 0.822736 0.100224
#
# Coordination Sequence:
#
# PCOD9046509 Si02
#       7
#     2   2   2   2   1   2   2
#     4  12  29  48  77 117 156 202 257 326 394 458
#     4  12  27  49  78 110 147 210 258 314 397 459
#     4  11  27  48  74 110 156 195 261 327 385 461
#     4  11  24  49  76 111 147 212 256 318 395 470
#     4  10  24  42  76 106 150 192 260 310 386 464
#     4  12  27  51  77 107 161 199 261 320 387 479
#     4  11  26  45  77 109 153 200 261 314 397 458
#
# _framework density 24.415357
#
# number of rings (size 3 to 8) (size 9 to 14) (size 15 to 20)
#    0.000    0.615    1.538    4.615   12.923    0.615 
#    0.000    0.000    0.000    0.000    0.000    0.000 
#    0.000    0.000    0.000    0.000    0.000    0.000 
#
# Total GULP energy -72499.079319 kJ/mol
# GULP energy per Si atom -5576.852255 kJ/mol
# Density = 2.435979 g / cm^3
# Si number density = 24.415357 Si / 1000 Ang^3
#
#
#
# Elastic Constant Matrix: (Units=GPa)
#
#
# Indices 1 2 3 4 5 6 
#
# 1 145.8865 25.7929 37.3508 -6.6996 -15.8404 14.4911
# 2 25.7929 138.8640 69.9001 -7.2511 -12.2055 31.9241
# 3 37.3508 69.9001 164.4428 23.5492 -4.9086 17.2604
# 4 -6.6996 -7.2511 23.5492 50.2546 1.3884 3.8197
# 5 -15.8404 -12.2055 -4.9086 1.3884 37.5095 -11.5138
# 6 14.4911 31.9241 17.2604 3.8197 -11.5138 54.2936
#
#
#
# Elastic Compliance Matrix: (Units=1/GPa)
#
#
# Indices 1 2 3 4 5 6 
#
# 1 0.007814 0.000097 -0.001900 0.001957 0.002670 -0.001110
# 2 0.000097 0.011072 -0.004760 0.004187 0.001320 -0.005038
# 3 -0.001900 -0.004760 0.009207 -0.005278 -0.000771 0.000587
# 4 0.001957 0.004187 -0.005278 0.023475 -0.000298 -0.003021
# 5 0.002670 0.001320 -0.000771 -0.000298 0.029684 0.005073
# 6 -0.001110 -0.005038 0.000587 -0.003021 0.005073 0.022779
#
#
# Mechanical properties :
#
#
# Convention : Reuss Voigt Hill
#
# Bulk Modulus (GPa) = 66.81215 79.47566 73.14390
# Shear Modulus (GPa) = 40.93473 49.48818 45.21145
#
# Velocity S-wave (km/s) = 4.09907 4.50703 4.30788
# Velocity P-wave (km/s) = 7.05885 7.72700 7.40047
#
# Compressibility (1/GPa) = 0.01496734
#
# Stress axis : x y z
#
# Youngs Moduli (GPa) = 127.97624 90.31729 108.60942
#
# Poissons Ratio (x) = -0.00877 0.20637
# Poissons Ratio (y) = -0.01243 0.51698
# Poissons Ratio (z) = 0.24317 0.42991
#
# Static dielectric constant tensor:
#      x y z
#    x 2.359120 -0.232580 -0.156850 
#    y -0.232580 2.037770 0.047920 
#    z -0.156850 0.047920 2.045390 
# 
# From -- ./inp_files/228601.got.cif
#   From: 2010.05.17/outbox.cif.g08.bks.cpg/sg2_115_cif.got.tgz:228601.got - 2010.06.03 11:33:40.
