data_PCOD9046549
_publ_section_title
;
Structure prediction by ZEFSAII (Michael W. Deem and Ramdas Pophale) SiO2 
 PCOD9046549
Probable space group: P -1
;
_chemical_formula_sum "Si O2"
_cell_formula_units_Z 16
_cell_length_a 22.109679
_cell_length_b 8.218449
_cell_length_c 5.225838
_cell_angle_alpha 113.174527
_cell_angle_beta 124.562276
_cell_angle_gamma 63.893547
_cell_volume 688.780536
_symmetry_space_group_name_H-M "P -1"
_symmetry_group_IT_number 2
_symmetry_cell_setting 'triclinic'
loop_
_space_group_symop_operation_xyz
x,y,z
-x,-y,-z
loop_
_atom_site_type_symbol
_atom_site_label
_atom_site_fract_x
_atom_site_fract_y
_atom_site_fract_z
Si Si1 0.960167 0.348390 0.577356
Si Si2 0.277448 0.196530 0.097256
Si Si3 0.418608 0.200277 0.109381
Si Si4 0.091777 0.831558 0.160077
Si Si5 0.420295 0.909072 0.503451
Si Si6 0.356508 0.596242 0.159687
Si Si7 0.264175 0.591955 0.450006
Si Si8 0.895534 0.757804 0.461841
O O1 0.947910 0.250050 0.751005
O O2 0.918606 0.570614 0.580122
O O3 0.049702 0.311651 0.696969
O O4 0.930203 0.242135 0.209349
O O5 0.334347 0.230229 0.038538
O O6 0.263341 0.378875 0.354193
O O7 0.338456 0.015338 0.246067
O O8 0.194746 0.190013 0.795248
O O9 0.493044 0.153049 0.443453
O O10 0.412561 0.397298 0.102417
O O11 0.425904 0.043192 0.826102
O O12 0.180182 0.726254 0.343435
O O13 0.085285 0.051811 0.285729
O O14 0.407072 0.722577 0.449521
O O15 0.299115 0.603149 0.261654
O O16 0.311306 0.652225 0.823422
#
# Coordination Sequence:
#
# PCOD9046549 Si02
#       8
#     2   2   2   2   2   2   2   2
#     4  11  27  49  71 111 144 186 241 296 350 425
#     4  11  23  46  67  99 138 182 227 290 349 414
#     4  10  24  43  64 100 137 176 228 291 341 411
#     4  12  25  48  73 105 148 188 238 296 354 418
#     4  11  23  42  70  97 132 184 231 281 350 418
#     4  11  24  44  67 100 138 181 229 281 349 406
#     4  11  24  45  67 103 140 180 229 293 337 415
#     4  11  26  46  75 105 142 193 236 292 362 425
#
# _framework density 23.229462000000002
#
# number of rings (size 3 to 8) (size 9 to 14) (size 15 to 20)
#    0.000    1.000    2.500    3.000    5.250    3.000 
#    2.250    1.875    0.000    0.000    0.000    0.000 
#    0.000    0.000    0.000    0.000    0.000    0.000 
#
# Total GULP energy -89191.314036 kJ/mol
# GULP energy per Si atom -5574.457127 kJ/mol
# Density = 2.317659 g / cm^3
# Si number density = 23.229462 Si / 1000 Ang^3
#
#
#
# Elastic Constant Matrix: (Units=GPa)
#
#
# Indices 1 2 3 4 5 6 
#
# 1 125.6491 43.8306 70.6381 -24.8405 25.9528 8.0799
# 2 43.8306 189.4824 11.1410 12.1424 13.4654 -33.1081
# 3 70.6381 11.1410 191.5900 -0.0457 23.6562 35.7046
# 4 -24.8405 12.1424 -0.0457 54.7502 -7.8179 13.1409
# 5 25.9528 13.4654 23.6562 -7.8179 43.5213 0.8509
# 6 8.0799 -33.1081 35.7046 13.1409 0.8509 49.6330
#
#
#
# Elastic Compliance Matrix: (Units=1/GPa)
#
#
# Indices 1 2 3 4 5 6 
#
# 1 0.013973 -0.004005 -0.003669 0.007738 -0.003625 -0.004293
# 2 -0.004005 0.008002 -0.000291 -0.005595 -0.001085 0.007699
# 3 -0.003669 -0.000291 0.007756 -0.000683 -0.001964 -0.004962
# 4 0.007738 -0.005595 -0.000683 0.026107 0.002402 -0.011453
# 5 -0.003625 -0.001085 -0.001964 0.002402 0.026970 0.000180
# 6 -0.004293 0.007699 -0.004962 -0.011453 0.000180 0.032581
#
#
# Mechanical properties :
#
#
# Convention : Reuss Voigt Hill
#
# Bulk Modulus (GPa) = 72.45890 84.21564 78.33727
# Shear Modulus (GPa) = 36.78640 54.98836 45.88738
#
# Velocity S-wave (km/s) = 3.98378 4.87065 4.44936
# Velocity P-wave (km/s) = 7.24024 8.24400 7.75837
#
# Compressibility (1/GPa) = 0.01380093
#
# Stress axis : x y z
#
# Youngs Moduli (GPa) = 71.56617 124.97163 128.92845
#
# Poissons Ratio (x) = 0.50048 0.47310
# Poissons Ratio (y) = 0.28661 0.03750
# Poissons Ratio (z) = 0.26261 0.03635
#
# Static dielectric constant tensor:
#      x y z
#    x 1.652620 -0.431090 0.140540 
#    y -0.431090 1.152960 0.223130 
#    z 0.140540 0.223130 1.758730 
# 
# From -- ./inp_files/122719.got.cif
#   From: 2010.05.17/outbox.cif.g08.bks.cpg/sg2_62_cif.got.tgz:122719.got - 2010.06.03 11:33:40.
