data_PCOD9046458
_publ_section_title
;
Structure prediction by ZEFSAII (Michael W. Deem and Ramdas Pophale) SiO2 
 PCOD9046458
Probable space group: P -1
;
_chemical_formula_sum "Si O2"
_cell_formula_units_Z 16
_cell_length_a 22.182878
_cell_length_b 5.331659
_cell_length_c 11.179591
_cell_angle_alpha 68.253738
_cell_angle_beta 33.607480
_cell_angle_gamma 69.295381
_cell_volume 677.163020
_symmetry_space_group_name_H-M "P -1"
_symmetry_group_IT_number 2
_symmetry_cell_setting 'triclinic'
loop_
_space_group_symop_operation_xyz
x,y,z
-x,-y,-z
loop_
_atom_site_type_symbol
_atom_site_label
_atom_site_fract_x
_atom_site_fract_y
_atom_site_fract_z
Si Si1 0.356496 0.156749 0.725540
Si Si2 0.457880 0.586137 0.717304
Si Si3 0.792702 0.112271 0.449020
Si Si4 0.206827 0.000037 0.813572
Si Si5 0.454789 0.707256 0.138678
Si Si6 0.217590 0.474959 0.053131
Si Si7 0.993890 0.244419 0.232441
Si Si8 0.914642 0.681945 0.477471
O O1 0.432891 0.403159 0.547073
O O2 0.320128 0.094571 0.661424
O O3 0.423606 0.909716 0.724848
O O4 0.241738 0.214117 0.974397
O O5 0.502768 0.424503 0.785166
O O6 0.339603 0.485864 0.903148
O O7 0.676289 0.253522 0.652737
O O8 0.794870 0.060576 0.312986
O O9 0.817121 0.827724 0.530394
O O10 0.107935 0.720830 0.698475
O O11 0.105836 0.213161 0.979279
O O12 0.195604 0.726879 0.956483
O O13 0.500000 0.500000 0.000000
O O14 0.500000 0.000000 0.000000
O O15 0.133583 0.448941 0.302814
O O16 0.980659 0.467516 0.318734
O O17 0.977205 0.943320 0.364478
#
# Coordination Sequence:
#
# PCOD9046458 Si02
#       8
#     2   2   2   2   2   2   2   2
#     4  10  24  42  73 103 144 187 245 299 362 427
#     4  10  24  43  68 102 144 186 241 295 362 425
#     4  10  26  46  72 104 144 188 237 297 353 432
#     4  11  25  45  74 106 141 188 248 295 360 424
#     4  12  29  44  75 107 146 191 239 295 363 436
#     4  11  24  43  71 103 141 192 233 301 358 438
#     4  10  26  48  73 106 141 194 236 305 355 428
#     4  10  26  44  75  98 149 180 244 287 369 421
#
# _framework density 23.627987999999998
#
# number of rings (size 3 to 8) (size 9 to 14) (size 15 to 20)
#    0.750    0.750    0.000    2.250   14.000    3.500 
#    0.000    0.000    0.000    0.000    0.000    0.000 
#    0.000    0.000    0.000    0.000    0.000    0.000 
#
# Total GULP energy -89401.041359 kJ/mol
# GULP energy per Si atom -5587.565085 kJ/mol
# Density = 2.357421 g / cm^3
# Si number density = 23.627988 Si / 1000 Ang^3
#
#
#
# Elastic Constant Matrix: (Units=GPa)
#
#
# Indices 1 2 3 4 5 6 
#
# 1 101.1697 41.6415 37.0563 -3.7766 -14.2332 -6.5685
# 2 41.6415 106.1316 46.0081 17.3262 10.4925 -5.6880
# 3 37.0563 46.0081 103.6350 18.2538 0.5650 -4.8552
# 4 -3.7766 17.3262 18.2538 53.4398 -4.5488 0.0140
# 5 -14.2332 10.4925 0.5650 -4.5488 34.8146 1.6887
# 6 -6.5685 -5.6880 -4.8552 0.0140 1.6887 45.2703
#
#
#
# Elastic Compliance Matrix: (Units=1/GPa)
#
#
# Indices 1 2 3 4 5 6 
#
# 1 0.015141 -0.005994 -0.003646 0.004997 0.008674 0.000728
# 2 -0.005994 0.014869 -0.003551 -0.004672 -0.007528 0.000900
# 3 -0.003646 -0.003551 0.013213 -0.003717 -0.001144 0.000486
# 4 0.004997 -0.004672 -0.003717 0.022401 0.006463 -0.000509
# 5 0.008674 -0.007528 -0.001144 0.006463 0.035457 -0.001135
# 6 0.000728 0.000900 0.000486 -0.000509 -0.001135 0.022403
#
#
# Mechanical properties :
#
#
# Convention : Reuss Voigt Hill
#
# Bulk Modulus (GPa) = 59.38395 62.26090 60.82242
# Shear Modulus (GPa) = 32.15831 39.12030 35.63931
#
# Velocity S-wave (km/s) = 3.69321 4.07341 3.88796
# Velocity P-wave (km/s) = 6.58588 6.96644 6.77883
#
# Compressibility (1/GPa) = 0.01683957
#
# Stress axis : x y z
#
# Youngs Moduli (GPa) = 66.04484 67.25364 75.68119
#
# Poissons Ratio (x) = 0.40315 0.27594
# Poissons Ratio (y) = 0.39590 0.26878
# Poissons Ratio (z) = 0.24081 0.23885
#
# Static dielectric constant tensor:
#      x y z
#    x 1.947220 0.040340 -0.022700 
#    y 0.040340 1.940230 0.044380 
#    z -0.022700 0.044380 1.935490 
# 
# From -- ./inp_files/475958.got.cif
#   From: 2010.05.17/outbox.cif.g08.bks.cpg/sg2_238_cif.got.tgz:475958.got - 2010.06.03 11:33:40.
