data_PCOD9046366
_publ_section_title
;
Structure prediction by ZEFSAII (Michael W. Deem and Ramdas Pophale) SiO2 
 PCOD9046366
Probable space group: P -1
;
_chemical_formula_sum "Si O2"
_cell_formula_units_Z 16
_cell_length_a 5.502002
_cell_length_b 11.540088
_cell_length_c 14.957154
_cell_angle_alpha 129.922497
_cell_angle_beta 103.637559
_cell_angle_gamma 91.634646
_cell_volume 686.876295
_symmetry_space_group_name_H-M "P -1"
_symmetry_group_IT_number 2
_symmetry_cell_setting 'triclinic'
loop_
_space_group_symop_operation_xyz
x,y,z
-x,-y,-z
loop_
_atom_site_type_symbol
_atom_site_label
_atom_site_fract_x
_atom_site_fract_y
_atom_site_fract_z
Si Si1 0.517223 0.827709 0.438690
Si Si2 0.897001 0.930396 0.861056
Si Si3 0.803103 0.589907 0.333782
Si Si4 0.276578 0.774195 0.571665
Si Si5 0.925395 0.428501 0.818625
Si Si6 0.373005 0.037882 0.822117
Si Si7 0.519610 0.611105 0.644476
Si Si8 0.288178 0.372844 0.970317
O O1 0.744923 0.756368 0.386326
O O2 0.505099 0.800192 0.531329
O O3 0.271952 0.709773 0.316410
O O4 0.500000 0.000000 0.500000
O O5 0.780228 0.742552 0.751408
O O6 0.655368 0.004615 0.848345
O O7 0.147702 0.976333 0.843680
O O8 0.000000 0.000000 0.000000
O O9 0.863714 0.508846 0.208809
O O10 0.580879 0.485652 0.323851
O O11 0.048536 0.643844 0.445884
O O12 0.328702 0.713670 0.643606
O O13 0.255529 0.948401 0.676352
O O14 0.039978 0.354191 0.875545
O O15 0.789860 0.557380 0.909661
O O16 0.390600 0.219776 0.909420
O O17 0.500000 0.500000 0.500000
O O18 0.500000 0.500000 0.000000
#
# Coordination Sequence:
#
# PCOD9046366 Si02
#       8
#     2   2   2   2   2   2   2   2
#     4  11  25  41  68 105 146 188 245 308 382 443
#     4  11  27  51  75 111 150 200 253 317 384 455
#     4  11  23  44  71 107 147 188 253 317 379 445
#     4  10  24  42  71 107 140 198 243 308 378 448
#     4  10  26  44  67 106 140 195 247 314 375 444
#     4  11  27  48  77 108 149 200 252 308 386 453
#     4  11  22  46  76 107 146 195 252 310 380 453
#     4  11  26  48  72 100 147 196 256 305 379 455
#
# _framework density 23.293858
#
# number of rings (size 3 to 8) (size 9 to 14) (size 15 to 20)
#    0.000    1.250    1.250    2.250   10.500    4.000 
#    4.500    0.000    0.000    0.000    0.000    0.000 
#    0.000    0.000    0.000    0.000    0.000    0.000 
#
# Total GULP energy -89367.663592 kJ/mol
# GULP energy per Si atom -5585.478974 kJ/mol
# Density = 2.324084 g / cm^3
# Si number density = 23.293858 Si / 1000 Ang^3
#
#
#
# Elastic Constant Matrix: (Units=GPa)
#
#
# Indices 1 2 3 4 5 6 
#
# 1 81.4767 25.9855 28.7475 -3.6067 -27.7055 4.7268
# 2 25.9855 91.5694 47.7313 12.6167 -18.5692 1.9073
# 3 28.7475 47.7313 143.1083 3.8507 -24.9539 15.0753
# 4 -3.6067 12.6167 3.8507 35.0936 -4.1350 -4.7836
# 5 -27.7055 -18.5692 -24.9539 -4.1350 49.7243 -5.1964
# 6 4.7268 1.9073 15.0753 -4.7836 -5.1964 33.3713
#
#
#
# Elastic Compliance Matrix: (Units=1/GPa)
#
#
# Indices 1 2 3 4 5 6 
#
# 1 0.016443 -0.003076 -0.001024 0.003841 0.007827 0.000079
# 2 -0.003076 0.014863 -0.004046 -0.004911 0.001496 0.000943
# 3 -0.001024 -0.004046 0.009293 0.000121 0.002231 -0.003457
# 4 0.003841 -0.004911 0.000121 0.031705 0.003502 0.004772
# 5 0.007827 0.001496 0.002231 0.003502 0.026698 0.002457
# 6 0.000079 0.000943 -0.003457 0.004772 0.002457 0.032529
#
#
# Mechanical properties :
#
#
# Convention : Reuss Voigt Hill
#
# Bulk Modulus (GPa) = 41.14055 57.89811 49.51933
# Shear Modulus (GPa) = 32.06683 37.88382 34.97533
#
# Velocity S-wave (km/s) = 3.71431 4.03717 3.87910
# Velocity P-wave (km/s) = 6.00789 6.82943 6.43179
#
# Compressibility (1/GPa) = 0.02430692
#
# Stress axis : x y z
#
# Youngs Moduli (GPa) = 60.81765 67.28191 107.61193
#
# Poissons Ratio (x) = 0.20696 0.11019
# Poissons Ratio (y) = 0.18708 0.43535
# Poissons Ratio (z) = 0.06227 0.27219
#
# Static dielectric constant tensor:
#      x y z
#    x 2.021420 0.015060 -0.015790 
#    y 0.015060 2.127240 -0.043310 
#    z -0.015790 -0.043310 1.945270 
# 
# From -- ./inp_files/483050.got.cif
#   From: 2010.05.17/outbox.cif.g08.bks.cpg/sg2_242_cif.got.tgz:483050.got - 2010.06.03 11:33:40.
