data_PCOD9046736
_publ_section_title
;
Structure prediction by ZEFSAII (Michael W. Deem and Ramdas Pophale) SiO2 
 PCOD9046736
Probable space group: P -1
;
_chemical_formula_sum "Si O2"
_cell_formula_units_Z 15
_cell_length_a 7.155694
_cell_length_b 10.389857
_cell_length_c 18.149161
_cell_angle_alpha 28.267645
_cell_angle_beta 90.009839
_cell_angle_gamma 80.139208
_cell_volume 595.707444
_symmetry_space_group_name_H-M "P -1"
_symmetry_group_IT_number 2
_symmetry_cell_setting 'triclinic'
loop_
_space_group_symop_operation_xyz
x,y,z
-x,-y,-z
loop_
_atom_site_type_symbol
_atom_site_label
_atom_site_fract_x
_atom_site_fract_y
_atom_site_fract_z
Si Si1 0.080164 0.147209 0.862648
Si Si2 0.272364 0.534696 0.111499
Si Si3 0.303190 0.348349 0.372151
Si Si4 0.628152 0.005104 0.788251
Si Si5 0.657378 0.113995 0.272915
Si Si6 0.000000 0.500000 0.000000
Si Si7 0.924313 0.259754 0.584801
Si Si8 0.367664 0.409105 0.708869
O O1 0.249387 0.262173 0.834457
O O2 0.881275 0.410007 0.707471
O O3 0.179870 0.885808 0.937822
O O4 0.000000 0.000000 0.000000
O O5 0.259665 0.392228 0.262817
O O6 0.149389 0.426636 0.107989
O O7 0.499350 0.431256 0.133045
O O8 0.323154 0.059512 0.562378
O O9 0.503993 0.418352 0.345022
O O10 0.461386 0.006677 0.726619
O O11 0.755600 0.197904 0.662775
O O12 0.513616 0.156563 0.784733
O O13 0.805019 0.696164 0.952844
O O14 0.881418 0.038586 0.278247
O O15 0.809970 0.382474 0.447329
O O16 0.000000 0.500000 0.500000
#
# Coordination Sequence:
#
# PCOD9046736 Si02
#       8
#     2   2   2   2   2   1   2   2
#     4  10  24  44  68  98 135 176 221 275 333 401
#     4  10  24  43  67  95 136 179 221 274 342 400
#     4  11  22  43  70  98 133 176 228 277 330 400
#     4  11  24  41  66 101 134 174 221 276 333 398
#     4  11  22  42  66  99 137 173 222 276 333 395
#     4  10  24  44  66  94 134 180 218 278 340 400
#     4  12  23  38  66 102 134 171 223 279 330 388
#     4  12  23  39  71 100 133 174 226 278 331 392
#
# _framework density 25.180145
#
# number of rings (size 3 to 8) (size 9 to 14) (size 15 to 20)
#    0.000    1.067    4.000    2.400    1.867    3.200 
#    0.000    8.667    0.000    0.000    0.000    0.000 
#    0.000    0.000    0.000    0.000    0.000    0.000 
#
# Total GULP energy -83765.352462 kJ/mol
# GULP energy per Si atom -5584.356831 kJ/mol
# Density = 2.512283 g / cm^3
# Si number density = 25.180145 Si / 1000 Ang^3
#
#
#
# Elastic Constant Matrix: (Units=GPa)
#
#
# Indices 1 2 3 4 5 6 
#
# 1 141.5022 10.7681 23.3916 12.5625 7.2545 -18.2568
# 2 10.7681 64.4912 19.6818 9.5995 17.9006 -1.7952
# 3 23.3916 19.6818 57.2004 -6.6446 25.9904 -11.6473
# 4 12.5625 9.5995 -6.6446 49.3475 -15.6830 13.8830
# 5 7.2545 17.9006 25.9904 -15.6830 51.7403 0.7051
# 6 -18.2568 -1.7952 -11.6473 13.8830 0.7051 42.8879
#
#
#
# Elastic Compliance Matrix: (Units=1/GPa)
#
#
# Indices 1 2 3 4 5 6 
#
# 1 0.008470 0.000535 -0.002624 -0.004278 -0.001410 0.004323
# 2 0.000535 0.019873 -0.004164 -0.007545 -0.007179 0.002489
# 3 -0.002624 -0.004164 0.026547 -0.000440 -0.011745 0.006254
# 4 -0.004278 -0.007545 -0.000440 0.030272 0.012774 -0.012266
# 5 -0.001410 -0.007179 -0.011745 0.012774 0.031900 -0.008750
# 6 0.004323 0.002489 0.006254 -0.012266 -0.008750 0.031074
#
#
# Mechanical properties :
#
#
# Convention : Reuss Voigt Hill
#
# Bulk Modulus (GPa) = 23.59352 41.20854 32.40103
# Shear Modulus (GPa) = 28.60916 42.75195 35.68056
#
# Velocity S-wave (km/s) = 3.37438 4.12496 3.76841
# Velocity P-wave (km/s) = 4.95703 6.25205 5.64182
#
# Compressibility (1/GPa) = 0.04238452
#
# Stress axis : x y z
#
# Youngs Moduli (GPa) = 118.06446 50.32072 37.66878
#
# Poissons Ratio (x) = -0.02693 0.09883
# Poissons Ratio (y) = -0.06318 0.15686
# Poissons Ratio (z) = 0.30975 0.20954
#
# Static dielectric constant tensor:
#      x y z
#    x 1.854620 -0.045620 0.046450 
#    y -0.045620 1.983800 -0.029980 
#    z 0.046450 -0.029980 2.037480 
# 
# From -- ./inp_files/426277.got.cif
#   From: 2010.05.17/outbox.cif.g08.bks.cpg/sg2_214_cif.got.tgz:426277.got - 2010.06.03 11:33:40.
