data_PCOD9046888
_publ_section_title
;
Structure prediction by ZEFSAII (Michael W. Deem and Ramdas Pophale) SiO2 
 PCOD9046888
Probable space group: P -1
;
_chemical_formula_sum "Si O2"
_cell_formula_units_Z 13
_cell_length_a 11.767297
_cell_length_b 8.218677
_cell_length_c 8.623035
_cell_angle_alpha 116.283694
_cell_angle_beta 48.350502
_cell_angle_gamma 90.233597
_cell_volume 503.583542
_symmetry_space_group_name_H-M "P -1"
_symmetry_group_IT_number 2
_symmetry_cell_setting 'triclinic'
loop_
_space_group_symop_operation_xyz
x,y,z
-x,-y,-z
loop_
_atom_site_type_symbol
_atom_site_label
_atom_site_fract_x
_atom_site_fract_y
_atom_site_fract_z
Si Si1 0.500000 0.500000 0.000000
Si Si2 0.781633 0.896049 0.647669
Si Si3 0.153965 0.736185 0.339141
Si Si4 0.809784 0.564919 0.259497
Si Si5 0.506690 0.705455 0.368922
Si Si6 0.974814 0.208532 0.180229
Si Si7 0.663788 0.924629 0.118434
O O1 0.309118 0.524261 0.136607
O O2 0.442413 0.578029 0.264118
O O3 0.732937 0.780814 0.509145
O O4 0.988024 0.773311 0.408882
O O5 0.753829 0.123758 0.734725
O O6 0.694135 0.901416 0.895411
O O7 0.071832 0.807371 0.609005
O O8 0.679312 0.573755 0.248964
O O9 0.843826 0.394137 0.283244
O O10 0.000000 0.500000 0.000000
O O11 0.385969 0.851376 0.674062
O O12 0.529166 0.857858 0.287249
O O13 0.000000 0.000000 0.000000
O O14 0.155658 0.214111 0.026628
#
# Coordination Sequence:
#
# PCOD9046888 Si02
#       7
#     1   2   2   2   2   2   2
#     4  12  26  44  70 100 148 184 230 296 358 412
#     4  10  24  46  73 103 141 185 241 286 350 420
#     4  10  24  43  69 101 141 188 229 290 348 420
#     4  12  24  42  72 107 139 183 237 291 346 426
#     4  11  26  45  71 103 144 183 237 292 356 415
#     4  11  23  42  72 101 142 184 234 287 352 415
#     4  10  24  46  71 103 140 190 233 288 353 420
#
# _framework density 25.814981
#
# number of rings (size 3 to 8) (size 9 to 14) (size 15 to 20)
#    0.000    1.231    1.538    2.769    6.462    5.538 
#    0.000    2.308    0.000    0.000    0.000    0.000 
#    0.000    0.000    0.000    0.000    0.000    0.000 
#
# Total GULP energy -72492.705525 kJ/mol
# GULP energy per Si atom -5576.361963 kJ/mol
# Density = 2.575623 g / cm^3
# Si number density = 25.814981 Si / 1000 Ang^3
#
#
#
# Elastic Constant Matrix: (Units=GPa)
#
#
# Indices 1 2 3 4 5 6 
#
# 1 164.7030 24.9839 25.4256 6.0048 25.4638 -13.2319
# 2 24.9839 76.8652 10.8350 -12.1713 12.4927 -11.4178
# 3 25.4256 10.8350 106.5885 -3.6125 16.6446 5.9470
# 4 6.0048 -12.1713 -3.6125 33.8724 5.9919 -1.0127
# 5 25.4638 12.4927 16.6446 5.9919 43.1194 0.4782
# 6 -13.2319 -11.4178 5.9470 -1.0127 0.4782 22.3970
#
#
#
# Elastic Compliance Matrix: (Units=1/GPa)
#
#
# Indices 1 2 3 4 5 6 
#
# 1 0.007360 -0.001233 -0.001378 -0.001182 -0.003339 0.004103
# 2 -0.001233 0.016734 -0.000870 0.007256 -0.004886 0.008466
# 3 -0.001378 -0.000870 0.010565 0.001503 -0.003178 -0.003927
# 4 -0.001182 0.007256 0.001503 0.033818 -0.006732 0.004275
# 5 -0.003339 -0.004886 -0.003178 -0.006732 0.028791 -0.004539
# 6 0.004103 0.008466 -0.003927 0.004275 -0.004539 0.052722
#
#
# Mechanical properties :
#
#
# Convention : Reuss Voigt Hill
#
# Bulk Modulus (GPa) = 36.10513 52.29396 44.19954
# Shear Modulus (GPa) = 30.08680 39.00524 34.54602
#
# Velocity S-wave (km/s) = 3.41761 3.89132 3.66213
# Velocity P-wave (km/s) = 5.43966 6.36325 5.91950
#
# Compressibility (1/GPa) = 0.02769690
#
# Stress axis : x y z
#
# Youngs Moduli (GPa) = 135.86570 59.75879 94.64912
#
# Poissons Ratio (x) = 0.07368 0.13043
# Poissons Ratio (y) = 0.16752 0.08237
# Poissons Ratio (z) = 0.18722 0.05201
#
# Static dielectric constant tensor:
#      x y z
#    x 1.927270 -0.067000 -0.039450 
#    y -0.067000 1.974350 0.099070 
#    z -0.039450 0.099070 2.115770 
# 
# From -- ./inp_files/238059.got.cif
#   From: 2010.05.17/outbox.cif.g08.bks.cpg/sg2_120_cif.got.tgz:238059.got - 2010.06.03 11:33:40.
