data_PCOD9046632
_publ_section_title
;
Structure prediction by ZEFSAII (Michael W. Deem and Ramdas Pophale) SiO2 
 PCOD9046632
Probable space group: P -1
;
_chemical_formula_sum "Si O2"
_cell_formula_units_Z 16
_cell_length_a 12.858679
_cell_length_b 13.700662
_cell_length_c 10.523150
_cell_angle_alpha 102.963058
_cell_angle_beta 145.359753
_cell_angle_gamma 53.769463
_cell_volume 697.666016
_symmetry_space_group_name_H-M "P -1"
_symmetry_group_IT_number 2
_symmetry_cell_setting 'triclinic'
loop_
_space_group_symop_operation_xyz
x,y,z
-x,-y,-z
loop_
_atom_site_type_symbol
_atom_site_label
_atom_site_fract_x
_atom_site_fract_y
_atom_site_fract_z
Si Si1 0.609913 0.025800 0.232833
Si Si2 0.396227 0.414116 0.835217
Si Si3 0.489755 0.702754 0.810938
Si Si4 0.323711 0.063416 0.210640
Si Si5 0.078117 0.712083 0.711360
Si Si6 0.761636 0.355117 0.646557
Si Si7 0.067376 0.500666 0.210517
Si Si8 0.648316 0.756124 0.417170
O O1 0.445921 0.073986 0.214603
O O2 0.905629 0.866120 0.514757
O O3 0.605049 0.144476 0.229400
O O4 0.500000 0.000000 0.000000
O O5 0.516499 0.351074 0.077604
O O6 0.639954 0.357214 0.977846
O O7 0.163127 0.588891 0.665107
O O8 0.314519 0.339004 0.684122
O O9 0.324894 0.703934 0.543814
O O10 0.803839 0.582075 0.051322
O O11 0.371576 0.927547 0.183254
O O12 0.500000 0.000000 0.500000
O O13 0.013798 0.221391 0.949855
O O14 0.886109 0.740981 0.632509
O O15 0.500000 0.500000 0.500000
O O16 0.858060 0.413073 0.679847
O O17 0.305561 0.329875 0.439181
O O18 0.000000 0.500000 0.000000
#
# Coordination Sequence:
#
# PCOD9046632 Si02
#       8
#     2   2   2   2   2   2   2   2
#     4  11  26  46  74 105 149 197 240 298 372 441
#     4  11  25  42  71 106 141 184 239 299 362 432
#     4  12  26  44  76 105 147 188 244 304 366 436
#     4  11  26  49  75 105 151 195 244 305 372 443
#     4  10  24  43  66 104 145 175 240 293 357 427
#     4  12  28  47  76 110 143 192 254 305 368 440
#     4  12  25  47  72 103 143 193 247 303 366 440
#     4  11  25  44  74  99 145 192 235 294 373 433
#
# _framework density 22.933610000000002
#
# number of rings (size 3 to 8) (size 9 to 14) (size 15 to 20)
#    0.000    0.750    3.750    2.625    8.750    0.500 
#    0.000    1.250    0.000    0.000    0.000    0.000 
#    0.000    0.000    0.000    0.000    0.000    0.000 
#
# Total GULP energy -89483.160393 kJ/mol
# GULP energy per Si atom -5592.697525 kJ/mol
# Density = 2.288141 g / cm^3
# Si number density = 22.933610 Si / 1000 Ang^3
#
#
#
# Elastic Constant Matrix: (Units=GPa)
#
#
# Indices 1 2 3 4 5 6 
#
# 1 66.8776 31.0505 40.8113 1.7842 -2.3897 2.8224
# 2 31.0505 125.3078 30.4624 -15.4616 3.1508 20.6052
# 3 40.8113 30.4624 87.4431 -8.7439 5.0173 -4.4223
# 4 1.7842 -15.4616 -8.7439 58.1243 0.4797 -1.7483
# 5 -2.3897 3.1508 5.0173 0.4797 37.0024 -0.3154
# 6 2.8224 20.6052 -4.4223 -1.7483 -0.3154 42.2480
#
#
#
# Elastic Compliance Matrix: (Units=1/GPa)
#
#
# Indices 1 2 3 4 5 6 
#
# 1 0.022972 -0.003575 -0.010029 -0.003220 0.003182 -0.000950
# 2 -0.003575 0.010484 -0.001935 0.002465 -0.000936 -0.004982
# 3 -0.010029 -0.001935 0.017385 0.002538 -0.002843 0.003517
# 4 -0.003220 0.002465 0.002538 0.018350 -0.001000 0.000030
# 5 0.003182 -0.000936 -0.002843 -0.001000 0.027710 0.000112
# 6 -0.000950 -0.004982 0.003517 0.000030 0.000112 0.026533
#
#
# Mechanical properties :
#
#
# Convention : Reuss Voigt Hill
#
# Bulk Modulus (GPa) = 50.59974 53.80855 52.20415
# Shear Modulus (GPa) = 31.03652 39.29522 35.16587
#
# Velocity S-wave (km/s) = 3.68274 4.14385 3.92008
# Velocity P-wave (km/s) = 6.33995 6.81242 6.58042
#
# Compressibility (1/GPa) = 0.01976295
#
# Stress axis : x y z
#
# Youngs Moduli (GPa) = 43.53080 95.38640 57.51941
#
# Poissons Ratio (x) = 0.34105 0.57684
# Poissons Ratio (y) = 0.15564 0.11131
# Poissons Ratio (z) = 0.43655 0.18459
#
# Static dielectric constant tensor:
#      x y z
#    x 1.906900 -0.030360 -0.006590 
#    y -0.030360 1.865840 0.007390 
#    z -0.006590 0.007390 1.883470 
# 
# From -- ./inp_files/454894.got.cif
#   From: 2010.05.17/outbox.cif.g08.bks.cpg/sg2_228_cif.got.tgz:454894.got - 2010.06.03 11:33:40.
