data_PCOD9046703
_publ_section_title
;
Structure prediction by ZEFSAII (Michael W. Deem and Ramdas Pophale) SiO2 
 PCOD9046703
Probable space group: P -1
;
_chemical_formula_sum "Si O2"
_cell_formula_units_Z 16
_cell_length_a 11.270144
_cell_length_b 10.764610
_cell_length_c 7.297791
_cell_angle_alpha 47.749114
_cell_angle_beta 101.217769
_cell_angle_gamma 89.550260
_cell_volume 630.998693
_symmetry_space_group_name_H-M "P -1"
_symmetry_group_IT_number 2
_symmetry_cell_setting 'triclinic'
loop_
_space_group_symop_operation_xyz
x,y,z
-x,-y,-z
loop_
_atom_site_type_symbol
_atom_site_label
_atom_site_fract_x
_atom_site_fract_y
_atom_site_fract_z
Si Si1 0.410302 0.503132 0.793202
Si Si2 0.919826 0.733700 0.644884
Si Si3 0.730624 0.769686 0.058784
Si Si4 0.128479 0.642798 0.065831
Si Si5 0.383126 0.758863 0.984324
Si Si6 0.412078 0.861584 0.473695
Si Si7 0.657660 0.880084 0.320602
Si Si8 0.001587 0.797834 0.208894
O O1 0.307940 0.387968 0.901747
O O2 0.358263 0.700017 0.542539
O O3 0.500000 0.500000 0.000000
O O4 0.507150 0.397022 0.786316
O O5 0.789573 0.863918 0.477302
O O6 0.994954 0.749643 0.466152
O O7 0.011706 0.753943 0.815454
O O8 0.880310 0.548666 0.805499
O O9 0.686995 0.767195 0.259900
O O10 0.874734 0.762419 0.119388
O O11 0.663266 0.952029 0.779846
O O12 0.256248 0.693341 0.999720
O O13 0.107314 0.683924 0.233269
O O14 0.412175 0.837115 0.717722
O O15 0.378141 0.922077 0.950251
O O16 0.549183 0.835881 0.455417
O O17 0.000000 0.000000 0.000000
#
# Coordination Sequence:
#
# PCOD9046703 Si02
#       8
#     2   2   2   2   2   2   2   2
#     4  10  24  43  67 102 137 175 233 280 350 417
#     4  10  25  45  70 102 136 187 234 297 357 412
#     4  11  25  46  67 104 140 181 233 291 352 422
#     4  11  24  45  69  99 141 183 240 292 351 424
#     4  11  24  41  67 102 135 181 236 283 347 428
#     4  11  24  42  71  97 138 185 225 288 352 420
#     4  11  23  44  67  99 141 175 232 292 352 417
#     4  11  26  47  72 103 141 184 238 294 354 423
#
# _framework density 25.356629999999999
#
# number of rings (size 3 to 8) (size 9 to 14) (size 15 to 20)
#    0.000    1.250    1.250    3.375    5.250    5.500 
#    9.000    0.000    0.000    0.000    0.000    0.000 
#    0.000    0.000    0.000    0.000    0.000    0.000 
#
# Total GULP energy -89664.986525 kJ/mol
# GULP energy per Si atom -5604.061658 kJ/mol
# Density = 2.529892 g / cm^3
# Si number density = 25.356630 Si / 1000 Ang^3
#
#
#
# Elastic Constant Matrix: (Units=GPa)
#
#
# Indices 1 2 3 4 5 6 
#
# 1 69.9357 37.4006 23.7639 12.9655 -25.2900 9.5584
# 2 37.4006 74.4441 16.9630 -18.1956 -13.5793 25.6080
# 3 23.7639 16.9630 85.2044 2.2368 -17.8000 8.7005
# 4 12.9655 -18.1956 2.2368 53.3855 -1.0754 -13.4944
# 5 -25.2900 -13.5793 -17.8000 -1.0754 39.2700 -6.1594
# 6 9.5584 25.6080 8.7005 -13.4944 -6.1594 41.4445
#
#
#
# Elastic Compliance Matrix: (Units=1/GPa)
#
#
# Indices 1 2 3 4 5 6 
#
# 1 0.030145 -0.015597 -0.002442 -0.011975 0.012773 0.001197
# 2 -0.015597 0.026966 -0.000775 0.010478 -0.002327 -0.009836
# 3 -0.002442 -0.000775 0.013578 -0.000503 0.004086 -0.001365
# 4 -0.011975 0.010478 -0.000503 0.026321 -0.002885 0.004534
# 5 0.012773 -0.002327 0.004086 -0.002885 0.034955 0.001890
# 6 0.001197 -0.009836 -0.001365 0.004534 0.001890 0.031974
#
#
# Mechanical properties :
#
#
# Convention : Reuss Voigt Hill
#
# Bulk Modulus (GPa) = 30.24775 42.87103 36.55939
# Shear Modulus (GPa) = 23.51970 36.91711 30.21841
#
# Velocity S-wave (km/s) = 3.04888 3.81979 3.45590
# Velocity P-wave (km/s) = 4.93448 6.03310 5.51123
#
# Compressibility (1/GPa) = 0.03306032
#
# Stress axis : x y z
#
# Youngs Moduli (GPa) = 33.17260 37.08432 73.64825
#
# Poissons Ratio (x) = 0.57841 0.17984
# Poissons Ratio (y) = 0.51740 0.05709
# Poissons Ratio (z) = 0.08100 0.02875
#
# Static dielectric constant tensor:
#      x y z
#    x 1.972770 -0.001750 0.015470 
#    y -0.001750 2.073550 0.013780 
#    z 0.015470 0.013780 2.063130 
# 
# From -- ./inp_files/255910.got.cif
#   From: 2010.05.17/outbox.cif.g08.bks.cpg/sg2_128_cif.got.tgz:255910.got - 2010.06.03 11:33:40.
