data_PCOD9046454
_publ_section_title
;
Structure prediction by ZEFSAII (Michael W. Deem and Ramdas Pophale) SiO2 
 PCOD9046454
Probable space group: P -1
;
_chemical_formula_sum "Si O2"
_cell_formula_units_Z 16
_cell_length_a 19.806066
_cell_length_b 5.990255
_cell_length_c 8.198051
_cell_angle_alpha 120.872804
_cell_angle_beta 120.900396
_cell_angle_gamma 78.380415
_cell_volume 713.783092
_symmetry_space_group_name_H-M "P -1"
_symmetry_group_IT_number 2
_symmetry_cell_setting 'triclinic'
loop_
_space_group_symop_operation_xyz
x,y,z
-x,-y,-z
loop_
_atom_site_type_symbol
_atom_site_label
_atom_site_fract_x
_atom_site_fract_y
_atom_site_fract_z
Si Si1 0.276432 0.900186 0.686987
Si Si2 0.037244 0.230406 0.507832
Si Si3 0.252267 0.350959 0.343019
Si Si4 0.178088 0.528062 0.985581
Si Si5 0.857350 0.975992 0.687934
Si Si6 0.698292 0.143198 0.939851
Si Si7 0.440334 0.210821 0.960777
Si Si8 0.477802 0.763581 0.261945
O O1 0.300900 0.614056 0.558885
O O2 0.203199 0.947275 0.499028
O O3 0.349930 0.108560 0.829163
O O4 0.256149 0.898741 0.851638
O O5 0.062393 0.084664 0.320670
O O6 0.000000 0.500000 0.500000
O O7 0.116692 0.343973 0.740240
O O8 0.000000 0.000000 0.500000
O O9 0.207138 0.404908 0.140872
O O10 0.187075 0.270738 0.368615
O O11 0.301288 0.105973 0.272126
O O12 0.254891 0.621377 0.009576
O O13 0.137930 0.789464 0.088328
O O14 0.609305 0.186957 0.894407
O O15 0.458458 0.255757 0.808632
O O16 0.462419 0.466898 0.193792
O O17 0.500000 0.000000 0.000000
O O18 0.500000 0.000000 0.500000
#
# Coordination Sequence:
#
# PCOD9046454 Si02
#       8
#     2   2   2   2   2   2   2   2
#     4  11  24  41  72  98 138 184 238 291 356 418
#     4  12  30  48  77 110 148 191 236 297 371 438
#     4  10  24  42  73 101 136 180 241 289 346 418
#     4  10  25  46  71 105 143 182 244 279 353 431
#     4  10  25  46  73 103 142 185 233 293 347 431
#     4  11  24  41  70 102 134 189 233 298 343 430
#     4  11  26  45  62  98 136 188 233 297 357 423
#     4  11  28  42  65  96 143 181 241 292 363 418
#
# _framework density 22.415773000000002
#
# number of rings (size 3 to 8) (size 9 to 14) (size 15 to 20)
#    0.000    1.250    1.250    1.500   21.000    1.500 
#    0.000    0.000    0.000    0.000    0.000    0.000 
#    0.000    0.000    0.000    0.000    0.000    0.000 
#
# Total GULP energy -89406.775709 kJ/mol
# GULP energy per Si atom -5587.923482 kJ/mol
# Density = 2.236475 g / cm^3
# Si number density = 22.415773 Si / 1000 Ang^3
#
#
#
# Elastic Constant Matrix: (Units=GPa)
#
#
# Indices 1 2 3 4 5 6 
#
# 1 85.6832 32.4165 1.0220 3.9749 -16.2829 4.4398
# 2 32.4165 86.9723 22.5764 18.7042 4.1549 10.7497
# 3 1.0220 22.5764 96.3005 27.3197 -9.6227 1.0933
# 4 3.9749 18.7042 27.3197 43.5666 0.7841 -12.9016
# 5 -16.2829 4.1549 -9.6227 0.7841 21.5496 -3.4193
# 6 4.4398 10.7497 1.0933 -12.9016 -3.4193 29.6691
#
#
#
# Elastic Compliance Matrix: (Units=1/GPa)
#
#
# Indices 1 2 3 4 5 6 
#
# 1 0.018149 -0.008911 0.003479 0.000439 0.017379 0.002578
# 2 -0.008911 0.019462 -0.003285 -0.008442 -0.013360 -0.010808
# 3 0.003479 -0.003285 0.014703 -0.009105 0.009729 -0.002710
# 4 0.000439 -0.008442 -0.009105 0.038139 -0.000340 0.019874
# 5 0.017379 -0.013360 0.009729 -0.000340 0.067987 0.009569
# 6 0.002578 -0.010808 -0.002710 0.019874 0.009569 0.047080
#
#
# Mechanical properties :
#
#
# Convention : Reuss Voigt Hill
#
# Bulk Modulus (GPa) = 28.66948 42.33176 35.50062
# Shear Modulus (GPa) = 21.31455 33.15311 27.23383
#
# Velocity S-wave (km/s) = 3.08697 3.84996 3.48938
# Velocity P-wave (km/s) = 5.05207 6.22003 5.66622
#
# Compressibility (1/GPa) = 0.03488030
#
# Stress axis : x y z
#
# Youngs Moduli (GPa) = 55.09850 51.38275 68.01178
#
# Poissons Ratio (x) = 0.45787 -0.23663
# Poissons Ratio (y) = 0.49099 0.22344
# Poissons Ratio (z) = -0.19170 0.16880
#
# Static dielectric constant tensor:
#      x y z
#    x 1.815960 -0.021570 -0.022470 
#    y -0.021570 1.925630 0.032070 
#    z -0.022470 0.032070 1.793440 
# 
# From -- ./inp_files/138782.got.cif
#   From: 2010.05.17/outbox.cif.g08.bks.cpg/sg2_70_cif.got.tgz:138782.got - 2010.06.03 11:33:40.
