data_PCOD9046027
_publ_section_title
;
Structure prediction by ZEFSAII (Michael W. Deem and Ramdas Pophale) SiO2 
 PCOD9046027
Probable space group: P -1
;
_chemical_formula_sum "Si O2"
_cell_formula_units_Z 15
_cell_length_a 5.267164
_cell_length_b 12.509367
_cell_length_c 11.877093
_cell_angle_alpha 124.258319
_cell_angle_beta 104.511161
_cell_angle_gamma 98.303415
_cell_volume 584.958921
_symmetry_space_group_name_H-M "P -1"
_symmetry_group_IT_number 2
_symmetry_cell_setting 'triclinic'
loop_
_space_group_symop_operation_xyz
x,y,z
-x,-y,-z
loop_
_atom_site_type_symbol
_atom_site_label
_atom_site_fract_x
_atom_site_fract_y
_atom_site_fract_z
Si Si1 0.232291 0.907809 0.002469
Si Si2 0.713819 0.757124 0.449339
Si Si3 0.215530 0.425683 0.858749
Si Si4 0.046160 0.829350 0.173095
Si Si5 0.339024 0.494470 0.364861
Si Si6 0.500000 0.000000 0.500000
Si Si7 0.713589 0.366558 0.190806
Si Si8 0.187159 0.948091 0.771438
O O1 0.378846 0.797196 0.917918
O O2 0.095877 0.934724 0.886909
O O3 0.051664 0.826464 0.037793
O O4 0.486853 0.031791 0.163125
O O5 0.783753 0.674373 0.304982
O O6 0.442513 0.649736 0.418215
O O7 0.635260 0.880257 0.462528
O O8 0.979492 0.820356 0.600903
O O9 0.180296 0.556282 0.870962
O O10 0.028125 0.319248 0.865894
O O11 0.500000 0.500000 0.000000
O O12 0.330253 0.921306 0.320603
O O13 0.839255 0.917818 0.215355
O O14 0.500000 0.500000 0.500000
O O15 0.472869 0.413651 0.244885
O O16 0.014118 0.425274 0.319824
#
# Coordination Sequence:
#
# PCOD9046027 Si02
#       8
#     2   2   2   2   2   1   2   2
#     4  11  25  44  73 101 146 187 247 301 368 442
#     4  10  24  46  72 102 147 186 242 303 370 439
#     4  11  26  45  72 105 146 194 244 307 371 444
#     4  11  25  42  72 100 144 186 244 298 369 438
#     4  11  24  48  75 107 146 192 248 306 373 440
#     4  10  24  42  66 108 132 190 230 304 358 440
#     4  11  26  45  73 109 144 193 246 305 372 443
#     4  10  24  47  66 105 137 193 238 305 370 437
#
# _framework density 25.642827
#
# number of rings (size 3 to 8) (size 9 to 14) (size 15 to 20)
#    0.000    1.333    0.000    3.200   11.200    2.667 
#   12.000    0.000    0.000    0.000    0.000    0.000 
#    0.000    0.000    0.000    0.000    0.000    0.000 
#
# Total GULP energy -83534.765153 kJ/mol
# GULP energy per Si atom -5568.984344 kJ/mol
# Density = 2.558446 g / cm^3
# Si number density = 25.642827 Si / 1000 Ang^3
#
#
#
# Elastic Constant Matrix: (Units=GPa)
#
#
# Indices 1 2 3 4 5 6 
#
# 1 59.1570 6.6486 41.9676 -2.7484 15.8253 -0.0077
# 2 6.6486 111.8532 23.4473 -31.1344 -9.1046 -5.5107
# 3 41.9676 23.4473 157.7439 -24.3406 36.0337 0.1986
# 4 -2.7484 -31.1344 -24.3406 41.6372 -7.2414 1.6370
# 5 15.8253 -9.1046 36.0337 -7.2414 40.3971 -11.7985
# 6 -0.0077 -5.5107 0.1986 1.6370 -11.7985 37.9603
#
#
#
# Elastic Compliance Matrix: (Units=1/GPa)
#
#
# Indices 1 2 3 4 5 6 
#
# 1 0.021929 -0.001943 -0.004740 -0.003751 -0.006049 -0.001971
# 2 -0.001943 0.013044 -0.001789 0.009854 0.008244 0.004040
# 3 -0.004740 -0.001789 0.010139 0.003017 -0.007896 -0.002898
# 4 -0.003751 0.009854 0.003017 0.034168 0.007816 0.002370
# 5 -0.006049 0.008244 -0.007896 0.007816 0.041452 0.013783
# 6 -0.001971 0.004040 -0.002898 0.002370 0.013783 0.031126
#
#
# Mechanical properties :
#
#
# Convention : Reuss Voigt Hill
#
# Bulk Modulus (GPa) = 35.50319 52.54234 44.02277
# Shear Modulus (GPa) = 28.05960 41.11161 34.58561
#
# Velocity S-wave (km/s) = 3.31153 4.00839 3.67651
# Velocity P-wave (km/s) = 5.33826 6.47746 5.93525
#
# Compressibility (1/GPa) = 0.02816648
#
# Stress axis : x y z
#
# Youngs Moduli (GPa) = 45.60228 76.66455 98.62537
#
# Poissons Ratio (x) = 0.14899 0.46747
# Poissons Ratio (y) = 0.08862 0.17649
# Poissons Ratio (z) = 0.21615 0.13719
#
# Static dielectric constant tensor:
#      x y z
#    x 2.210070 0.036660 -0.033720 
#    y 0.036660 1.762580 -0.009790 
#    z -0.033720 -0.009790 1.954180 
# 
# From -- ./inp_files/365325.got.cif
#   From: 2010.05.17/outbox.cif.g08.bks.cpg/sg2_183_cif.got.tgz:365325.got - 2010.06.03 11:33:40.
