data_PCOD9046349
_publ_section_title
;
Structure prediction by ZEFSAII (Michael W. Deem and Ramdas Pophale) SiO2 
 PCOD9046349
Probable space group: P -1
;
_chemical_formula_sum "Si O2"
_cell_formula_units_Z 16
_cell_length_a 9.134288
_cell_length_b 14.814002
_cell_length_c 8.163126
_cell_angle_alpha 116.353934
_cell_angle_beta 65.532601
_cell_angle_gamma 140.314076
_cell_volume 626.959729
_symmetry_space_group_name_H-M "P -1"
_symmetry_group_IT_number 2
_symmetry_cell_setting 'triclinic'
loop_
_space_group_symop_operation_xyz
x,y,z
-x,-y,-z
loop_
_atom_site_type_symbol
_atom_site_label
_atom_site_fract_x
_atom_site_fract_y
_atom_site_fract_z
Si Si1 0.728724 0.317375 0.947736
Si Si2 0.440504 0.816786 0.630338
Si Si3 0.745401 0.887448 0.092894
Si Si4 0.074965 0.509293 0.707767
Si Si5 0.143997 0.855061 0.736146
Si Si6 0.676516 0.562987 0.619801
Si Si7 0.169904 0.866160 0.135429
Si Si8 0.673888 0.723817 0.290483
O O1 0.457516 0.198928 0.011175
O O2 0.801975 0.236061 0.893579
O O3 0.806418 0.382241 0.778435
O O4 0.822278 0.449919 0.124148
O O5 0.209395 0.666330 0.704544
O O6 0.308052 0.836955 0.591949
O O7 0.580592 0.779847 0.479109
O O8 0.618413 0.967510 0.770878
O O9 0.693941 0.772059 0.137720
O O10 0.741267 0.993371 0.269248
O O11 0.000000 0.000000 0.000000
O O12 0.161181 0.458229 0.518292
O O13 0.874573 0.731320 0.708139
O O14 0.154326 0.861578 0.938489
O O15 0.500000 0.500000 0.500000
O O16 0.507199 0.448031 0.746424
O O17 0.932881 0.802933 0.273521
#
# Coordination Sequence:
#
# PCOD9046349 Si02
#       8
#     2   2   2   2   2   2   2   2
#     4  11  24  44  75 105 146 194 244 302 366 436
#     4  11  24  46  73 110 146 189 242 309 367 432
#     4  12  27  46  71 111 151 190 246 305 360 438
#     4  10  24  42  71 101 140 189 240 297 364 427
#     4  12  26  45  77 102 147 196 246 302 374 431
#     4  11  28  49  70 106 152 192 245 311 367 435
#     4  12  23  48  73 112 143 197 245 300 364 443
#     4  11  28  45  76 107 149 199 244 301 375 435
#
# _framework density 25.519977999999998
#
# number of rings (size 3 to 8) (size 9 to 14) (size 15 to 20)
#    0.000    0.750    3.750    2.250    5.250    5.000 
#    0.000    0.000    0.000    0.000    0.000    0.000 
#    0.000    0.000    0.000    0.000    0.000    0.000 
#
# Total GULP energy -89351.998679 kJ/mol
# GULP energy per Si atom -5584.499917 kJ/mol
# Density = 2.546189 g / cm^3
# Si number density = 25.519978 Si / 1000 Ang^3
#
#
#
# Elastic Constant Matrix: (Units=GPa)
#
#
# Indices 1 2 3 4 5 6 
#
# 1 96.5243 21.3769 8.8268 -8.6732 -9.3607 28.0167
# 2 21.3769 94.9984 12.9098 -4.4641 9.3056 23.3585
# 3 8.8268 12.9098 50.3269 -1.2437 -12.3302 14.1053
# 4 -8.6732 -4.4641 -1.2437 50.5543 7.8083 3.3241
# 5 -9.3607 9.3056 -12.3302 7.8083 32.8222 -2.2891
# 6 28.0167 23.3585 14.1053 3.3241 -2.2891 50.3468
#
#
#
# Elastic Compliance Matrix: (Units=1/GPa)
#
#
# Indices 1 2 3 4 5 6 
#
# 1 0.013144 -0.001686 0.000966 0.002013 0.003638 -0.006770
# 2 -0.001686 0.013218 -0.003263 0.002076 -0.006276 -0.004702
# 3 0.000966 -0.003263 0.024531 -0.000743 0.010218 -0.005383
# 4 0.002013 0.002076 -0.000743 0.021394 -0.005630 -0.003544
# 5 0.003638 -0.006276 0.010218 -0.005630 0.038472 0.000146
# 6 -0.006770 -0.004702 -0.005383 -0.003544 0.000146 0.027560
#
#
# Mechanical properties :
#
#
# Convention : Reuss Voigt Hill
#
# Bulk Modulus (GPa) = 23.29585 36.45295 29.87440
# Shear Modulus (GPa) = 31.13417 39.99372 35.56395
#
# Velocity S-wave (km/s) = 3.49663 3.96302 3.73711
# Velocity P-wave (km/s) = 5.04482 5.93766 5.50936
#
# Compressibility (1/GPa) = 0.04292609
#
# Stress axis : x y z
#
# Youngs Moduli (GPa) = 76.08057 75.65458 40.76411
#
# Poissons Ratio (x) = 0.12756 -0.03937
# Poissons Ratio (y) = 0.12828 0.13303
# Poissons Ratio (z) = -0.07348 0.24689
#
# Static dielectric constant tensor:
#      x y z
#    x 2.073790 0.041920 0.000210 
#    y 0.041920 2.122580 -0.037350 
#    z 0.000210 -0.037350 2.119190 
# 
# From -- ./inp_files/208239.got.cif
#   From: 2010.05.17/outbox.cif.g08.bks.cpg/sg2_105_cif.got.tgz:208239.got - 2010.06.03 11:33:40.
