data_PCOD9046025
_publ_section_title
;
Structure prediction by ZEFSAII (Michael W. Deem and Ramdas Pophale) SiO2 
 PCOD9046025
Probable space group: P -1
;
_chemical_formula_sum "Si O2"
_cell_formula_units_Z 14
_cell_length_a 17.012968
_cell_length_b 7.459222
_cell_length_c 12.702880
_cell_angle_alpha 146.829526
_cell_angle_beta 47.201267
_cell_angle_gamma 117.516320
_cell_volume 623.881369
_symmetry_space_group_name_H-M "P -1"
_symmetry_group_IT_number 2
_symmetry_cell_setting 'triclinic'
loop_
_space_group_symop_operation_xyz
x,y,z
-x,-y,-z
loop_
_atom_site_type_symbol
_atom_site_label
_atom_site_fract_x
_atom_site_fract_y
_atom_site_fract_z
Si Si1 0.708965 0.866319 0.080280
Si Si2 0.438648 0.649067 0.023445
Si Si3 0.127236 0.281774 0.779385
Si Si4 0.763411 0.847691 0.598305
Si Si5 0.726289 0.222156 0.034791
Si Si6 0.513924 0.348803 0.606161
Si Si7 0.129140 0.926553 0.818477
O O1 0.654243 0.561833 0.002909
O O2 0.732201 0.921386 0.964910
O O3 0.616282 0.209903 0.368342
O O4 0.814397 0.843574 0.046612
O O5 0.523396 0.567143 0.808497
O O6 0.500000 0.500000 0.000000
O O7 0.599279 0.446317 0.245508
O O8 0.202500 0.536861 0.864560
O O9 0.143542 0.013630 0.727133
O O10 0.162946 0.115366 0.551705
O O11 0.000000 0.500000 0.000000
O O12 0.636018 0.967462 0.729851
O O13 0.808034 0.458013 0.399639
O O14 0.767748 0.064452 0.805948
O O15 0.500000 0.000000 0.500000
O O16 0.000000 0.000000 0.000000
#
# Coordination Sequence:
#
# PCOD9046025 Si02
#       7
#     2   2   2   2   2   2   2
#     4  11  23  42  71  98 140 190 230 289 353 418
#     4  10  24  42  66 107 144 180 236 288 350 421
#     4  12  25  48  73  98 143 186 233 297 353 415
#     4  11  26  45  70 105 138 183 237 287 354 409
#     4  11  24  45  66 104 141 180 241 287 352 423
#     4   9  20  38  63  93 131 183 223 278 350 407
#     4  12  25  48  73 103 137 186 241 287 354 420
#
# _framework density 22.440162000000001
#
# number of rings (size 3 to 8) (size 9 to 14) (size 15 to 20)
#    0.000    1.143    2.857    3.000    8.000    1.714 
#    2.571    4.286    0.000    0.000    0.000    0.000 
#    0.000    0.000    0.000    0.000    0.000    0.000 
#
# Total GULP energy -78304.423184 kJ/mol
# GULP energy per Si atom -5593.173085 kJ/mol
# Density = 2.238909 g / cm^3
# Si number density = 22.440162 Si / 1000 Ang^3
#
#
#
# Elastic Constant Matrix: (Units=GPa)
#
#
# Indices 1 2 3 4 5 6 
#
# 1 143.8145 39.7493 43.3579 -12.0592 3.9085 -17.3011
# 2 39.7493 85.3553 21.2919 -4.5147 15.8864 -23.2125
# 3 43.3579 21.2919 101.6343 -19.9047 4.4538 -10.0383
# 4 -12.0592 -4.5147 -19.9047 37.0990 -18.2266 3.5573
# 5 3.9085 15.8864 4.4538 -18.2266 35.6773 -1.7246
# 6 -17.3011 -23.2125 -10.0383 3.5573 -1.7246 61.3616
#
#
#
# Elastic Compliance Matrix: (Units=1/GPa)
#
#
# Indices 1 2 3 4 5 6 
#
# 1 0.008946 -0.003570 -0.002713 0.001917 0.001960 0.000672
# 2 -0.003570 0.016710 -0.002111 -0.005281 -0.009241 0.005016
# 3 -0.002713 -0.002111 0.012750 0.007362 0.003416 0.000191
# 4 0.001917 -0.005281 0.007362 0.042235 0.022700 -0.002064
# 5 0.001960 -0.009241 0.003416 0.022700 0.042979 -0.002493
# 6 0.000672 0.005016 0.000191 -0.002064 -0.002493 0.018465
#
#
# Mechanical properties :
#
#
# Convention : Reuss Voigt Hill
#
# Bulk Modulus (GPa) = 46.25990 59.95580 53.10785
# Shear Modulus (GPa) = 30.10611 41.92123 36.01367
#
# Velocity S-wave (km/s) = 3.66678 4.32688 4.01044
# Velocity P-wave (km/s) = 6.21181 7.19296 6.72031
#
# Compressibility (1/GPa) = 0.02161699
#
# Stress axis : x y z
#
# Youngs Moduli (GPa) = 111.77772 59.84551 78.43240
#
# Poissons Ratio (x) = 0.21366 0.21277
# Poissons Ratio (y) = 0.39906 0.16561
# Poissons Ratio (z) = 0.30323 0.12636
#
# Static dielectric constant tensor:
#      x y z
#    x 1.824970 -0.000150 0.006540 
#    y -0.000150 1.844300 0.023660 
#    z 0.006540 0.023660 1.875340 
# 
# From -- ./inp_files/196829.got.cif
#   From: 2010.05.17/outbox.cif.g08.bks.cpg/sg2_99_cif.got.tgz:196829.got - 2010.06.03 11:33:40.
