data_PCOD9046971
_publ_section_title
;
Structure prediction by ZEFSAII (Michael W. Deem and Ramdas Pophale) SiO2 
 PCOD9046971
Probable space group: P -1
;
_chemical_formula_sum "Si O2"
_cell_formula_units_Z 14
_cell_length_a 8.393040
_cell_length_b 12.174666
_cell_length_c 8.946182
_cell_angle_alpha 52.868364
_cell_angle_beta 133.324993
_cell_angle_gamma 129.240625
_cell_volume 491.158942
_symmetry_space_group_name_H-M "P -1"
_symmetry_group_IT_number 2
_symmetry_cell_setting 'triclinic'
loop_
_space_group_symop_operation_xyz
x,y,z
-x,-y,-z
loop_
_atom_site_type_symbol
_atom_site_label
_atom_site_fract_x
_atom_site_fract_y
_atom_site_fract_z
Si Si1 0.721093 0.465568 0.312796
Si Si2 0.632503 0.148598 0.610955
Si Si3 0.989152 0.642069 0.086111
Si Si4 0.955561 0.336638 0.226676
Si Si5 0.033476 0.908930 0.332692
Si Si6 0.436094 0.307020 0.830195
Si Si7 0.337892 0.067382 0.749703
O O1 0.608591 0.287133 0.392263
O O2 0.756282 0.559350 0.104173
O O3 0.604505 0.542691 0.291045
O O4 0.000000 0.500000 0.500000
O O5 0.394433 0.056773 0.622541
O O6 0.825820 0.229719 0.799831
O O7 0.744316 0.053402 0.663021
O O8 0.077769 0.506847 0.217187
O O9 0.950385 0.684940 0.857545
O O10 0.965726 0.226146 0.450713
O O11 0.680011 0.310001 0.049250
O O12 0.798251 0.824019 0.146976
O O13 0.923536 0.000281 0.293441
O O14 0.424401 0.241365 0.708939
O O15 0.500000 0.000000 0.000000
#
# Coordination Sequence:
#
# PCOD9046971 Si02
#       7
#     2   2   2   2   2   2   2
#     4  10  17  34  56  88 125 158 191 231 306 364
#     4  11  19  39  66  86 128 165 195 248 309 360
#     4  10  18  33  54  90 128 158 190 237 293 379
#     4  11  21  34  58  92 127 160 200 235 310 365
#     4  10  21  42  60  89 125 158 202 255 292 367
#     4  10  21  38  59  88 128 160 197 256 293 366
#     4  10  23  42  64  88 113 163 218 251 305 353
#
# _framework density 28.504009
#
# number of rings (size 3 to 8) (size 9 to 14) (size 15 to 20)
#    0.857    0.857    5.714    0.857    0.000    4.000 
#    2.571    0.714    0.000    0.857    0.000    0.000 
#    0.000    0.000    0.000    0.000    0.000    0.000 
#
# Total GULP energy -78320.855292 kJ/mol
# GULP energy per Si atom -5594.346807 kJ/mol
# Density = 2.843913 g / cm^3
# Si number density = 28.504009 Si / 1000 Ang^3
#
#
#
# Elastic Constant Matrix: (Units=GPa)
#
#
# Indices 1 2 3 4 5 6 
#
# 1 253.4173 48.0124 66.1059 -6.1993 9.0526 -27.4931
# 2 48.0124 123.1503 24.8903 -5.9066 -12.6886 -26.0098
# 3 66.1059 24.8903 102.9921 -3.4887 -5.1970 -8.7679
# 4 -6.1993 -5.9066 -3.4887 43.8619 0.7732 -2.5296
# 5 9.0526 -12.6886 -5.1970 0.7732 46.6419 17.2785
# 6 -27.4931 -26.0098 -8.7679 -2.5296 17.2785 57.9296
#
#
#
# Elastic Compliance Matrix: (Units=1/GPa)
#
#
# Indices 1 2 3 4 5 6 
#
# 1 0.005324 -0.001213 -0.003039 0.000526 -0.002566 0.002311
# 2 -0.001213 0.009725 -0.001181 0.001202 0.001542 0.003205
# 3 -0.003039 -0.001181 0.011990 0.000292 0.001859 -0.000699
# 4 0.000526 0.001202 0.000292 0.023197 -0.000912 0.002118
# 5 -0.002566 0.001542 0.001859 -0.000912 0.025503 -0.007891
# 6 0.002311 0.003205 -0.000699 0.002118 -0.007891 0.022138
#
#
# Mechanical properties :
#
#
# Convention : Reuss Voigt Hill
#
# Bulk Modulus (GPa) = 61.82795 84.17521 73.00158
# Shear Modulus (GPa) = 43.80912 52.39007 48.09960
#
# Velocity S-wave (km/s) = 3.92464 4.29183 4.11234
# Velocity P-wave (km/s) = 6.50193 7.35900 6.94370
#
# Compressibility (1/GPa) = 0.01617392
#
# Stress axis : x y z
#
# Youngs Moduli (GPa) = 187.83673 102.82880 83.40589
#
# Poissons Ratio (x) = 0.12468 0.25347
# Poissons Ratio (y) = 0.22775 0.09847
# Poissons Ratio (z) = 0.57084 0.12140
#
# Static dielectric constant tensor:
#      x y z
#    x 2.271500 0.002150 -0.012370 
#    y 0.002150 2.231080 0.105330 
#    z -0.012370 0.105330 2.302420 
# 
# From -- ./inp_files/185377.got.cif
#   From: 2010.05.17/outbox.cif.g08.bks.cpg/sg2_93_cif.got.tgz:185377.got - 2010.06.03 11:33:40.
