data_PCOD9046149
_publ_section_title
;
Structure prediction by ZEFSAII (Michael W. Deem and Ramdas Pophale) SiO2 
 PCOD9046149
Probable space group: P -1
;
_chemical_formula_sum "Si O2"
_cell_formula_units_Z 10
_cell_length_a 8.551339
_cell_length_b 14.529646
_cell_length_c 4.844087
_cell_angle_alpha 103.979736
_cell_angle_beta 95.866186
_cell_angle_gamma 42.504963
_cell_volume 391.957366
_symmetry_space_group_name_H-M "P -1"
_symmetry_group_IT_number 2
_symmetry_cell_setting 'triclinic'
loop_
_space_group_symop_operation_xyz
x,y,z
-x,-y,-z
loop_
_atom_site_type_symbol
_atom_site_label
_atom_site_fract_x
_atom_site_fract_y
_atom_site_fract_z
Si Si1 0.303647 0.758662 0.877924
Si Si2 0.791611 0.521296 0.056569
Si Si3 0.849851 0.370523 0.459642
Si Si4 0.306255 0.054807 0.290484
Si Si5 0.187546 0.994167 0.729884
O O1 0.539685 0.670347 0.025923
O O2 0.298477 0.655191 0.674105
O O3 0.883839 0.778420 0.655088
O O4 0.277738 0.849719 0.705602
O O5 0.828571 0.409065 0.801372
O O6 0.000000 0.500000 0.000000
O O7 0.205896 0.513193 0.652239
O O8 0.928346 0.128296 0.896098
O O9 0.192031 0.021744 0.433704
O O10 0.500000 0.000000 0.500000
O O11 0.348067 0.989276 0.954305
#
# Coordination Sequence:
#
# PCOD9046149 Si02
#       5
#     2   2   2   2   2
#     4  10  24  45  72  97 140 173 226 272 328 408
#     4  12  27  43  69  98 137 175 223 279 331 392
#     4  11  25  45  65 100 130 182 222 266 340 395
#     4  11  24  41  70  97 140 169 222 279 330 394
#     4  10  24  42  68 103 127 181 220 269 334 393
#
# _framework density 25.512976999999999
#
# number of rings (size 3 to 8) (size 9 to 14) (size 15 to 20)
#    0.000    1.200    0.000    4.800    5.600   13.600 
#    0.000    0.000    0.000    0.000    0.000    0.000 
#    0.000    0.000    0.000    0.000    0.000    0.000 
#
# Total GULP energy -56075.844509 kJ/mol
# GULP energy per Si atom -5607.584451 kJ/mol
# Density = 2.545491 g / cm^3
# Si number density = 25.512977 Si / 1000 Ang^3
#
#
#
# Elastic Constant Matrix: (Units=GPa)
#
#
# Indices 1 2 3 4 5 6 
#
# 1 84.2956 34.3551 24.1095 -14.8223 29.8601 -8.4508
# 2 34.3551 126.1529 6.9430 -19.4265 14.4610 -3.8071
# 3 24.1095 6.9430 115.1654 -17.1938 6.2408 0.8862
# 4 -14.8223 -19.4265 -17.1938 42.4092 -1.2460 7.2475
# 5 29.8601 14.4610 6.2408 -1.2460 55.4236 -22.5402
# 6 -8.4508 -3.8071 0.8862 7.2475 -22.5402 37.7603
#
#
#
# Elastic Compliance Matrix: (Units=1/GPa)
#
#
# Indices 1 2 3 4 5 6 
#
# 1 0.017532 -0.003039 -0.002366 0.003961 -0.009393 -0.002694
# 2 -0.003039 0.009399 0.000703 0.003703 -0.001318 -0.001247
# 3 -0.002366 0.000703 0.009742 0.003732 -0.000651 -0.001792
# 4 0.003961 0.003703 0.003732 0.029386 -0.006176 -0.008155
# 5 -0.009393 -0.001318 -0.000651 -0.006176 0.030322 0.017066
# 6 -0.002694 -0.001247 -0.001792 -0.008155 0.017066 0.037548
#
#
# Mechanical properties :
#
#
# Convention : Reuss Voigt Hill
#
# Bulk Modulus (GPa) = 36.66951 50.71436 43.69193
# Shear Modulus (GPa) = 32.80346 44.46570 38.63458
#
# Velocity S-wave (km/s) = 3.58963 4.17929 3.89564
# Velocity P-wave (km/s) = 5.62003 6.57341 6.11533
#
# Compressibility (1/GPa) = 0.02727062
#
# Stress axis : x y z
#
# Youngs Moduli (GPa) = 57.03930 106.38905 102.64491
#
# Poissons Ratio (x) = 0.32330 0.24285
# Poissons Ratio (y) = 0.17334 -0.07220
# Poissons Ratio (z) = 0.13495 -0.07483
#
# Static dielectric constant tensor:
#      x y z
#    x 2.157980 -0.043750 0.081930 
#    y -0.043750 1.943390 0.035910 
#    z 0.081930 0.035910 1.958910 
# 
# From -- ./inp_files/40385.got.cif
#   From: 2010.05.17/outbox.cif.g08.bks.cpg/sg2_21_cif.got.tgz:40385.got - 2010.06.03 11:33:40.
