data_PCOD9046451
_publ_section_title
;
Structure prediction by ZEFSAII (Michael W. Deem and Ramdas Pophale) SiO2 
 PCOD9046451
Probable space group: P -1
;
_chemical_formula_sum "Si O2"
_cell_formula_units_Z 16
_cell_length_a 11.733492
_cell_length_b 9.573730
_cell_length_c 13.265513
_cell_angle_alpha 134.335994
_cell_angle_beta 127.077274
_cell_angle_gamma 84.848965
_cell_volume 692.091772
_symmetry_space_group_name_H-M "P -1"
_symmetry_group_IT_number 2
_symmetry_cell_setting 'triclinic'
loop_
_space_group_symop_operation_xyz
x,y,z
-x,-y,-z
loop_
_atom_site_type_symbol
_atom_site_label
_atom_site_fract_x
_atom_site_fract_y
_atom_site_fract_z
Si Si1 0.026132 0.191181 0.190651
Si Si2 0.240844 0.345846 0.738385
Si Si3 0.241293 0.304824 0.947801
Si Si4 0.125700 0.702869 0.495772
Si Si5 0.849382 0.958209 0.648938
Si Si6 0.658545 0.164023 0.741466
Si Si7 0.495992 0.909133 0.162718
Si Si8 0.299625 0.983064 0.930247
O O1 0.086206 0.449724 0.315283
O O2 0.158655 0.215791 0.358596
O O3 0.842606 0.079144 0.091940
O O4 0.000000 0.000000 0.000000
O O5 0.233147 0.253016 0.799074
O O6 0.257724 0.201220 0.585666
O O7 0.056686 0.320854 0.618083
O O8 0.402783 0.624549 0.960198
O O9 0.352081 0.228240 0.027393
O O10 0.292345 0.571056 0.113484
O O11 0.047602 0.130354 0.802003
O O12 0.294242 0.905323 0.623305
O O13 0.193338 0.776575 0.684605
O O14 0.801319 0.122506 0.759145
O O15 0.597217 0.080679 0.781517
O O16 0.500000 0.000000 0.500000
O O17 0.445355 0.983676 0.070754
#
# Coordination Sequence:
#
# PCOD9046451 Si02
#       8
#     2   2   2   2   2   2   2   2
#     4  11  23  40  68 104 136 180 227 284 339 413
#     4  11  23  46  73 103 139 177 238 287 340 413
#     4  10  24  42  73 100 131 185 231 283 346 410
#     4  12  24  43  75 102 140 184 228 286 352 402
#     4  11  23  43  71  96 135 185 229 280 349 405
#     4  11  27  46  64 100 146 181 228 288 345 414
#     4  11  26  44  72 104 141 181 226 289 344 415
#     4  11  22  45  69 104 137 174 238 283 343 411
#
# _framework density 23.118320000000001
#
# number of rings (size 3 to 8) (size 9 to 14) (size 15 to 20)
#    0.000    1.000    3.750    3.000    3.500    4.000 
#    0.000    4.375    0.000    0.000    0.000    0.000 
#    0.000    0.000    0.000    0.000    0.000    0.000 
#
# Total GULP energy -89554.561345 kJ/mol
# GULP energy per Si atom -5597.160084 kJ/mol
# Density = 2.306570 g / cm^3
# Si number density = 23.118320 Si / 1000 Ang^3
#
#
#
# Elastic Constant Matrix: (Units=GPa)
#
#
# Indices 1 2 3 4 5 6 
#
# 1 121.3007 50.0691 61.5922 18.6397 -13.0835 6.1553
# 2 50.0691 142.7605 44.2279 9.1810 -2.9932 -4.6493
# 3 61.5922 44.2279 93.9905 14.4179 -20.6340 5.8794
# 4 18.6397 9.1810 14.4179 41.5650 -2.4559 -5.9617
# 5 -13.0835 -2.9932 -20.6340 -2.4559 43.6622 2.0279
# 6 6.1553 -4.6493 5.8794 -5.9617 2.0279 38.1564
#
#
#
# Elastic Compliance Matrix: (Units=1/GPa)
#
#
# Indices 1 2 3 4 5 6 
#
# 1 0.013411 -0.002398 -0.006921 -0.003333 0.000486 -0.001936
# 2 -0.002398 0.008827 -0.003145 0.000419 -0.001674 0.002101
# 3 -0.006921 -0.003145 0.018686 -0.002716 0.006524 -0.002917
# 4 -0.003333 0.000419 -0.002716 0.027105 -0.000975 0.005294
# 5 0.000486 -0.001674 0.006524 -0.000975 0.026094 -0.002827
# 6 -0.001936 0.002101 -0.002917 0.005294 -0.002827 0.028203
#
#
# Mechanical properties :
#
#
# Convention : Reuss Voigt Hill
#
# Bulk Modulus (GPa) = 62.51799 74.42556 68.47178
# Shear Modulus (GPa) = 32.76892 38.15423 35.46158
#
# Velocity S-wave (km/s) = 3.76898 4.06691 3.92077
# Velocity P-wave (km/s) = 6.78540 7.36995 7.08371
#
# Compressibility (1/GPa) = 0.01599540
#
# Stress axis : x y z
#
# Youngs Moduli (GPa) = 74.56819 113.29493 53.51614
#
# Poissons Ratio (x) = 0.27166 0.37037
# Poissons Ratio (y) = 0.17880 0.16832
# Poissons Ratio (z) = 0.51606 0.35635
#
# Static dielectric constant tensor:
#      x y z
#    x 1.946670 -0.074800 0.004940 
#    y -0.074800 1.942460 0.003790 
#    z 0.004940 0.003790 1.858160 
# 
# From -- ./inp_files/420112.got.cif
#   From: 2010.05.17/outbox.cif.g08.bks.cpg/sg2_211_cif.got.tgz:420112.got - 2010.06.03 11:33:40.
