data_PCOD9046281
_publ_section_title
;
Structure prediction by ZEFSAII (Michael W. Deem and Ramdas Pophale) SiO2 
 PCOD9046281
Probable space group: P -1
;
_chemical_formula_sum "Si O2"
_cell_formula_units_Z 14
_cell_length_a 9.970980
_cell_length_b 11.305758
_cell_length_c 12.358754
_cell_angle_alpha 128.370843
_cell_angle_beta 144.822803
_cell_angle_gamma 58.823516
_cell_volume 629.106163
_symmetry_space_group_name_H-M "P -1"
_symmetry_group_IT_number 2
_symmetry_cell_setting 'triclinic'
loop_
_space_group_symop_operation_xyz
x,y,z
-x,-y,-z
loop_
_atom_site_type_symbol
_atom_site_label
_atom_site_fract_x
_atom_site_fract_y
_atom_site_fract_z
Si Si1 0.587576 0.714599 0.447556
Si Si2 0.494986 0.926040 0.072074
Si Si3 0.692335 0.403668 0.003476
Si Si4 0.717902 0.173941 0.485477
Si Si5 0.043899 0.872941 0.866098
Si Si6 0.814505 0.660422 0.083058
Si Si7 0.473440 0.575565 0.641516
O O1 0.435735 0.690842 0.227954
O O2 0.444543 0.782663 0.494441
O O3 0.653149 0.542702 0.431615
O O4 0.801622 0.821190 0.627507
O O5 0.587311 0.755282 0.026034
O O6 0.662128 0.006563 0.314995
O O7 0.231768 0.937627 0.945466
O O8 0.500000 0.000000 0.000000
O O9 0.500000 0.500000 0.000000
O O10 0.840965 0.281181 0.098022
O O11 0.850923 0.523465 0.112371
O O12 0.650749 0.269069 0.386309
O O13 0.973481 0.226747 0.716061
O O14 0.000000 0.000000 0.000000
O O15 0.727428 0.598645 0.875297
O O16 0.500000 0.500000 0.500000
#
# Coordination Sequence:
#
# PCOD9046281 Si02
#       7
#     2   2   2   2   2   2   2
#     4  10  24  42  70 102 133 186 236 283 349 417
#     4  12  25  45  70 103 141 186 232 286 355 414
#     4  11  25  46  71 103 138 181 238 289 349 412
#     4  11  22  41  67 102 140 181 233 281 355 417
#     4  12  26  49  73  99 146 185 232 291 349 417
#     4  11  23  43  70 102 139 179 230 294 344 412
#     4   9  20  39  65 100 137 175 229 282 347 413
#
# _framework density 22.253795
#
# number of rings (size 3 to 8) (size 9 to 14) (size 15 to 20)
#    0.000    1.143    4.286    1.286    0.000   10.857 
#    2.571    0.000    0.000    0.000    0.000    0.000 
#    0.000    0.000    0.000    0.000    0.000    0.000 
#
# Total GULP energy -78246.147185 kJ/mol
# GULP energy per Si atom -5589.010513 kJ/mol
# Density = 2.220314 g / cm^3
# Si number density = 22.253795 Si / 1000 Ang^3
#
#
#
# Elastic Constant Matrix: (Units=GPa)
#
#
# Indices 1 2 3 4 5 6 
#
# 1 114.6320 12.4792 50.8884 6.2494 14.6731 -2.7678
# 2 12.4792 43.6262 -13.1776 8.6002 -9.2721 -11.1264
# 3 50.8884 -13.1776 137.2639 18.1847 8.3631 3.0819
# 4 6.2494 8.6002 18.1847 27.6187 0.5486 -2.3664
# 5 14.6731 -9.2721 8.3631 0.5486 38.8457 1.8994
# 6 -2.7678 -11.1264 3.0819 -2.3664 1.8994 20.1041
#
#
#
# Elastic Compliance Matrix: (Units=1/GPa)
#
#
# Indices 1 2 3 4 5 6 
#
# 1 0.012319 -0.006923 -0.005291 0.002913 -0.005184 -0.000492
# 2 -0.006923 0.035230 0.006745 -0.012725 0.009010 0.015161
# 3 -0.005291 0.006745 0.010874 -0.008068 0.001369 0.000259
# 4 0.002913 -0.012725 -0.008068 0.044897 -0.003043 0.000167
# 5 -0.005184 0.009010 0.001369 -0.003043 0.029555 0.000913
# 6 -0.000492 0.015161 0.000259 0.000167 0.000913 0.057958
#
#
# Mechanical properties :
#
#
# Convention : Reuss Voigt Hill
#
# Bulk Modulus (GPa) = 21.05907 43.98914 32.52410
# Shear Modulus (GPa) = 22.97805 33.66918 28.32361
#
# Velocity S-wave (km/s) = 3.21681 3.89390 3.57144
# Velocity P-wave (km/s) = 4.82502 6.32666 5.62616
#
# Compressibility (1/GPa) = 0.04748548
#
# Stress axis : x y z
#
# Youngs Moduli (GPa) = 81.17707 28.38483 91.96406
#
# Poissons Ratio (x) = 0.19651 0.48655
# Poissons Ratio (y) = 0.56200 -0.62032
# Poissons Ratio (z) = 0.42948 -0.19146
#
# Static dielectric constant tensor:
#      x y z
#    x 1.814380 0.002750 0.011820 
#    y 0.002750 1.909520 0.027370 
#    z 0.011820 0.027370 1.822800 
# 
# From -- ./inp_files/71079.got.cif
#   From: 2010.05.17/outbox.cif.g08.bks.cpg/sg2_36_cif.got.tgz:71079.got - 2010.06.03 11:33:40.
