data_PCOD9046174
_publ_section_title
;
Structure prediction by ZEFSAII (Michael W. Deem and Ramdas Pophale) SiO2 
 PCOD9046174
Probable space group: P -1
;
_chemical_formula_sum "Si O2"
_cell_formula_units_Z 15
_cell_length_a 11.556332
_cell_length_b 12.298139
_cell_length_c 11.763938
_cell_angle_alpha 147.176735
_cell_angle_beta 111.199945
_cell_angle_gamma 55.334232
_cell_volume 719.547949
_symmetry_space_group_name_H-M "P -1"
_symmetry_group_IT_number 2
_symmetry_cell_setting 'triclinic'
loop_
_space_group_symop_operation_xyz
x,y,z
-x,-y,-z
loop_
_atom_site_type_symbol
_atom_site_label
_atom_site_fract_x
_atom_site_fract_y
_atom_site_fract_z
Si Si1 0.709660 0.748762 0.944151
Si Si2 0.548372 0.243921 0.248888
Si Si3 0.048430 0.393378 0.717459
Si Si4 0.500000 0.000000 0.500000
Si Si5 0.274994 0.416734 0.950390
Si Si6 0.772006 0.141331 0.044446
Si Si7 0.757902 0.106707 0.734608
Si Si8 0.946964 0.365844 0.283919
O O1 0.601023 0.752467 0.814697
O O2 0.876781 0.573272 0.818243
O O3 0.682231 0.651819 0.964646
O O4 0.658783 0.023957 0.174862
O O5 0.500000 0.500000 0.500000
O O6 0.633875 0.195613 0.117119
O O7 0.129111 0.408335 0.869947
O O8 0.108279 0.487635 0.721973
O O9 0.096217 0.130829 0.466136
O O10 0.396729 0.215734 0.738313
O O11 0.628698 0.068424 0.617199
O O12 0.253473 0.665394 0.125670
O O13 0.820260 0.329150 0.252314
O O14 0.757058 0.128587 0.891469
O O15 0.910782 0.890726 0.910940
O O16 0.000000 0.500000 0.500000
#
# Coordination Sequence:
#
# PCOD9046174 Si02
#       8
#     2   2   2   1   2   2   2   2
#     4  11  26  46  65  94 139 177 222 269 329 401
#     4  11  27  44  67  94 132 182 222 272 327 396
#     4  11  23  42  68 101 134 173 220 273 336 394
#     4  10  24  42  68  92 134 172 222 270 322 392
#     4  11  24  44  67 100 134 177 218 273 332 397
#     4  11  23  40  67  98 129 169 223 272 331 387
#     4  11  23  41  69 104 129 173 219 275 334 391
#     4  11  22  38  68  99 130 169 215 283 327 385
#
# _framework density 20.846422
#
# number of rings (size 3 to 8) (size 9 to 14) (size 15 to 20)
#    0.000    1.067    4.000    1.600    1.867    4.800 
#    0.000    0.000    0.000    0.000    0.000    0.000 
#    0.000    0.000    0.000    0.000    0.000    0.000 
#
# Total GULP energy -83532.047361 kJ/mol
# GULP energy per Si atom -5568.803157 kJ/mol
# Density = 2.079897 g / cm^3
# Si number density = 20.846422 Si / 1000 Ang^3
#
#
#
# Elastic Constant Matrix: (Units=GPa)
#
#
# Indices 1 2 3 4 5 6 
#
# 1 81.0481 2.2412 20.5265 15.2490 -12.2873 -12.9401
# 2 2.2412 56.6468 10.7713 3.2309 -3.0196 27.5604
# 3 20.5265 10.7713 88.0876 15.2079 8.5265 13.7059
# 4 15.2490 3.2309 15.2079 15.0415 -6.1504 17.8235
# 5 -12.2873 -3.0196 8.5265 -6.1504 27.5804 2.2707
# 6 -12.9401 27.5604 13.7059 17.8235 2.2707 25.4630
#
#
#
# Elastic Compliance Matrix: (Units=1/GPa)
#
#
# Indices 1 2 3 4 5 6 
#
# 1 0.008642 0.008624 -0.005029 0.020220 0.012297 -0.017486
# 2 0.008624 0.009802 0.000466 -0.035674 -0.004742 0.018917
# 3 -0.005029 0.000466 0.015200 -0.005568 -0.007581 -0.006668
# 4 0.020220 -0.035674 -0.005568 -0.035186 -0.007376 0.077173
# 5 0.012297 -0.004742 -0.007581 -0.007376 0.040515 0.017012
# 6 -0.017486 0.018917 -0.006668 0.077173 0.017012 -0.042036
#
#
# Mechanical properties :
#
#
# Convention : Reuss Voigt Hill
#
# Bulk Modulus (GPa) = 23.94228 32.54006 28.24117
# Shear Modulus (GPa) = 1827.83795 26.43321 927.13558
#
# Velocity S-wave (km/s) = 29.64312 3.56476 21.11187
# Velocity P-wave (km/s) = 34.39665 5.70847 24.65478
#
# Compressibility (1/GPa) = 0.04176712
#
# Stress axis : x y z
#
# Youngs Moduli (GPa) = 115.71941 102.02253 65.79017
#
# Poissons Ratio (x) = -0.87987 0.33084
# Poissons Ratio (y) = -0.99799 -0.03069
# Poissons Ratio (z) = 0.58192 -0.04759
#
# Static dielectric constant tensor:
#      x y z
#    x 1.739030 -0.016250 0.021710 
#    y -0.016250 1.803130 -0.011870 
#    z 0.021710 -0.011870 1.762030 
# 
# From -- ./inp_files/76611.got.cif
#   From: 2010.05.17/outbox.cif.g08.bks.cpg/sg2_39_cif.got.tgz:76611.got - 2010.06.03 11:33:40.
