data_PCOD9046350
_publ_section_title
;
Structure prediction by ZEFSAII (Michael W. Deem and Ramdas Pophale) SiO2 
 PCOD9046350
Probable space group: P -1
;
_chemical_formula_sum "Si O2"
_cell_formula_units_Z 14
_cell_length_a 5.270093
_cell_length_b 8.494755
_cell_length_c 25.181613
_cell_angle_alpha 35.931918
_cell_angle_beta 65.223788
_cell_angle_gamma 56.044338
_cell_volume 547.455493
_symmetry_space_group_name_H-M "P -1"
_symmetry_group_IT_number 2
_symmetry_cell_setting 'triclinic'
loop_
_space_group_symop_operation_xyz
x,y,z
-x,-y,-z
loop_
_atom_site_type_symbol
_atom_site_label
_atom_site_fract_x
_atom_site_fract_y
_atom_site_fract_z
Si Si1 0.029224 0.383017 0.929389
Si Si2 0.817366 0.089084 0.232560
Si Si3 0.644861 0.054330 0.526196
Si Si4 0.753740 0.288854 0.625544
Si Si5 0.523206 0.147591 0.038463
Si Si6 0.218468 0.241892 0.298768
Si Si7 0.677033 0.828282 0.218334
O O1 0.016194 0.697910 0.828099
O O2 0.253022 0.138850 0.935925
O O3 0.210430 0.297600 0.992601
O O4 0.711448 0.350859 0.968456
O O5 0.466159 0.275134 0.229010
O O6 0.841963 0.981432 0.199673
O O7 0.944700 0.806714 0.337899
O O8 0.415452 0.386593 0.471049
O O9 0.500000 0.000000 0.500000
O O10 0.651050 0.835199 0.632214
O O11 0.000000 0.000000 0.500000
O O12 0.517097 0.263798 0.696955
O O13 0.827901 0.040396 0.642128
O O14 0.495989 0.038103 0.129241
O O15 0.917645 0.536044 0.249479
#
# Coordination Sequence:
#
# PCOD9046350 Si02
#       7
#     2   2   2   2   2   2   2
#     4  10  24  44  67 106 143 188 244 294 363 424
#     4  11  27  43  74 107 143 191 244 299 358 434
#     4  12  27  49  78 110 147 189 242 294 361 433
#     4  11  26  47  73 108 145 190 243 293 363 434
#     4  10  24  42  71 101 143 194 237 300 357 427
#     4  11  26  47  75 105 147 192 236 301 361 428
#     4  11  25  45  72 106 143 191 244 297 361 425
#
# _framework density 25.572858
#
# number of rings (size 3 to 8) (size 9 to 14) (size 15 to 20)
#    0.000    1.143    1.429    2.143   16.000    4.000 
#    0.000    0.000    0.000    0.000    0.000    0.000 
#    0.000    0.000    0.000    0.000    0.000    0.000 
#
# Total GULP energy -78547.950241 kJ/mol
# GULP energy per Si atom -5610.567874 kJ/mol
# Density = 2.551465 g / cm^3
# Si number density = 25.572858 Si / 1000 Ang^3
#
#
#
# Elastic Constant Matrix: (Units=GPa)
#
#
# Indices 1 2 3 4 5 6 
#
# 1 102.0605 33.9224 16.6127 8.1733 18.0326 21.3835
# 2 33.9224 150.0155 9.5614 -10.4336 1.5575 -4.8119
# 3 16.6127 9.5614 101.5245 -2.4577 27.4466 9.9256
# 4 8.1733 -10.4336 -2.4577 39.0926 3.5803 7.2833
# 5 18.0326 1.5575 27.4466 3.5803 44.9694 5.7310
# 6 21.3835 -4.8119 9.9256 7.2833 5.7310 35.4513
#
#
#
# Elastic Compliance Matrix: (Units=1/GPa)
#
#
# Indices 1 2 3 4 5 6 
#
# 1 0.013357 -0.003345 -0.000086 -0.001933 -0.004087 -0.007429
# 2 -0.003345 0.007687 -0.000644 0.002129 0.000961 0.002649
# 3 -0.000086 -0.000644 0.012164 0.001760 -0.007171 -0.002644
# 4 -0.001933 0.002129 0.001760 0.027667 -0.002016 -0.004396
# 5 -0.004087 0.000961 -0.007171 -0.002016 0.028324 0.000439
# 6 -0.007429 0.002649 -0.002644 -0.004396 0.000439 0.034621
#
#
# Mechanical properties :
#
#
# Convention : Reuss Voigt Hill
#
# Bulk Modulus (GPa) = 39.90773 52.64373 46.27573
# Shear Modulus (GPa) = 35.63213 43.46960 39.55087
#
# Velocity S-wave (km/s) = 3.73682 4.12738 3.93694
# Velocity P-wave (km/s) = 5.85302 6.58363 6.22904
#
# Compressibility (1/GPa) = 0.02505780
#
# Stress axis : x y z
#
# Youngs Moduli (GPa) = 74.86451 130.09814 82.20864
#
# Poissons Ratio (x) = 0.43521 0.00708
# Poissons Ratio (y) = 0.25044 0.05292
# Poissons Ratio (z) = 0.00645 0.08375
#
# Static dielectric constant tensor:
#      x y z
#    x 2.057540 -0.013690 -0.005660 
#    y -0.013690 1.994620 -0.009130 
#    z -0.005660 -0.009130 1.979390 
# 
# From -- ./inp_files/603715.got.cif
#   From: 2010.05.17/outbox.cif.g08.bks.cpg/sg2_302_cif.got.tgz:603715.got - 2010.06.03 11:33:40.
