data_PCOD9046082
_publ_section_title
;
Structure prediction by ZEFSAII (Michael W. Deem and Ramdas Pophale) SiO2 
 PCOD9046082
Probable space group: P -1
;
_chemical_formula_sum "Si O2"
_cell_formula_units_Z 16
_cell_length_a 22.118463
_cell_length_b 5.502773
_cell_length_c 10.106863
_cell_angle_alpha 59.216545
_cell_angle_beta 35.576798
_cell_angle_gamma 62.431483
_cell_volume 612.178429
_symmetry_space_group_name_H-M "P -1"
_symmetry_group_IT_number 2
_symmetry_cell_setting 'triclinic'
loop_
_space_group_symop_operation_xyz
x,y,z
-x,-y,-z
loop_
_atom_site_type_symbol
_atom_site_label
_atom_site_fract_x
_atom_site_fract_y
_atom_site_fract_z
Si Si1 0.937906 0.662117 0.235283
Si Si2 0.356254 0.116263 0.662161
Si Si3 0.712465 0.514963 0.074133
Si Si4 0.469080 0.775351 0.886774
Si Si5 0.327506 0.102456 0.210785
Si Si6 0.735310 0.410132 0.657253
Si Si7 0.944853 0.279906 0.745294
Si Si8 0.869829 0.747404 0.056943
O O1 0.855982 0.426049 0.470523
O O2 0.965930 0.806511 0.280038
O O3 0.051157 0.526025 0.026933
O O4 0.887054 0.835085 0.154705
O O5 0.339405 0.780224 0.775214
O O6 0.545917 0.820211 0.619373
O O7 0.354235 0.276721 0.762783
O O8 0.250645 0.266481 0.743714
O O9 0.829897 0.432838 0.944288
O O10 0.725798 0.686595 0.865588
O O11 0.443490 0.035230 0.962571
O O12 0.351199 0.728970 0.060012
O O13 0.500000 0.500000 0.000000
O O14 0.277460 0.801472 0.383541
O O15 0.310797 0.261364 0.334579
O O16 0.000000 0.500000 0.500000
O O17 0.911364 0.990088 0.823133
#
# Coordination Sequence:
#
# PCOD9046082 Si02
#       8
#     2   2   2   2   2   2   2   2
#     4  11  22  43  68  95 137 178 228 283 340 408
#     4  11  24  45  69  98 137 177 224 282 333 408
#     4  11  24  44  66 100 136 177 225 272 344 407
#     4  10  25  46  70 100 131 177 226 280 336 399
#     4  10  24  45  65 101 133 172 228 273 338 402
#     4  10  24  42  67 103 130 176 225 278 336 399
#     4  11  24  40  66  97 137 183 225 283 339 408
#     4  10  24  43  64 101 131 181 227 282 343 407
#
# _framework density 26.13617
#
# number of rings (size 3 to 8) (size 9 to 14) (size 15 to 20)
#    0.750    0.750    1.250    2.625    5.250    3.000 
#    4.500    0.000    0.000    0.000    0.000    0.000 
#    0.000    0.000    0.000    0.000    0.000    0.000 
#
# Total GULP energy -89223.596752 kJ/mol
# GULP energy per Si atom -5576.474797 kJ/mol
# Density = 2.607668 g / cm^3
# Si number density = 26.136170 Si / 1000 Ang^3
#
#
#
# Elastic Constant Matrix: (Units=GPa)
#
#
# Indices 1 2 3 4 5 6 
#
# 1 74.6626 15.1351 30.8153 -7.8167 -7.6596 9.6821
# 2 15.1351 130.0204 39.4081 1.5760 3.5750 22.4344
# 3 30.8153 39.4081 166.6799 -3.6439 -23.0718 12.9224
# 4 -7.8167 1.5760 -3.6439 39.0448 -2.5045 -4.3429
# 5 -7.6596 3.5750 -23.0718 -2.5045 37.3282 -0.6383
# 6 9.6821 22.4344 12.9224 -4.3429 -0.6383 47.5357
#
#
#
# Elastic Compliance Matrix: (Units=1/GPa)
#
#
# Indices 1 2 3 4 5 6 
#
# 1 0.015187 -0.000908 -0.002106 0.002812 0.002059 -0.001808
# 2 -0.000908 0.009156 -0.002083 -0.001321 -0.002503 -0.003724
# 3 -0.002106 -0.002083 0.007554 0.000595 0.004467 -0.000527
# 4 0.002812 -0.001321 0.000595 0.026733 0.002905 0.002370
# 5 0.002059 -0.002503 0.004467 0.002905 0.030411 0.000221
# 6 -0.001808 -0.003724 -0.000527 0.002370 0.000221 0.023525
#
#
# Mechanical properties :
#
#
# Convention : Reuss Voigt Hill
#
# Bulk Modulus (GPa) = 46.08218 60.23108 53.15663
# Shear Modulus (GPa) = 38.46277 43.84871 41.15574
#
# Velocity S-wave (km/s) = 3.84034 4.10042 3.97251
# Velocity P-wave (km/s) = 6.11017 6.74634 6.43612
#
# Compressibility (1/GPa) = 0.02170036
#
# Stress axis : x y z
#
# Youngs Moduli (GPa) = 65.84550 109.22194 132.38531
#
# Poissons Ratio (x) = 0.09920 0.27885
# Poissons Ratio (y) = 0.05980 0.27581
# Poissons Ratio (z) = 0.13870 0.22755
#
# Static dielectric constant tensor:
#      x y z
#    x 2.189660 0.053780 0.032500 
#    y 0.053780 2.157860 0.002800 
#    z 0.032500 0.002800 2.091630 
# 
# From -- ./inp_files/467828.got.cif
#   From: 2010.05.17/outbox.cif.g08.bks.cpg/sg2_234_cif.got.tgz:467828.got - 2010.06.03 11:33:40.
