data_PCOD9046595
_publ_section_title
;
Structure prediction by ZEFSAII (Michael W. Deem and Ramdas Pophale) SiO2 
 PCOD9046595
Probable space group: P -1
;
_chemical_formula_sum "Si O2"
_cell_formula_units_Z 16
_cell_length_a 16.091730
_cell_length_b 8.909927
_cell_length_c 11.107150
_cell_angle_alpha 55.310767
_cell_angle_beta 109.012257
_cell_angle_gamma 64.210818
_cell_volume 745.875131
_symmetry_space_group_name_H-M "P -1"
_symmetry_group_IT_number 2
_symmetry_cell_setting 'triclinic'
loop_
_space_group_symop_operation_xyz
x,y,z
-x,-y,-z
loop_
_atom_site_type_symbol
_atom_site_label
_atom_site_fract_x
_atom_site_fract_y
_atom_site_fract_z
Si Si1 0.983738 0.276089 0.478325
Si Si2 0.284605 0.709542 0.328201
Si Si3 0.516409 0.419641 0.377135
Si Si4 0.962482 0.733073 0.214424
Si Si5 0.529227 0.821328 0.707766
Si Si6 0.245529 0.624456 0.787620
Si Si7 0.269079 0.324814 0.535605
Si Si8 0.471206 0.838015 0.027099
O O1 0.019772 0.214136 0.666431
O O2 0.852016 0.359812 0.339214
O O3 0.940735 0.553435 0.298342
O O4 0.130161 0.969290 0.617120
O O5 0.426801 0.471188 0.417318
O O6 0.320764 0.808924 0.395372
O O7 0.260300 0.556007 0.450939
O O8 0.157966 0.969821 0.057829
O O9 0.492964 0.343715 0.280820
O O10 0.458063 0.719276 0.183613
O O11 0.117342 0.513085 0.325614
O O12 0.500000 0.000000 0.500000
O O13 0.402727 0.078636 0.622491
O O14 0.680471 0.581632 0.961933
O O15 0.387449 0.450965 0.855661
O O16 0.316292 0.110968 0.762476
O O17 0.500000 0.000000 0.000000
#
# Coordination Sequence:
#
# PCOD9046595 Si02
#       8
#     2   2   2   2   2   2   2   2
#     4  10  24  43  65  95 127 176 215 270 317 388
#     4  11  24  43  65  96 133 167 217 266 321 396
#     4  11  25  41  69  98 128 172 217 261 332 382
#     4  11  25  41  69  91 131 170 225 262 324 376
#     4  11  24  42  67  96 134 168 209 272 331 386
#     4  10  24  43  65  94 133 167 218 263 328 379
#     4  11  24  42  64  98 130 169 218 265 326 383
#     4  11  23  40  71  98 131 165 220 274 318 386
#
# _framework density 21.451312000000001
#
# number of rings (size 3 to 8) (size 9 to 14) (size 15 to 20)
#    0.000    1.250    2.500    1.875   10.500    1.000 
#    0.000    0.625    0.000    0.000    0.000    0.000 
#    0.000    0.000    0.000    0.000    0.000    0.000 
#
# Total GULP energy -89351.300722 kJ/mol
# GULP energy per Si atom -5584.456295 kJ/mol
# Density = 2.140249 g / cm^3
# Si number density = 21.451312 Si / 1000 Ang^3
#
#
#
# Elastic Constant Matrix: (Units=GPa)
#
#
# Indices 1 2 3 4 5 6 
#
# 1 69.4477 7.5838 39.0827 -2.5554 -7.9679 9.3494
# 2 7.5838 68.6744 44.0432 0.6518 3.6922 16.5768
# 3 39.0827 44.0432 125.9465 23.6195 6.3836 5.3777
# 4 -2.5554 0.6518 23.6195 29.6459 -3.3095 7.5837
# 5 -7.9679 3.6922 6.3836 -3.3095 36.9748 4.0491
# 6 9.3494 16.5768 5.3777 7.5837 4.0491 26.1738
#
#
#
# Elastic Compliance Matrix: (Units=1/GPa)
#
#
# Indices 1 2 3 4 5 6 
#
# 1 0.027884 0.012411 -0.016917 0.022819 0.012235 -0.022849
# 2 0.012411 0.031047 -0.018215 0.023001 0.007870 -0.028236
# 3 -0.016917 -0.018215 0.024283 -0.027295 -0.010891 0.022183
# 4 0.022819 0.023001 -0.027295 0.069147 0.017893 -0.039914
# 5 0.012235 0.007870 -0.010891 0.017893 0.034306 -0.017609
# 6 -0.022849 -0.028236 0.022183 -0.039914 -0.017609 0.073982
#
#
# Mechanical properties :
#
#
# Convention : Reuss Voigt Hill
#
# Bulk Modulus (GPa) = 26.47475 49.49868 37.98672
# Shear Modulus (GPa) = 15.68965 30.11616 22.90291
#
# Velocity S-wave (km/s) = 2.70739 3.75097 3.27107
# Velocity P-wave (km/s) = 4.70551 6.47184 5.65803
#
# Compressibility (1/GPa) = 0.03777183
#
# Stress axis : x y z
#
# Youngs Moduli (GPa) = 35.86335 32.20898 41.18147
#
# Poissons Ratio (x) = -0.39975 0.69665
# Poissons Ratio (y) = -0.44510 0.75013
# Poissons Ratio (z) = 0.60669 0.58670
#
# Static dielectric constant tensor:
#      x y z
#    x 1.799920 0.008340 0.008540 
#    y 0.008340 1.842160 0.038900 
#    z 0.008540 0.038900 1.810380 
# 
# From -- ./inp_files/205154.got.cif
#   From: 2010.05.17/outbox.cif.g08.bks.cpg/sg2_103_cif.got.tgz:205154.got - 2010.06.03 11:33:40.
