data_PCOD9046647
_publ_section_title
;
Structure prediction by ZEFSAII (Michael W. Deem and Ramdas Pophale) SiO2 
 PCOD9046647
Probable space group: P -1
;
_chemical_formula_sum "Si O2"
_cell_formula_units_Z 16
_cell_length_a 5.042636
_cell_length_b 25.698122
_cell_length_c 11.307671
_cell_angle_alpha 43.194170
_cell_angle_beta 133.768507
_cell_angle_gamma 133.595999
_cell_volume 671.489143
_symmetry_space_group_name_H-M "P -1"
_symmetry_group_IT_number 2
_symmetry_cell_setting 'triclinic'
loop_
_space_group_symop_operation_xyz
x,y,z
-x,-y,-z
loop_
_atom_site_type_symbol
_atom_site_label
_atom_site_fract_x
_atom_site_fract_y
_atom_site_fract_z
Si Si1 0.777325 0.911168 0.512280
Si Si2 0.149733 0.596318 0.123460
Si Si3 0.871866 0.176948 0.071598
Si Si4 0.746073 0.749419 0.156966
Si Si5 0.456276 0.225221 0.496464
Si Si6 0.992306 0.672092 0.702268
Si Si7 0.576376 0.995909 0.894116
Si Si8 0.391807 0.505242 0.684561
O O1 0.855425 0.864531 0.495065
O O2 0.434390 0.932004 0.313061
O O3 0.797207 0.843922 0.719969
O O4 0.000000 0.000000 0.500000
O O5 0.418450 0.658242 0.204359
O O6 0.362657 0.535911 0.248248
O O7 0.746754 0.545214 0.152005
O O8 0.088603 0.642321 0.909721
O O9 0.698249 0.093487 0.083557
O O10 0.516835 0.193947 0.999962
O O11 0.076461 0.246487 0.926306
O O12 0.134982 0.774171 0.318457
O O13 0.219641 0.263597 0.444261
O O14 0.632706 0.286322 0.337796
O O15 0.678160 0.595801 0.661649
O O16 0.500000 0.000000 0.000000
O O17 0.000000 0.000000 0.000000
O O18 0.000000 0.500000 0.500000
#
# Coordination Sequence:
#
# PCOD9046647 Si02
#       8
#     2   2   2   2   2   2   2   2
#     4  10  24  43  66  94 128 167 212 263 320 377
#     4  12  24  42  66  95 130 169 210 260 313 373
#     4  11  23  41  62  91 126 164 209 260 312 375
#     4  12  24  42  66  95 128 169 213 260 315 373
#     4  12  24  43  65  94 127 167 212 263 314 377
#     4  12  25  43  67  96 129 168 211 259 316 374
#     4  11  23  41  64  91 123 164 209 260 317 375
#     4  12  24  43  66  96 130 168 211 259 311 374
#
# _framework density 23.827639999999999
#
# number of rings (size 3 to 8) (size 9 to 14) (size 15 to 20)
#    0.000    0.500    0.000    9.375    0.000    2.000 
#    0.000    6.875    0.000    0.000    0.000    0.000 
#    0.000    0.000    0.000    0.000    0.000    0.000 
#
# Total GULP energy -89220.197380 kJ/mol
# GULP energy per Si atom -5576.262336 kJ/mol
# Density = 2.377341 g / cm^3
# Si number density = 23.827640 Si / 1000 Ang^3
#
#
#
# Elastic Constant Matrix: (Units=GPa)
#
#
# Indices 1 2 3 4 5 6 
#
# 1 105.5661 0.2548 9.8016 -3.6630 1.1032 -15.3912
# 2 0.2548 125.6748 4.4683 12.2509 7.3975 -35.7752
# 3 9.8016 4.4683 98.6053 11.8187 -5.0204 -9.5001
# 4 -3.6630 12.2509 11.8187 24.5347 -9.6563 1.1524
# 5 1.1032 7.3975 -5.0204 -9.6563 29.9646 -14.1680
# 6 -15.3912 -35.7752 -9.5001 1.1524 -14.1680 41.1103
#
#
#
# Elastic Compliance Matrix: (Units=1/GPa)
#
#
# Indices 1 2 3 4 5 6 
#
# 1 0.010396 0.001276 -0.000652 0.001945 0.002495 0.005657
# 2 0.001276 0.011759 0.001254 -0.006624 0.000495 0.011357
# 3 -0.000652 0.001254 0.011329 -0.005676 0.001788 0.004240
# 4 0.001945 -0.006624 -0.005676 0.053891 0.017041 -0.001985
# 5 0.002495 0.000495 0.001788 0.017041 0.047267 0.017590
# 6 0.005657 0.011357 0.004240 -0.001985 0.017590 0.043424
#
#
# Mechanical properties :
#
#
# Convention : Reuss Voigt Hill
#
# Bulk Modulus (GPa) = 26.85297 39.87730 33.36513
# Shear Modulus (GPa) = 26.77729 40.14335 33.46032
#
# Velocity S-wave (km/s) = 3.35594 4.10901 3.75142
# Velocity P-wave (km/s) = 5.12938 6.26770 5.72689
#
# Compressibility (1/GPa) = 0.03723983
#
# Stress axis : x y z
#
# Youngs Moduli (GPa) = 96.18647 85.03845 88.26591
#
# Poissons Ratio (x) = -0.10851 0.05758
# Poissons Ratio (y) = -0.12274 -0.11065
# Poissons Ratio (z) = 0.06275 -0.10660
#
# Static dielectric constant tensor:
#      x y z
#    x 1.882130 0.011570 -0.021210 
#    y 0.011570 1.954400 -0.007300 
#    z -0.021210 -0.007300 1.955100 
# 
# From -- ./inp_files/371435.got.cif
#   From: 2010.05.17/outbox.cif.g08.bks.cpg/sg2_186_cif.got.tgz:371435.got - 2010.06.03 11:33:40.
