data_PCOD9046504
_publ_section_title
;
Structure prediction by ZEFSAII (Michael W. Deem and Ramdas Pophale) SiO2 
 PCOD9046504
Probable space group: P -1
;
_chemical_formula_sum "Si O2"
_cell_formula_units_Z 15
_cell_length_a 30.137846
_cell_length_b 29.445215
_cell_length_c 5.083942
_cell_angle_alpha 63.289870
_cell_angle_beta 61.247887
_cell_angle_gamma 9.542234
_cell_volume 646.007562
_symmetry_space_group_name_H-M "P -1"
_symmetry_group_IT_number 2
_symmetry_cell_setting 'triclinic'
loop_
_space_group_symop_operation_xyz
x,y,z
-x,-y,-z
loop_
_atom_site_type_symbol
_atom_site_label
_atom_site_fract_x
_atom_site_fract_y
_atom_site_fract_z
Si Si1 0.025457 0.052376 0.288714
Si Si2 0.059913 0.323780 0.286967
Si Si3 0.216911 0.248805 0.668422
Si Si4 0.472147 0.895475 0.610954
Si Si5 0.542406 0.609575 0.123650
Si Si6 0.000000 0.000000 0.000000
Si Si7 0.894714 0.817839 0.803066
Si Si8 0.441976 0.336220 0.560573
O O1 0.776066 0.337544 0.221982
O O2 0.989260 0.053402 0.650201
O O3 0.289902 0.825898 0.173559
O O4 0.045828 0.999076 0.102140
O O5 0.983194 0.352623 0.241676
O O6 0.794757 0.582858 0.561150
O O7 0.373189 0.000436 0.320070
O O8 0.079724 0.361701 0.029672
O O9 0.000000 0.500000 0.500000
O O10 0.500000 0.000000 0.500000
O O11 0.302505 0.110518 0.653854
O O12 0.334502 0.979050 0.875447
O O13 0.490971 0.690652 0.327822
O O14 0.609282 0.584173 0.773030
O O15 0.153377 0.592075 0.776024
O O16 0.710599 0.034603 0.571273
#
# Coordination Sequence:
#
# PCOD9046504 Si02
#       8
#     2   2   2   2   2   1   2   2
#     4  11  24  44  68 104 142 180 242 285 348 409
#     4  11  24  42  66  93 128 172 219 289 341 401
#     4  11  24  41  62  95 132 166 220 272 346 431
#     4  11  24  42  66  93 128 172 219 289 341 401
#     4  12  26  45  68 102 146 184 228 301 346 417
#     4  10  24  42  76 102 136 196 232 290 342 414
#     4  11  26  43  66  97 130 171 238 289 332 437
#     4  12  26  43  70  98 136 190 232 284 366 413
#
# _framework density 23.219542000000001
#
# number of rings (size 3 to 8) (size 9 to 14) (size 15 to 20)
#    0.000    0.800    0.000    6.400    5.600   10.667 
#    0.000    0.000    0.000    0.000    0.000    0.000 
#    0.000    0.000    0.000    0.000    0.000    0.000 
#
# Total GULP energy -83543.934813 kJ/mol
# GULP energy per Si atom -5569.595654 kJ/mol
# Density = 2.316669 g / cm^3
# Si number density = 23.219542 Si / 1000 Ang^3
#
#
#
# Elastic Constant Matrix: (Units=GPa)
#
#
# Indices 1 2 3 4 5 6 
#
# 1 106.9485 30.2086 26.8865 -43.1632 3.3758 34.9612
# 2 30.2086 154.7306 37.4986 -3.3317 -19.8880 -13.9347
# 3 26.8865 37.4986 126.8165 -62.2129 2.1343 48.3855
# 4 -43.1632 -3.3317 -62.2129 120.5082 -25.8830 -109.6276
# 5 3.3758 -19.8880 2.1343 -25.8830 46.0636 24.3618
# 6 34.9612 -13.9347 48.3855 -109.6276 24.3618 151.6912
#
#
#
# Elastic Compliance Matrix: (Units=1/GPa)
#
#
# Indices 1 2 3 4 5 6 
#
# 1 0.011651 -0.002140 0.000352 0.004729 0.000698 0.000311
# 2 -0.002140 0.008056 -0.002399 0.000722 0.003081 0.002026
# 3 0.000352 -0.002399 0.011789 0.007571 0.002077 0.001076
# 4 0.004729 0.000722 0.007571 0.033124 0.008070 0.019204
# 5 0.000698 0.003081 0.002077 0.008070 0.026914 0.000969
# 6 0.000311 0.002026 0.001076 0.019204 0.000969 0.020087
#
#
# Mechanical properties :
#
#
# Convention : Reuss Voigt Hill
#
# Bulk Modulus (GPa) = 43.25001 64.18701 53.71851
# Shear Modulus (GPa) = 39.15385 83.24605 61.19995
#
# Velocity S-wave (km/s) = 4.11085 5.99413 5.13949
# Velocity P-wave (km/s) = 6.41865 8.69538 7.64227
#
# Compressibility (1/GPa) = 0.02312138
#
# Stress axis : x y z
#
# Youngs Moduli (GPa) = 85.82899 124.13122 84.82817
#
# Poissons Ratio (x) = 0.26569 -0.02987
# Poissons Ratio (y) = 0.18371 0.20348
# Poissons Ratio (z) = -0.03022 0.29776
#
# Static dielectric constant tensor:
#      x y z
#    x 1.958180 -0.004900 0.147320 
#    y -0.004900 1.815630 -0.013140 
#    z 0.147320 -0.013140 2.012400 
# 
# From -- ./inp_files/128914.got.cif
#   From: 2010.05.17/outbox.cif.g08.bks.cpg/sg2_65_cif.got.tgz:128914.got - 2010.06.03 11:33:40.
