data_PCOD9046855
_publ_section_title
;
Structure prediction by ZEFSAII (Michael W. Deem and Ramdas Pophale) SiO2 
 PCOD9046855
Probable space group: P -1
;
_chemical_formula_sum "Si O2"
_cell_formula_units_Z 16
_cell_length_a 15.917225
_cell_length_b 8.241041
_cell_length_c 6.491439
_cell_angle_alpha 110.799844
_cell_angle_beta 116.979330
_cell_angle_gamma 67.595329
_cell_volume 684.192500
_symmetry_space_group_name_H-M "P -1"
_symmetry_group_IT_number 2
_symmetry_cell_setting 'triclinic'
loop_
_space_group_symop_operation_xyz
x,y,z
-x,-y,-z
loop_
_atom_site_type_symbol
_atom_site_label
_atom_site_fract_x
_atom_site_fract_y
_atom_site_fract_z
Si Si1 0.746898 0.470522 0.530617
Si Si2 0.489734 0.210048 0.313666
Si Si3 0.869065 0.427376 0.039222
Si Si4 0.814663 0.731484 0.422522
Si Si5 0.345474 0.001973 0.911937
Si Si6 0.807913 0.159249 0.169681
Si Si7 0.481733 0.466673 0.730583
Si Si8 0.944517 0.859948 0.961419
O O1 0.791196 0.507626 0.812515
O O2 0.755408 0.621737 0.445109
O O3 0.811620 0.277407 0.430361
O O4 0.634631 0.468640 0.410447
O O5 0.578168 0.101925 0.221878
O O6 0.514052 0.261512 0.593659
O O7 0.461859 0.407682 0.268085
O O8 0.402855 0.116774 0.159473
O O9 0.881381 0.580544 0.279346
O O10 0.826135 0.285203 0.059779
O O11 0.971100 0.323423 0.001406
O O12 0.872726 0.822859 0.688183
O O13 0.741968 0.872910 0.261031
O O14 0.297672 0.879127 0.947464
O O15 0.884206 0.964937 0.134343
O O16 0.500000 0.500000 0.000000
O O17 0.000000 0.000000 0.000000
#
# Coordination Sequence:
#
# PCOD9046855 Si02
#       8
#     2   2   2   2   2   2   2   2
#     4  11  24  45  71  99 132 187 223 272 342 402
#     4  10  24  43  68  97 140 175 226 276 336 400
#     4  10  24  48  69  95 137 180 230 276 332 414
#     4  11  25  43  70  99 139 175 225 281 336 409
#     4  11  23  47  67 104 136 179 225 284 337 393
#     4  10  24  43  69 100 135 177 224 280 340 395
#     4  11  23  43  68 101 134 180 223 279 335 404
#     4  10  24  44  68 102 134 176 224 284 343 391
#
# _framework density 23.385231999999998
#
# number of rings (size 3 to 8) (size 9 to 14) (size 15 to 20)
#    0.000    1.500    1.250    1.875    7.000    5.000 
#    4.500    1.875    0.000    0.000    0.000    0.000 
#    0.000    0.000    0.000    0.000    0.000    0.000 
#
# Total GULP energy -89471.542729 kJ/mol
# GULP energy per Si atom -5591.971421 kJ/mol
# Density = 2.333201 g / cm^3
# Si number density = 23.385232 Si / 1000 Ang^3
#
#
#
# Elastic Constant Matrix: (Units=GPa)
#
#
# Indices 1 2 3 4 5 6 
#
# 1 92.1282 25.4470 36.9280 18.7592 -6.8014 -8.4013
# 2 25.4470 64.2829 30.6156 17.2912 1.1789 -5.4751
# 3 36.9280 30.6156 106.4054 29.9275 -0.7747 -2.6506
# 4 18.7592 17.2912 29.9275 40.1493 -0.7082 3.1580
# 5 -6.8014 1.1789 -0.7747 -0.7082 31.5074 8.6972
# 6 -8.4013 -5.4751 -2.6506 3.1580 8.6972 34.3883
#
#
#
# Elastic Compliance Matrix: (Units=1/GPa)
#
#
# Indices 1 2 3 4 5 6 
#
# 1 0.013928 -0.003096 -0.002999 -0.003084 0.002324 0.002374
# 2 -0.003096 0.019994 -0.003182 -0.005096 -0.002516 0.003286
# 3 -0.002999 -0.003182 0.013414 -0.007283 -0.000527 0.000597
# 4 -0.003084 -0.005096 -0.007283 0.034452 0.001699 -0.005720
# 5 0.002324 -0.002516 -0.000527 0.001699 0.034797 -0.008830
# 6 0.002374 0.003286 0.000597 -0.005720 -0.008830 0.032987
#
#
# Mechanical properties :
#
#
# Convention : Reuss Voigt Hill
#
# Bulk Modulus (GPa) = 34.74396 49.86639 42.30518
# Shear Modulus (GPa) = 28.13435 32.53075 30.33255
#
# Velocity S-wave (km/s) = 3.47231 3.73377 3.60541
# Velocity P-wave (km/s) = 5.56466 6.32125 5.95498
#
# Compressibility (1/GPa) = 0.02878198
#
# Stress axis : x y z
#
# Youngs Moduli (GPa) = 71.79846 50.01587 74.54935
#
# Poissons Ratio (x) = 0.15484 0.22360
# Poissons Ratio (y) = 0.22227 0.23719
# Poissons Ratio (z) = 0.21535 0.15913
#
# Static dielectric constant tensor:
#      x y z
#    x 1.884640 -0.022160 -0.061420 
#    y -0.022160 1.930090 0.038520 
#    z -0.061420 0.038520 1.890770 
# 
# From -- ./inp_files/107704.got.cif
#   From: 2010.05.17/outbox.cif.g08.bks.cpg/sg2_54_cif.got.tgz:107704.got - 2010.06.03 11:33:40.
