data_PCOD9046462
_publ_section_title
;
Structure prediction by ZEFSAII (Michael W. Deem and Ramdas Pophale) SiO2 
 PCOD9046462
Probable space group: P -1
;
_chemical_formula_sum "Si O2"
_cell_formula_units_Z 15
_cell_length_a 16.915726
_cell_length_b 7.712219
_cell_length_c 11.135016
_cell_angle_alpha 122.640274
_cell_angle_beta 31.258391
_cell_angle_gamma 123.806350
_cell_volume 619.448578
_symmetry_space_group_name_H-M "P -1"
_symmetry_group_IT_number 2
_symmetry_cell_setting 'triclinic'
loop_
_space_group_symop_operation_xyz
x,y,z
-x,-y,-z
loop_
_atom_site_type_symbol
_atom_site_label
_atom_site_fract_x
_atom_site_fract_y
_atom_site_fract_z
Si Si1 0.500000 0.000000 0.500000
Si Si2 0.882413 0.772755 0.064481
Si Si3 0.067951 0.657181 0.578668
Si Si4 0.224480 0.125490 0.517512
Si Si5 0.580254 0.590106 0.267840
Si Si6 0.815103 0.919875 0.708438
Si Si7 0.445240 0.859579 0.791992
Si Si8 0.345873 0.477655 0.115998
O O1 0.541325 0.266146 0.550463
O O2 0.532030 0.019254 0.318932
O O3 0.829070 0.731646 0.256038
O O4 0.725327 0.775274 0.194361
O O5 0.965341 0.623909 0.820560
O O6 0.000000 0.000000 0.000000
O O7 0.239439 0.621773 0.363725
O O8 0.000000 0.500000 0.500000
O O9 0.097948 0.902778 0.595937
O O10 0.230443 0.203947 0.403791
O O11 0.392740 0.086197 0.323595
O O12 0.574957 0.393174 0.290072
O O13 0.616561 0.484202 0.057203
O O14 0.760165 0.756522 0.824753
O O15 0.000000 0.000000 0.500000
O O16 0.705326 0.087635 0.926853
O O17 0.500000 0.500000 0.000000
#
# Coordination Sequence:
#
# PCOD9046462 Si02
#       8
#     1   2   2   2   2   2   2   2
#     4  12  26  46  76 114 152 194 260 326 386 472
#     4  10  24  42  73 105 145 204 256 314 399 466
#     4  11  22  42  74 101 144 203 261 312 391 469
#     4  11  24  47  70 107 155 202 260 325 396 467
#     4  12  25  47  77 110 156 203 259 323 399 468
#     4  12  27  45  72 111 158 205 264 329 386 472
#     4  12  26  49  79 112 154 207 260 324 402 471
#     4  12  25  44  71 110 150 200 268 320 382 464
#
# _framework density 24.215084000000001
#
# number of rings (size 3 to 8) (size 9 to 14) (size 15 to 20)
#    0.000    0.533    4.000    4.000    3.733    0.000 
#    0.000    0.667    0.000    0.000    0.000    0.000 
#    0.000    0.000    0.000    0.000    0.000    0.000 
#
# Total GULP energy -83545.954944 kJ/mol
# GULP energy per Si atom -5569.730330 kJ/mol
# Density = 2.415997 g / cm^3
# Si number density = 24.215084 Si / 1000 Ang^3
#
#
#
# Elastic Constant Matrix: (Units=GPa)
#
#
# Indices 1 2 3 4 5 6 
#
# 1 115.5836 18.0896 47.5114 -10.2669 22.7046 11.1103
# 2 18.0896 102.2998 16.9217 -5.9026 -1.0932 -2.9366
# 3 47.5114 16.9217 137.4557 24.5951 12.8840 17.2503
# 4 -10.2669 -5.9026 24.5951 37.5631 11.4314 -4.2263
# 5 22.7046 -1.0932 12.8840 11.4314 30.6105 -7.3714
# 6 11.1103 -2.9366 17.2503 -4.2263 -7.3714 51.9462
#
#
#
# Elastic Compliance Matrix: (Units=1/GPa)
#
#
# Indices 1 2 3 4 5 6 
#
# 1 0.015077 -0.001319 -0.005485 0.011420 -0.013789 -0.002505
# 2 -0.001319 0.010454 -0.001574 0.001997 0.001702 0.001800
# 3 -0.005485 -0.001574 0.011390 -0.010258 0.002276 -0.003210
# 4 0.011420 0.001997 -0.010258 0.042969 -0.019700 0.001777
# 5 -0.013789 0.001702 0.002276 -0.019700 0.051273 0.007963
# 6 -0.002505 0.001800 -0.003210 0.001777 0.007963 0.022229
#
#
# Mechanical properties :
#
#
# Convention : Reuss Voigt Hill
#
# Bulk Modulus (GPa) = 49.59296 57.82048 53.70672
# Shear Modulus (GPa) = 28.26958 42.21174 35.24066
#
# Velocity S-wave (km/s) = 3.42048 4.17969 3.81900
# Velocity P-wave (km/s) = 6.01035 6.87189 6.45551
#
# Compressibility (1/GPa) = 0.02016415
#
# Stress axis : x y z
#
# Youngs Moduli (GPa) = 66.32698 95.65875 87.79841
#
# Poissons Ratio (x) = 0.12618 0.48161
# Poissons Ratio (y) = 0.08749 0.13817
# Poissons Ratio (z) = 0.36383 0.15054
#
# Static dielectric constant tensor:
#      x y z
#    x 1.953060 -0.020100 -0.088910 
#    y -0.020100 2.002730 0.050220 
#    z -0.088910 0.050220 1.965890 
# 
# From -- ./inp_files/461606.got.cif
#   From: 2010.05.17/outbox.cif.g08.bks.cpg/sg2_231_cif.got.tgz:461606.got - 2010.06.03 11:33:40.
