data_PCOD9046756
_publ_section_title
;
Structure prediction by ZEFSAII (Michael W. Deem and Ramdas Pophale) SiO2 
 PCOD9046756
Probable space group: P -1
;
_chemical_formula_sum "Si O2"
_cell_formula_units_Z 14
_cell_length_a 24.225964
_cell_length_b 5.136792
_cell_length_c 4.770097
_cell_angle_alpha 103.930700
_cell_angle_beta 89.849641
_cell_angle_gamma 68.202102
_cell_volume 532.158025
_symmetry_space_group_name_H-M "P -1"
_symmetry_group_IT_number 2
_symmetry_cell_setting 'triclinic'
loop_
_space_group_symop_operation_xyz
x,y,z
-x,-y,-z
loop_
_atom_site_type_symbol
_atom_site_label
_atom_site_fract_x
_atom_site_fract_y
_atom_site_fract_z
Si Si1 0.936940 0.198232 0.921268
Si Si2 0.738850 0.671173 0.476086
Si Si3 0.726441 0.002046 0.049739
Si Si4 0.541554 0.680268 0.012319
Si Si5 0.626870 0.506946 0.458853
Si Si6 0.058717 0.281227 0.612666
Si Si7 0.836055 0.130873 0.311107
O O1 0.939389 0.517322 0.057276
O O2 0.884786 0.155905 0.094336
O O3 0.940153 0.042381 0.578274
O O4 0.000000 0.000000 0.000000
O O5 0.680462 0.613175 0.539863
O O6 0.801299 0.440909 0.532106
O O7 0.740815 0.709084 0.153593
O O8 0.727867 0.969984 0.710621
O O9 0.662150 0.206785 0.219142
O O10 0.780409 0.095038 0.153966
O O11 0.423513 0.298914 0.703762
O O12 0.500000 0.500000 0.000000
O O13 0.591973 0.511657 0.741530
O O14 0.500000 0.000000 0.000000
O O15 0.000000 0.500000 0.500000
O O16 0.131410 0.143743 0.556849
#
# Coordination Sequence:
#
# PCOD9046756 Si02
#       7
#     2   2   2   2   2   2   2
#     4  10  24  43  67  98 141 187 244 311 392 483
#     4  11  26  46  76 106 149 201 258 328 386 465
#     4  11  26  46  76 106 149 201 258 328 386 465
#     4  12  28  48  80 120 163 210 261 322 391 474
#     4  11  26  48  76 112 156 210 259 320 391 464
#     4  10  24  43  67  98 141 187 244 311 392 483
#     4  11  26  40  70 104 143 188 254 320 398 476
#
# _framework density 26.307977999999999
#
# number of rings (size 3 to 8) (size 9 to 14) (size 15 to 20)
#    0.000    1.143    0.000    3.429   14.000    6.857 
#    0.000    0.000    0.000    0.000    0.000    0.000 
#    0.000    0.000    0.000    0.000    0.000    0.000 
#
# Total GULP energy -77992.769176 kJ/mol
# GULP energy per Si atom -5570.912084 kJ/mol
# Density = 2.624810 g / cm^3
# Si number density = 26.307978 Si / 1000 Ang^3
#
#
#
# Elastic Constant Matrix: (Units=GPa)
#
#
# Indices 1 2 3 4 5 6 
#
# 1 137.0529 55.2662 47.7582 2.9410 -45.7755 14.7152
# 2 55.2662 100.1185 26.2070 12.0511 -0.4499 -11.8978
# 3 47.7582 26.2070 150.8136 5.6324 2.6185 18.3216
# 4 2.9410 12.0511 5.6324 39.2744 10.2277 2.7455
# 5 -45.7755 -0.4499 2.6185 10.2277 50.6823 -4.0888
# 6 14.7152 -11.8978 18.3216 2.7455 -4.0888 44.2425
#
#
#
# Elastic Compliance Matrix: (Units=1/GPa)
#
#
# Indices 1 2 3 4 5 6 
#
# 1 0.019006 -0.009848 -0.003845 -0.001936 0.017210 -0.005667
# 2 -0.009848 0.016744 -0.000457 -0.002893 -0.007537 0.007450
# 3 -0.003845 -0.000457 0.008311 0.000528 -0.004232 -0.002709
# 4 -0.001936 -0.002893 0.000528 0.028653 -0.007814 -0.002853
# 5 0.017210 -0.007537 -0.004232 -0.007814 0.036833 -0.002110
# 6 -0.005667 0.007450 -0.002709 -0.002853 -0.002110 0.027595
#
#
# Mechanical properties :
#
#
# Convention : Reuss Voigt Hill
#
# Bulk Modulus (GPa) = 63.45493 71.82753 67.64123
# Shear Modulus (GPa) = 29.29193 44.09008 36.69101
#
# Velocity S-wave (km/s) = 3.34042 4.09824 3.73858
# Velocity P-wave (km/s) = 6.24902 7.05379 6.66357
#
# Compressibility (1/GPa) = 0.01575922
#
# Stress axis : x y z
#
# Youngs Moduli (GPa) = 52.61565 59.72429 120.32523
#
# Poissons Ratio (x) = 0.58815 0.46270
# Poissons Ratio (y) = 0.51815 0.05502
# Poissons Ratio (z) = 0.20233 0.02731
#
# Static dielectric constant tensor:
#      x y z
#    x 2.013120 0.015260 0.053760 
#    y 0.015260 2.341530 0.021080 
#    z 0.053760 0.021080 2.096510 
# 
# From -- ./inp_files/121882.got.cif
#   From: 2010.05.17/outbox.cif.g08.bks.cpg/sg2_61_cif.got.tgz:121882.got - 2010.06.03 11:33:40.
