data_PCOD9046770
_publ_section_title
;
Structure prediction by ZEFSAII (Michael W. Deem and Ramdas Pophale) SiO2 
 PCOD9046770
Probable space group: P -1
;
_chemical_formula_sum "Si O2"
_cell_formula_units_Z 16
_cell_length_a 20.306248
_cell_length_b 9.318637
_cell_length_c 17.006912
_cell_angle_alpha 37.827053
_cell_angle_beta 161.208839
_cell_angle_gamma 141.198523
_cell_volume 627.582245
_symmetry_space_group_name_H-M "P -1"
_symmetry_group_IT_number 2
_symmetry_cell_setting 'triclinic'
loop_
_space_group_symop_operation_xyz
x,y,z
-x,-y,-z
loop_
_atom_site_type_symbol
_atom_site_label
_atom_site_fract_x
_atom_site_fract_y
_atom_site_fract_z
Si Si1 0.130421 0.859962 0.993705
Si Si2 0.168380 0.648620 0.682277
Si Si3 0.433121 0.531796 0.518074
Si Si4 0.509126 0.996034 0.196165
Si Si5 0.056905 0.999361 0.667598
Si Si6 0.804012 0.526992 0.564100
Si Si7 0.529001 0.730037 0.804575
Si Si8 0.886978 0.804030 0.895825
O O1 0.234428 0.621784 0.214679
O O2 0.322644 0.049829 0.161706
O O3 0.075526 0.932164 0.812306
O O4 0.951271 0.872039 0.849266
O O5 0.000000 0.500000 0.500000
O O6 0.301608 0.882231 0.694344
O O7 0.336865 0.480909 0.961255
O O8 0.026233 0.752285 0.540235
O O9 0.473459 0.274703 0.645936
O O10 0.364501 0.497673 0.545844
O O11 0.642631 0.721341 0.665582
O O12 0.501730 0.172993 0.184933
O O13 0.290056 0.994889 0.906131
O O14 0.888238 0.799002 0.526648
O O15 0.692890 0.363271 0.441289
O O16 0.002666 0.421944 0.863919
O O17 0.000000 0.000000 0.000000
#
# Coordination Sequence:
#
# PCOD9046770 Si02
#       8
#     2   2   2   2   2   2   2   2
#     4  10  24  43  68 100 135 181 228 277 331 408
#     4  12  24  47  74  99 133 178 227 292 336 392
#     4  11  23  44  70  99 142 178 227 275 334 408
#     4  11  24  46  71 104 128 178 233 279 327 410
#     4  11  24  45  68  99 136 178 228 280 337 399
#     4  11  24  47  63 100 146 174 218 285 339 405
#     4  11  25  45  71 100 138 175 231 283 340 398
#     4  11  23  41  69 101 141 184 223 277 344 398
#
# _framework density 25.494665999999999
#
# number of rings (size 3 to 8) (size 9 to 14) (size 15 to 20)
#    0.000    1.000    5.000    1.875    0.000    9.500 
#    4.500    0.625    0.000    0.000    0.000    0.000 
#    0.000    0.000    0.000    0.000    0.000    0.000 
#
# Total GULP energy -89636.757182 kJ/mol
# GULP energy per Si atom -5602.297324 kJ/mol
# Density = 2.543664 g / cm^3
# Si number density = 25.494666 Si / 1000 Ang^3
#
#
#
# Elastic Constant Matrix: (Units=GPa)
#
#
# Indices 1 2 3 4 5 6 
#
# 1 84.2226 30.6479 44.9307 19.7003 11.2429 -9.7884
# 2 30.6479 132.8415 41.5978 18.9999 9.1472 -10.2957
# 3 44.9307 41.5978 148.4206 5.9776 19.0764 -0.3116
# 4 19.7003 18.9999 5.9776 65.3584 -0.0525 14.4435
# 5 11.2429 9.1472 19.0764 -0.0525 40.8817 10.6295
# 6 -9.7884 -10.2957 -0.3116 14.4435 10.6295 25.6516
#
#
#
# Elastic Compliance Matrix: (Units=1/GPa)
#
#
# Indices 1 2 3 4 5 6 
#
# 1 0.018933 -0.000132 -0.004422 -0.008545 -0.006978 0.014821
# 2 -0.000132 0.009594 -0.002068 -0.004201 -0.003079 0.007417
# 3 -0.004422 -0.002068 0.008805 0.001715 -0.001736 -0.002657
# 4 -0.008545 -0.004201 0.001715 0.023736 0.008155 -0.021670
# 5 -0.006978 -0.003079 -0.001736 0.008155 0.033737 -0.022491
# 6 0.014821 0.007417 -0.002657 -0.021670 -0.022491 0.069106
#
#
# Mechanical properties :
#
#
# Convention : Reuss Voigt Hill
#
# Bulk Modulus (GPa) = 41.51758 66.64860 54.08309
# Shear Modulus (GPa) = 27.00003 42.93222 34.96612
#
# Velocity S-wave (km/s) = 3.25783 4.10807 3.70740
# Velocity P-wave (km/s) = 5.52009 6.97858 6.29174
#
# Compressibility (1/GPa) = 0.02408618
#
# Stress axis : x y z
#
# Youngs Moduli (GPa) = 52.81671 104.23590 113.57627
#
# Poissons Ratio (x) = 0.01375 0.50229
# Poissons Ratio (y) = 0.00697 0.23492
# Poissons Ratio (z) = 0.23358 0.21560
#
# Static dielectric constant tensor:
#      x y z
#    x 2.064030 0.022580 -0.004390 
#    y 0.022580 2.022520 -0.045440 
#    z -0.004390 -0.045440 2.027630 
# 
# From -- ./inp_files/577569.got.cif
#   From: 2010.05.17/outbox.cif.g08.bks.cpg/sg2_289_cif.got.tgz:577569.got - 2010.06.03 11:33:40.
