data_PCOD9046448
_publ_section_title
;
Structure prediction by ZEFSAII (Michael W. Deem and Ramdas Pophale) SiO2 
 PCOD9046448
Probable space group: P -1
;
_chemical_formula_sum "Si O2"
_cell_formula_units_Z 16
_cell_length_a 19.035080
_cell_length_b 6.774908
_cell_length_c 9.661576
_cell_angle_alpha 133.140567
_cell_angle_beta 51.082296
_cell_angle_gamma 119.778858
_cell_volume 702.409410
_symmetry_space_group_name_H-M "P -1"
_symmetry_group_IT_number 2
_symmetry_cell_setting 'triclinic'
loop_
_space_group_symop_operation_xyz
x,y,z
-x,-y,-z
loop_
_atom_site_type_symbol
_atom_site_label
_atom_site_fract_x
_atom_site_fract_y
_atom_site_fract_z
Si Si1 0.664381 0.137265 0.338670
Si Si2 0.912762 0.580621 0.065551
Si Si3 0.002695 0.462916 0.642269
Si Si4 0.690706 0.510918 0.980085
Si Si5 0.172487 0.820046 0.206194
Si Si6 0.815677 0.623291 0.464500
Si Si7 0.566497 0.267661 0.794044
Si Si8 0.445242 0.737008 0.736268
O O1 0.744365 0.366834 0.396541
O O2 0.587778 0.168996 0.566272
O O3 0.622312 0.193559 0.269101
O O4 0.694117 0.834074 0.151159
O O5 0.841622 0.314682 0.990907
O O6 0.952744 0.665742 0.904526
O O7 0.858343 0.737985 0.318160
O O8 0.000000 0.500000 0.000000
O O9 0.066834 0.810127 0.375881
O O10 0.102536 0.451449 0.574516
O O11 0.000000 0.500000 0.500000
O O12 0.780973 0.387100 0.854926
O O13 0.658660 0.397499 0.816010
O O14 0.613258 0.373405 0.113716
O O15 0.223311 0.119673 0.295084
O O16 0.516215 0.001578 0.803322
O O17 0.500000 0.500000 0.000000
O O18 0.500000 0.500000 0.500000
#
# Coordination Sequence:
#
# PCOD9046448 Si02
#       8
#     2   2   2   2   2   2   2   2
#     4  12  28  46  69 109 148 181 236 297 346 423
#     4   8  19  40  66  95 131 181 228 277 341 406
#     4   9  21  45  67 103 140 181 229 293 342 410
#     4  12  27  48  68 108 146 184 236 290 352 427
#     4  10  24  42  72  99 140 182 241 279 345 415
#     4  11  23  44  72  99 138 190 235 285 348 413
#     4  12  26  47  76 102 142 187 236 288 360 423
#     4  12  25  49  77  99 141 187 234 292 357 416
#
# _framework density 22.778738000000001
#
# number of rings (size 3 to 8) (size 9 to 14) (size 15 to 20)
#    0.750    0.500    2.500    2.625    5.250    2.000 
#    0.000    1.250    0.000    0.000    0.000    0.000 
#    0.000    0.000    0.000    0.000    0.000    0.000 
#
# Total GULP energy -89281.615548 kJ/mol
# GULP energy per Si atom -5580.100972 kJ/mol
# Density = 2.272689 g / cm^3
# Si number density = 22.778738 Si / 1000 Ang^3
#
#
#
# Elastic Constant Matrix: (Units=GPa)
#
#
# Indices 1 2 3 4 5 6 
#
# 1 128.3049 27.7115 36.5691 27.5376 15.4183 6.3321
# 2 27.7115 67.3543 28.7879 20.8398 5.6175 5.0575
# 3 36.5691 28.7879 85.9615 10.1477 17.5644 -6.4365
# 4 27.5376 20.8398 10.1477 59.3973 -1.4225 13.6441
# 5 15.4183 5.6175 17.5644 -1.4225 43.8548 4.0152
# 6 6.3321 5.0575 -6.4365 13.6441 4.0152 28.4129
#
#
#
# Elastic Compliance Matrix: (Units=1/GPa)
#
#
# Indices 1 2 3 4 5 6 
#
# 1 0.010010 -0.001555 -0.002919 -0.003507 -0.002208 -0.000619
# 2 -0.001555 0.019420 -0.005523 -0.004641 0.000320 -0.002178
# 3 -0.002919 -0.005523 0.016501 -0.001207 -0.005531 0.006733
# 4 -0.003507 -0.004641 -0.001207 0.022721 0.003976 -0.010138
# 5 -0.002208 0.000320 -0.005531 0.003976 0.026474 -0.006469
# 6 -0.000619 -0.002178 0.006733 -0.010138 -0.006469 0.043029
#
#
# Mechanical properties :
#
#
# Convention : Reuss Voigt Hill
#
# Bulk Modulus (GPa) = 38.55294 51.97308 45.26301
# Shear Modulus (GPa) = 29.97704 38.90316 34.44010
#
# Velocity S-wave (km/s) = 3.63162 4.13712 3.89259
# Velocity P-wave (km/s) = 5.87764 6.75922 6.33379
#
# Compressibility (1/GPa) = 0.02593836
#
# Stress axis : x y z
#
# Youngs Moduli (GPa) = 99.89580 51.49347 60.60213
#
# Poissons Ratio (x) = 0.08008 0.17689
# Poissons Ratio (y) = 0.15536 0.33468
# Poissons Ratio (z) = 0.29158 0.28437
#
# Static dielectric constant tensor:
#      x y z
#    x 1.817440 0.030760 -0.016880 
#    y 0.030760 1.899460 -0.059530 
#    z -0.016880 -0.059530 1.844990 
# 
# From -- ./inp_files/340738.got.cif
#   From: 2010.05.17/outbox.cif.g08.bks.cpg/sg2_171_cif.got.tgz:340738.got - 2010.06.03 11:33:40.
