data_PCOD9046474
_publ_section_title
;
Structure prediction by ZEFSAII (Michael W. Deem and Ramdas Pophale) SiO2 
 PCOD9046474
Probable space group: P -1
;
_chemical_formula_sum "Si O2"
_cell_formula_units_Z 15
_cell_length_a 5.154055
_cell_length_b 21.634012
_cell_length_c 21.952016
_cell_angle_alpha 162.074814
_cell_angle_beta 58.564793
_cell_angle_gamma 126.984633
_cell_volume 588.749209
_symmetry_space_group_name_H-M "P -1"
_symmetry_group_IT_number 2
_symmetry_cell_setting 'triclinic'
loop_
_space_group_symop_operation_xyz
x,y,z
-x,-y,-z
loop_
_atom_site_type_symbol
_atom_site_label
_atom_site_fract_x
_atom_site_fract_y
_atom_site_fract_z
Si Si1 0.695759 0.230933 0.511159
Si Si2 0.379885 0.660102 0.593508
Si Si3 0.493003 0.030550 0.827154
Si Si4 0.240766 0.165631 0.816022
Si Si5 0.244316 0.400949 0.786404
Si Si6 0.511885 0.762745 0.279680
Si Si7 0.325510 0.644607 0.793891
Si Si8 0.500000 0.000000 0.000000
O O1 0.366643 0.277251 0.603710
O O2 0.981263 0.472497 0.701251
O O3 0.722578 0.096364 0.322434
O O4 0.712798 0.063280 0.402420
O O5 0.541258 0.507974 0.402541
O O6 0.000000 0.500000 0.500000
O O7 0.415133 0.838188 0.704973
O O8 0.516292 0.795469 0.765372
O O9 0.871179 0.118367 0.839263
O O10 0.455418 0.225267 0.052736
O O11 0.332038 0.258139 0.823562
O O12 0.502101 0.347772 0.998973
O O13 0.280161 0.279789 0.730747
O O14 0.879728 0.387156 0.807219
O O15 0.500000 0.000000 0.500000
O O16 0.335003 0.829738 0.918522
#
# Coordination Sequence:
#
# PCOD9046474 Si02
#       8
#     2   2   2   2   2   2   2   1
#     4  12  26  45  76 103 150 199 247 318 377 454
#     4  11  24  45  71 105 143 187 238 305 373 451
#     4  11  26  44  71 108 144 193 250 302 382 449
#     4  12  26  46  73 107 148 198 256 309 384 452
#     4  12  28  48  75 112 152 204 258 325 381 457
#     4  12  26  48  77 107 154 202 259 318 391 449
#     4  11  24  48  69 107 148 187 246 306 373 457
#     4  10  24  42  74 102 138 184 236 288 368 446
#
# _framework density 25.477741000000002
#
# number of rings (size 3 to 8) (size 9 to 14) (size 15 to 20)
#    0.000    0.533    4.000    3.200    3.733    4.267 
#    0.000    0.000    0.000    0.000    0.000    0.000 
#    0.000    0.000    0.000    0.000    0.000    0.000 
#
# Total GULP energy -83761.875764 kJ/mol
# GULP energy per Si atom -5584.125051 kJ/mol
# Density = 2.541975 g / cm^3
# Si number density = 25.477741 Si / 1000 Ang^3
#
#
#
# Elastic Constant Matrix: (Units=GPa)
#
#
# Indices 1 2 3 4 5 6 
#
# 1 47.1852 17.7507 27.7076 -5.7056 -6.4328 5.9505
# 2 17.7507 114.3239 47.1718 -9.2111 -6.1284 -2.9163
# 3 27.7076 47.1718 188.9923 -19.1415 -5.8712 1.4201
# 4 -5.7056 -9.2111 -19.1415 52.4900 0.9851 0.1904
# 5 -6.4328 -6.1284 -5.8712 0.9851 31.9890 -6.0723
# 6 5.9505 -2.9163 1.4201 0.1904 -6.0723 41.5412
#
#
#
# Elastic Compliance Matrix: (Units=1/GPa)
#
#
# Indices 1 2 3 4 5 6 
#
# 1 0.024753 -0.002511 -0.002753 0.001194 0.003358 -0.003143
# 2 -0.002511 0.010149 -0.002061 0.000727 0.001291 0.001328
# 3 -0.002753 -0.002061 0.006383 0.001663 0.000181 0.000050
# 4 0.001194 0.000727 0.001663 0.019916 0.000021 -0.000265
# 5 0.003358 0.001291 0.000181 0.000021 0.033058 0.004436
# 6 -0.003143 0.001328 0.000050 -0.000265 0.004436 0.025264
#
#
# Mechanical properties :
#
#
# Convention : Reuss Voigt Hill
#
# Bulk Modulus (GPa) = 37.54632 59.52905 48.53769
# Shear Modulus (GPa) = 34.95231 42.39546 38.67388
#
# Velocity S-wave (km/s) = 3.70790 4.08366 3.90031
# Velocity P-wave (km/s) = 5.75329 6.75655 6.27500
#
# Compressibility (1/GPa) = 0.02663377
#
# Stress axis : x y z
#
# Youngs Moduli (GPa) = 40.39909 98.53038 156.66492
#
# Poissons Ratio (x) = 0.24743 0.43134
# Poissons Ratio (y) = 0.10145 0.32293
# Poissons Ratio (z) = 0.11123 0.20310
#
# Static dielectric constant tensor:
#      x y z
#    x 2.016950 -0.050120 0.031820 
#    y -0.050120 1.807060 -0.003410 
#    z 0.031820 -0.003410 1.999090 
# 
# From -- ./inp_files/584312.got.cif
#   From: 2010.05.17/outbox.cif.g08.bks.cpg/sg2_293_cif.got.tgz:584312.got - 2010.06.03 11:33:40.
