data_PCOD9046708
_publ_section_title
;
Structure prediction by ZEFSAII (Michael W. Deem and Ramdas Pophale) SiO2 
 PCOD9046708
Probable space group: P -1
;
_chemical_formula_sum "Si O2"
_cell_formula_units_Z 14
_cell_length_a 13.916176
_cell_length_b 5.111020
_cell_length_c 10.432271
_cell_angle_alpha 50.473577
_cell_angle_beta 71.301502
_cell_angle_gamma 70.918479
_cell_volume 534.400185
_symmetry_space_group_name_H-M "P -1"
_symmetry_group_IT_number 2
_symmetry_cell_setting 'triclinic'
loop_
_space_group_symop_operation_xyz
x,y,z
-x,-y,-z
loop_
_atom_site_type_symbol
_atom_site_label
_atom_site_fract_x
_atom_site_fract_y
_atom_site_fract_z
Si Si1 0.112305 0.483538 0.567123
Si Si2 0.391135 0.380166 0.563490
Si Si3 0.437630 0.578024 0.132403
Si Si4 0.049896 0.968553 0.233960
Si Si5 0.852538 0.571414 0.136508
Si Si6 0.296705 0.126626 0.435870
Si Si7 0.367086 0.315231 0.868138
O O1 0.159519 0.395981 0.715155
O O2 0.184645 0.253690 0.502937
O O3 0.097684 0.861812 0.387852
O O4 0.001473 0.365863 0.669690
O O5 0.500000 0.500000 0.500000
O O6 0.369229 0.175415 0.511938
O O7 0.374250 0.176961 0.762552
O O8 0.315780 0.750112 0.485741
O O9 0.343270 0.373135 0.241461
O O10 0.533738 0.504956 0.211759
O O11 0.500000 0.500000 0.000000
O O12 0.387708 0.975663 0.051115
O O13 0.951522 0.272806 0.178699
O O14 0.123321 0.093542 0.056181
O O15 0.748986 0.483316 0.141208
#
# Coordination Sequence:
#
# PCOD9046708 Si02
#       7
#     2   2   2   2   2   2   2
#     4  11  23  43  69 100 139 183 238 297 359 428
#     4  12  24  44  69 102 140 189 235 291 343 431
#     4  11  26  44  65 101 143 188 228 300 349 433
#     4  10  24  43  67 103 136 179 242 296 366 421
#     4  11  22  44  70  98 138 184 233 300 359 432
#     4  12  26  44  73 103 142 187 241 286 361 428
#     4  11  24  41  67  98 140 182 240 284 359 425
#
# _framework density 26.197596000000001
#
# number of rings (size 3 to 8) (size 9 to 14) (size 15 to 20)
#    0.000    0.857    2.857    3.857    4.000    1.143 
#    0.000    2.857    0.000    0.000    0.000    0.000 
#    0.000    0.000    0.000    0.000    0.000    0.000 
#
# Total GULP energy -78197.715241 kJ/mol
# GULP energy per Si atom -5585.551089 kJ/mol
# Density = 2.613797 g / cm^3
# Si number density = 26.197596 Si / 1000 Ang^3
#
#
#
# Elastic Constant Matrix: (Units=GPa)
#
#
# Indices 1 2 3 4 5 6 
#
# 1 133.0739 -0.8306 49.5849 1.4422 11.2883 -18.0363
# 2 -0.8306 51.9840 29.0332 -6.1567 20.2227 -15.2471
# 3 49.5849 29.0332 166.7550 -3.3515 -10.5237 -8.7234
# 4 1.4422 -6.1567 -3.3515 42.5965 -3.3029 8.4744
# 5 11.2883 20.2227 -10.5237 -3.3029 47.9963 -1.4971
# 6 -18.0363 -15.2471 -8.7234 8.4744 -1.4971 38.9027
#
#
#
# Elastic Compliance Matrix: (Units=1/GPa)
#
#
# Indices 1 2 3 4 5 6 
#
# 1 0.010684 0.006905 -0.004454 -0.001546 -0.006294 0.006755
# 2 0.006905 0.035364 -0.008589 -0.000068 -0.017961 0.014459
# 3 -0.004454 -0.008589 0.009076 0.000795 0.006608 -0.003315
# 4 -0.001546 -0.000068 0.000795 0.024920 0.002097 -0.005913
# 5 -0.006294 -0.017961 0.006608 0.002097 0.031235 -0.007731
# 6 0.006755 0.014459 -0.003315 -0.005913 -0.007731 0.034751
#
#
# Mechanical properties :
#
#
# Convention : Reuss Voigt Hill
#
# Bulk Modulus (GPa) = 23.33807 56.37642 39.85725
# Shear Modulus (GPa) = 28.97068 44.16746 36.56907
#
# Velocity S-wave (km/s) = 3.32904 4.11047 3.74022
# Velocity P-wave (km/s) = 4.86873 6.64036 5.82232
#
# Compressibility (1/GPa) = 0.04284844
#
# Stress axis : x y z
#
# Youngs Moduli (GPa) = 93.60168 28.27731 110.17887
#
# Poissons Ratio (x) = -0.19526 0.49073
# Poissons Ratio (y) = -0.64633 0.94631
# Poissons Ratio (z) = 0.41689 0.24287
#
# Static dielectric constant tensor:
#      x y z
#    x 2.152890 0.016780 0.058110 
#    y 0.016780 2.098870 0.037960 
#    z 0.058110 0.037960 2.230320 
# 
# From -- ./inp_files/55115.got.cif
#   From: 2010.05.17/outbox.cif.g08.bks.cpg/sg2_28_cif.got.tgz:55115.got - 2010.06.03 11:33:40.
