data_PCOD9046163
_publ_section_title
;
Structure prediction by ZEFSAII (Michael W. Deem and Ramdas Pophale) SiO2 
 PCOD9046163
Probable space group: P -1
;
_chemical_formula_sum "Si O2"
_cell_formula_units_Z 14
_cell_length_a 14.449039
_cell_length_b 12.543261
_cell_length_c 5.863067
_cell_angle_alpha 61.031651
_cell_angle_beta 101.940134
_cell_angle_gamma 136.619141
_cell_volume 619.635144
_symmetry_space_group_name_H-M "P -1"
_symmetry_group_IT_number 2
_symmetry_cell_setting 'triclinic'
loop_
_space_group_symop_operation_xyz
x,y,z
-x,-y,-z
loop_
_atom_site_type_symbol
_atom_site_label
_atom_site_fract_x
_atom_site_fract_y
_atom_site_fract_z
Si Si1 0.674046 0.801533 0.720142
Si Si2 0.368630 0.738513 0.094243
Si Si3 0.671743 0.025183 0.153791
Si Si4 0.194777 0.465726 0.686771
Si Si5 0.880156 0.137813 0.756380
Si Si6 0.924686 0.425333 0.282503
Si Si7 0.626597 0.502815 0.930092
O O1 0.538036 0.649386 0.960369
O O2 0.646242 0.894068 0.457276
O O3 0.802828 0.951959 0.793635
O O4 0.684921 0.688812 0.692860
O O5 0.278688 0.630346 0.386236
O O6 0.534245 0.900646 0.053547
O O7 0.323171 0.831398 0.895811
O O8 0.346482 0.589385 0.112319
O O9 0.803622 0.108678 0.980709
O O10 0.157881 0.527208 0.801712
O O11 0.295106 0.455167 0.837171
O O12 0.045409 0.276663 0.722844
O O13 0.858226 0.230170 0.476350
O O14 0.000000 0.500000 0.500000
O O15 0.000000 0.500000 0.000000
#
# Coordination Sequence:
#
# PCOD9046163 Si02
#       7
#     2   2   2   2   2   2   2
#     4  11  26  45  68  99 140 191 236 290 364 442
#     4  11  24  43  70 106 139 178 237 297 364 424
#     4  11  24  43  70 106 139 178 237 297 364 424
#     4  11  25  42  69 105 140 182 234 298 365 430
#     4  11  25  42  69 105 140 182 234 298 365 430
#     4  10  24  42  68 106 152 192 231 296 381 442
#     4  11  26  45  68  99 140 191 236 290 364 442
#
# _framework density 22.593941999999998
#
# number of rings (size 3 to 8) (size 9 to 14) (size 15 to 20)
#    0.000    1.143    4.286    0.000   10.000    2.857 
#    0.000    1.429    0.000    0.000    0.000    0.000 
#    0.000    0.000    0.000    0.000    0.000    0.000 
#
# Total GULP energy -78093.517279 kJ/mol
# GULP energy per Si atom -5578.108377 kJ/mol
# Density = 2.254252 g / cm^3
# Si number density = 22.593942 Si / 1000 Ang^3
#
#
#
# Elastic Constant Matrix: (Units=GPa)
#
#
# Indices 1 2 3 4 5 6 
#
# 1 59.6214 32.1247 7.0200 -8.2746 12.5746 -5.5290
# 2 32.1247 99.0920 23.5367 -22.6147 21.0956 -14.5232
# 3 7.0200 23.5367 60.4036 -16.4113 -1.0650 -19.0255
# 4 -8.2746 -22.6147 -16.4113 28.1961 -6.9211 -1.5682
# 5 12.5746 21.0956 -1.0650 -6.9211 37.6332 -11.6200
# 6 -5.5290 -14.5232 -19.0255 -1.5682 -11.6200 52.3881
#
#
#
# Elastic Compliance Matrix: (Units=1/GPa)
#
#
# Indices 1 2 3 4 5 6 
#
# 1 0.020751 -0.005862 -0.000195 0.000353 -0.003685 -0.000313
# 2 -0.005862 0.015862 -0.002697 0.008347 -0.004866 0.001970
# 3 -0.000195 -0.002697 0.025268 0.015142 0.008387 0.010722
# 4 0.000353 0.008347 0.015142 0.053950 0.009099 0.011483
# 5 -0.003685 -0.004866 0.008387 0.009099 0.035351 0.009422
# 6 -0.000313 0.001970 0.010722 0.011483 0.009422 0.025929
#
#
# Mechanical properties :
#
#
# Convention : Reuss Voigt Hill
#
# Bulk Modulus (GPa) = 22.53619 38.27555 30.40587
# Shear Modulus (GPa) = 23.87672 34.07253 28.97462
#
# Velocity S-wave (km/s) = 3.25433 3.88756 3.58496
# Velocity P-wave (km/s) = 4.91091 6.09329 5.53377
#
# Compressibility (1/GPa) = 0.04437308
#
# Stress axis : x y z
#
# Youngs Moduli (GPa) = 48.19048 63.04287 39.57628
#
# Poissons Ratio (x) = 0.36954 0.00772
# Poissons Ratio (y) = 0.28248 0.10674
# Poissons Ratio (z) = 0.00941 0.17002
#
# Static dielectric constant tensor:
#      x y z
#    x 1.878180 -0.004810 0.013590 
#    y -0.004810 1.989580 0.052270 
#    z 0.013590 0.052270 1.834090 
# 
# From -- ./inp_files/94460.got.cif
#   From: 2010.05.17/outbox.cif.g08.bks.cpg/sg2_48_cif.got.tgz:94460.got - 2010.06.03 11:33:40.
