data_PCOD9046141
_publ_section_title
;
Structure prediction by ZEFSAII (Michael W. Deem and Ramdas Pophale) SiO2 
 PCOD9046141
Probable space group: P -1
;
_chemical_formula_sum "Si O2"
_cell_formula_units_Z 16
_cell_length_a 26.139490
_cell_length_b 5.171902
_cell_length_c 9.533302
_cell_angle_alpha 96.735516
_cell_angle_beta 37.588225
_cell_angle_gamma 96.757784
_cell_volume 780.077741
_symmetry_space_group_name_H-M "P -1"
_symmetry_group_IT_number 2
_symmetry_cell_setting 'triclinic'
loop_
_space_group_symop_operation_xyz
x,y,z
-x,-y,-z
loop_
_atom_site_type_symbol
_atom_site_label
_atom_site_fract_x
_atom_site_fract_y
_atom_site_fract_z
Si Si1 0.049255 0.770731 0.447079
Si Si2 0.792996 0.158580 0.084697
Si Si3 0.308581 0.350886 0.695133
Si Si4 0.143306 0.536806 0.766969
Si Si5 0.978431 0.225281 0.170781
Si Si6 0.672420 0.631549 0.669246
Si Si7 0.429269 0.887717 0.037395
Si Si8 0.523597 0.770853 0.537908
O O1 0.052372 0.830728 0.609615
O O2 0.000000 0.500000 0.500000
O O3 0.138371 0.777746 0.177774
O O4 0.000000 0.000000 0.500000
O O5 0.717474 0.349759 0.224279
O O6 0.824976 0.245097 0.176114
O O7 0.769024 0.853542 0.125734
O O8 0.340371 0.319460 0.465238
O O9 0.378932 0.253825 0.639133
O O10 0.094925 0.627455 0.739986
O O11 0.227183 0.390657 0.534279
O O12 0.068160 0.379565 0.000135
O O13 0.000000 0.000000 0.000000
O O14 0.623689 0.362060 0.801551
O O15 0.632751 0.878159 0.844239
O O16 0.474696 0.805708 0.791868
O O17 0.500000 0.000000 0.000000
O O18 0.500000 0.500000 0.500000
O O19 0.500000 0.000000 0.500000
#
# Coordination Sequence:
#
# PCOD9046141 Si02
#       8
#     2   2   2   2   2   2   2   2
#     4  12  25  45  69  99 136 184 234 279 339 413
#     4  11  23  43  72 100 134 182 238 281 335 421
#     4  11  24  44  73 100 135 182 233 279 347 411
#     4  10  24  42  68 101 138 182 229 289 358 396
#     4  11  25  44  69 101 143 182 233 290 355 409
#     4  11  24  42  75 103 137 176 241 291 334 410
#     4  12  25  45  74 105 134 181 238 284 338 413
#     4  12  27  47  70 101 146 184 222 281 360 414
#
# _framework density 20.510774000000001
#
# number of rings (size 3 to 8) (size 9 to 14) (size 15 to 20)
#    0.000    0.750    2.500    4.875   10.500    0.000 
#    6.750    0.000    0.000    0.000    0.000    0.000 
#    0.000    0.000    0.000    0.000    0.000    0.000 
#
# Total GULP energy -89422.160271 kJ/mol
# GULP energy per Si atom -5588.885017 kJ/mol
# Density = 2.046409 g / cm^3
# Si number density = 20.510774 Si / 1000 Ang^3
#
#
#
# Elastic Constant Matrix: (Units=GPa)
#
#
# Indices 1 2 3 4 5 6 
#
# 1 101.2337 34.4705 50.0780 0.1020 -9.5744 -5.7350
# 2 34.4705 111.0254 23.9356 -2.4177 1.1648 -6.0107
# 3 50.0780 23.9356 112.1528 6.8327 13.2775 0.0722
# 4 0.1020 -2.4177 6.8327 41.2252 -3.0604 2.4355
# 5 -9.5744 1.1648 13.2775 -3.0604 39.9887 5.6216
# 6 -5.7350 -6.0107 0.0722 2.4355 5.6216 24.7280
#
#
#
# Elastic Compliance Matrix: (Units=1/GPa)
#
#
# Indices 1 2 3 4 5 6 
#
# 1 0.014909 -0.003138 -0.006754 0.001256 0.005821 0.001268
# 2 -0.003138 0.010260 -0.000698 0.000531 -0.001053 0.001955
# 3 -0.006754 -0.000698 0.012960 -0.002616 -0.006081 -0.000134
# 4 0.001256 0.000531 -0.002616 0.025144 0.003477 -0.002839
# 5 0.005821 -0.001053 -0.006081 0.003477 0.029553 -0.005949
# 6 0.001268 0.001955 -0.000134 -0.002839 -0.005949 0.042842
#
#
# Mechanical properties :
#
#
# Convention : Reuss Voigt Hill
#
# Bulk Modulus (GPa) = 58.99487 60.15335 59.57411
# Shear Modulus (GPa) = 30.76980 35.58356 33.17668
#
# Velocity S-wave (km/s) = 3.87741 4.16970 4.02621
# Velocity P-wave (km/s) = 6.99079 7.25074 7.12195
#
# Compressibility (1/GPa) = 0.01695063
#
# Stress axis : x y z
#
# Youngs Moduli (GPa) = 67.07535 97.46565 77.15833
#
# Poissons Ratio (x) = 0.30583 0.52111
# Poissons Ratio (y) = 0.21047 0.05383
# Poissons Ratio (z) = 0.45301 0.06799
#
# Static dielectric constant tensor:
#      x y z
#    x 3.473980 0.913340 0.595420 
#    y 0.913340 2.234380 0.342760 
#    z 0.595420 0.342760 1.960380 
# 
# From -- ./inp_files/350758.got.cif
#   From: 2010.05.17/outbox.cif.g08.bks.cpg/sg2_176_cif.got.tgz:350758.got - 2010.06.03 11:33:40.
