data_PCOD9046557
_publ_section_title
;
Structure prediction by ZEFSAII (Michael W. Deem and Ramdas Pophale) SiO2 
 PCOD9046557
Probable space group: P -1
;
_chemical_formula_sum "Si O2"
_cell_formula_units_Z 16
_cell_length_a 11.921087
_cell_length_b 13.337108
_cell_length_c 11.054064
_cell_angle_alpha 32.376001
_cell_angle_beta 61.856286
_cell_angle_gamma 43.245470
_cell_volume 593.396030
_symmetry_space_group_name_H-M "P -1"
_symmetry_group_IT_number 2
_symmetry_cell_setting 'triclinic'
loop_
_space_group_symop_operation_xyz
x,y,z
-x,-y,-z
loop_
_atom_site_type_symbol
_atom_site_label
_atom_site_fract_x
_atom_site_fract_y
_atom_site_fract_z
Si Si1 0.730903 0.892158 0.252212
Si Si2 0.865549 0.363701 0.421825
Si Si3 0.628562 0.893972 0.857158
Si Si4 0.158684 0.561190 0.201547
Si Si5 0.654937 0.307972 0.419102
Si Si6 0.229758 0.758480 0.175983
Si Si7 0.550887 0.629167 0.917961
Si Si8 0.892049 0.599936 0.827902
O O1 0.578109 0.948342 0.193369
O O2 0.618685 0.109224 0.194909
O O3 0.850347 0.609636 0.535261
O O4 0.827166 0.965837 0.061384
O O5 0.793467 0.263722 0.482579
O O6 0.847536 0.309524 0.620961
O O7 0.058441 0.252311 0.408666
O O8 0.731972 0.666699 0.136667
O O9 0.698550 0.768826 0.813583
O O10 0.669693 0.070491 0.659817
O O11 0.176941 0.729048 0.101857
O O12 0.355509 0.345197 0.259119
O O13 0.053351 0.616919 0.074766
O O14 0.442501 0.552034 0.303768
O O15 0.676752 0.400194 0.189377
O O16 0.500000 0.500000 0.000000
O O17 0.000000 0.500000 0.000000
#
# Coordination Sequence:
#
# PCOD9046557 Si02
#       8
#     2   2   2   2   2   2   2   2
#     4  11  21  36  61 101 123 152 202 268 317 348
#     4  11  24  45  58  85 136 172 205 243 299 377
#     4  11  21  38  68  94 122 159 208 259 309 363
#     4  12  22  38  64  94 124 158 209 254 308 370
#     4  11  22  37  63  97 122 158 205 262 312 356
#     4  11  24  39  63  95 125 165 203 257 312 354
#     4  11  18  33  58  93 129 147 191 258 326 354
#     4  10  24  43  64  89 122 170 202 247 310 374
#
# _framework density 26.963443999999999
#
# number of rings (size 3 to 8) (size 9 to 14) (size 15 to 20)
#    0.000    1.000    7.500    1.500    1.750    2.500 
#    0.000    3.125    0.000    0.000    0.000    0.000 
#    0.000    0.000    0.000    0.000    0.000    0.000 
#
# Total GULP energy -89451.492967 kJ/mol
# GULP energy per Si atom -5590.718310 kJ/mol
# Density = 2.690207 g / cm^3
# Si number density = 26.963444 Si / 1000 Ang^3
#
#
#
# Elastic Constant Matrix: (Units=GPa)
#
#
# Indices 1 2 3 4 5 6 
#
# 1 139.6712 30.3812 36.8091 9.3822 -13.2029 28.6988
# 2 30.3812 54.0239 42.3175 25.4121 -4.4045 5.0087
# 3 36.8091 42.3175 184.2173 3.6873 -34.9163 8.6945
# 4 9.3822 25.4121 3.6873 51.8586 -6.5755 -15.2082
# 5 -13.2029 -4.4045 -34.9163 -6.5755 55.2173 0.4505
# 6 28.6988 5.0087 8.6945 -15.2082 0.4505 50.5675
#
#
#
# Elastic Compliance Matrix: (Units=1/GPa)
#
#
# Indices 1 2 3 4 5 6 
#
# 1 0.009404 -0.003786 -0.000440 -0.001154 0.001573 -0.005247
# 2 -0.003786 0.035440 -0.007724 -0.018400 -0.005109 -0.005522
# 3 -0.000440 -0.007724 0.008094 0.004151 0.004885 0.000828
# 4 -0.001154 -0.018400 0.004151 0.032138 0.004616 0.011388
# 5 0.001573 -0.005109 0.004885 0.004616 0.021718 -0.000032
# 6 -0.005247 -0.005522 0.000828 0.011388 -0.000032 0.026583
#
#
# Mechanical properties :
#
#
# Convention : Reuss Voigt Hill
#
# Bulk Modulus (GPa) = 34.43784 66.32534 50.38159
# Shear Modulus (GPa) = 29.94796 49.42232 39.68514
#
# Velocity S-wave (km/s) = 3.33631 4.28593 3.84058
# Velocity P-wave (km/s) = 5.25748 7.01027 6.19617
#
# Compressibility (1/GPa) = 0.02903783
#
# Stress axis : x y z
#
# Youngs Moduli (GPa) = 106.34177 28.21679 123.54344
#
# Poissons Ratio (x) = 0.10682 0.05441
# Poissons Ratio (y) = 0.40257 0.95425
# Poissons Ratio (z) = 0.04683 0.21795
#
# Static dielectric constant tensor:
#      x y z
#    x 2.239970 -0.080260 -0.064130 
#    y -0.080260 2.349470 0.105880 
#    z -0.064130 0.105880 2.218710 
# 
# From -- ./inp_files/429227.got.cif
#   From: 2010.05.17/outbox.cif.g08.bks.cpg/sg2_215_cif.got.tgz:429227.got - 2010.06.03 11:33:40.
