data_PCOD9046741
_publ_section_title
;
Structure prediction by ZEFSAII (Michael W. Deem and Ramdas Pophale) SiO2 
 PCOD9046741
Probable space group: P -1
;
_chemical_formula_sum "Si O2"
_cell_formula_units_Z 16
_cell_length_a 8.028358
_cell_length_b 5.296938
_cell_length_c 30.463094
_cell_angle_alpha 92.616305
_cell_angle_beta 144.397075
_cell_angle_gamma 73.530054
_cell_volume 682.425217
_symmetry_space_group_name_H-M "P -1"
_symmetry_group_IT_number 2
_symmetry_cell_setting 'triclinic'
loop_
_space_group_symop_operation_xyz
x,y,z
-x,-y,-z
loop_
_atom_site_type_symbol
_atom_site_label
_atom_site_fract_x
_atom_site_fract_y
_atom_site_fract_z
Si Si1 0.172111 0.807512 0.993495
Si Si2 0.294710 0.406810 0.135846
Si Si3 0.359282 0.987983 0.722765
Si Si4 0.563637 0.694834 0.679360
Si Si5 0.632448 0.209551 0.552206
Si Si6 0.035371 0.905437 0.144382
Si Si7 0.260967 0.614885 0.847681
Si Si8 0.653830 0.730089 0.414187
O O1 0.543344 0.637529 0.079414
O O2 0.999434 0.603500 0.952006
O O3 0.000000 0.000000 0.000000
O O4 0.100271 0.943577 0.930647
O O5 0.552876 0.121787 0.209974
O O6 0.132656 0.592899 0.145471
O O7 0.503119 0.464632 0.144067
O O8 0.433272 0.748536 0.700809
O O9 0.619986 0.104458 0.770847
O O10 0.995210 0.159823 0.636573
O O11 0.505956 0.437732 0.647730
O O12 0.930987 0.629602 0.760163
O O13 0.380367 0.986978 0.615437
O O14 0.500000 0.500000 0.500000
O O15 0.523999 0.196458 0.577851
O O16 0.500000 0.000000 0.500000
O O17 0.818941 0.097821 0.139170
O O18 0.000000 0.500000 0.500000
#
# Coordination Sequence:
#
# PCOD9046741 Si02
#       8
#     2   2   2   2   2   2   2   2
#     4  11  23  44  64  99 139 184 235 296 352 423
#     4  11  24  44  68  97 135 187 231 293 358 417
#     4  10  25  44  66  96 139 171 235 291 350 427
#     4  11  26  44  71 104 135 186 227 294 351 415
#     4  12  26  43  71 104 138 188 229 289 358 420
#     4  10  24  43  67  96 134 184 234 292 356 419
#     4  11  24  43  69 101 138 180 241 288 358 423
#     4  12  25  46  71 103 141 180 235 284 350 423
#
# _framework density 23.445795
#
# number of rings (size 3 to 8) (size 9 to 14) (size 15 to 20)
#    0.000    1.000    1.250    4.125    7.000    1.500 
#    4.500    0.000    0.000    0.000    0.000    0.000 
#    0.000    0.000    0.000    0.000    0.000    0.000 
#
# Total GULP energy -89222.202326 kJ/mol
# GULP energy per Si atom -5576.387645 kJ/mol
# Density = 2.339243 g / cm^3
# Si number density = 23.445795 Si / 1000 Ang^3
#
#
#
# Elastic Constant Matrix: (Units=GPa)
#
#
# Indices 1 2 3 4 5 6 
#
# 1 45.9580 -3.7758 4.9386 -16.5427 -13.9002 -12.9124
# 2 -3.7758 79.3775 27.1196 8.4207 -7.2186 -6.9637
# 3 4.9386 27.1196 118.9950 -21.7652 5.1925 -0.0883
# 4 -16.5427 8.4207 -21.7652 54.8227 -9.5279 -18.6363
# 5 -13.9002 -7.2186 5.1925 -9.5279 37.4087 -5.9124
# 6 -12.9124 -6.9637 -0.0883 -18.6363 -5.9124 37.7602
#
#
#
# Elastic Compliance Matrix: (Units=1/GPa)
#
#
# Indices 1 2 3 4 5 6 
#
# 1 0.070669 0.006778 0.002441 0.049243 0.048838 0.057372
# 2 0.006778 0.015320 -0.003729 0.002042 0.007673 0.007344
# 3 0.002441 -0.003729 0.010367 0.006887 0.001094 0.003741
# 4 0.049243 0.002042 0.006887 0.061131 0.041833 0.053952
# 5 0.048838 0.007673 0.001094 0.041833 0.064587 0.048877
# 6 0.057372 0.007344 0.003741 0.053952 0.048877 0.081746
#
#
# Mechanical properties :
#
#
# Convention : Reuss Voigt Hill
#
# Bulk Modulus (GPa) = 9.31649 33.43282 21.37465
# Shear Modulus (GPa) = 15.21522 40.40152 27.80837
#
# Velocity S-wave (km/s) = 2.55022 4.15563 3.44767
# Velocity P-wave (km/s) = 3.55721 6.10871 4.99850
#
# Compressibility (1/GPa) = 0.10733653
#
# Stress axis : x y z
#
# Youngs Moduli (GPa) = 14.15043 65.27487 96.46048
#
# Poissons Ratio (x) = -0.44246 -0.23542
# Poissons Ratio (y) = -0.09592 0.35967
# Poissons Ratio (z) = -0.03454 0.24339
#
# Static dielectric constant tensor:
#      x y z
#    x 1.910820 -0.049310 -0.005810 
#    y -0.049310 2.223500 -0.144850 
#    z -0.005810 -0.144850 2.060530 
# 
# From -- ./inp_files/622229.got.cif
#   From: 2010.05.17/outbox.cif.g08.bks.cpg/sg2_312_cif.got.tgz:622229.got - 2010.06.03 11:33:40.
