data_PCOD9046153
_publ_section_title
;
Structure prediction by ZEFSAII (Michael W. Deem and Ramdas Pophale) SiO2 
 PCOD9046153
Probable space group: P -1
;
_chemical_formula_sum "Si O2"
_cell_formula_units_Z 15
_cell_length_a 14.696370
_cell_length_b 6.686473
_cell_length_c 11.677129
_cell_angle_alpha 70.581536
_cell_angle_beta 131.946257
_cell_angle_gamma 129.296715
_cell_volume 652.188399
_symmetry_space_group_name_H-M "P -1"
_symmetry_group_IT_number 2
_symmetry_cell_setting 'triclinic'
loop_
_space_group_symop_operation_xyz
x,y,z
-x,-y,-z
loop_
_atom_site_type_symbol
_atom_site_label
_atom_site_fract_x
_atom_site_fract_y
_atom_site_fract_z
Si Si1 0.599908 0.286423 0.584785
Si Si2 0.000000 0.500000 0.000000
Si Si3 0.910024 0.533573 0.700121
Si Si4 0.161699 0.129721 0.780929
Si Si5 0.612380 0.930872 0.148039
Si Si6 0.535948 0.466448 0.709029
Si Si7 0.143997 0.084664 0.030663
Si Si8 0.165961 0.591349 0.588918
O O1 0.781383 0.443730 0.705796
O O2 0.544919 0.275107 0.668612
O O3 0.569666 0.466081 0.450639
O O4 0.500000 0.000000 0.500000
O O5 0.011651 0.477073 0.869043
O O6 0.885386 0.187304 0.974595
O O7 0.825046 0.367606 0.548008
O O8 0.004775 0.839222 0.689191
O O9 0.291167 0.091937 0.863421
O O10 0.179338 0.356051 0.674965
O O11 0.162094 0.208886 0.897454
O O12 0.520927 0.659534 0.191694
O O13 0.722663 0.154765 0.290098
O O14 0.500000 0.000000 0.000000
O O15 0.703847 0.729282 0.806874
O O16 0.000000 0.000000 0.000000
O O17 0.000000 0.500000 0.500000
#
# Coordination Sequence:
#
# PCOD9046153 Si02
#       8
#     2   1   2   2   2   2   2   2
#     4  11  24  44  68 101 139 189 238 304 374 445
#     4  10  24  42  68 104 136 182 240 298 362 438
#     4  11  23  44  72 100 142 184 244 306 366 435
#     4  11  26  46  70 107 143 191 251 305 366 448
#     4  12  28  48  72 107 152 197 246 311 378 446
#     4  11  25  43  69 101 144 185 244 302 373 444
#     4  11  25  44  71 101 141 191 239 309 369 441
#     4  12  26  44  75 106 145 196 249 306 370 446
#
# _framework density 22.999490000000002
#
# number of rings (size 3 to 8) (size 9 to 14) (size 15 to 20)
#    0.000    0.800    1.333    5.200    3.733    9.600 
#    0.000    0.000    0.000    0.000    0.000    0.000 
#    0.000    0.000    0.000    0.000    0.000    0.000 
#
# Total GULP energy -83647.139502 kJ/mol
# GULP energy per Si atom -5576.475967 kJ/mol
# Density = 2.294714 g / cm^3
# Si number density = 22.999490 Si / 1000 Ang^3
#
#
#
# Elastic Constant Matrix: (Units=GPa)
#
#
# Indices 1 2 3 4 5 6 
#
# 1 126.9759 14.2281 18.5131 -10.1892 0.2360 -1.7278
# 2 14.2281 66.9434 -4.0939 9.8717 6.9513 3.1884
# 3 18.5131 -4.0939 62.1610 -6.2322 -17.4673 -8.9276
# 4 -10.1892 9.8717 -6.2322 42.4741 5.6144 -6.4794
# 5 0.2360 6.9513 -17.4673 5.6144 43.3533 2.1150
# 6 -1.7278 3.1884 -8.9276 -6.4794 2.1150 33.6119
#
#
#
# Elastic Compliance Matrix: (Units=1/GPa)
#
#
# Indices 1 2 3 4 5 6 
#
# 1 0.008739 -0.002292 -0.002758 0.002447 -0.001131 0.000477
# 2 -0.002292 0.016394 0.000507 -0.004405 -0.001730 -0.002278
# 3 -0.002758 0.000507 0.019957 0.001924 0.007481 0.005011
# 4 0.002447 -0.004405 0.001924 0.026709 -0.002300 0.006348
# 5 -0.001131 -0.001730 0.007481 -0.002300 0.026663 -0.000028
# 6 0.000477 -0.002278 0.005011 0.006348 -0.000028 0.032549
#
#
# Mechanical properties :
#
#
# Convention : Reuss Voigt Hill
#
# Bulk Modulus (GPa) = 27.77419 34.81945 31.29682
# Shear Modulus (GPa) = 32.87361 39.05007 35.96184
#
# Velocity S-wave (km/s) = 3.78473 4.12499 3.95852
# Velocity P-wave (km/s) = 5.58580 6.15300 5.87625
#
# Compressibility (1/GPa) = 0.03600465
#
# Stress axis : x y z
#
# Youngs Moduli (GPa) = 114.42428 60.99841 50.10854
#
# Poissons Ratio (x) = 0.13982 0.13819
# Poissons Ratio (y) = 0.26228 -0.02543
# Poissons Ratio (z) = 0.31556 -0.03095
#
# Static dielectric constant tensor:
#      x y z
#    x 1.848520 0.034690 0.098720 
#    y 0.034690 1.829250 -0.096610 
#    z 0.098720 -0.096610 1.448470 
# 
# From -- ./inp_files/436958.got.cif
#   From: 2010.05.17/outbox.cif.g08.bks.cpg/sg2_219_cif.got.tgz:436958.got - 2010.06.03 11:33:40.
