data_PCOD9046072
_publ_section_title
;
Structure prediction by ZEFSAII (Michael W. Deem and Ramdas Pophale) SiO2 
 PCOD9046072
Probable space group: P -1
;
_chemical_formula_sum "Si O2"
_cell_formula_units_Z 16
_cell_length_a 8.147912
_cell_length_b 14.478074
_cell_length_c 6.459488
_cell_angle_alpha 68.301972
_cell_angle_beta 80.136233
_cell_angle_gamma 103.239058
_cell_volume 661.014436
_symmetry_space_group_name_H-M "P -1"
_symmetry_group_IT_number 2
_symmetry_cell_setting 'triclinic'
loop_
_space_group_symop_operation_xyz
x,y,z
-x,-y,-z
loop_
_atom_site_type_symbol
_atom_site_label
_atom_site_fract_x
_atom_site_fract_y
_atom_site_fract_z
Si Si1 0.162596 0.608016 0.889664
Si Si2 0.662133 0.366388 0.610504
Si Si3 0.339085 0.487284 0.202277
Si Si4 0.210320 0.815911 0.288503
Si Si5 0.920793 0.730914 0.717045
Si Si6 0.512976 0.890468 0.509141
Si Si7 0.630030 0.802571 0.943058
Si Si8 0.795513 0.983821 0.063515
O O1 0.291021 0.619829 0.655567
O O2 0.069476 0.696746 0.837249
O O3 0.268372 0.583913 0.076464
O O4 0.000000 0.500000 0.000000
O O5 0.653971 0.480895 0.586372
O O6 0.797023 0.299531 0.688828
O O7 0.478435 0.284069 0.797560
O O8 0.203630 0.374045 0.280252
O O9 0.500000 0.500000 0.000000
O O10 0.367665 0.849483 0.395644
O O11 0.032161 0.808421 0.454695
O O12 0.239063 0.904756 0.036871
O O13 0.797219 0.773768 0.848760
O O14 0.512021 0.813164 0.763130
O O15 0.500000 0.000000 0.500000
O O16 0.702688 0.919440 0.335828
O O17 0.699835 0.914758 0.946003
O O18 0.000000 0.000000 0.000000
#
# Coordination Sequence:
#
# PCOD9046072 Si02
#       8
#     2   2   2   2   2   2   2   2
#     4   9  23  45  65  97 136 179 231 287 346 410
#     4  11  24  42  75  98 139 181 236 287 343 419
#     4  11  23  45  70 101 137 184 234 290 352 415
#     4  11  24  46  68 105 139 187 240 284 352 423
#     4  10  24  42  67 101 141 180 235 286 347 418
#     4  12  25  44  74  95 143 190 230 292 349 417
#     4  12  25  45  70 107 141 184 233 289 354 413
#     4  12  27  46  68 107 142 180 236 289 351 425
#
# _framework density 24.205221999999999
#
# number of rings (size 3 to 8) (size 9 to 14) (size 15 to 20)
#    0.000    1.000    3.750    1.875    5.250    7.000 
#    2.250    0.000    0.000    0.000    0.000    0.000 
#    0.000    0.000    0.000    0.000    0.000    0.000 
#
# Total GULP energy -89384.411080 kJ/mol
# GULP energy per Si atom -5586.525692 kJ/mol
# Density = 2.415013 g / cm^3
# Si number density = 24.205222 Si / 1000 Ang^3
#
#
#
# Elastic Constant Matrix: (Units=GPa)
#
#
# Indices 1 2 3 4 5 6 
#
# 1 89.2638 1.7676 25.6845 7.9806 -22.6707 -6.9106
# 2 1.7676 62.3847 7.4710 13.5456 -4.2223 -7.3874
# 3 25.6845 7.4710 85.9174 -8.5929 -33.7117 -3.4610
# 4 7.9806 13.5456 -8.5929 40.6752 -6.6967 -14.9781
# 5 -22.6707 -4.2223 -33.7117 -6.6967 51.2662 -4.2680
# 6 -6.9106 -7.3874 -3.4610 -14.9781 -4.2680 37.4409
#
#
#
# Elastic Compliance Matrix: (Units=1/GPa)
#
#
# Indices 1 2 3 4 5 6 
#
# 1 0.013320 0.000886 -0.002513 -0.001972 0.004227 0.002094
# 2 0.000886 0.017783 -0.002716 -0.006519 -0.000721 0.000731
# 3 -0.002513 -0.002716 0.018905 0.009767 0.012882 0.006123
# 4 -0.001972 -0.006519 0.009767 0.036609 0.011058 0.015158
# 5 0.004227 -0.000721 0.012882 0.011058 0.032056 0.009907
# 6 0.002094 0.000731 0.006123 0.015158 0.009907 0.034999
#
#
# Mechanical properties :
#
#
# Convention : Reuss Voigt Hill
#
# Bulk Modulus (GPa) = 24.20112 34.15691 29.17901
# Shear Modulus (GPa) = 28.38765 39.38599 33.88682
#
# Velocity S-wave (km/s) = 3.42832 4.03819 3.74569
# Velocity P-wave (km/s) = 5.06864 5.99038 5.54869
#
# Compressibility (1/GPa) = 0.04132040
#
# Stress axis : x y z
#
# Youngs Moduli (GPa) = 75.07234 56.23320 52.89710
#
# Poissons Ratio (x) = -0.04982 0.13295
# Poissons Ratio (y) = -0.06651 0.14369
# Poissons Ratio (z) = 0.18868 0.15276
#
# Static dielectric constant tensor:
#      x y z
#    x 1.945930 0.026820 0.056190 
#    y 0.026820 1.923040 0.059120 
#    z 0.056190 0.059120 2.021250 
# 
# From -- ./inp_files/37871.got.cif
#   From: 2010.05.17/outbox.cif.g08.bks.cpg/sg2_19_cif.got.tgz:37871.got - 2010.06.03 11:33:40.
