data_PCOD9046527
_publ_section_title
;
Structure prediction by ZEFSAII (Michael W. Deem and Ramdas Pophale) SiO2 
 PCOD9046527
Probable space group: P -1
;
_chemical_formula_sum "Si O2"
_cell_formula_units_Z 16
_cell_length_a 6.610024
_cell_length_b 19.163333
_cell_length_c 9.340840
_cell_angle_alpha 127.617538
_cell_angle_beta 51.473617
_cell_angle_gamma 104.687303
_cell_volume 717.730147
_symmetry_space_group_name_H-M "P -1"
_symmetry_group_IT_number 2
_symmetry_cell_setting 'triclinic'
loop_
_space_group_symop_operation_xyz
x,y,z
-x,-y,-z
loop_
_atom_site_type_symbol
_atom_site_label
_atom_site_fract_x
_atom_site_fract_y
_atom_site_fract_z
Si Si1 0.045715 0.879621 0.426637
Si Si2 0.560503 0.869070 0.787510
Si Si3 0.338598 0.422816 0.940104
Si Si4 0.171974 0.188374 0.113886
Si Si5 0.431512 0.702341 0.061948
Si Si6 0.004280 0.063612 0.799349
Si Si7 0.359004 0.692563 0.581198
Si Si8 0.253549 0.578140 0.749273
O O1 0.736930 0.890976 0.608181
O O2 0.192441 0.784842 0.303602
O O3 0.077946 0.883963 0.247813
O O4 0.137370 0.963267 0.567237
O O5 0.723533 0.865520 0.857744
O O6 0.506525 0.768704 0.667989
O O7 0.276723 0.934544 0.999291
O O8 0.429325 0.344056 0.917286
O O9 0.439307 0.380809 0.690034
O O10 0.500000 0.500000 0.000000
O O11 0.022494 0.452222 0.135720
O O12 0.883389 0.252267 0.336444
O O13 0.367673 0.252689 0.062440
O O14 0.158228 0.118709 0.903502
O O15 0.327845 0.629333 0.920126
O O16 0.231570 0.646995 0.711187
O O17 0.500000 0.500000 0.500000
#
# Coordination Sequence:
#
# PCOD9046527 Si02
#       8
#     2   2   2   2   2   2   2   2
#     4  11  23  43  68  97 140 179 224 282 336 397
#     4  11  22  42  67  96 132 182 225 275 334 400
#     4  12  29  46  71 106 134 175 234 283 344 420
#     4  11  22  42  70  96 134 181 230 273 333 405
#     4  12  24  45  71  98 135 181 226 276 344 407
#     4  10  24  43  62 102 139 178 225 281 334 393
#     4  11  24  43  69  96 133 176 227 280 337 407
#     4  12  27  46  71  98 139 176 221 290 351 406
#
# _framework density 22.292501000000001
#
# number of rings (size 3 to 8) (size 9 to 14) (size 15 to 20)
#    0.000    0.750    3.750    3.375    3.500    5.000 
#    0.000    0.000    0.000    0.000    0.000    0.000 
#    0.000    0.000    0.000    0.000    0.000    0.000 
#
# Total GULP energy -89560.895588 kJ/mol
# GULP energy per Si atom -5597.555974 kJ/mol
# Density = 2.224176 g / cm^3
# Si number density = 22.292501 Si / 1000 Ang^3
#
#
#
# Elastic Constant Matrix: (Units=GPa)
#
#
# Indices 1 2 3 4 5 6 
#
# 1 79.9785 8.9859 32.3818 8.0673 -6.1375 25.7483
# 2 8.9859 52.3215 9.6183 -3.1521 -3.6237 20.8363
# 3 32.3818 9.6183 100.3139 7.8744 -3.9228 23.0562
# 4 8.0673 -3.1521 7.8744 44.6151 8.2342 -2.3776
# 5 -6.1375 -3.6237 -3.9228 8.2342 18.9229 -4.4666
# 6 25.7483 20.8363 23.0562 -2.3776 -4.4666 34.0935
#
#
#
# Elastic Compliance Matrix: (Units=1/GPa)
#
#
# Indices 1 2 3 4 5 6 
#
# 1 0.018367 0.002763 -0.002575 -0.004242 0.004609 -0.013510
# 2 0.002763 0.025869 0.000912 -0.000136 0.001781 -0.018289
# 3 -0.002575 0.000912 0.012578 -0.002303 0.001270 -0.007112
# 4 -0.004242 -0.000136 -0.002303 0.026068 -0.012022 0.005087
# 5 0.004609 0.001781 0.001270 -0.012022 0.060570 0.001668
# 6 -0.013510 -0.018289 -0.007112 0.005087 0.001668 0.056095
#
#
# Mechanical properties :
#
#
# Convention : Reuss Voigt Hill
#
# Bulk Modulus (GPa) = 16.94575 37.17619 27.06097
# Shear Modulus (GPa) = 23.03949 31.63483 27.33716
#
# Velocity S-wave (km/s) = 3.21831 3.77115 3.50565
# Velocity P-wave (km/s) = 4.62905 5.97285 5.34336
#
# Compressibility (1/GPa) = 0.05901184
#
# Stress axis : x y z
#
# Youngs Moduli (GPa) = 54.44654 38.65621 79.50507
#
# Poissons Ratio (x) = -0.10680 0.20476
# Poissons Ratio (y) = -0.15043 -0.07249
# Poissons Ratio (z) = 0.14022 -0.03524
#
# Static dielectric constant tensor:
#      x y z
#    x 1.803270 0.002000 -0.027210 
#    y 0.002000 1.813640 0.012230 
#    z -0.027210 0.012230 1.824840 
# 
# From -- ./inp_files/123010.got.cif
#   From: 2010.05.17/outbox.cif.g08.bks.cpg/sg2_62_cif.got.tgz:123010.got - 2010.06.03 11:33:40.
