data_PCOD9046717
_publ_section_title
;
Structure prediction by ZEFSAII (Michael W. Deem and Ramdas Pophale) SiO2 
 PCOD9046717
Probable space group: P -1
;
_chemical_formula_sum "Si O2"
_cell_formula_units_Z 12
_cell_length_a 11.424626
_cell_length_b 20.069855
_cell_length_c 4.915848
_cell_angle_alpha 97.664983
_cell_angle_beta 80.508544
_cell_angle_gamma 154.866534
_cell_volume 471.841399
_symmetry_space_group_name_H-M "P -1"
_symmetry_group_IT_number 2
_symmetry_cell_setting 'triclinic'
loop_
_space_group_symop_operation_xyz
x,y,z
-x,-y,-z
loop_
_atom_site_type_symbol
_atom_site_label
_atom_site_fract_x
_atom_site_fract_y
_atom_site_fract_z
Si Si1 0.532575 0.610384 0.603020
Si Si2 0.535185 0.207164 0.371577
Si Si3 0.715429 0.375807 0.906079
Si Si4 0.004780 0.932637 0.796005
Si Si5 0.843825 0.718713 0.023164
Si Si6 0.950127 0.627526 0.754780
O O1 0.476677 0.771466 0.918983
O O2 0.588280 0.595188 0.841109
O O3 0.231589 0.460132 0.500308
O O4 0.734878 0.679270 0.340434
O O5 0.751255 0.255324 0.328296
O O6 0.236554 0.046560 0.537076
O O7 0.676112 0.333985 0.587945
O O8 0.299691 0.234576 0.317159
O O9 0.755868 0.477005 0.925717
O O10 0.000000 0.500000 0.000000
O O11 0.026515 0.876878 0.944789
O O12 0.000000 0.000000 0.000000
O O13 0.982238 0.717742 0.919059
#
# Coordination Sequence:
#
# PCOD9046717 Si02
#       6
#     2   2   2   2   2   2
#     4  10  25  45  69 108 139 189 238 287 361 419
#     4  11  26  44  71 107 142 186 238 289 359 420
#     4  10  24  43  67 107 141 182 233 294 357 409
#     4  10  27  49  71 102 150 189 236 293 360 426
#     4  10  25  45  74 104 144 187 238 290 361 419
#     4  11  23  47  76 106 144 184 242 300 347 428
#
# _framework density 25.432272999999999
#
# number of rings (size 3 to 8) (size 9 to 14) (size 15 to 20)
#    1.000    0.667    0.000    3.000    4.667   12.000 
#    0.000    1.667    0.000    0.000    0.000    0.000 
#    0.000    0.000    0.000    0.000    0.000    0.000 
#
# Total GULP energy -67082.453138 kJ/mol
# GULP energy per Si atom -5590.204428 kJ/mol
# Density = 2.537439 g / cm^3
# Si number density = 25.432273 Si / 1000 Ang^3
#
#
#
# Elastic Constant Matrix: (Units=GPa)
#
#
# Indices 1 2 3 4 5 6 
#
# 1 199.8602 38.8066 65.9191 1.5402 -26.0494 -14.9639
# 2 38.8066 103.3183 24.0621 -12.3159 -11.9781 -8.3960
# 3 65.9191 24.0621 124.3642 0.5399 6.5812 -7.2199
# 4 1.5402 -12.3159 0.5399 55.3364 -3.7478 -11.3695
# 5 -26.0494 -11.9781 6.5812 -3.7478 50.6961 11.6697
# 6 -14.9639 -8.3960 -7.2199 -11.3695 11.6697 52.3962
#
#
#
# Elastic Compliance Matrix: (Units=1/GPa)
#
#
# Indices 1 2 3 4 5 6 
#
# 1 0.006952 -0.001334 -0.003592 -0.000119 0.003612 0.000447
# 2 -0.001334 0.011240 -0.001508 0.002981 0.002064 0.001399
# 3 -0.003592 -0.001508 0.010494 -0.000403 -0.003810 0.000940
# 4 -0.000119 0.002981 -0.000403 0.019726 0.001137 0.004415
# 5 0.003612 0.002064 -0.003810 0.001137 0.023609 -0.004174
# 6 0.000447 0.001399 0.000940 0.004415 -0.004174 0.021454
#
#
# Mechanical properties :
#
#
# Convention : Reuss Voigt Hill
#
# Bulk Modulus (GPa) = 63.21907 76.12425 69.67166
# Shear Modulus (GPa) = 44.79647 51.60273 48.19960
#
# Velocity S-wave (km/s) = 4.20146 4.50936 4.35813
# Velocity P-wave (km/s) = 6.96047 7.55708 7.26490
#
# Compressibility (1/GPa) = 0.01581801
#
# Stress axis : x y z
#
# Youngs Moduli (GPa) = 143.83887 88.97181 95.28856
#
# Poissons Ratio (x) = 0.11869 0.34224
# Poissons Ratio (y) = 0.19188 0.14374
# Poissons Ratio (z) = 0.51661 0.13421
#
# Static dielectric constant tensor:
#      x y z
#    x 2.031450 -0.079760 -0.031050 
#    y -0.079760 2.142520 -0.018540 
#    z -0.031050 -0.018540 2.070530 
# 
# From -- ./inp_files/83647.got.cif
#   From: 2010.05.17/outbox.cif.g08.bks.cpg/sg2_42_cif.got.tgz:83647.got - 2010.06.03 11:33:40.
