data_PCOD9046083
_publ_section_title
;
Structure prediction by ZEFSAII (Michael W. Deem and Ramdas Pophale) SiO2 
 PCOD9046083
Probable space group: P -1
;
_chemical_formula_sum "Si O2"
_cell_formula_units_Z 16
_cell_length_a 9.957020
_cell_length_b 15.837613
_cell_length_c 11.487372
_cell_angle_alpha 113.063116
_cell_angle_beta 114.894814
_cell_angle_gamma 27.728978
_cell_volume 763.770972
_symmetry_space_group_name_H-M "P -1"
_symmetry_group_IT_number 2
_symmetry_cell_setting 'triclinic'
loop_
_space_group_symop_operation_xyz
x,y,z
-x,-y,-z
loop_
_atom_site_type_symbol
_atom_site_label
_atom_site_fract_x
_atom_site_fract_y
_atom_site_fract_z
Si Si1 0.771340 0.446399 0.628863
Si Si2 0.845669 0.630105 0.125824
Si Si3 0.133538 0.531606 0.569944
Si Si4 0.800320 0.037873 0.017552
Si Si5 0.071805 0.352759 0.196962
Si Si6 0.340708 0.847957 0.709121
Si Si7 0.773896 0.257360 0.657598
Si Si8 0.184737 0.670347 0.037609
O O1 0.922285 0.383110 0.523981
O O2 0.493162 0.667111 0.644418
O O3 0.730904 0.361043 0.601261
O O4 0.979152 0.375385 0.768956
O O5 0.872673 0.547498 0.201333
O O6 0.509915 0.819883 0.074521
O O7 0.000000 0.500000 0.000000
O O8 0.486589 0.346952 0.609095
O O9 0.000000 0.500000 0.500000
O O10 0.007619 0.642736 0.702699
O O11 0.748552 0.105596 0.163640
O O12 0.985979 0.847906 0.993744
O O13 0.000000 0.000000 0.000000
O O14 0.399581 0.215928 0.241978
O O15 0.986714 0.331909 0.049147
O O16 0.063830 0.038080 0.640655
O O17 0.789220 0.306776 0.810220
O O18 0.500000 0.500000 0.000000
#
# Coordination Sequence:
#
# PCOD9046083 Si02
#       8
#     2   2   2   2   2   2   2   2
#     4  11  24  44  73  93 138 183 226 278 342 395
#     4  11  20  39  66  96 130 175 217 273 339 404
#     4  12  24  47  70  96 133 188 229 279 334 409
#     4  11  24  36  61 101 139 171 226 271 344 417
#     4  11  22  42  67  93 139 171 226 269 348 389
#     4  10  24  42  67 103 137 177 216 288 336 410
#     4  11  26  43  72 102 133 176 237 270 350 407
#     4  11  23  40  67  99 135 175 213 292 338 398
#
# _framework density 20.948687
#
# number of rings (size 3 to 8) (size 9 to 14) (size 15 to 20)
#    0.000    1.000    6.250    1.875    5.250    1.500 
#    0.000    0.625    5.500    0.000    0.000    0.000 
#    0.000    0.000    0.000    0.000    0.000    0.000 
#
# Total GULP energy -89304.522331 kJ/mol
# GULP energy per Si atom -5581.532646 kJ/mol
# Density = 2.090101 g / cm^3
# Si number density = 20.948687 Si / 1000 Ang^3
#
#
#
# Elastic Constant Matrix: (Units=GPa)
#
#
# Indices 1 2 3 4 5 6 
#
# 1 140.9345 72.3065 42.7846 -14.0008 5.4517 -4.2708
# 2 72.3065 133.7873 48.8747 -18.9002 -3.2399 -15.8244
# 3 42.7846 48.8747 105.2906 -6.1168 3.2478 -10.4039
# 4 -14.0008 -18.9002 -6.1168 24.1304 -6.2754 0.0845
# 5 5.4517 -3.2399 3.2478 -6.2754 49.3295 -2.1253
# 6 -4.2708 -15.8244 -10.4039 0.0845 -2.1253 24.2781
#
#
#
# Elastic Compliance Matrix: (Units=1/GPa)
#
#
# Indices 1 2 3 4 5 6 
#
# 1 0.010382 -0.005014 -0.002018 0.001259 -0.001288 -0.002424
# 2 -0.005014 0.013210 -0.003100 0.007370 0.002849 0.006624
# 3 -0.002018 -0.003100 0.012003 -0.000761 -0.000751 0.002705
# 4 0.001259 0.007370 -0.000761 0.049532 0.006917 0.005132
# 5 -0.001288 0.002849 -0.000751 0.006917 0.021668 0.003181
# 6 -0.002424 0.006624 0.002705 0.005132 0.003181 0.046500
#
#
# Mechanical properties :
#
#
# Convention : Reuss Voigt Hill
#
# Bulk Modulus (GPa) = 65.22521 78.66044 71.94282
# Shear Modulus (GPa) = 27.98472 33.95072 30.96772
#
# Velocity S-wave (km/s) = 3.65892 4.03011 3.84899
# Velocity P-wave (km/s) = 7.00382 7.69976 7.36002
#
# Compressibility (1/GPa) = 0.01533150
#
# Stress axis : x y z
#
# Youngs Moduli (GPa) = 96.32195 75.69802 83.31467
#
# Poissons Ratio (x) = 0.37954 0.16812
# Poissons Ratio (y) = 0.48294 0.25827
# Poissons Ratio (z) = 0.19437 0.23466
#
# Static dielectric constant tensor:
#      x y z
#    x 1.696860 -0.000210 -0.007790 
#    y -0.000210 1.719320 -0.008180 
#    z -0.007790 -0.008180 1.814310 
# 
# From -- ./inp_files/271359.got.cif
#   From: 2010.05.17/outbox.cif.g08.bks.cpg/sg2_136_cif.got.tgz:271359.got - 2010.06.03 11:33:40.
