data_PCOD9046627
_publ_section_title
;
Structure prediction by ZEFSAII (Michael W. Deem and Ramdas Pophale) SiO2 
 PCOD9046627
Probable space group: P -1
;
_chemical_formula_sum "Si O2"
_cell_formula_units_Z 16
_cell_length_a 8.023678
_cell_length_b 5.077176
_cell_length_c 22.097236
_cell_angle_alpha 50.465140
_cell_angle_beta 106.564217
_cell_angle_gamma 107.901021
_cell_volume 655.726071
_symmetry_space_group_name_H-M "P -1"
_symmetry_group_IT_number 2
_symmetry_cell_setting 'triclinic'
loop_
_space_group_symop_operation_xyz
x,y,z
-x,-y,-z
loop_
_atom_site_type_symbol
_atom_site_label
_atom_site_fract_x
_atom_site_fract_y
_atom_site_fract_z
Si Si1 0.172430 0.621338 0.039317
Si Si2 0.650885 0.267095 0.539205
Si Si3 0.403713 0.825550 0.928498
Si Si4 0.256555 0.881698 0.133690
Si Si5 0.631942 0.393104 0.376683
Si Si6 0.970684 0.561142 0.731640
Si Si7 0.025583 0.335063 0.413204
Si Si8 0.213310 0.064161 0.769871
O O1 0.136132 0.781319 0.076386
O O2 0.251353 0.262912 0.103992
O O3 0.301750 0.881738 0.971067
O O4 0.000000 0.500000 0.000000
O O5 0.500000 0.500000 0.500000
O O6 0.682429 0.354538 0.458524
O O7 0.831049 0.390334 0.576379
O O8 0.543768 0.892197 0.602909
O O9 0.555264 0.129232 0.876311
O O10 0.275256 0.789854 0.862585
O O11 0.500000 0.500000 0.000000
O O12 0.187011 0.618067 0.216932
O O13 0.625677 0.736908 0.285437
O O14 0.820715 0.344913 0.375852
O O15 0.103514 0.289375 0.769129
O O16 0.898773 0.681077 0.643435
O O17 0.077851 0.876252 0.733920
O O18 0.000000 0.000000 0.500000
#
# Coordination Sequence:
#
# PCOD9046627 Si02
#       8
#     2   2   2   2   2   2   2   2
#     4  11  22  40  68  91 129 174 221 273 344 417
#     4  11  22  41  70 102 142 181 244 284 362 414
#     4  10  24  44  69 103 136 181 226 294 359 419
#     4  11  23  41  62  98 130 164 226 283 340 413
#     4  10  24  43  66 103 137 191 233 297 351 426
#     4  11  25  45  68 100 136 187 237 287 353 417
#     4  11  22  43  70  99 143 190 238 291 349 426
#     4  11  25  47  69  96 143 183 235 288 358 419
#
# _framework density 24.400435000000002
#
# number of rings (size 3 to 8) (size 9 to 14) (size 15 to 20)
#    0.000    1.250    1.250    4.125    1.750    7.000 
#    6.750    0.000    0.000    0.000    0.000    0.000 
#    0.000    0.000    0.000    0.000    0.000    0.000 
#
# Total GULP energy -89238.588365 kJ/mol
# GULP energy per Si atom -5577.411773 kJ/mol
# Density = 2.434490 g / cm^3
# Si number density = 24.400435 Si / 1000 Ang^3
#
#
#
# Elastic Constant Matrix: (Units=GPa)
#
#
# Indices 1 2 3 4 5 6 
#
# 1 81.8232 11.5710 36.3346 -6.8384 -24.8283 10.3760
# 2 11.5710 83.6448 41.6457 10.5432 -12.8487 5.6184
# 3 36.3346 41.6457 184.8682 2.6344 -45.5486 15.8647
# 4 -6.8384 10.5432 2.6344 28.8161 8.6042 -1.0223
# 5 -24.8283 -12.8487 -45.5486 8.6042 54.8918 -1.9033
# 6 10.3760 5.6184 15.8647 -1.0223 -1.9033 34.5568
#
#
#
# Elastic Compliance Matrix: (Units=1/GPa)
#
#
# Indices 1 2 3 4 5 6 
#
# 1 0.015074 -0.000723 -0.001276 0.002310 0.005107 -0.003473
# 2 -0.000723 0.014370 -0.002462 -0.005799 0.001866 -0.001058
# 3 -0.001276 -0.002462 0.007827 -0.001864 0.005545 -0.002560
# 4 0.002310 -0.005799 -0.001864 0.040018 -0.008068 0.001844
# 5 0.005107 0.001866 0.005545 -0.008068 0.026721 -0.003149
# 6 -0.003473 -0.001058 -0.002560 0.001844 -0.003149 0.031209
#
#
# Mechanical properties :
#
#
# Convention : Reuss Voigt Hill
#
# Bulk Modulus (GPa) = 35.27612 58.82652 47.05132
# Shear Modulus (GPa) = 32.55431 41.03858 36.79645
#
# Velocity S-wave (km/s) = 3.65659 4.10552 3.88754
# Velocity P-wave (km/s) = 5.68472 6.82897 6.28295
#
# Compressibility (1/GPa) = 0.02834779
#
# Stress axis : x y z
#
# Youngs Moduli (GPa) = 66.34085 69.59111 127.76242
#
# Poissons Ratio (x) = 0.05033 0.16306
# Poissons Ratio (y) = 0.04798 0.31453
# Poissons Ratio (z) = 0.08467 0.17132
#
# Static dielectric constant tensor:
#      x y z
#    x 4.404580 -0.362500 2.473240 
#    y -0.362500 2.060650 -0.390630 
#    z 2.473240 -0.390630 4.478550 
# 
# From -- ./inp_files/585492.got.cif
#   From: 2010.05.17/outbox.cif.g08.bks.cpg/sg2_293_cif.got.tgz:585492.got - 2010.06.03 11:33:40.
