data_PCOD9046165
_publ_section_title
;
Structure prediction by ZEFSAII (Michael W. Deem and Ramdas Pophale) SiO2 
 PCOD9046165
Probable space group: P -1
;
_chemical_formula_sum "Si O2"
_cell_formula_units_Z 16
_cell_length_a 11.585589
_cell_length_b 5.351500
_cell_length_c 24.539073
_cell_angle_alpha 61.275777
_cell_angle_beta 149.276271
_cell_angle_gamma 109.599335
_cell_volume 671.316506
_symmetry_space_group_name_H-M "P -1"
_symmetry_group_IT_number 2
_symmetry_cell_setting 'triclinic'
loop_
_space_group_symop_operation_xyz
x,y,z
-x,-y,-z
loop_
_atom_site_type_symbol
_atom_site_label
_atom_site_fract_x
_atom_site_fract_y
_atom_site_fract_z
Si Si1 0.176590 0.215654 0.740803
Si Si2 0.665879 0.916930 0.993435
Si Si3 0.129397 0.676193 0.576445
Si Si4 0.753810 0.891760 0.912897
Si Si5 0.954730 0.824175 0.830678
Si Si6 0.248767 0.625241 0.364413
Si Si7 0.876024 0.364529 0.192864
Si Si8 0.368831 0.458754 0.206003
O O1 0.161122 0.470231 0.664365
O O2 0.951031 0.307019 0.677588
O O3 0.167049 0.878316 0.756360
O O4 0.431465 0.145875 0.877753
O O5 0.708865 0.669946 0.083631
O O6 0.886421 0.072213 0.070120
O O7 0.692163 0.773104 0.959051
O O8 0.384722 0.708885 0.658537
O O9 0.000000 0.500000 0.500000
O O10 0.000000 0.000000 0.500000
O O11 0.596373 0.209371 0.814817
O O12 0.706296 0.683936 0.865899
O O13 0.000000 0.000000 0.000000
O O14 0.829121 0.576874 0.827850
O O15 0.118360 0.767494 0.851075
O O16 0.760049 0.087582 0.704953
O O17 0.500000 0.500000 0.500000
O O18 0.135029 0.412559 0.302208
#
# Coordination Sequence:
#
# PCOD9046165 Si02
#       8
#     2   2   2   2   2   2   2   2
#     4  11  26  46  72 104 142 190 241 303 372 439
#     4  11  23  43  69 108 149 184 242 298 377 448
#     4  12  30  51  74 108 145 197 254 309 366 439
#     4  12  24  41  71 107 149 194 237 295 372 449
#     4  10  24  42  68 107 139 189 244 301 365 447
#     4  10  25  45  69 100 135 190 244 307 362 430
#     4  10  24  43  72 103 141 187 243 300 374 431
#     4  12  26  45  71 106 148 197 247 302 374 437
#
# _framework density 23.833766000000001
#
# number of rings (size 3 to 8) (size 9 to 14) (size 15 to 20)
#    0.000    1.000    2.500    2.250    7.000    8.500 
#    0.000    0.000    0.000    0.000    0.000    0.000 
#    0.000    0.000    0.000    0.000    0.000    0.000 
#
# Total GULP energy -89309.874805 kJ/mol
# GULP energy per Si atom -5581.867175 kJ/mol
# Density = 2.377952 g / cm^3
# Si number density = 23.833766 Si / 1000 Ang^3
#
#
#
# Elastic Constant Matrix: (Units=GPa)
#
#
# Indices 1 2 3 4 5 6 
#
# 1 82.1962 18.6344 37.0416 -2.5239 11.9054 4.2444
# 2 18.6344 112.0246 49.3820 -26.6605 -13.1203 16.3986
# 3 37.0416 49.3820 173.2406 -20.3258 23.3602 2.4890
# 4 -2.5239 -26.6605 -20.3258 44.1794 -2.8616 -7.0808
# 5 11.9054 -13.1203 23.3602 -2.8616 33.1249 -0.5507
# 6 4.2444 16.3986 2.4890 -7.0808 -0.5507 38.4015
#
#
#
# Elastic Compliance Matrix: (Units=1/GPa)
#
#
# Indices 1 2 3 4 5 6 
#
# 1 0.014285 -0.002472 -0.001905 -0.002008 -0.004957 -0.000841
# 2 -0.002472 0.014567 -0.004134 0.006712 0.010082 -0.004297
# 3 -0.001905 -0.004134 0.008368 0.001056 -0.006738 0.001532
# 4 -0.002008 0.006712 0.001056 0.027783 0.005077 0.002483
# 5 -0.004957 0.010082 -0.006738 0.005077 0.041124 -0.001795
# 6 -0.000841 -0.004297 0.001532 0.002483 -0.001795 0.028302
#
#
# Mechanical properties :
#
#
# Convention : Reuss Voigt Hill
#
# Bulk Modulus (GPa) = 49.50749 64.17527 56.84138
# Shear Modulus (GPa) = 31.60882 40.63471 36.12177
#
# Velocity S-wave (km/s) = 3.64568 4.13355 3.89726
# Velocity P-wave (km/s) = 6.20793 7.05452 6.64472
#
# Compressibility (1/GPa) = 0.02019896
#
# Stress axis : x y z
#
# Youngs Moduli (GPa) = 70.00579 68.64627 119.49706
#
# Poissons Ratio (x) = 0.16968 0.22761
# Poissons Ratio (y) = 0.17304 0.49403
# Poissons Ratio (z) = 0.13334 0.28380
#
# Static dielectric constant tensor:
#      x y z
#    x 1.749010 -0.387640 -0.324170 
#    y -0.387640 1.462710 -0.609720 
#    z -0.324170 -0.609720 1.377840 
# 
# From -- ./inp_files/609148.got.cif
#   From: 2010.05.17/outbox.cif.g08.bks.cpg/sg2_305_cif.got.tgz:609148.got - 2010.06.03 11:33:40.
