data_PCOD9046192
_publ_section_title
;
Structure prediction by ZEFSAII (Michael W. Deem and Ramdas Pophale) SiO2 
 PCOD9046192
Probable space group: P -1
;
_chemical_formula_sum "Si O2"
_cell_formula_units_Z 14
_cell_length_a 22.222592
_cell_length_b 20.130322
_cell_length_c 10.223746
_cell_angle_alpha 147.559154
_cell_angle_beta 24.612598
_cell_angle_gamma 160.889086
_cell_volume 619.796897
_symmetry_space_group_name_H-M "P -1"
_symmetry_group_IT_number 2
_symmetry_cell_setting 'triclinic'
loop_
_space_group_symop_operation_xyz
x,y,z
-x,-y,-z
loop_
_atom_site_type_symbol
_atom_site_label
_atom_site_fract_x
_atom_site_fract_y
_atom_site_fract_z
Si Si1 0.598958 0.398036 0.734360
Si Si2 0.559668 0.505291 0.602526
Si Si3 0.796932 0.836491 0.463718
Si Si4 0.915686 0.202951 0.907976
Si Si5 0.417451 0.102217 0.407506
Si Si6 0.739128 0.023225 0.221363
Si Si7 0.850074 0.231768 0.804006
O O1 0.457145 0.264431 0.659556
O O2 0.497228 0.220549 0.734914
O O3 0.877018 0.574427 0.453463
O O4 0.530812 0.480261 0.070122
O O5 0.646450 0.669026 0.598456
O O6 0.357211 0.288871 0.570581
O O7 0.799513 0.592979 0.302963
O O8 0.859045 0.019640 0.681194
O O9 0.039504 0.922111 0.116980
O O10 0.831386 0.220387 0.978210
O O11 0.794590 0.146290 0.192748
O O12 0.295157 0.946645 0.514913
O O13 0.256802 0.966943 0.376356
O O14 0.677159 0.219739 0.070584
#
# Coordination Sequence:
#
# PCOD9046192 Si02
#       7
#     2   2   2   2   2   2   2
#     4  10  19  37  57  79 103 151 176 218 260 341
#     4  10  19  32  59  79 111 147 181 201 282 320
#     4  10  17  34  55  84 111 145 170 224 260 334
#     4  11  20  36  53  90 109 136 176 240 251 317
#     4   9  21  41  56  76 104 153 179 220 265 338
#     4   9  18  37  61  73 112 141 185 210 271 310
#     4  11  23  35  60  77 111 140 186 219 281 302
#
# _framework density 22.588044
#
# number of rings (size 3 to 8) (size 9 to 14) (size 15 to 20)
#    0.857    1.143    2.857    2.143    0.000    2.286 
#    0.000    3.571    0.000    1.714    0.000    0.000 
#    0.000    0.000    0.000    0.000    0.000    0.000 
#
# Total GULP energy -78161.902192 kJ/mol
# GULP energy per Si atom -5582.993014 kJ/mol
# Density = 2.253663 g / cm^3
# Si number density = 22.588044 Si / 1000 Ang^3
#
#
#
# Elastic Constant Matrix: (Units=GPa)
#
#
# Indices 1 2 3 4 5 6 
#
# 1 63.3979 47.7659 25.4486 -10.1912 17.4531 14.9818
# 2 47.7659 94.8471 31.5424 -7.4157 -2.2888 25.1063
# 3 25.4486 31.5424 88.1832 -6.4924 19.7001 -7.7698
# 4 -10.1912 -7.4157 -6.4924 35.6472 3.9775 10.9586
# 5 17.4531 -2.2888 19.7001 3.9775 19.3272 -1.0296
# 6 14.9818 25.1063 -7.7698 10.9586 -1.0296 30.1780
#
#
#
# Elastic Compliance Matrix: (Units=1/GPa)
#
#
# Indices 1 2 3 4 5 6 
#
# 1 0.068396 -0.034047 0.012173 0.029082 -0.085039 -0.015958
# 2 -0.034047 0.038648 -0.017902 -0.006123 0.053988 -0.015794
# 3 0.012173 -0.017902 0.024136 0.004687 -0.038036 0.012064
# 4 0.029082 -0.006123 0.004687 0.049238 -0.043363 -0.027497
# 5 -0.085039 0.053988 -0.038036 -0.043363 0.183127 0.009503
# 6 -0.015958 -0.015794 0.012064 -0.027497 0.009503 0.067614
#
#
# Mechanical properties :
#
#
# Convention : Reuss Voigt Hill
#
# Bulk Modulus (GPa) = 19.36969 50.66022 35.01496
# Shear Modulus (GPa) = 9.47115 26.47523 17.97319
#
# Velocity S-wave (km/s) = 2.04990 3.42729 2.82387
# Velocity P-wave (km/s) = 3.76784 6.17563 5.11542
#
# Compressibility (1/GPa) = 0.05162705
#
# Stress axis : x y z
#
# Youngs Moduli (GPa) = 14.62079 25.87461 41.43252
#
# Poissons Ratio (x) = 0.88096 -0.50435
# Poissons Ratio (y) = 0.49780 0.74172
# Poissons Ratio (z) = -0.17798 0.46320
#
# Static dielectric constant tensor:
#      x y z
#    x 1.918350 -0.035210 0.036170 
#    y -0.035210 1.837100 0.004540 
#    z 0.036170 0.004540 1.824510 
# 
# From -- ./inp_files/222290.got.cif
#   From: 2010.05.17/outbox.cif.g08.bks.cpg/sg2_112_cif.got.tgz:222290.got - 2010.06.03 11:33:40.
