data_PCOD9046585
_publ_section_title
;
Structure prediction by ZEFSAII (Michael W. Deem and Ramdas Pophale) SiO2 
 PCOD9046585
Probable space group: P -1
;
_chemical_formula_sum "Si O2"
_cell_formula_units_Z 14
_cell_length_a 16.534872
_cell_length_b 5.072388
_cell_length_c 9.834696
_cell_angle_alpha 106.874153
_cell_angle_beta 69.167250
_cell_angle_gamma 135.576346
_cell_volume 538.782970
_symmetry_space_group_name_H-M "P -1"
_symmetry_group_IT_number 2
_symmetry_cell_setting 'triclinic'
loop_
_space_group_symop_operation_xyz
x,y,z
-x,-y,-z
loop_
_atom_site_type_symbol
_atom_site_label
_atom_site_fract_x
_atom_site_fract_y
_atom_site_fract_z
Si Si1 0.854595 0.728421 0.928443
Si Si2 0.492821 0.264084 0.763030
Si Si3 0.174493 0.787255 0.613861
Si Si4 0.729443 0.585599 0.554176
Si Si5 0.239600 0.711423 0.848170
Si Si6 0.381757 0.488474 0.989532
Si Si7 0.913628 0.249960 0.746632
O O1 0.711943 0.472098 0.962225
O O2 0.081939 0.884279 0.127942
O O3 0.859470 0.690408 0.082533
O O4 0.898220 0.543244 0.805889
O O5 0.594721 0.388196 0.621767
O O6 0.464446 0.533568 0.828128
O O7 0.365136 0.851034 0.749833
O O8 0.539194 0.302038 0.893653
O O9 0.248509 0.692082 0.495028
O O10 0.196892 0.805195 0.763867
O O11 0.034968 0.442294 0.625851
O O12 0.786323 0.846355 0.425190
O O13 0.803476 0.878526 0.677786
O O14 0.289467 0.030922 0.981216
#
# Coordination Sequence:
#
# PCOD9046585 Si02
#       7
#     2   2   2   2   2   2   2
#     4  12  22  43  75  98 136 162 229 278 349 375
#     4   9  20  44  72 100 134 168 224 274 340 387
#     4  12  29  44  68  92 146 179 227 265 329 390
#     4  12  25  47  68  97 130 188 224 275 316 403
#     4  10  24  43  65 107 137 172 213 275 343 411
#     4   9  20  43  68 106 129 167 210 291 324 401
#     4  12  25  46  69 102 124 182 230 285 316 391
#
# _framework density 25.984486
#
# number of rings (size 3 to 8) (size 9 to 14) (size 15 to 20)
#    0.857    0.286    2.857    2.571    2.000    4.000 
#    0.000    0.000    0.000    0.000    0.000    0.000 
#    0.000    0.000    0.000    0.000    0.000    0.000 
#
# Total GULP energy -78269.465003 kJ/mol
# GULP energy per Si atom -5590.676072 kJ/mol
# Density = 2.592534 g / cm^3
# Si number density = 25.984486 Si / 1000 Ang^3
#
#
#
# Elastic Constant Matrix: (Units=GPa)
#
#
# Indices 1 2 3 4 5 6 
#
# 1 116.6333 10.3131 20.8860 4.3211 -13.3711 -1.6578
# 2 10.3131 85.5934 18.0377 -10.2564 0.3921 6.9503
# 3 20.8860 18.0377 64.3541 -3.6006 -9.4590 0.6904
# 4 4.3211 -10.2564 -3.6006 41.8898 -1.9758 -1.3441
# 5 -13.3711 0.3921 -9.4590 -1.9758 46.7455 -1.5032
# 6 -1.6578 6.9503 0.6904 -1.3441 -1.5032 26.2702
#
#
#
# Elastic Compliance Matrix: (Units=1/GPa)
#
#
# Indices 1 2 3 4 5 6 
#
# 1 0.009418 -0.000827 -0.002589 -0.001265 0.002154 0.000940
# 2 -0.000827 0.013109 -0.003359 0.002851 -0.001013 -0.003344
# 3 -0.002589 -0.003359 0.017813 0.001131 0.002956 0.000484
# 4 -0.001265 0.002851 0.001131 0.024855 0.000908 0.000460
# 5 0.002154 -0.001013 0.002956 0.000908 0.022707 0.001672
# 6 0.000940 -0.003344 0.000484 0.000460 0.001672 0.039116
#
#
# Mechanical properties :
#
#
# Convention : Reuss Voigt Hill
#
# Bulk Modulus (GPa) = 37.32857 40.56159 38.94508
# Shear Modulus (GPa) = 33.44506 37.47070 35.45788
#
# Velocity S-wave (km/s) = 3.59153 3.80154 3.69803
# Velocity P-wave (km/s) = 5.62101 5.90870 5.76665
#
# Compressibility (1/GPa) = 0.02678913
#
# Stress axis : x y z
#
# Youngs Moduli (GPa) = 106.18261 76.28624 56.13765
#
# Poissons Ratio (x) = 0.06308 0.14534
# Poissons Ratio (y) = 0.08780 0.18859
# Poissons Ratio (z) = 0.27491 0.25627
#
# Static dielectric constant tensor:
#      x y z
#    x 2.062560 -0.020130 0.026380 
#    y -0.020130 2.066380 -0.062340 
#    z 0.026380 -0.062340 2.099850 
# 
# From -- ./inp_files/527923.got.cif
#   From: 2010.05.17/outbox.cif.g08.bks.cpg/sg2_264_cif.got.tgz:527923.got - 2010.06.03 11:33:40.
