data_PCOD9046089
_publ_section_title
;
Structure prediction by ZEFSAII (Michael W. Deem and Ramdas Pophale) SiO2 
 PCOD9046089
Probable space group: P -1
;
_chemical_formula_sum "Si O2"
_cell_formula_units_Z 13
_cell_length_a 9.241445
_cell_length_b 11.229923
_cell_length_c 5.549603
_cell_angle_alpha 97.327330
_cell_angle_beta 82.358890
_cell_angle_gamma 63.976109
_cell_volume 501.656513
_symmetry_space_group_name_H-M "P -1"
_symmetry_group_IT_number 2
_symmetry_cell_setting 'triclinic'
loop_
_space_group_symop_operation_xyz
x,y,z
-x,-y,-z
loop_
_atom_site_type_symbol
_atom_site_label
_atom_site_fract_x
_atom_site_fract_y
_atom_site_fract_z
Si Si1 0.312752 0.927021 0.923228
Si Si2 0.976881 0.787910 0.591889
Si Si3 0.731787 0.292632 0.860626
Si Si4 0.927606 0.479487 0.261117
Si Si5 0.615653 0.896807 0.649238
Si Si6 0.423482 0.443537 0.705952
Si Si7 0.000000 0.000000 0.000000
O O1 0.493849 0.836524 0.751413
O O2 0.155128 0.020269 0.824048
O O3 0.222507 0.836840 0.011556
O O4 0.355095 0.012697 0.128235
O O5 0.805662 0.801910 0.526905
O O6 0.122079 0.728619 0.350253
O O7 0.031293 0.677532 0.766907
O O8 0.973687 0.919219 0.748309
O O9 0.572327 0.310518 0.748864
O O10 0.659865 0.434395 0.050656
O O11 0.732020 0.572494 0.342973
O O12 0.000000 0.500000 0.500000
O O13 0.000000 0.500000 0.000000
O O14 0.500000 0.000000 0.500000
O O15 0.500000 0.500000 0.500000
#
# Coordination Sequence:
#
# PCOD9046089 Si02
#       7
#     2   2   2   2   2   2   1
#     4  10  24  42  67 104 136 196 242 310 377 449
#     4  11  25  49  75 114 149 207 253 322 386 463
#     4  11  25  44  78 106 146 197 262 321 383 459
#     4  12  28  49  77 116 161 206 257 322 401 472
#     4  10  25  45  66 102 153 189 251 304 384 456
#     4  11  25  48  73 107 149 192 262 317 383 462
#     4  10  24  44  78 100 152 184 268 306 380 452
#
# _framework density 25.914144
#
# number of rings (size 3 to 8) (size 9 to 14) (size 15 to 20)
#    0.000    1.231    1.538    1.846    8.615    2.462 
#    5.538    0.000    0.000    0.000    0.000    0.000 
#    0.000    0.000    0.000    0.000    0.000    0.000 
#
# Total GULP energy -72498.848489 kJ/mol
# GULP energy per Si atom -5576.834499 kJ/mol
# Density = 2.585516 g / cm^3
# Si number density = 25.914144 Si / 1000 Ang^3
#
#
#
# Elastic Constant Matrix: (Units=GPa)
#
#
# Indices 1 2 3 4 5 6 
#
# 1 284.1361 23.6851 91.0387 3.0288 -21.1952 -25.6995
# 2 23.6851 70.9359 30.6680 0.0277 -16.4039 0.1414
# 3 91.0387 30.6680 119.1919 6.1526 -33.6032 5.7792
# 4 3.0288 0.0277 6.1526 46.9847 5.7898 -0.9116
# 5 -21.1952 -16.4039 -33.6032 5.7898 63.7577 4.3567
# 6 -25.6995 0.1414 5.7792 -0.9116 4.3567 45.2803
#
#
#
# Elastic Compliance Matrix: (Units=1/GPa)
#
#
# Indices 1 2 3 4 5 6 
#
# 1 0.005187 -0.000044 -0.004397 0.000421 -0.000889 0.003599
# 2 -0.000044 0.016149 -0.003498 0.000175 0.002270 0.000156
# 3 -0.004397 -0.003498 0.014694 -0.002468 0.005947 -0.004982
# 4 0.000421 0.000175 -0.002468 0.021999 -0.003203 0.001304
# 5 -0.000889 0.002270 0.005947 -0.003203 0.019618 -0.003223
# 6 0.003599 0.000156 -0.004982 0.001304 -0.003223 0.025099
#
#
# Mechanical properties :
#
#
# Convention : Reuss Voigt Hill
#
# Bulk Modulus (GPa) = 49.62446 85.00527 67.31486
# Shear Modulus (GPa) = 39.89083 53.12936 46.51010
#
# Velocity S-wave (km/s) = 3.92771 4.53283 4.24108
# Velocity P-wave (km/s) = 6.30558 7.76333 7.07211
#
# Compressibility (1/GPa) = 0.02015135
#
# Stress axis : x y z
#
# Youngs Moduli (GPa) = 192.80100 61.92399 68.05444
#
# Poissons Ratio (x) = 0.00270 0.29924
# Poissons Ratio (y) = 0.00841 0.23808
# Poissons Ratio (z) = 0.84777 0.21664
#
# Static dielectric constant tensor:
#      x y z
#    x 2.061410 0.275460 -0.194750 
#    y 0.275460 1.782250 0.191710 
#    z -0.194750 0.191710 2.194770 
# 
# From -- ./inp_files/25095.got.cif
#   From: 2010.05.17/outbox.cif.g08.bks.cpg/sg2_13_cif.got.tgz:25095.got - 2010.06.03 11:33:40.
