data_PCOD9046500
_publ_section_title
;
Structure prediction by ZEFSAII (Michael W. Deem and Ramdas Pophale) SiO2 
 PCOD9046500
Probable space group: P -1
;
_chemical_formula_sum "Si O2"
_cell_formula_units_Z 10
_cell_length_a 5.244224
_cell_length_b 7.142557
_cell_length_c 14.667334
_cell_angle_alpha 40.716082
_cell_angle_beta 86.429930
_cell_angle_gamma 78.905189
_cell_volume 348.668549
_symmetry_space_group_name_H-M "P -1"
_symmetry_group_IT_number 2
_symmetry_cell_setting 'triclinic'
loop_
_space_group_symop_operation_xyz
x,y,z
-x,-y,-z
loop_
_atom_site_type_symbol
_atom_site_label
_atom_site_fract_x
_atom_site_fract_y
_atom_site_fract_z
Si Si1 0.797461 0.658548 0.577627
Si Si2 0.606514 0.313946 0.273375
Si Si3 0.294354 0.190198 0.178724
Si Si4 0.741902 0.384028 0.505463
Si Si5 0.890997 0.774694 0.024302
O O1 0.667654 0.601175 0.696685
O O2 0.580489 0.557737 0.544208
O O3 0.115189 0.571490 0.610813
O O4 0.739648 0.007153 0.431556
O O5 0.126801 0.517363 0.076257
O O6 0.714823 0.600080 0.149345
O O7 0.574072 0.202898 0.209867
O O8 0.208915 0.951978 0.334941
O O9 0.266410 0.093245 0.112183
O O10 0.000000 0.500000 0.500000
O O11 0.000000 0.000000 0.000000
#
# Coordination Sequence:
#
# PCOD9046500 Si02
#       5
#     2   2   2   2   2
#     4  10  24  42  75 114 157 197 245 317 395 455
#     4  11  23  48  76 115 153 200 256 319 381 458
#     4  11  25  47  76 114 150 202 259 316 378 459
#     4  11  22  45  73 117 153 199 247 318 386 462
#     4  11  27  51  76 108 155 209 259 315 376 457
#
# _framework density 28.680530999999998
#
# number of rings (size 3 to 8) (size 9 to 14) (size 15 to 20)
#    0.000    1.200    4.000    0.600    2.800    3.200 
#   10.800    0.000    0.000    0.000    0.000    0.000 
#    0.000    0.000    0.000    0.000    0.000    0.000 
#
# Total GULP energy -55879.664292 kJ/mol
# GULP energy per Si atom -5587.966429 kJ/mol
# Density = 2.861525 g / cm^3
# Si number density = 28.680531 Si / 1000 Ang^3
#
#
#
# Elastic Constant Matrix: (Units=GPa)
#
#
# Indices 1 2 3 4 5 6 
#
# 1 177.4235 32.0654 34.4721 13.4319 -49.8109 8.2317
# 2 32.0654 208.9524 52.1168 -1.0105 -11.3593 62.6182
# 3 34.4721 52.1168 141.1653 21.0317 -22.4658 39.0068
# 4 13.4319 -1.0105 21.0317 57.4117 11.5203 2.0322
# 5 -49.8109 -11.3593 -22.4658 11.5203 63.6613 -1.5839
# 6 8.2317 62.6182 39.0068 2.0322 -1.5839 52.2467
#
#
#
# Elastic Compliance Matrix: (Units=1/GPa)
#
#
# Indices 1 2 3 4 5 6 
#
# 1 0.007888 -0.000921 -0.000168 -0.003119 0.006520 0.000305
# 2 -0.000921 0.007663 -0.000213 0.000699 0.000224 -0.008900
# 3 -0.000168 -0.000213 0.010535 -0.004401 0.004163 -0.007286
# 4 -0.003119 0.000699 -0.004401 0.021244 -0.007667 0.001881
# 5 0.006520 0.000224 0.004163 -0.007667 0.023622 -0.003390
# 6 0.000305 -0.008900 -0.007286 0.001881 -0.003390 0.035022
#
#
# Mechanical properties :
#
#
# Convention : Reuss Voigt Hill
#
# Bulk Modulus (GPa) = 42.58673 84.98333 63.78503
# Shear Modulus (GPa) = 42.95299 61.92306 52.43802
#
# Velocity S-wave (km/s) = 3.87413 4.65161 4.28056
# Velocity P-wave (km/s) = 5.90701 7.65149 6.83513
#
# Compressibility (1/GPa) = 0.02348149
#
# Stress axis : x y z
#
# Youngs Moduli (GPa) = 126.77900 130.49698 94.91883
#
# Poissons Ratio (x) = 0.12013 0.01597
# Poissons Ratio (y) = 0.11671 0.02026
# Poissons Ratio (z) = 0.02134 0.02786
#
# Static dielectric constant tensor:
#      x y z
#    x 2.377570 0.134130 0.129300 
#    y 0.134130 1.568690 -0.378810 
#    z 0.129300 -0.378810 1.746820 
# 
# From -- ./inp_files/21873.got.cif
#   From: 2010.05.17/outbox.cif.g08.bks.cpg/sg2_11_cif.got.tgz:21873.got - 2010.06.03 11:33:40.
