data_PCOD9046562
_publ_section_title
;
Structure prediction by ZEFSAII (Michael W. Deem and Ramdas Pophale) SiO2 
 PCOD9046562
Probable space group: P -1
;
_chemical_formula_sum "Si O2"
_cell_formula_units_Z 16
_cell_length_a 6.647749
_cell_length_b 16.863103
_cell_length_c 8.689691
_cell_angle_alpha 108.619390
_cell_angle_beta 53.785123
_cell_angle_gamma 111.723382
_cell_volume 723.511113
_symmetry_space_group_name_H-M "P -1"
_symmetry_group_IT_number 2
_symmetry_cell_setting 'triclinic'
loop_
_space_group_symop_operation_xyz
x,y,z
-x,-y,-z
loop_
_atom_site_type_symbol
_atom_site_label
_atom_site_fract_x
_atom_site_fract_y
_atom_site_fract_z
Si Si1 0.231871 0.443337 0.023436
Si Si2 0.510935 0.148586 0.815109
Si Si3 0.913496 0.743465 0.887402
Si Si4 0.784351 0.538245 0.325526
Si Si5 0.880778 0.971027 0.281711
Si Si6 0.305569 0.890100 0.960685
Si Si7 0.182279 0.118089 0.420239
Si Si8 0.001383 0.273270 0.516561
O O1 0.201317 0.346681 0.035524
O O2 0.986362 0.477768 0.214146
O O3 0.500000 0.500000 0.000000
O O4 0.237648 0.448466 0.839234
O O5 0.733363 0.218468 0.672493
O O6 0.375656 0.067938 0.719857
O O7 0.294068 0.198659 0.989817
O O8 0.619276 0.117328 0.901497
O O9 0.143992 0.798266 0.918219
O O10 0.002751 0.728298 0.666488
O O11 0.500000 0.500000 0.500000
O O12 0.912110 0.630149 0.401212
O O13 0.871209 0.910367 0.398504
O O14 0.957401 0.066386 0.376052
O O15 0.122115 0.955419 0.065602
O O16 0.564380 0.911213 0.760367
O O17 0.202864 0.218168 0.447304
#
# Coordination Sequence:
#
# PCOD9046562 Si02
#       8
#     2   2   2   2   2   2   2   2
#     4  11  25  47  69  98 134 175 220 274 333 402
#     4  11  23  42  65  95 131 171 220 269 321 388
#     4  11  25  41  68  95 130 174 220 263 328 391
#     4  11  27  45  71 101 135 172 221 279 331 395
#     4  10  24  43  64  94 129 177 218 268 329 377
#     4  11  22  43  64  93 130 173 218 270 319 385
#     4  11  23  42  65  95 132 169 221 271 322 391
#     4  12  24  43  67  98 132 173 215 272 329 385
#
# _framework density 22.114381999999999
#
# number of rings (size 3 to 8) (size 9 to 14) (size 15 to 20)
#    0.000    1.000    2.500    3.375    3.500    6.000 
#    2.250    0.000    0.000    0.000    0.000    0.000 
#    0.000    0.000    0.000    0.000    0.000    0.000 
#
# Total GULP energy -89609.164503 kJ/mol
# GULP energy per Si atom -5600.572781 kJ/mol
# Density = 2.206405 g / cm^3
# Si number density = 22.114382 Si / 1000 Ang^3
#
#
#
# Elastic Constant Matrix: (Units=GPa)
#
#
# Indices 1 2 3 4 5 6 
#
# 1 105.6202 37.2899 45.5045 5.2300 -5.7237 21.9101
# 2 37.2899 100.8934 20.0699 7.5343 10.2219 20.2200
# 3 45.5045 20.0699 110.2627 -7.2291 -7.0567 18.9691
# 4 5.2300 7.5343 -7.2291 35.6462 12.3049 3.1798
# 5 -5.7237 10.2219 -7.0567 12.3049 31.5915 -1.1653
# 6 21.9101 20.2200 18.9691 3.1798 -1.1653 42.7117
#
#
#
# Elastic Compliance Matrix: (Units=1/GPa)
#
#
# Indices 1 2 3 4 5 6 
#
# 1 0.013662 -0.003732 -0.004416 -0.003168 0.003822 -0.002940
# 2 -0.003732 0.012695 -0.000402 -0.000142 -0.004967 -0.004041
# 3 -0.004416 -0.000402 0.011722 0.003166 0.000606 -0.002969
# 4 -0.003168 -0.000142 0.003166 0.033960 -0.013144 -0.002600
# 5 0.003822 -0.004967 0.000606 -0.013144 0.039289 0.002172
# 6 -0.002940 -0.004041 -0.002969 -0.002600 0.002172 0.028406
#
#
# Mechanical properties :
#
#
# Convention : Reuss Voigt Hill
#
# Bulk Modulus (GPa) = 47.67075 58.05609 52.86342
# Shear Modulus (GPa) = 30.51981 36.25067 33.38524
#
# Velocity S-wave (km/s) = 3.71898 4.05314 3.88965
# Velocity P-wave (km/s) = 6.32806 6.94360 6.64296
#
# Compressibility (1/GPa) = 0.02097722
#
# Stress axis : x y z
#
# Youngs Moduli (GPa) = 73.19469 78.77243 85.30831
#
# Poissons Ratio (x) = 0.29402 0.37674
# Poissons Ratio (y) = 0.27320 0.03432
# Poissons Ratio (z) = 0.32324 0.03169
#
# Static dielectric constant tensor:
#      x y z
#    x 1.803630 0.016600 -0.031000 
#    y 0.016600 1.765070 0.001070 
#    z -0.031000 0.001070 1.812010 
# 
# From -- ./inp_files/49189.got.cif
#   From: 2010.05.17/outbox.cif.g08.bks.cpg/sg2_25_cif.got.tgz:49189.got - 2010.06.03 11:33:40.
