data_PCOD9046471
_publ_section_title
;
Structure prediction by ZEFSAII (Michael W. Deem and Ramdas Pophale) SiO2 
 PCOD9046471
Probable space group: P -1
;
_chemical_formula_sum "Si O2"
_cell_formula_units_Z 16
_cell_length_a 13.515585
_cell_length_b 12.661068
_cell_length_c 9.416091
_cell_angle_alpha 55.261169
_cell_angle_beta 55.413057
_cell_angle_gamma 101.991247
_cell_volume 674.973010
_symmetry_space_group_name_H-M "P -1"
_symmetry_group_IT_number 2
_symmetry_cell_setting 'triclinic'
loop_
_space_group_symop_operation_xyz
x,y,z
-x,-y,-z
loop_
_atom_site_type_symbol
_atom_site_label
_atom_site_fract_x
_atom_site_fract_y
_atom_site_fract_z
Si Si1 0.520742 0.876600 0.656022
Si Si2 0.304008 0.307567 0.717765
Si Si3 0.106307 0.220716 0.205963
Si Si4 0.196528 0.670508 0.298421
Si Si5 0.808063 0.382210 0.336013
Si Si6 0.268308 0.956202 0.374257
Si Si7 0.597203 0.880929 0.148486
Si Si8 0.494713 0.570737 0.802790
O O1 0.515778 0.743210 0.669765
O O2 0.500000 0.000000 0.500000
O O3 0.707050 0.011669 0.502602
O O4 0.352414 0.731943 0.023224
O O5 0.500000 0.500000 0.500000
O O6 0.279914 0.134054 0.881064
O O7 0.343518 0.360960 0.480558
O O8 0.146262 0.248033 0.983786
O O9 0.952057 0.202837 0.369713
O O10 0.292286 0.382761 0.029476
O O11 0.000000 0.000000 0.500000
O O12 0.154209 0.570433 0.563536
O O13 0.000000 0.500000 0.500000
O O14 0.286611 0.890639 0.080547
O O15 0.679080 0.145260 0.619387
O O16 0.632968 0.325328 0.464584
O O17 0.000000 0.500000 0.000000
O O18 0.396597 0.136231 0.015160
O O19 0.500000 0.500000 0.000000
#
# Coordination Sequence:
#
# PCOD9046471 Si02
#       8
#     2   2   2   2   2   2   2   2
#     4  12  26  46  71 105 153 191 237 305 383 425
#     4  10  24  42  74 100 136 188 249 292 356 435
#     4  11  23  45  76 104 137 194 254 296 356 444
#     4  11  25  41  66 104 141 188 232 297 365 427
#     4  11  25  41  69 101 139 188 243 285 362 436
#     4  11  23  43  70 100 144 193 238 299 359 432
#     4  11  21  47  71 100 144 189 244 300 357 432
#     4  11  27  47  71 108 146 191 240 309 371 430
#
# _framework density 23.704650999999998
#
# number of rings (size 3 to 8) (size 9 to 14) (size 15 to 20)
#    0.000    1.000    3.750    2.250   10.500    0.000 
#    0.000    2.500    0.000    0.000    0.000    0.000 
#    0.000    0.000    0.000    0.000    0.000    0.000 
#
# Total GULP energy -89202.870861 kJ/mol
# GULP energy per Si atom -5575.179429 kJ/mol
# Density = 2.365070 g / cm^3
# Si number density = 23.704651 Si / 1000 Ang^3
#
#
#
# Elastic Constant Matrix: (Units=GPa)
#
#
# Indices 1 2 3 4 5 6 
#
# 1 97.9089 31.0706 37.2732 0.7184 5.6951 21.0042
# 2 31.0706 114.9154 29.3319 5.0791 9.7664 13.6742
# 3 37.2732 29.3319 102.4587 28.5179 -0.9614 15.7155
# 4 0.7184 5.0791 28.5179 47.8599 6.1775 7.9477
# 5 5.6951 9.7664 -0.9614 6.1775 45.2965 2.7525
# 6 21.0042 13.6742 15.7155 7.9477 2.7525 46.3114
#
#
#
# Elastic Compliance Matrix: (Units=1/GPa)
#
#
# Indices 1 2 3 4 5 6 
#
# 1 0.013717 -0.001967 -0.004811 0.003841 -0.001649 -0.004569
# 2 -0.001967 0.010091 -0.002193 0.000747 -0.001995 -0.001353
# 3 -0.004811 -0.002193 0.014698 -0.008654 0.002620 -0.000829
# 4 0.003841 0.000747 -0.008654 0.027036 -0.004308 -0.003410
# 5 -0.001649 -0.001995 0.002620 -0.004308 0.023370 -0.000202
# 6 -0.004569 -0.001353 -0.000829 -0.003410 -0.000202 0.024943
#
#
# Mechanical properties :
#
#
# Convention : Reuss Voigt Hill
#
# Bulk Modulus (GPa) = 48.62356 56.73716 52.68036
# Shear Modulus (GPa) = 36.06185 42.40070 39.23128
#
# Velocity S-wave (km/s) = 3.90461 4.23390 4.07259
# Velocity P-wave (km/s) = 6.39412 6.92013 6.66232
#
# Compressibility (1/GPa) = 0.02056616
#
# Stress axis : x y z
#
# Youngs Moduli (GPa) = 72.90170 99.09844 68.03556
#
# Poissons Ratio (x) = 0.19491 0.32730
# Poissons Ratio (y) = 0.14338 0.14917
# Poissons Ratio (z) = 0.35071 0.21727
#
# Static dielectric constant tensor:
#      x y z
#    x 1.770060 0.191500 -0.105540 
#    y 0.191500 1.838580 0.091720 
#    z -0.105540 0.091720 1.885880 
# 
# From -- ./inp_files/306920.got.cif
#   From: 2010.05.17/outbox.cif.g08.bks.cpg/sg2_154_cif.got.tgz:306920.got - 2010.06.03 11:33:40.
