data_PCOD9046175
_publ_section_title
;
Structure prediction by ZEFSAII (Michael W. Deem and Ramdas Pophale) SiO2 
 PCOD9046175
Probable space group: P -1
;
_chemical_formula_sum "Si O2"
_cell_formula_units_Z 15
_cell_length_a 9.745752
_cell_length_b 11.564813
_cell_length_c 8.920708
_cell_angle_alpha 112.676318
_cell_angle_beta 132.489200
_cell_angle_gamma 89.505551
_cell_volume 635.539086
_symmetry_space_group_name_H-M "P -1"
_symmetry_group_IT_number 2
_symmetry_cell_setting 'triclinic'
loop_
_space_group_symop_operation_xyz
x,y,z
-x,-y,-z
loop_
_atom_site_type_symbol
_atom_site_label
_atom_site_fract_x
_atom_site_fract_y
_atom_site_fract_z
Si Si1 0.280249 0.828729 0.213826
Si Si2 0.499920 0.631178 0.257719
Si Si3 0.495617 0.952279 0.728298
Si Si4 0.844008 0.398673 0.450580
Si Si5 0.500000 0.500000 0.500000
Si Si6 0.207813 0.344550 0.769110
Si Si7 0.898816 0.578355 0.856501
Si Si8 0.427045 0.177146 0.989449
O O1 0.435192 0.757336 0.249737
O O2 0.328017 0.873091 0.443652
O O3 0.323366 0.952997 0.196098
O O4 0.065903 0.711063 0.985562
O O5 0.516989 0.611050 0.435507
O O6 0.703352 0.652641 0.330813
O O7 0.330361 0.497007 0.994894
O O8 0.561354 0.862566 0.848900
O O9 0.421794 0.049624 0.824137
O O10 0.787244 0.476560 0.586127
O O11 0.639874 0.301107 0.179970
O O12 0.000000 0.500000 0.500000
O O13 0.974787 0.320322 0.580181
O O14 0.708076 0.602100 0.788847
O O15 0.259766 0.231654 0.839031
O O16 0.000000 0.500000 0.000000
#
# Coordination Sequence:
#
# PCOD9046175 Si02
#       8
#     2   2   2   2   1   2   2   2
#     4  11  21  44  69  93 139 184 224 272 341 406
#     4  11  22  38  64 100 137 168 211 285 348 395
#     4  10  24  42  68  92 135 196 232 269 318 405
#     4  12  23  39  69 103 135 170 219 286 354 403
#     4  12  24  38  64 108 136 162 212 276 358 412
#     4  11  22  41  65 101 136 167 217 288 342 403
#     4  12  23  40  67 104 136 170 210 283 358 400
#     4  11  23  43  68  97 131 184 231 275 334 398
#
# _framework density 23.602011000000001
#
# number of rings (size 3 to 8) (size 9 to 14) (size 15 to 20)
#    0.000    0.800    4.000    4.800    1.867    0.000 
#    0.000    2.667    5.867    2.400    0.000    0.000 
#    0.000    0.000    0.000    0.000    0.000    0.000 
#
# Total GULP energy -83742.803237 kJ/mol
# GULP energy per Si atom -5582.853549 kJ/mol
# Density = 2.354829 g / cm^3
# Si number density = 23.602011 Si / 1000 Ang^3
#
#
#
# Elastic Constant Matrix: (Units=GPa)
#
#
# Indices 1 2 3 4 5 6 
#
# 1 26.0747 15.2413 12.0398 0.2251 -16.5007 14.0076
# 2 15.2413 116.2866 26.4519 -30.3852 -7.1688 17.1963
# 3 12.0398 26.4519 71.2439 -8.8770 -12.5731 -12.1508
# 4 0.2251 -30.3852 -8.8770 41.8394 -3.0949 -12.9837
# 5 -16.5007 -7.1688 -12.5731 -3.0949 54.7327 -5.7374
# 6 14.0076 17.1963 -12.1508 -12.9837 -5.7374 38.3786
#
#
#
# Elastic Compliance Matrix: (Units=1/GPa)
#
#
# Indices 1 2 3 4 5 6 
#
# 1 0.076623 -0.004675 -0.016843 -0.017185 0.013986 -0.034927
# 2 -0.004675 0.012232 -0.003294 0.007450 -0.000389 -0.002355
# 3 -0.016843 -0.003294 0.022508 0.008145 0.001988 0.017802
# 4 -0.017185 0.007450 0.008145 0.036919 0.001667 0.018252
# 5 0.013986 -0.000389 0.001988 0.001667 0.022955 -0.000305
# 6 -0.034927 -0.002355 0.017802 0.018252 -0.000305 0.051625
#
#
# Mechanical properties :
#
#
# Convention : Reuss Voigt Hill
#
# Bulk Modulus (GPa) = 16.19704 35.67459 25.93581
# Shear Modulus (GPa) = 17.06104 37.64830 27.35467
#
# Velocity S-wave (km/s) = 2.69153 3.99824 3.40810
# Velocity P-wave (km/s) = 4.06652 6.03842 5.14777
#
# Compressibility (1/GPa) = 0.06173967
#
# Stress axis : x y z
#
# Youngs Moduli (GPa) = 13.05092 81.75019 44.42945
#
# Poissons Ratio (x) = 0.38214 0.74833
# Poissons Ratio (y) = 0.06101 0.14635
# Poissons Ratio (z) = 0.21982 0.26928
#
# Static dielectric constant tensor:
#      x y z
#    x 1.695240 0.113960 -0.052420 
#    y 0.113960 1.908030 -0.030650 
#    z -0.052420 -0.030650 1.876750 
# 
# From -- ./inp_files/259748.got.cif
#   From: 2010.05.17/outbox.cif.g08.bks.cpg/sg2_130_cif.got.tgz:259748.got - 2010.06.03 11:33:40.
