data_PCOD9046915
_publ_section_title
;
Structure prediction by ZEFSAII (Michael W. Deem and Ramdas Pophale) SiO2 
 PCOD9046915
Probable space group: P -1
;
_chemical_formula_sum "Si O2"
_cell_formula_units_Z 16
_cell_length_a 20.505873
_cell_length_b 11.143411
_cell_length_c 11.661476
_cell_angle_alpha 149.049959
_cell_angle_beta 151.911967
_cell_angle_gamma 39.050334
_cell_volume 643.037815
_symmetry_space_group_name_H-M "P -1"
_symmetry_group_IT_number 2
_symmetry_cell_setting 'triclinic'
loop_
_space_group_symop_operation_xyz
x,y,z
-x,-y,-z
loop_
_atom_site_type_symbol
_atom_site_label
_atom_site_fract_x
_atom_site_fract_y
_atom_site_fract_z
Si Si1 0.305744 0.879709 0.959674
Si Si2 0.059900 0.568603 0.312684
Si Si3 0.795056 0.928382 0.808902
Si Si4 0.249595 0.378544 0.168591
Si Si5 0.027304 0.276833 0.440177
Si Si6 0.527147 0.316789 0.132902
Si Si7 0.300339 0.037106 0.560533
Si Si8 0.645025 0.488421 0.783489
O O1 0.164605 0.765742 0.609131
O O2 0.430254 0.716248 0.960645
O O3 0.297467 0.921526 0.117446
O O4 0.306823 0.136806 0.117241
O O5 0.144694 0.314899 0.239622
O O6 0.012536 0.631670 0.420620
O O7 0.914308 0.575833 0.025995
O O8 0.718056 0.882293 0.533695
O O9 0.924210 0.074114 0.093553
O O10 0.335993 0.590445 0.521590
O O11 0.273574 0.358455 0.053067
O O12 0.181945 0.171977 0.562781
O O13 0.000000 0.500000 0.500000
O O14 0.400265 0.480427 0.127461
O O15 0.460473 0.078093 0.872859
O O16 0.278083 0.766811 0.312702
O O17 0.500000 0.500000 0.500000
#
# Coordination Sequence:
#
# PCOD9046915 Si02
#       8
#     2   2   2   2   2   2   2   2
#     4  11  26  46  66 101 142 191 242 285 345 421
#     4  11  24  44  72 105 140 183 234 298 352 417
#     4  11  26  45  71 105 141 183 236 292 353 416
#     4  11  24  44  71 102 142 181 238 294 355 413
#     4  11  24  43  74 110 140 176 233 289 361 418
#     4  11  25  44  69  98 142 185 235 280 349 419
#     4  12  25  43  75 105 144 182 231 295 357 416
#     4  10  24  43  69 103 140 182 229 288 351 413
#
# _framework density 24.881895
#
# number of rings (size 3 to 8) (size 9 to 14) (size 15 to 20)
#    0.000    1.000    1.250    4.500    3.500   11.000 
#    0.000    3.125    0.000    0.000    0.000    0.000 
#    0.000    0.000    0.000    0.000    0.000    0.000 
#
# Total GULP energy -89369.725560 kJ/mol
# GULP energy per Si atom -5585.607848 kJ/mol
# Density = 2.482526 g / cm^3
# Si number density = 24.881895 Si / 1000 Ang^3
#
#
#
# Elastic Constant Matrix: (Units=GPa)
#
#
# Indices 1 2 3 4 5 6 
#
# 1 199.1085 40.5003 52.4924 6.3501 -6.9613 -37.3052
# 2 40.5003 62.2731 -3.0609 5.5218 -16.7565 -3.1377
# 3 52.4924 -3.0609 103.3799 -6.8103 1.9372 -2.8831
# 4 6.3501 5.5218 -6.8103 13.0915 -8.3031 0.7127
# 5 -6.9613 -16.7565 1.9372 -8.3031 38.4003 6.7121
# 6 -37.3052 -3.1377 -2.8831 0.7127 6.7121 41.6378
#
#
#
# Elastic Compliance Matrix: (Units=1/GPa)
#
#
# Indices 1 2 3 4 5 6 
#
# 1 0.009274 -0.006240 -0.005079 -0.007379 -0.003819 0.008229
# 2 -0.006240 0.022507 0.003632 0.001957 0.009850 -0.005265
# 3 -0.005079 0.003632 0.012828 0.009592 0.002791 -0.004003
# 4 -0.007379 0.001957 0.009592 0.098915 0.022360 -0.011097
# 5 -0.003819 0.009850 0.002791 0.022360 0.035853 -0.008649
# 6 0.008229 -0.005265 -0.004003 -0.011097 -0.008649 0.032300
#
#
# Mechanical properties :
#
#
# Convention : Reuss Voigt Hill
#
# Bulk Modulus (GPa) = 34.20508 60.51388 47.35948
# Shear Modulus (GPa) = 21.11526 36.94790 29.03158
#
# Velocity S-wave (km/s) = 2.91627 3.85766 3.41951
# Velocity P-wave (km/s) = 5.01162 6.64946 5.88777
#
# Compressibility (1/GPa) = 0.02923542
#
# Stress axis : x y z
#
# Youngs Moduli (GPa) = 107.82412 44.43083 77.95744
#
# Poissons Ratio (x) = 0.27726 0.39594
# Poissons Ratio (y) = 0.67284 -0.28318
# Poissons Ratio (z) = 0.54764 -0.16139
#
# Static dielectric constant tensor:
#      x y z
#    x 1.984220 -0.025110 -0.050020 
#    y -0.025110 1.910490 -0.002320 
#    z -0.050020 -0.002320 2.163440 
# 
# From -- ./inp_files/471269.got.cif
#   From: 2010.05.17/outbox.cif.g08.bks.cpg/sg2_236_cif.got.tgz:471269.got - 2010.06.03 11:33:40.
