data_PCOD9046415
_publ_section_title
;
Structure prediction by ZEFSAII (Michael W. Deem and Ramdas Pophale) SiO2 
 PCOD9046415
Probable space group: P -1
;
_chemical_formula_sum "Si O2"
_cell_formula_units_Z 13
_cell_length_a 9.930202
_cell_length_b 11.444973
_cell_length_c 10.524094
_cell_angle_alpha 58.917777
_cell_angle_beta 148.824285
_cell_angle_gamma 131.104324
_cell_volume 463.261867
_symmetry_space_group_name_H-M "P -1"
_symmetry_group_IT_number 2
_symmetry_cell_setting 'triclinic'
loop_
_space_group_symop_operation_xyz
x,y,z
-x,-y,-z
loop_
_atom_site_type_symbol
_atom_site_label
_atom_site_fract_x
_atom_site_fract_y
_atom_site_fract_z
Si Si1 0.524763 0.277726 0.731311
Si Si2 0.076496 0.579675 0.256765
Si Si3 0.531726 0.640370 0.806847
Si Si4 0.500000 0.000000 0.000000
Si Si5 0.282129 0.048653 0.072571
Si Si6 0.741176 0.973231 0.549442
Si Si7 0.884740 0.668289 0.440314
O O1 0.771133 0.399206 0.768718
O O2 0.277089 0.139492 0.517744
O O3 0.366035 0.343221 0.657873
O O4 0.638553 0.178986 0.958263
O O5 0.359461 0.666890 0.532717
O O6 0.943710 0.405078 0.302241
O O7 0.833165 0.635495 0.023311
O O8 0.925976 0.963110 0.821288
O O9 0.283197 0.458027 0.736195
O O10 0.595631 0.776738 0.878738
O O11 0.386978 0.047117 0.013799
O O12 0.927954 0.154771 0.551715
O O13 0.416881 0.956466 0.311120
#
# Coordination Sequence:
#
# PCOD9046415 Si02
#       7
#     2   2   2   1   2   2   2
#     4  11  23  48  70 112 140 189 239 295 346 422
#     4  10  25  47  72 105 145 190 234 288 353 422
#     4  10  25  47  70 106 139 192 235 287 357 419
#     4  10  24  42  72 104 136 184 226 296 350 406
#     4  11  24  46  70 105 143 181 238 293 350 424
#     4  11  25  42  70 104 139 185 233 295 348 412
#     4  10  24  44  72 105 145 185 237 291 353 417
#
# _framework density 28.061883999999999
#
# number of rings (size 3 to 8) (size 9 to 14) (size 15 to 20)
#    0.923    0.615    1.538    1.846    4.308    4.308 
#    2.769   10.769    0.000    0.000    0.000    0.000 
#    0.000    0.000    0.000    0.000    0.000    0.000 
#
# Total GULP energy -72635.288508 kJ/mol
# GULP energy per Si atom -5587.329885 kJ/mol
# Density = 2.799801 g / cm^3
# Si number density = 28.061884 Si / 1000 Ang^3
#
#
#
# Elastic Constant Matrix: (Units=GPa)
#
#
# Indices 1 2 3 4 5 6 
#
# 1 133.0013 48.3096 41.8144 -2.7636 20.9484 -15.6304
# 2 48.3096 155.9904 62.6966 10.6653 -7.9610 -27.5582
# 3 41.8144 62.6966 199.1851 -3.3347 29.5268 -9.6789
# 4 -2.7636 10.6653 -3.3347 64.0906 -9.4583 -10.0784
# 5 20.9484 -7.9610 29.5268 -9.4583 33.7568 -8.6856
# 6 -15.6304 -27.5582 -9.6789 -10.0784 -8.6856 68.3305
#
#
#
# Elastic Compliance Matrix: (Units=1/GPa)
#
#
# Indices 1 2 3 4 5 6 
#
# 1 0.009843 -0.003420 0.000041 -0.000034 -0.006963 -0.000012
# 2 -0.003420 0.009993 -0.003502 -0.000142 0.008483 0.003809
# 3 0.000041 -0.003502 0.007164 -0.000384 -0.007588 -0.001409
# 4 -0.000034 -0.000142 -0.000384 0.016966 0.005883 0.003131
# 5 -0.006963 0.008483 -0.007588 0.005883 0.046158 0.007488
# 6 -0.000012 0.003809 -0.001409 0.003131 0.007488 0.017382
#
#
# Mechanical properties :
#
#
# Convention : Reuss Voigt Hill
#
# Bulk Modulus (GPa) = 75.54077 88.20199 81.87138
# Shear Modulus (GPa) = 39.78361 55.59266 47.68813
#
# Velocity S-wave (km/s) = 3.76933 4.45575 4.12684
# Velocity P-wave (km/s) = 6.77655 7.61388 7.20738
#
# Compressibility (1/GPa) = 0.01323788
#
# Stress axis : x y z
#
# Youngs Moduli (GPa) = 101.59914 100.06962 139.58444
#
# Poissons Ratio (x) = 0.34224 -0.00577
# Poissons Ratio (y) = 0.34747 0.48886
# Poissons Ratio (z) = -0.00420 0.35047
#
# Static dielectric constant tensor:
#      x y z
#    x 2.080760 0.041260 -0.041100 
#    y 0.041260 2.157350 0.083340 
#    z -0.041100 0.083340 2.258220 
# 
# From -- ./inp_files/427677.got.cif
#   From: 2010.05.17/outbox.cif.g08.bks.cpg/sg2_214_cif.got.tgz:427677.got - 2010.06.03 11:33:40.
