data_PCOD9046343
_publ_section_title
;
Structure prediction by ZEFSAII (Michael W. Deem and Ramdas Pophale) SiO2 
 PCOD9046343
Probable space group: P -1
;
_chemical_formula_sum "Si O2"
_cell_formula_units_Z 16
_cell_length_a 11.621733
_cell_length_b 18.791039
_cell_length_c 11.531621
_cell_angle_alpha 28.079723
_cell_angle_beta 53.617739
_cell_angle_gamma 37.466621
_cell_volume 668.706358
_symmetry_space_group_name_H-M "P -1"
_symmetry_group_IT_number 2
_symmetry_cell_setting 'triclinic'
loop_
_space_group_symop_operation_xyz
x,y,z
-x,-y,-z
loop_
_atom_site_type_symbol
_atom_site_label
_atom_site_fract_x
_atom_site_fract_y
_atom_site_fract_z
Si Si1 0.935888 0.192716 0.336135
Si Si2 0.718177 0.554637 0.766982
Si Si3 0.739117 0.546729 0.359425
Si Si4 0.154485 0.209496 0.713204
Si Si5 0.538839 0.341703 0.423196
Si Si6 0.513941 0.816931 0.905697
Si Si7 0.285867 0.106897 0.028065
Si Si8 0.658181 0.041369 0.437179
O O1 0.720278 0.323417 0.339437
O O2 0.886820 0.357979 0.033075
O O3 0.000000 0.000000 0.500000
O O4 0.118835 0.090117 0.460454
O O5 0.800140 0.645347 0.528535
O O6 0.634355 0.503320 0.793412
O O7 0.524942 0.747994 0.682263
O O8 0.571265 0.608126 0.461312
O O9 0.764455 0.709590 0.129419
O O10 0.955818 0.320340 0.597854
O O11 0.666321 0.589749 0.208530
O O12 0.139804 0.185213 0.893116
O O13 0.350318 0.984980 0.860870
O O14 0.650943 0.101284 0.659474
O O15 0.383877 0.869338 0.796205
O O16 0.629146 0.881468 0.699339
O O17 0.500000 0.000000 0.000000
#
# Coordination Sequence:
#
# PCOD9046343 Si02
#       8
#     2   2   2   2   2   2   2   2
#     4  12  26  40  62  90 126 171 205 248 306 370
#     4  11  22  40  60  94 124 157 209 253 307 367
#     4  11  21  35  59  94 124 159 198 258 313 358
#     4  11  20  34  65  95 122 158 198 257 316 360
#     4  11  22  37  59  90 129 158 198 249 308 373
#     4  10  21  42  65  91 124 156 208 262 305 357
#     4  10  17  34  55  89 127 151 192 253 308 353
#     4  10  23  43  65  88 121 167 207 257 303 359
#
# _framework density 23.926793
#
# number of rings (size 3 to 8) (size 9 to 14) (size 15 to 20)
#    0.000    1.250    6.250    2.250    1.750    1.000 
#    0.000    4.375    0.000    1.500    0.000    0.000 
#    0.000    0.000    0.000    0.000    0.000    0.000 
#
# Total GULP energy -89511.407250 kJ/mol
# GULP energy per Si atom -5594.462953 kJ/mol
# Density = 2.387233 g / cm^3
# Si number density = 23.926793 Si / 1000 Ang^3
#
#
#
# Elastic Constant Matrix: (Units=GPa)
#
#
# Indices 1 2 3 4 5 6 
#
# 1 104.1065 35.6092 44.1486 7.8620 54.2717 -14.6078
# 2 35.6092 59.6779 10.4810 10.9572 15.2019 -18.4074
# 3 44.1486 10.4810 95.3646 5.6635 51.8215 -2.3740
# 4 7.8620 10.9572 5.6635 33.0050 1.2763 8.5352
# 5 54.2717 15.2019 51.8215 1.2763 57.2196 1.6646
# 6 -14.6078 -18.4074 -2.3740 8.5352 1.6646 38.8341
#
#
#
# Elastic Compliance Matrix: (Units=1/GPa)
#
#
# Indices 1 2 3 4 5 6 
#
# 1 0.025178 -0.004689 0.003710 -0.006669 -0.026139 0.010061
# 2 -0.004689 0.027034 0.003591 -0.011895 -0.006134 0.014147
# 3 0.003710 0.003591 0.022470 -0.006787 -0.024876 0.007029
# 4 -0.006669 -0.011895 -0.006787 0.041132 0.015246 -0.018256
# 5 -0.026139 -0.006134 -0.024876 0.015246 0.066682 -0.020469
# 6 0.010061 0.014147 0.007029 -0.018256 -0.020469 0.041560
#
#
# Mechanical properties :
#
#
# Convention : Reuss Voigt Hill
#
# Bulk Modulus (GPa) = 12.51482 48.84741 30.68112
# Shear Modulus (GPa) = 20.36936 37.07241 28.72089
#
# Velocity S-wave (km/s) = 2.92090 3.94052 3.46839
# Velocity P-wave (km/s) = 4.07644 6.41587 5.37498
#
# Compressibility (1/GPa) = 0.07990528
#
# Stress axis : x y z
#
# Youngs Moduli (GPa) = 39.71756 36.99074 44.50469
#
# Poissons Ratio (x) = 0.17344 -0.16510
# Poissons Ratio (y) = 0.18623 -0.15983
# Poissons Ratio (z) = -0.14734 -0.13284
#
# Static dielectric constant tensor:
#      x y z
#    x 1.956040 0.001620 0.014880 
#    y 0.001620 1.947080 -0.005310 
#    z 0.014880 -0.005310 1.937450 
# 
# From -- ./inp_files/438335.got.cif
#   From: 2010.05.17/outbox.cif.g08.bks.cpg/sg2_220_cif.got.tgz:438335.got - 2010.06.03 11:33:40.
