data_PCOD9046215
_publ_section_title
;
Structure prediction by ZEFSAII (Michael W. Deem and Ramdas Pophale) SiO2 
 PCOD9046215
Probable space group: P -1
;
_chemical_formula_sum "Si O2"
_cell_formula_units_Z 16
_cell_length_a 19.256508
_cell_length_b 12.862540
_cell_length_c 8.674503
_cell_angle_alpha 131.659657
_cell_angle_beta 130.692225
_cell_angle_gamma 27.005609
_cell_volume 717.487535
_symmetry_space_group_name_H-M "P -1"
_symmetry_group_IT_number 2
_symmetry_cell_setting 'triclinic'
loop_
_space_group_symop_operation_xyz
x,y,z
-x,-y,-z
loop_
_atom_site_type_symbol
_atom_site_label
_atom_site_fract_x
_atom_site_fract_y
_atom_site_fract_z
Si Si1 0.134229 0.687626 0.245957
Si Si2 0.388724 0.901452 0.033195
Si Si3 0.375303 0.225085 0.929407
Si Si4 0.377460 0.621202 0.580062
Si Si5 0.875806 0.544049 0.421589
Si Si6 0.131406 0.437064 0.203419
Si Si7 0.588543 0.276401 0.804109
Si Si8 0.937401 0.938043 0.925166
O O1 0.220126 0.730233 0.424897
O O2 0.113536 0.617221 0.296527
O O3 0.249304 0.450786 0.078365
O O4 0.978695 0.889629 0.119186
O O5 0.340279 0.815979 0.797387
O O6 0.552265 0.742046 0.038878
O O7 0.390215 0.873771 0.191549
O O8 0.284718 0.163743 0.107037
O O9 0.284391 0.238934 0.690442
O O10 0.500000 0.000000 0.000000
O O11 0.500000 0.500000 0.500000
O O12 0.473128 0.402251 0.618278
O O13 0.866138 0.564154 0.610086
O O14 0.000000 0.500000 0.500000
O O15 0.955850 0.304408 0.245819
O O16 0.000000 0.500000 0.000000
O O17 0.754972 0.126662 0.837105
O O18 0.500000 0.500000 0.000000
O O19 0.000000 0.000000 0.000000
#
# Coordination Sequence:
#
# PCOD9046215 Si02
#       8
#     2   2   2   2   2   2   2   2
#     4  11  24  43  69 106 141 178 239 294 354 419
#     4  11  24  43  70  97 145 185 230 290 360 413
#     4  11  23  44  71 102 140 189 235 294 354 425
#     4  11  23  42  69 104 138 180 234 289 353 419
#     4  11  27  46  71 102 140 185 244 286 357 423
#     4  12  26  46  70 101 145 185 235 298 353 423
#     4  10  24  42  69 100 140 179 230 284 349 416
#     4  11  25  48  73  99 142 189 232 288 354 426
#
# _framework density 22.300038000000001
#
# number of rings (size 3 to 8) (size 9 to 14) (size 15 to 20)
#    0.000    1.000    2.500    3.750    7.000    5.500 
#    0.000    3.750    0.000    0.000    0.000    0.000 
#    0.000    0.000    0.000    0.000    0.000    0.000 
#
# Total GULP energy -89396.958308 kJ/mol
# GULP energy per Si atom -5587.309894 kJ/mol
# Density = 2.224928 g / cm^3
# Si number density = 22.300038 Si / 1000 Ang^3
#
#
#
# Elastic Constant Matrix: (Units=GPa)
#
#
# Indices 1 2 3 4 5 6 
#
# 1 107.7723 2.1326 28.9436 -2.5148 -7.3206 17.0843
# 2 2.1326 62.4002 19.6995 -5.6677 -1.5521 2.5195
# 3 28.9436 19.6995 108.2575 -18.5283 -2.6312 9.7616
# 4 -2.5148 -5.6677 -18.5283 31.9572 1.4841 7.3685
# 5 -7.3206 -1.5521 -2.6312 1.4841 38.3015 3.8927
# 6 17.0843 2.5195 9.7616 7.3685 3.8927 32.0616
#
#
#
# Elastic Compliance Matrix: (Units=1/GPa)
#
#
# Indices 1 2 3 4 5 6 
#
# 1 0.010989 0.000736 -0.002357 0.000824 0.002515 -0.005691
# 2 0.000736 0.017138 -0.002887 0.001699 0.000707 -0.001336
# 3 -0.002357 -0.002887 0.011964 0.007107 0.000369 -0.003838
# 4 0.000824 0.001699 0.007107 0.038439 0.000406 -0.011620
# 5 0.002515 0.000707 0.000369 0.000406 0.027125 -0.004895
# 6 -0.005691 -0.001336 -0.003838 -0.011620 -0.004895 0.038761
#
#
# Mechanical properties :
#
#
# Convention : Reuss Voigt Hill
#
# Bulk Modulus (GPa) = 32.17978 42.22016 37.19997
# Shear Modulus (GPa) = 30.52693 35.64102 33.08397
#
# Velocity S-wave (km/s) = 3.70390 4.00215 3.85591
# Velocity P-wave (km/s) = 5.72307 6.35060 6.04499
#
# Compressibility (1/GPa) = 0.03107541
#
# Stress axis : x y z
#
# Youngs Moduli (GPa) = 90.99727 58.35119 83.58398
#
# Poissons Ratio (x) = -0.04292 0.19697
# Poissons Ratio (y) = -0.06694 0.24129
# Poissons Ratio (z) = 0.21444 0.16845
#
# Static dielectric constant tensor:
#      x y z
#    x 1.848740 -0.012670 -0.029100 
#    y -0.012670 1.871910 -0.018000 
#    z -0.029100 -0.018000 1.820440 
# 
# From -- ./inp_files/333823.got.cif
#   From: 2010.05.17/outbox.cif.g08.bks.cpg/sg2_167_cif.got.tgz:333823.got - 2010.06.03 11:33:40.
