data_PCOD9046931
_publ_section_title
;
Structure prediction by ZEFSAII (Michael W. Deem and Ramdas Pophale) SiO2 
 PCOD9046931
Probable space group: P -1
;
_chemical_formula_sum "Si O2"
_cell_formula_units_Z 13
_cell_length_a 14.772487
_cell_length_b 5.047335
_cell_length_c 8.646756
_cell_angle_alpha 124.790453
_cell_angle_beta 108.938326
_cell_angle_gamma 89.629241
_cell_volume 487.375187
_symmetry_space_group_name_H-M "P -1"
_symmetry_group_IT_number 2
_symmetry_cell_setting 'triclinic'
loop_
_space_group_symop_operation_xyz
x,y,z
-x,-y,-z
loop_
_atom_site_type_symbol
_atom_site_label
_atom_site_fract_x
_atom_site_fract_y
_atom_site_fract_z
Si Si1 0.549299 0.388593 0.141690
Si Si2 0.831418 0.006567 0.748850
Si Si3 0.064335 0.520588 0.804556
Si Si4 0.261886 0.842860 0.837957
Si Si5 0.125420 0.901856 0.541242
Si Si6 0.705611 0.501076 0.738645
Si Si7 0.500000 0.500000 0.500000
O O1 0.663571 0.392110 0.179006
O O2 0.530995 0.552627 0.347763
O O3 0.500000 0.500000 0.000000
O O4 0.500000 0.000000 0.000000
O O5 0.858841 0.943008 0.568984
O O6 0.747375 0.221898 0.756527
O O7 0.787498 0.699513 0.731391
O O8 0.924134 0.250831 0.962779
O O9 0.158153 0.704356 0.818599
O O10 0.958684 0.434703 0.636267
O O11 0.085617 0.155392 0.714549
O O12 0.229287 0.872842 0.655012
O O13 0.306758 0.205793 0.053328
O O14 0.603253 0.387495 0.556332
#
# Coordination Sequence:
#
# PCOD9046931 Si02
#       7
#     2   2   2   2   2   2   1
#     4  12  30  49  79 111 148 195 252 309 375 446
#     4  11  25  46  70 104 145 188 236 295 364 428
#     4  10  24  43  69 108 142 188 242 294 357 439
#     4  11  24  48  71 102 149 187 239 304 365 431
#     4  11  23  43  74 102 143 194 237 296 364 431
#     4  11  26  46  72 102 143 193 238 303 361 434
#     4  12  28  50  74 110 146 192 256 306 370 444
#
# _framework density 26.673499
#
# number of rings (size 3 to 8) (size 9 to 14) (size 15 to 20)
#    0.000    0.923    3.077    1.846   10.769    2.462 
#    0.000    2.308    0.000    0.000    0.000    0.000 
#    0.000    0.000    0.000    0.000    0.000    0.000 
#
# Total GULP energy -72648.970254 kJ/mol
# GULP energy per Si atom -5588.382327 kJ/mol
# Density = 2.661279 g / cm^3
# Si number density = 26.673499 Si / 1000 Ang^3
#
#
#
# Elastic Constant Matrix: (Units=GPa)
#
#
# Indices 1 2 3 4 5 6 
#
# 1 109.2482 22.9348 13.7429 -10.0587 -2.8729 -16.8125
# 2 22.9348 99.2491 42.5090 -22.8267 5.5866 -9.0031
# 3 13.7429 42.5090 116.5226 -26.3338 -9.9213 -9.5658
# 4 -10.0587 -22.8267 -26.3338 44.0496 -0.5031 5.8455
# 5 -2.8729 5.5866 -9.9213 -0.5031 47.7458 -8.2873
# 6 -16.8125 -9.0031 -9.5658 5.8455 -8.2873 39.4260
#
#
#
# Elastic Compliance Matrix: (Units=1/GPa)
#
#
# Indices 1 2 3 4 5 6 
#
# 1 0.010316 -0.001966 0.000190 0.000911 0.001630 0.004204
# 2 -0.001966 0.013278 -0.003888 0.004061 -0.002413 0.000141
# 3 0.000190 -0.003888 0.011469 0.004661 0.003240 0.001966
# 4 0.000911 0.004061 0.004661 0.028018 0.000568 -0.001588
# 5 0.001630 -0.002413 0.003240 0.000568 0.022989 0.005678
# 6 0.004204 0.000141 0.001966 -0.001588 0.005678 0.029095
#
#
# Mechanical properties :
#
#
# Convention : Reuss Voigt Hill
#
# Bulk Modulus (GPa) = 42.13238 53.71036 47.92137
# Shear Modulus (GPa) = 37.20131 42.63316 39.91723
#
# Velocity S-wave (km/s) = 3.73861 4.00225 3.87268
# Velocity P-wave (km/s) = 5.87079 6.44495 6.16455
#
# Compressibility (1/GPa) = 0.02373471
#
# Stress axis : x y z
#
# Youngs Moduli (GPa) = 96.93706 75.31295 87.19454
#
# Poissons Ratio (x) = 0.14808 -0.01660
# Poissons Ratio (y) = 0.19060 0.33902
# Poissons Ratio (z) = -0.01846 0.29283
#
# Static dielectric constant tensor:
#      x y z
#    x 2.092750 0.005450 -0.007220 
#    y 0.005450 2.066510 0.016990 
#    z -0.007220 0.016990 2.126850 
# 
# From -- ./inp_files/32694.got.cif
#   From: 2010.05.17/outbox.cif.g08.bks.cpg/sg2_17_cif.got.tgz:32694.got - 2010.06.03 11:33:40.
