data_PCOD9046391
_publ_section_title
;
Structure prediction by ZEFSAII (Michael W. Deem and Ramdas Pophale) SiO2 
 PCOD9046391
Probable space group: P -1
;
_chemical_formula_sum "Si O2"
_cell_formula_units_Z 14
_cell_length_a 8.622770
_cell_length_b 9.301368
_cell_length_c 11.756994
_cell_angle_alpha 128.246695
_cell_angle_beta 117.589000
_cell_angle_gamma 79.104889
_cell_volume 649.848450
_symmetry_space_group_name_H-M "P -1"
_symmetry_group_IT_number 2
_symmetry_cell_setting 'triclinic'
loop_
_space_group_symop_operation_xyz
x,y,z
-x,-y,-z
loop_
_atom_site_type_symbol
_atom_site_label
_atom_site_fract_x
_atom_site_fract_y
_atom_site_fract_z
Si Si1 0.063112 0.711146 0.087130
Si Si2 0.282282 0.103954 0.929798
Si Si3 0.629712 0.184526 0.608292
Si Si4 0.928255 0.503940 0.351915
Si Si5 0.147934 0.882517 0.546961
Si Si6 0.144034 0.867002 0.962206
Si Si7 0.518822 0.484374 0.137873
O O1 0.174925 0.816995 0.276430
O O2 0.884181 0.791871 0.047983
O O3 0.186917 0.769373 0.047413
O O4 0.000000 0.500000 0.000000
O O5 0.221782 0.978968 0.737483
O O6 0.292839 0.974429 0.981772
O O7 0.431436 0.276441 0.038467
O O8 0.675464 0.162292 0.480821
O O9 0.567486 0.362206 0.739512
O O10 0.500000 0.000000 0.500000
O O11 0.961370 0.307472 0.221469
O O12 0.722436 0.511075 0.259700
O O13 0.000000 0.500000 0.500000
O O14 0.036679 0.681405 0.420630
O O15 0.000000 0.000000 0.500000
O O16 0.000000 0.000000 0.000000
O O17 0.500000 0.500000 0.000000
#
# Coordination Sequence:
#
# PCOD9046391 Si02
#       7
#     2   2   2   2   2   2   2
#     4  11  21  42  74 104 137 189 244 293 356 435
#     4  11  23  44  68 104 143 189 236 299 364 429
#     4  12  25  42  70 110 141 183 244 304 355 421
#     4  12  26  49  71 105 146 191 237 300 370 432
#     4  12  24  44  75 106 148 191 241 295 366 435
#     4  10  24  42  72 100 140 185 240 289 360 433
#     4  12  27  46  73 110 145 190 251 303 355 438
#
# _framework density 21.543482999999998
#
# number of rings (size 3 to 8) (size 9 to 14) (size 15 to 20)
#    0.000    0.571    4.286    4.286    2.000    0.571 
#    2.571    0.714    0.000    0.000    0.000    0.000 
#    0.000    0.000    0.000    0.000    0.000    0.000 
#
# Total GULP energy -77976.462022 kJ/mol
# GULP energy per Si atom -5569.747287 kJ/mol
# Density = 2.149445 g / cm^3
# Si number density = 21.543483 Si / 1000 Ang^3
#
#
#
# Elastic Constant Matrix: (Units=GPa)
#
#
# Indices 1 2 3 4 5 6 
#
# 1 132.8502 75.7365 52.3803 19.1661 -3.1387 15.7470
# 2 75.7365 136.1730 50.0113 28.6917 -7.6202 24.6387
# 3 52.3803 50.0113 97.6833 25.8391 -8.2113 14.7205
# 4 19.1661 28.6917 25.8391 50.1551 5.7366 8.2527
# 5 -3.1387 -7.6202 -8.2113 5.7366 55.9304 11.3404
# 6 15.7470 24.6387 14.7205 8.2527 11.3404 52.5498
#
#
#
# Elastic Compliance Matrix: (Units=1/GPa)
#
#
# Indices 1 2 3 4 5 6 
#
# 1 0.012066 -0.005459 -0.003907 0.000591 -0.000721 0.000101
# 2 -0.005459 0.012645 -0.001768 -0.003894 0.002303 -0.003683
# 3 -0.003907 -0.001768 0.015167 -0.005290 0.002716 -0.002004
# 4 0.000591 -0.003894 -0.005290 0.025103 -0.003853 0.000020
# 5 -0.000721 0.002303 0.002716 -0.003853 0.020030 -0.005342
# 6 0.000101 -0.003683 -0.002004 0.000020 -0.005342 0.022437
#
#
# Mechanical properties :
#
#
# Convention : Reuss Voigt Hill
#
# Bulk Modulus (GPa) = 56.78800 80.32919 68.55860
# Shear Modulus (GPa) = 36.87726 44.29896 40.58811
#
# Velocity S-wave (km/s) = 4.14183 4.53952 4.34523
# Velocity P-wave (km/s) = 7.02068 8.05259 7.55428
#
# Compressibility (1/GPa) = 0.01760935
#
# Stress axis : x y z
#
# Youngs Moduli (GPa) = 82.88059 79.08430 65.93189
#
# Poissons Ratio (x) = 0.43170 0.25762
# Poissons Ratio (y) = 0.45243 0.11656
# Poissons Ratio (z) = 0.32384 0.13982
#
# Static dielectric constant tensor:
#      x y z
#    x 1.884010 0.074250 -0.081010 
#    y 0.074250 1.721850 0.083200 
#    z -0.081010 0.083200 1.542430 
# 
# From -- ./inp_files/156681.got.cif
#   From: 2010.05.17/outbox.cif.g08.bks.cpg/sg2_79_cif.got.tgz:156681.got - 2010.06.03 11:33:40.
