data_PCOD9046732
_publ_section_title
;
Structure prediction by ZEFSAII (Michael W. Deem and Ramdas Pophale) SiO2 
 PCOD9046732
Probable space group: P -1
;
_chemical_formula_sum "Si O2"
_cell_formula_units_Z 14
_cell_length_a 4.890822
_cell_length_b 9.413413
_cell_length_c 11.535634
_cell_angle_alpha 94.442276
_cell_angle_beta 89.461145
_cell_angle_gamma 104.349640
_cell_volume 512.951410
_symmetry_space_group_name_H-M "P -1"
_symmetry_group_IT_number 2
_symmetry_cell_setting 'triclinic'
loop_
_space_group_symop_operation_xyz
x,y,z
-x,-y,-z
loop_
_atom_site_type_symbol
_atom_site_label
_atom_site_fract_x
_atom_site_fract_y
_atom_site_fract_z
Si Si1 0.418863 0.591550 0.267548
Si Si2 0.907859 0.577266 0.118196
Si Si3 0.483692 0.653612 0.597321
Si Si4 0.065823 0.841770 0.981854
Si Si5 0.460599 0.926266 0.317294
Si Si6 0.418645 0.168880 0.164561
Si Si7 0.904512 0.173112 0.472561
O O1 0.095626 0.558622 0.226759
O O2 0.479135 0.506208 0.377002
O O3 0.522855 0.768192 0.287036
O O4 0.586744 0.539864 0.157131
O O5 0.976143 0.745883 0.088698
O O6 0.000000 0.500000 0.000000
O O7 0.444922 0.722563 0.727703
O O8 0.223239 0.684340 0.530585
O O9 0.768297 0.765253 0.553462
O O10 0.373875 0.830483 0.943302
O O11 0.858458 0.782840 0.870741
O O12 0.000000 0.000000 0.000000
O O13 0.198489 0.892605 0.405845
O O14 0.377770 0.007442 0.210602
O O15 0.726172 0.044879 0.380531
#
# Coordination Sequence:
#
# PCOD9046732 Si02
#       7
#     2   2   2   2   2   2   2
#     4  12  25  42  68  97 129 168 218 268 314 380
#     4  12  25  43  64  93 131 171 212 264 324 379
#     4  11  23  42  65  93 126 171 213 257 320 381
#     4  12  23  38  60  88 121 160 208 260 313 370
#     4  10  24  43  67  98 130 167 216 265 319 379
#     4  11  22  39  61  86 123 164 206 255 313 379
#     4  10  24  43  67  94 132 172 208 261 324 386
#
# _framework density 27.293032
#
# number of rings (size 3 to 8) (size 9 to 14) (size 15 to 20)
#    0.000    0.857    0.000    7.714    0.000   10.857 
#    0.000    0.000    0.000    0.000    0.000    0.000 
#    0.000    0.000    0.000    0.000    0.000    0.000 
#
# Total GULP energy -78519.758769 kJ/mol
# GULP energy per Si atom -5608.554198 kJ/mol
# Density = 2.723091 g / cm^3
# Si number density = 27.293032 Si / 1000 Ang^3
#
#
#
# Elastic Constant Matrix: (Units=GPa)
#
#
# Indices 1 2 3 4 5 6 
#
# 1 107.4452 19.4367 21.3592 -9.5736 -5.3558 -9.0724
# 2 19.4367 158.5578 11.7751 -24.8625 -2.0593 -16.0131
# 3 21.3592 11.7751 67.9734 -34.4428 -2.7638 2.1396
# 4 -9.5736 -24.8625 -34.4428 59.3568 -12.2802 0.5671
# 5 -5.3558 -2.0593 -2.7638 -12.2802 45.3646 -10.3075
# 6 -9.0724 -16.0131 2.1396 0.5671 -10.3075 37.5122
#
#
#
# Elastic Compliance Matrix: (Units=1/GPa)
#
#
# Indices 1 2 3 4 5 6 
#
# 1 0.010391 -0.000766 -0.003287 -0.000257 0.001560 0.002806
# 2 -0.000766 0.007313 0.000918 0.003879 0.002122 0.003408
# 3 -0.003287 0.000918 0.022983 0.014180 0.004751 -0.000623
# 4 -0.000257 0.003879 0.014180 0.028578 0.009414 0.002939
# 5 0.001560 0.002122 0.004751 0.009414 0.027048 0.008302
# 6 0.002806 0.003408 -0.000623 0.002939 0.008302 0.031064
#
#
# Mechanical properties :
#
#
# Convention : Reuss Voigt Hill
#
# Bulk Modulus (GPa) = 29.05587 48.79093 38.92340
# Shear Modulus (GPa) = 34.45437 47.20707 40.83072
#
# Velocity S-wave (km/s) = 3.55686 4.16340 3.87203
# Velocity P-wave (km/s) = 5.24761 6.40526 5.85512
#
# Compressibility (1/GPa) = 0.03441645
#
# Stress axis : x y z
#
# Youngs Moduli (GPa) = 96.23721 136.75148 43.50972
#
# Poissons Ratio (x) = 0.10479 0.14303
# Poissons Ratio (y) = 0.07374 -0.03996
# Poissons Ratio (z) = 0.31637 -0.12559
#
# Static dielectric constant tensor:
#      x y z
#    x 2.045460 0.020940 0.049450 
#    y 0.020940 2.251930 0.089170 
#    z 0.049450 0.089170 2.144980 
# 
# From -- ./inp_files/360665.got.cif
#   From: 2010.05.17/outbox.cif.g08.bks.cpg/sg2_181_cif.got.tgz:360665.got - 2010.06.03 11:33:40.
