data_PCOD9046389
_publ_section_title
;
Structure prediction by ZEFSAII (Michael W. Deem and Ramdas Pophale) SiO2 
 PCOD9046389
Probable space group: P -1
;
_chemical_formula_sum "Si O2"
_cell_formula_units_Z 13
_cell_length_a 4.967560
_cell_length_b 17.533510
_cell_length_c 6.598296
_cell_angle_alpha 114.632806
_cell_angle_beta 93.210595
_cell_angle_gamma 109.253666
_cell_volume 480.490955
_symmetry_space_group_name_H-M "P -1"
_symmetry_group_IT_number 2
_symmetry_cell_setting 'triclinic'
loop_
_space_group_symop_operation_xyz
x,y,z
-x,-y,-z
loop_
_atom_site_type_symbol
_atom_site_label
_atom_site_fract_x
_atom_site_fract_y
_atom_site_fract_z
Si Si1 0.442071 0.239036 0.863907
Si Si2 0.879532 0.398917 0.297128
Si Si3 0.484907 0.050561 0.758872
Si Si4 0.000000 0.000000 0.000000
Si Si5 0.217447 0.726710 0.476966
Si Si6 0.818513 0.564333 0.019125
Si Si7 0.019678 0.160240 0.112229
O O1 0.540676 0.156195 0.840141
O O2 0.509469 0.241699 0.630379
O O3 0.641629 0.341121 0.056436
O O4 0.154304 0.210956 0.964540
O O5 0.745891 0.336345 0.414537
O O6 0.000000 0.500000 0.500000
O O7 0.163676 0.408562 0.186437
O O8 0.500000 0.000000 0.500000
O O9 0.174339 0.997940 0.786246
O O10 0.763724 0.059627 0.925492
O O11 0.774517 0.887160 0.843392
O O12 0.947622 0.657046 0.255568
O O13 0.101994 0.792032 0.673822
O O14 0.500000 0.500000 0.000000
O O15 0.000000 0.500000 0.000000
#
# Coordination Sequence:
#
# PCOD9046389 Si02
#       7
#     2   2   2   1   2   2   2
#     4  10  25  44  66 108 140 186 243 298 363 439
#     4  11  23  45  72 104 143 192 252 300 375 440
#     4  11  23  44  68 103 138 180 236 294 364 442
#     4  10  24  42  72 100 136 184 234 292 372 438
#     4  11  24  46  72 100 147 193 241 311 364 444
#     4  11  26  46  73 111 145 196 255 312 377 447
#     4  11  24  45  71 103 142 187 240 297 371 447
#
# _framework density 27.055664
#
# number of rings (size 3 to 8) (size 9 to 14) (size 15 to 20)
#    0.000    1.231    3.077    1.385    2.154    6.769 
#    2.769    0.000    0.000    0.000    0.000    0.000 
#    0.000    0.000    0.000    0.000    0.000    0.000 
#
# Total GULP energy -72418.839754 kJ/mol
# GULP energy per Si atom -5570.679981 kJ/mol
# Density = 2.699408 g / cm^3
# Si number density = 27.055664 Si / 1000 Ang^3
#
#
#
# Elastic Constant Matrix: (Units=GPa)
#
#
# Indices 1 2 3 4 5 6 
#
# 1 116.2569 51.5220 62.5179 -3.3556 -46.0849 19.2401
# 2 51.5220 173.1401 73.5529 -27.6228 -42.4578 8.4662
# 3 62.5179 73.5529 257.8337 -5.0020 -57.5627 17.7822
# 4 -3.3556 -27.6228 -5.0020 68.4535 10.6432 -19.6921
# 5 -46.0849 -42.4578 -57.5627 10.6432 51.9151 -6.5599
# 6 19.2401 8.4662 17.7822 -19.6921 -6.5599 54.0650
#
#
#
# Elastic Compliance Matrix: (Units=1/GPa)
#
#
# Indices 1 2 3 4 5 6 
#
# 1 0.014705 -0.001738 -0.000270 -0.003099 0.011385 -0.004620
# 2 -0.001738 0.007987 -0.001154 0.002889 0.003269 0.001196
# 3 -0.000270 -0.001154 0.005445 -0.001242 0.004937 -0.001368
# 4 -0.003099 0.002889 -0.001242 0.018311 -0.004613 0.007169
# 5 0.011385 0.003269 0.004937 -0.004613 0.038051 -0.003251
# 6 -0.004620 0.001196 -0.001368 0.007169 -0.003251 0.022619
#
#
# Mechanical properties :
#
#
# Convention : Reuss Voigt Hill
#
# Bulk Modulus (GPa) = 45.84050 102.49070 74.16560
# Shear Modulus (GPa) = 41.42055 58.86256 50.14156
#
# Velocity S-wave (km/s) = 3.91697 4.66940 4.30964
# Velocity P-wave (km/s) = 6.11855 8.18748 7.22743
#
# Compressibility (1/GPa) = 0.02181477
#
# Stress axis : x y z
#
# Youngs Moduli (GPa) = 68.00408 125.20272 183.64382
#
# Poissons Ratio (x) = 0.21761 0.04949
# Poissons Ratio (y) = 0.11819 0.21188
# Poissons Ratio (z) = 0.01833 0.14445
#
# Static dielectric constant tensor:
#      x y z
#    x 2.446290 -0.056900 -0.216060 
#    y -0.056900 2.061450 0.327100 
#    z -0.216060 0.327100 1.555150 
# 
# From -- ./inp_files/8658.got.cif
#   From: 2010.05.17/outbox.cif.g08.bks.cpg/sg2_5_cif.got.tgz:8658.got - 2010.06.03 11:33:40.
