data_PCOD9046787
_publ_section_title
;
Structure prediction by ZEFSAII (Michael W. Deem and Ramdas Pophale) SiO2 
 PCOD9046787
Probable space group: P -1
;
_chemical_formula_sum "Si O2"
_cell_formula_units_Z 16
_cell_length_a 15.389368
_cell_length_b 5.449484
_cell_length_c 18.387332
_cell_angle_alpha 78.407823
_cell_angle_beta 150.299357
_cell_angle_gamma 94.120511
_cell_volume 731.503007
_symmetry_space_group_name_H-M "P -1"
_symmetry_group_IT_number 2
_symmetry_cell_setting 'triclinic'
loop_
_space_group_symop_operation_xyz
x,y,z
-x,-y,-z
loop_
_atom_site_type_symbol
_atom_site_label
_atom_site_fract_x
_atom_site_fract_y
_atom_site_fract_z
Si Si1 0.337079 0.136481 0.656623
Si Si2 0.000330 0.219346 0.046706
Si Si3 0.700526 0.229660 0.941907
Si Si4 0.307223 0.014666 0.397626
Si Si5 0.191605 0.488912 0.397660
Si Si6 0.812293 0.782574 0.147567
Si Si7 0.817266 0.634529 0.320110
Si Si8 0.544657 0.333533 0.169864
O O1 0.242645 0.353613 0.521190
O O2 0.288744 0.197134 0.702279
O O3 0.320422 0.843489 0.662938
O O4 0.550444 0.097313 0.804811
O O5 0.164601 0.101873 0.225119
O O6 0.825826 0.272640 0.966619
O O7 0.000000 0.500000 0.000000
O O8 0.000000 0.000000 0.000000
O O9 0.814779 0.052564 0.096271
O O10 0.582787 0.468465 0.882370
O O11 0.264550 0.251619 0.410050
O O12 0.500000 0.000000 0.500000
O O13 0.275178 0.741114 0.424295
O O14 0.974571 0.585433 0.237308
O O15 0.847524 0.773011 0.259602
O O16 0.607802 0.753045 0.985428
O O17 0.684063 0.445544 0.215684
O O18 0.000000 0.500000 0.500000
#
# Coordination Sequence:
#
# PCOD9046787 Si02
#       8
#     2   2   2   2   2   2   2   2
#     4  10  25  42  70 103 141 189 242 294 358 431
#     4  12  28  46  76 107 144 188 242 305 366 433
#     4  10  24  45  70  97 142 183 248 287 369 431
#     4  12  29  49  74 112 149 189 245 298 374 443
#     4  12  26  47  77 108 151 196 238 302 373 429
#     4  11  23  44  72  98 144 190 242 304 350 440
#     4  11  23  43  65 106 144 185 246 296 366 419
#     4  10  24  43  68 101 137 191 246 295 359 428
#
# _framework density 21.872774
#
# number of rings (size 3 to 8) (size 9 to 14) (size 15 to 20)
#    0.000    1.000    2.500    2.250   10.500    6.000 
#    0.000    0.000    0.000    0.000    0.000    0.000 
#    0.000    0.000    0.000    0.000    0.000    0.000 
#
# Total GULP energy -89181.912438 kJ/mol
# GULP energy per Si atom -5573.869527 kJ/mol
# Density = 2.182299 g / cm^3
# Si number density = 21.872774 Si / 1000 Ang^3
#
#
#
# Elastic Constant Matrix: (Units=GPa)
#
#
# Indices 1 2 3 4 5 6 
#
# 1 130.7830 55.5850 28.0052 -9.1055 6.5337 13.6120
# 2 55.5850 114.0571 32.0167 -29.7464 -16.4096 2.9314
# 3 28.0052 32.0167 65.6413 -20.2991 12.5820 3.0013
# 4 -9.1055 -29.7464 -20.2991 36.5700 5.2361 -7.5914
# 5 6.5337 -16.4096 12.5820 5.2361 40.5441 -1.2744
# 6 13.6120 2.9314 3.0013 -7.5914 -1.2744 27.7201
#
#
#
# Elastic Compliance Matrix: (Units=1/GPa)
#
#
# Indices 1 2 3 4 5 6 
#
# 1 0.011296 -0.006360 -0.002129 -0.004301 -0.003366 -0.005976
# 2 -0.006360 0.016504 -0.004178 0.009374 0.007940 0.004762
# 3 -0.002129 -0.004178 0.023343 0.010752 -0.009935 0.001448
# 4 -0.004301 0.009374 0.010752 0.042830 -0.004019 0.011501
# 5 -0.003366 0.007940 -0.009935 -0.004019 0.032094 0.002264
# 6 -0.005976 0.004762 0.001448 0.011501 0.002264 0.041603
#
#
# Mechanical properties :
#
#
# Convention : Reuss Voigt Hill
#
# Bulk Modulus (GPa) = 38.74272 60.18836 49.46554
# Shear Modulus (GPa) = 24.80071 33.95845 29.37958
#
# Velocity S-wave (km/s) = 3.37094 3.94451 3.66895
# Velocity P-wave (km/s) = 5.73604 6.95146 6.37279
#
# Compressibility (1/GPa) = 0.02581130
#
# Stress axis : x y z
#
# Youngs Moduli (GPa) = 88.52786 60.58990 42.83880
#
# Poissons Ratio (x) = 0.38534 0.09120
# Poissons Ratio (y) = 0.56302 0.17896
# Poissons Ratio (z) = 0.18846 0.25312
#
# Static dielectric constant tensor:
#      x y z
#    x 1.731920 -0.187320 -0.003790 
#    y -0.187320 1.684820 0.035190 
#    z -0.003790 0.035190 1.813650 
# 
# From -- ./inp_files/109511.got.cif
#   From: 2010.05.17/outbox.cif.g08.bks.cpg/sg2_55_cif.got.tgz:109511.got - 2010.06.03 11:33:40.
