data_PCOD9046087
_publ_section_title
;
Structure prediction by ZEFSAII (Michael W. Deem and Ramdas Pophale) SiO2 
 PCOD9046087
Probable space group: P -1
;
_chemical_formula_sum "Si O2"
_cell_formula_units_Z 16
_cell_length_a 26.280837
_cell_length_b 9.078200
_cell_length_c 21.969919
_cell_angle_alpha 30.964377
_cell_angle_beta 162.191693
_cell_angle_gamma 151.344290
_cell_volume 760.032937
_symmetry_space_group_name_H-M "P -1"
_symmetry_group_IT_number 2
_symmetry_cell_setting 'triclinic'
loop_
_space_group_symop_operation_xyz
x,y,z
-x,-y,-z
loop_
_atom_site_type_symbol
_atom_site_label
_atom_site_fract_x
_atom_site_fract_y
_atom_site_fract_z
Si Si1 0.305362 0.878178 0.853079
Si Si2 0.928337 0.183121 0.900859
Si Si3 0.716557 0.579916 0.538575
Si Si4 0.342469 0.299640 0.148734
Si Si5 0.321628 0.605749 0.191850
Si Si6 0.548375 0.234940 0.584378
Si Si7 0.967252 0.174073 0.546679
Si Si8 0.659232 0.842986 0.069816
O O1 0.159760 0.896946 0.632739
O O2 0.316827 0.055953 0.867379
O O3 0.268738 0.519695 0.950640
O O4 0.500000 0.000000 0.000000
O O5 0.786647 0.339869 0.669411
O O6 0.827156 0.936157 0.924377
O O7 0.113840 0.475774 0.022306
O O8 0.000000 0.000000 0.000000
O O9 0.516536 0.518874 0.308229
O O10 0.698162 0.488271 0.621513
O O11 0.857597 0.914677 0.562987
O O12 0.426618 0.081625 0.288463
O O13 0.375152 0.311687 0.341457
O O14 0.435935 0.739961 0.334619
O O15 0.364581 0.874464 0.095182
O O16 0.000000 0.500000 0.500000
O O17 0.156570 0.166201 0.744188
O O18 0.500000 0.500000 0.000000
#
# Coordination Sequence:
#
# PCOD9046087 Si02
#       8
#     2   2   2   2   2   2   2   2
#     4  12  26  48  75 107 142 191 244 297 355 432
#     4  11  21  39  66  97 128 176 223 280 353 407
#     4  11  22  43  68  97 141 173 227 287 346 429
#     4  11  24  41  71  99 141 178 232 285 361 421
#     4  11  24  44  69  99 143 177 232 291 351 419
#     4  10  24  42  67 104 135 184 224 284 358 428
#     4  12  28  47  74 105 143 193 243 297 359 421
#     4  12  28  50  74 104 146 193 244 298 360 421
#
# _framework density 21.05172
#
# number of rings (size 3 to 8) (size 9 to 14) (size 15 to 20)
#    0.000    0.750    2.500    5.625    5.250    3.000 
#    2.250    0.000    0.000    0.000    0.000    0.000 
#    0.000    0.000    0.000    0.000    0.000    0.000 
#
# Total GULP energy -89252.870684 kJ/mol
# GULP energy per Si atom -5578.304418 kJ/mol
# Density = 2.100381 g / cm^3
# Si number density = 21.051720 Si / 1000 Ang^3
#
#
#
# Elastic Constant Matrix: (Units=GPa)
#
#
# Indices 1 2 3 4 5 6 
#
# 1 97.0092 26.6317 24.9592 -4.8728 9.6220 -13.0319
# 2 26.6317 106.6501 14.7685 -11.0720 3.3864 10.5061
# 3 24.9592 14.7685 92.1069 -3.8020 12.2123 -5.2454
# 4 -4.8728 -11.0720 -3.8020 35.3229 0.2560 9.6227
# 5 9.6220 3.3864 12.2123 0.2560 36.4943 -2.1265
# 6 -13.0319 10.5061 -5.2454 9.6227 -2.1265 26.7080
#
#
#
# Elastic Compliance Matrix: (Units=1/GPa)
#
#
# Indices 1 2 3 4 5 6 
#
# 1 0.013132 -0.003875 -0.002312 -0.001813 -0.001851 0.007984
# 2 -0.003875 0.011943 -0.001104 0.005491 -0.000269 -0.008805
# 3 -0.002312 -0.001104 0.012185 0.000309 -0.003290 0.001326
# 4 -0.001813 0.005491 0.000309 0.034001 -0.001267 -0.015335
# 5 -0.001851 -0.000269 -0.003290 -0.001267 0.029102 0.001330
# 6 0.007984 -0.008805 0.001326 -0.015335 0.001330 0.050693
#
#
# Mechanical properties :
#
#
# Convention : Reuss Voigt Hill
#
# Bulk Modulus (GPa) = 44.09578 47.60945 45.85262
# Shear Modulus (GPa) = 28.86877 34.99883 31.93380
#
# Velocity S-wave (km/s) = 3.70716 4.08182 3.89899
# Velocity P-wave (km/s) = 6.27024 6.69922 6.48828
#
# Compressibility (1/GPa) = 0.02267790
#
# Stress axis : x y z
#
# Youngs Moduli (GPa) = 76.14998 83.73132 82.06805
#
# Poissons Ratio (x) = 0.32446 0.18973
# Poissons Ratio (y) = 0.29508 0.09061
# Poissons Ratio (z) = 0.17605 0.09244
#
# Static dielectric constant tensor:
#      x y z
#    x 1.814230 0.084710 0.098390 
#    y 0.084710 2.306830 0.237310 
#    z 0.098390 0.237310 1.989210 
# 
# From -- ./inp_files/494805.got.cif
#   From: 2010.05.17/outbox.cif.g08.bks.cpg/sg2_248_cif.got.tgz:494805.got - 2010.06.03 11:33:40.
