data_PCOD9046536
_publ_section_title
;
Structure prediction by ZEFSAII (Michael W. Deem and Ramdas Pophale) SiO2 
 PCOD9046536
Probable space group: P -1
;
_chemical_formula_sum "Si O2"
_cell_formula_units_Z 16
_cell_length_a 15.024731
_cell_length_b 10.020942
_cell_length_c 18.067831
_cell_angle_alpha 143.770938
_cell_angle_beta 150.757016
_cell_angle_gamma 33.852232
_cell_volume 705.850765
_symmetry_space_group_name_H-M "P -1"
_symmetry_group_IT_number 2
_symmetry_cell_setting 'triclinic'
loop_
_space_group_symop_operation_xyz
x,y,z
-x,-y,-z
loop_
_atom_site_type_symbol
_atom_site_label
_atom_site_fract_x
_atom_site_fract_y
_atom_site_fract_z
Si Si1 0.739244 0.378408 0.109713
Si Si2 0.181388 0.728417 0.501341
Si Si3 0.770940 0.193398 0.200942
Si Si4 0.673761 0.072037 0.631907
Si Si5 0.999062 0.366500 0.819882
Si Si6 0.699769 0.429913 0.935066
Si Si7 0.407151 0.493810 0.349090
Si Si8 0.063526 0.497892 0.448378
O O1 0.795732 0.162899 0.116589
O O2 0.833348 0.568567 0.288817
O O3 0.500000 0.500000 0.000000
O O4 0.785384 0.327998 0.033855
O O5 0.401621 0.724093 0.651022
O O6 0.175859 0.564281 0.492503
O O7 0.120590 0.622545 0.337582
O O8 0.000000 0.000000 0.500000
O O9 0.533729 0.356651 0.125661
O O10 0.885222 0.361050 0.385134
O O11 0.879682 0.922834 0.196403
O O12 0.708854 0.209885 0.790051
O O13 0.629156 0.257533 0.612802
O O14 0.500000 0.000000 0.500000
O O15 0.844062 0.800280 0.612961
O O16 0.809801 0.511551 0.803531
O O17 0.162689 0.464060 0.960866
O O18 0.500000 0.500000 0.500000
#
# Coordination Sequence:
#
# PCOD9046536 Si02
#       8
#     2   2   2   2   2   2   2   2
#     4  10  24  43  63 103 142 176 236 299 360 414
#     4  11  21  41  71 104 138 187 239 289 354 430
#     4  11  22  42  72 105 141 186 240 299 353 432
#     4  12  24  45  73  99 140 190 241 292 350 435
#     4  11  23  43  69 101 147 187 235 295 360 427
#     4  11  24  45  70 103 142 192 236 295 365 421
#     4  10  24  45  67 106 144 183 238 291 358 422
#     4  12  22  43  73 102 138 190 243 289 357 428
#
# _framework density 22.667681999999999
#
# number of rings (size 3 to 8) (size 9 to 14) (size 15 to 20)
#    0.000    1.000    5.000    1.500    0.000    1.000 
#    0.000    2.500    0.000    0.000    0.000    0.000 
#    0.000    0.000    0.000    0.000    0.000    0.000 
#
# Total GULP energy -89316.607683 kJ/mol
# GULP energy per Si atom -5582.287980 kJ/mol
# Density = 2.261609 g / cm^3
# Si number density = 22.667682 Si / 1000 Ang^3
#
#
#
# Elastic Constant Matrix: (Units=GPa)
#
#
# Indices 1 2 3 4 5 6 
#
# 1 165.2662 69.7938 72.8061 -5.8175 18.7173 7.8927
# 2 69.7938 103.2045 36.5039 -1.8249 -5.9726 -1.7355
# 3 72.8061 36.5039 136.8884 1.0690 22.9369 -2.5965
# 4 -5.8175 -1.8249 1.0690 25.1455 -0.6759 0.6294
# 5 18.7173 -5.9726 22.9369 -0.6759 51.9082 -28.8762
# 6 7.8927 -1.7355 -2.5965 0.6294 -28.8762 45.2897
#
#
#
# Elastic Compliance Matrix: (Units=1/GPa)
#
#
# Indices 1 2 3 4 5 6 
#
# 1 0.012009 -0.007549 -0.003188 0.002343 -0.008065 -0.007740
# 2 -0.007549 0.016128 -0.001785 -0.000438 0.009891 0.008144
# 3 -0.003188 -0.001785 0.010227 -0.001380 -0.004626 -0.001857
# 4 0.002343 -0.000438 -0.001380 0.040358 -0.000546 -0.001413
# 5 -0.008065 0.009891 -0.004626 -0.000546 0.040597 0.027411
# 6 -0.007740 0.008144 -0.001857 -0.001413 0.027411 0.041131
#
#
# Mechanical properties :
#
#
# Convention : Reuss Voigt Hill
#
# Bulk Modulus (GPa) = 75.07435 84.84073 79.95754
# Shear Modulus (GPa) = 26.32502 39.55238 32.93870
#
# Velocity S-wave (km/s) = 3.41155 4.18171 3.81611
# Velocity P-wave (km/s) = 6.97923 7.79903 7.40049
#
# Compressibility (1/GPa) = 0.01332013
#
# Stress axis : x y z
#
# Youngs Moduli (GPa) = 83.27292 62.00494 97.77715
#
# Poissons Ratio (x) = 0.46808 0.31167
# Poissons Ratio (y) = 0.62864 0.17455
# Poissons Ratio (z) = 0.26544 0.11069
#
# Static dielectric constant tensor:
#      x y z
#    x 1.938340 -0.011300 -0.006780 
#    y -0.011300 1.827210 -0.013650 
#    z -0.006780 -0.013650 1.780610 
# 
# From -- ./inp_files/572946.got.cif
#   From: 2010.05.17/outbox.cif.g08.bks.cpg/sg2_287_cif.got.tgz:572946.got - 2010.06.03 11:33:40.
