data_PCOD9046438
_publ_section_title
;
Structure prediction by ZEFSAII (Michael W. Deem and Ramdas Pophale) SiO2 
 PCOD9046438
Probable space group: P -1
;
_chemical_formula_sum "Si O2"
_cell_formula_units_Z 12
_cell_length_a 12.328898
_cell_length_b 19.037210
_cell_length_c 9.089752
_cell_angle_alpha 128.880016
_cell_angle_beta 52.722163
_cell_angle_gamma 160.541173
_cell_volume 552.472260
_symmetry_space_group_name_H-M "P -1"
_symmetry_group_IT_number 2
_symmetry_cell_setting 'triclinic'
loop_
_space_group_symop_operation_xyz
x,y,z
-x,-y,-z
loop_
_atom_site_type_symbol
_atom_site_label
_atom_site_fract_x
_atom_site_fract_y
_atom_site_fract_z
Si Si1 0.954775 0.033657 0.721453
Si Si2 0.662603 0.804098 0.104753
Si Si3 0.687657 0.176187 0.194286
Si Si4 0.626584 0.172764 0.570709
Si Si5 0.241758 0.393559 0.970442
Si Si6 0.800724 0.407437 0.190052
O O1 0.586688 0.806496 0.792633
O O2 0.000000 0.000000 0.500000
O O3 0.223584 0.157640 0.776197
O O4 0.033100 0.183898 0.805408
O O5 0.528393 0.825761 0.240214
O O6 0.410593 0.571280 0.962624
O O7 0.000000 0.000000 0.000000
O O8 0.559004 0.133751 0.399498
O O9 0.801588 0.326149 0.197564
O O10 0.996993 0.302634 0.153048
O O11 0.500000 0.000000 0.000000
O O12 0.993380 0.395298 0.628945
O O13 0.500000 0.000000 0.500000
O O14 0.500000 0.500000 0.000000
O O15 0.000000 0.500000 0.000000
#
# Coordination Sequence:
#
# PCOD9046438 Si02
#       6
#     2   2   2   2   2   2
#     4  11  25  44  71 103 139 183 240 293 362 428
#     4  11  25  46  70 102 142 185 234 293 362 427
#     4  12  24  45  73  99 141 184 242 295 363 424
#     4  12  28  45  72 106 144 190 243 297 358 430
#     4  10  24  42  72  96 140 182 234 288 362 418
#     4  12  25  45  71 105 142 184 238 301 356 430
#
# _framework density 21.720547
#
# number of rings (size 3 to 8) (size 9 to 14) (size 15 to 20)
#    0.000    0.667    3.333    3.500    9.333    0.000 
#    0.000    1.667    0.000    0.000    0.000    0.000 
#    0.000    0.000    0.000    0.000    0.000    0.000 
#
# Total GULP energy -66869.154103 kJ/mol
# GULP energy per Si atom -5572.429509 kJ/mol
# Density = 2.167111 g / cm^3
# Si number density = 21.720547 Si / 1000 Ang^3
#
#
#
# Elastic Constant Matrix: (Units=GPa)
#
#
# Indices 1 2 3 4 5 6 
#
# 1 99.6597 26.7232 30.1841 4.8472 -17.2289 -8.6210
# 2 26.7232 143.5126 58.1277 25.4187 -15.1549 -22.7418
# 3 30.1841 58.1277 109.6212 4.4902 1.5283 -25.1275
# 4 4.8472 25.4187 4.4902 43.4885 -1.4410 -9.1517
# 5 -17.2289 -15.1549 1.5283 -1.4410 51.2703 0.9725
# 6 -8.6210 -22.7418 -25.1275 -9.1517 0.9725 55.3076
#
#
#
# Elastic Compliance Matrix: (Units=1/GPa)
#
#
# Indices 1 2 3 4 5 6 
#
# 1 0.011777 -0.000437 -0.003014 -0.000592 0.003900 0.000120
# 2 -0.000437 0.010491 -0.005030 -0.005248 0.002937 0.001040
# 3 -0.003014 -0.005030 0.013486 0.002646 -0.002905 0.004078
# 4 -0.000592 -0.005248 0.002646 0.026524 -0.001147 0.003361
# 5 0.003900 0.002937 -0.002905 -0.001147 0.021739 -0.000076
# 6 0.000120 0.001040 0.004078 0.003361 -0.000076 0.020937
#
#
# Mechanical properties :
#
#
# Convention : Reuss Voigt Hill
#
# Bulk Modulus (GPa) = 53.21026 64.76260 58.98643
# Shear Modulus (GPa) = 39.00716 45.86386 42.43551
#
# Velocity S-wave (km/s) = 4.24236 4.60014 4.42487
# Velocity P-wave (km/s) = 6.96762 7.62208 7.30218
#
# Compressibility (1/GPa) = 0.01879337
#
# Stress axis : x y z
#
# Youngs Moduli (GPa) = 84.90844 95.31670 74.14844
#
# Poissons Ratio (x) = 0.04162 0.22347
# Poissons Ratio (y) = 0.03707 0.37300
# Poissons Ratio (z) = 0.25590 0.47948
#
# Static dielectric constant tensor:
#      x y z
#    x 1.890850 0.011400 0.053720 
#    y 0.011400 1.794240 -0.091890 
#    z 0.053720 -0.091890 1.724070 
# 
# From -- ./inp_files/156486.got.cif
#   From: 2010.05.17/outbox.cif.g08.bks.cpg/sg2_79_cif.got.tgz:156486.got - 2010.06.03 11:33:40.
