data_PCOD9046984
_publ_section_title
;
Structure prediction by ZEFSAII (Michael W. Deem and Ramdas Pophale) SiO2 
 PCOD9046984
Probable space group: P -1
;
_chemical_formula_sum "Si O2"
_cell_formula_units_Z 16
_cell_length_a 8.514525
_cell_length_b 8.325968
_cell_length_c 11.970467
_cell_angle_alpha 104.364524
_cell_angle_beta 91.092689
_cell_angle_gamma 46.382103
_cell_volume 580.987330
_symmetry_space_group_name_H-M "P -1"
_symmetry_group_IT_number 2
_symmetry_cell_setting 'triclinic'
loop_
_space_group_symop_operation_xyz
x,y,z
-x,-y,-z
loop_
_atom_site_type_symbol
_atom_site_label
_atom_site_fract_x
_atom_site_fract_y
_atom_site_fract_z
Si Si1 0.540498 0.897377 0.764948
Si Si2 0.122968 0.509539 0.905162
Si Si3 0.207816 0.744025 0.841408
Si Si4 0.526765 0.218019 0.655096
Si Si5 0.779055 0.549821 0.516917
Si Si6 0.404065 0.329330 0.070583
Si Si7 0.023999 0.944253 0.632603
Si Si8 0.049238 0.252717 0.758967
O O1 0.669309 0.658610 0.655568
O O2 0.614676 0.823154 0.880787
O O3 0.566702 0.034158 0.707865
O O4 0.278665 0.055786 0.794722
O O5 0.056654 0.747069 0.922960
O O6 0.079211 0.430647 0.780468
O O7 0.363263 0.337993 0.940567
O O8 0.000000 0.500000 0.000000
O O9 0.373449 0.476478 0.750224
O O10 0.371809 0.743666 0.908279
O O11 0.066440 0.906274 0.761121
O O12 0.401767 0.263090 0.546786
O O13 0.771520 0.106119 0.623579
O O14 0.833968 0.315953 0.455080
O O15 0.000000 0.500000 0.500000
O O16 0.188460 0.593593 0.158571
O O17 0.075592 0.099316 0.635449
#
# Coordination Sequence:
#
# PCOD9046984 Si02
#       8
#     2   2   2   2   2   2   2   2
#     4  12  25  43  71 100 137 183 230 282 343 406
#     4  10  24  43  70 101 139 180 230 290 339 406
#     4  11  22  46  68 100 140 182 230 284 341 406
#     4  11  24  43  72 100 137 187 226 274 351 411
#     4  11  26  43  73 107 135 178 235 282 340 413
#     4  11  25  44  69 101 140 180 234 289 340 402
#     4  11  24  44  70 100 142 183 225 281 347 409
#     4  11  24  45  65 101 142 179 228 283 343 406
#
# _framework density 27.539328000000001
#
# number of rings (size 3 to 8) (size 9 to 14) (size 15 to 20)
#    0.000    1.000    5.000    0.750    5.250    1.000 
#    0.000    3.750    0.000    0.000    0.000    0.000 
#    0.000    0.000    0.000    0.000    0.000    0.000 
#
# Total GULP energy -89445.792547 kJ/mol
# GULP energy per Si atom -5590.362034 kJ/mol
# Density = 2.747665 g / cm^3
# Si number density = 27.539328 Si / 1000 Ang^3
#
#
#
# Elastic Constant Matrix: (Units=GPa)
#
#
# Indices 1 2 3 4 5 6 
#
# 1 144.0695 45.1555 43.4940 -7.3652 34.3529 -1.2253
# 2 45.1555 121.3284 42.2037 -1.6601 13.3663 -7.6817
# 3 43.4940 42.2037 136.3652 -19.8434 19.8732 -4.9067
# 4 -7.3652 -1.6601 -19.8434 65.6187 -7.2111 -2.2250
# 5 34.3529 13.3663 19.8732 -7.2111 35.8452 2.4886
# 6 -1.2253 -7.6817 -4.9067 -2.2250 2.4886 48.5853
#
#
#
# Elastic Compliance Matrix: (Units=1/GPa)
#
#
# Indices 1 2 3 4 5 6 
#
# 1 0.009978 -0.002371 -0.001308 -0.000210 -0.008007 0.000145
# 2 -0.002371 0.010060 -0.002358 -0.000726 -0.000407 0.001280
# 3 -0.001308 -0.002358 0.009220 0.002326 -0.002564 0.000763
# 4 -0.000210 -0.000726 0.002326 0.016188 0.002389 0.000734
# 5 -0.008007 -0.000407 -0.002564 0.002389 0.037788 -0.002351
# 6 0.000145 0.001280 0.000763 0.000734 -0.002351 0.021020
#
#
# Mechanical properties :
#
#
# Convention : Reuss Voigt Hill
#
# Bulk Modulus (GPa) = 58.18380 73.71885 65.95132
# Shear Modulus (GPa) = 40.96504 48.07050 44.51777
#
# Velocity S-wave (km/s) = 3.86101 4.18248 4.02495
# Velocity P-wave (km/s) = 6.40702 7.08173 6.75281
#
# Compressibility (1/GPa) = 0.01718692
#
# Stress axis : x y z
#
# Youngs Moduli (GPa) = 100.21591 99.39874 108.46480
#
# Poissons Ratio (x) = 0.23563 0.14182
# Poissons Ratio (y) = 0.23757 0.25573
# Poissons Ratio (z) = 0.13104 0.23435
#
# Static dielectric constant tensor:
#      x y z
#    x 2.222130 0.074420 -0.055290 
#    y 0.074420 2.246140 0.061940 
#    z -0.055290 0.061940 2.247970 
# 
# From -- ./inp_files/382635.got.cif
#   From: 2010.05.17/outbox.cif.g08.bks.cpg/sg2_192_cif.got.tgz:382635.got - 2010.06.03 11:33:40.
