data_PCOD9046000
_publ_section_title
;
Structure prediction by ZEFSAII (Michael W. Deem and Ramdas Pophale) SiO2 
 PCOD9046000
Probable space group: P -1
;
_chemical_formula_sum "Si O2"
_cell_formula_units_Z 14
_cell_length_a 11.504358
_cell_length_b 16.297525
_cell_length_c 21.947051
_cell_angle_alpha 16.672320
_cell_angle_beta 150.737514
_cell_angle_gamma 149.925737
_cell_volume 564.015041
_symmetry_space_group_name_H-M "P -1"
_symmetry_group_IT_number 2
_symmetry_cell_setting 'triclinic'
loop_
_space_group_symop_operation_xyz
x,y,z
-x,-y,-z
loop_
_atom_site_type_symbol
_atom_site_label
_atom_site_fract_x
_atom_site_fract_y
_atom_site_fract_z
Si Si1 0.795330 0.233558 0.157682
Si Si2 0.651990 0.629704 0.705245
Si Si3 0.354220 0.972602 0.390347
Si Si4 0.301680 0.255864 0.642225
Si Si5 0.161103 0.643533 0.216539
Si Si6 0.158930 0.196565 0.748563
Si Si7 0.693235 0.417966 0.099853
O O1 0.650898 0.193261 0.184320
O O2 0.085553 0.317290 0.244374
O O3 0.749675 0.961150 0.284449
O O4 0.707373 0.479537 0.901231
O O5 0.552042 0.921545 0.467205
O O6 0.414594 0.423533 0.714073
O O7 0.107765 0.727538 0.438313
O O8 0.500000 0.000000 0.500000
O O9 0.253164 0.266578 0.133948
O O10 0.187623 0.535608 0.374315
O O11 0.589503 0.367761 0.695255
O O12 0.206787 0.087584 0.779611
O O13 0.937311 0.416493 0.248156
O O14 0.130960 0.969585 0.953859
O O15 0.500000 0.500000 0.000000
#
# Coordination Sequence:
#
# PCOD9046000 Si02
#       7
#     2   2   2   2   2   2   2
#     4  11  24  41  72 100 135 179 233 282 337 415
#     4  11  23  41  70 108 131 179 234 279 341 409
#     4  11  23  43  69  98 134 180 232 271 344 410
#     4  11  23  43  71 102 139 180 225 289 338 410
#     4  10  24  42  66 101 136 178 230 274 346 402
#     4  11  23  43  72  98 145 181 224 286 341 414
#     4  11  26  46  64  97 140 181 220 291 342 407
#
# _framework density 24.822033999999999
#
# number of rings (size 3 to 8) (size 9 to 14) (size 15 to 20)
#    0.000    1.143    2.857    2.571   10.000    0.571 
#    5.143    0.714    0.000    0.000    0.000    0.000 
#    0.000    0.000    0.000    0.000    0.000    0.000 
#
# Total GULP energy -78070.868469 kJ/mol
# GULP energy per Si atom -5576.490605 kJ/mol
# Density = 2.476554 g / cm^3
# Si number density = 24.822034 Si / 1000 Ang^3
#
#
#
# Elastic Constant Matrix: (Units=GPa)
#
#
# Indices 1 2 3 4 5 6 
#
# 1 129.1578 58.5585 0.8751 4.2583 15.8032 0.3066
# 2 58.5585 154.9005 22.5819 22.8176 15.4288 17.0226
# 3 0.8751 22.5819 79.6071 18.0503 10.3031 6.0329
# 4 4.2583 22.8176 18.0503 42.6684 6.3948 7.2527
# 5 15.8032 15.4288 10.3031 6.3948 24.7862 -6.1784
# 6 0.3066 17.0226 6.0329 7.2527 -6.1784 25.2824
#
#
#
# Elastic Compliance Matrix: (Units=1/GPa)
#
#
# Indices 1 2 3 4 5 6 
#
# 1 0.009949 -0.003702 0.001261 0.001048 -0.004676 0.000628
# 2 -0.003702 0.009486 -0.001067 -0.002574 -0.004014 -0.006330
# 3 0.001261 -0.001067 0.014851 -0.004438 -0.005919 -0.003014
# 4 0.001048 -0.002574 -0.004438 0.028737 -0.006386 -0.007025
# 5 -0.004676 -0.004014 -0.005919 -0.006386 0.054766 0.019387
# 6 0.000628 -0.006330 -0.003014 -0.007025 0.019387 0.051279
#
#
# Mechanical properties :
#
#
# Convention : Reuss Voigt Hill
#
# Bulk Modulus (GPa) = 36.67237 58.63293 47.65265
# Shear Modulus (GPa) = 27.00148 37.32407 32.16278
#
# Velocity S-wave (km/s) = 3.30176 3.88192 3.60354
# Velocity P-wave (km/s) = 5.41680 6.61551 6.04594
#
# Compressibility (1/GPa) = 0.02726849
#
# Stress axis : x y z
#
# Youngs Moduli (GPa) = 100.51584 105.42354 67.33353
#
# Poissons Ratio (x) = 0.39032 -0.08491
# Poissons Ratio (y) = 0.37215 0.07186
# Poissons Ratio (z) = -0.12675 0.11251
#
# Static dielectric constant tensor:
#      x y z
#    x 2.045760 -0.002450 -0.053020 
#    y -0.002450 2.045750 -0.072670 
#    z -0.053020 -0.072670 2.082160 
# 
# From -- ./inp_files/190766.got.cif
#   From: 2010.05.17/outbox.cif.g08.bks.cpg/sg2_96_cif.got.tgz:190766.got - 2010.06.03 11:33:40.
