data_PCOD9046309
_publ_section_title
;
Structure prediction by ZEFSAII (Michael W. Deem and Ramdas Pophale) SiO2 
 PCOD9046309
Probable space group: P -1
;
_chemical_formula_sum "Si O2"
_cell_formula_units_Z 14
_cell_length_a 5.224726
_cell_length_b 10.419541
_cell_length_c 12.457509
_cell_angle_alpha 88.762405
_cell_angle_beta 83.845022
_cell_angle_gamma 121.309191
_cell_volume 573.686965
_symmetry_space_group_name_H-M "P -1"
_symmetry_group_IT_number 2
_symmetry_cell_setting 'triclinic'
loop_
_space_group_symop_operation_xyz
x,y,z
-x,-y,-z
loop_
_atom_site_type_symbol
_atom_site_label
_atom_site_fract_x
_atom_site_fract_y
_atom_site_fract_z
Si Si1 0.755424 0.338677 0.556149
Si Si2 0.816977 0.215975 0.777137
Si Si3 0.853305 0.865715 0.368689
Si Si4 0.744811 0.010977 0.074517
Si Si5 0.122643 0.853335 0.583534
Si Si6 0.153348 0.510021 0.879422
Si Si7 0.864603 0.687724 0.807492
O O1 0.865014 0.300673 0.660874
O O2 0.432964 0.304007 0.611335
O O3 0.694515 0.223767 0.461730
O O4 0.000000 0.500000 0.500000
O O5 0.922249 0.101038 0.740500
O O6 0.034926 0.340762 0.849508
O O7 0.476531 0.130080 0.836575
O O8 0.008996 0.876225 0.474596
O O9 0.738902 0.983362 0.371597
O O10 0.916190 0.165980 0.131844
O O11 0.500000 0.000000 0.000000
O O12 0.000000 0.000000 0.000000
O O13 0.882137 0.741691 0.683115
O O14 0.517297 0.605348 0.863045
O O15 0.008817 0.583230 0.809369
O O16 0.000000 0.500000 0.000000
#
# Coordination Sequence:
#
# PCOD9046309 Si02
#       7
#     2   2   2   2   2   2   2
#     4  11  24  42  69 107 151 195 246 300 373 456
#     4  11  27  44  76 107 150 198 250 313 378 444
#     4  10  24  44  70 104 151 192 246 306 371 448
#     4  12  28  50  77 110 145 193 257 315 371 444
#     4  10  24  42  70 106 144 193 245 300 371 440
#     4  12  28  50  73 109 150 197 248 314 380 442
#     4  12  27  47  79 106 148 195 250 306 378 448
#
# _framework density 24.403552000000001
#
# number of rings (size 3 to 8) (size 9 to 14) (size 15 to 20)
#    0.000    0.857    0.000    5.143   14.000    2.286 
#    0.000    0.000    0.000    0.000    0.000    0.000 
#    0.000    0.000    0.000    0.000    0.000    0.000 
#
# Total GULP energy -78254.862626 kJ/mol
# GULP energy per Si atom -5589.633045 kJ/mol
# Density = 2.434801 g / cm^3
# Si number density = 24.403552 Si / 1000 Ang^3
#
#
#
# Elastic Constant Matrix: (Units=GPa)
#
#
# Indices 1 2 3 4 5 6 
#
# 1 115.7881 41.8130 36.2694 -3.9592 -30.4755 19.5185
# 2 41.8130 107.9776 46.2027 -10.0889 -17.5349 17.8703
# 3 36.2694 46.2027 136.1408 -3.7946 -18.5904 7.4547
# 4 -3.9592 -10.0889 -3.7946 47.7647 9.4399 -4.9701
# 5 -30.4755 -17.5349 -18.5904 9.4399 32.3463 -8.8686
# 6 19.5185 17.8703 7.4547 -4.9701 -8.8686 39.5041
#
#
#
# Elastic Compliance Matrix: (Units=1/GPa)
#
#
# Indices 1 2 3 4 5 6 
#
# 1 0.012975 -0.002617 -0.001105 -0.001832 0.009874 -0.003032
# 2 -0.002617 0.012511 -0.003170 0.001608 0.001116 -0.003315
# 3 -0.001105 -0.003170 0.009040 -0.000512 0.002816 0.000842
# 4 -0.001832 0.001608 -0.000512 0.022693 -0.007366 0.001476
# 5 0.009874 0.001116 0.002816 -0.007366 0.045517 0.003377
# 6 -0.003032 -0.003315 0.000842 0.001476 0.003377 0.029097
#
#
# Mechanical properties :
#
#
# Convention : Reuss Voigt Hill
#
# Bulk Modulus (GPa) = 48.21335 67.60852 57.91094
# Shear Modulus (GPa) = 32.78007 39.63112 36.20560
#
# Velocity S-wave (km/s) = 3.66901 4.03425 3.85596
# Velocity P-wave (km/s) = 6.14398 7.03312 6.60353
#
# Compressibility (1/GPa) = 0.02074114
#
# Stress axis : x y z
#
# Youngs Moduli (GPa) = 77.07019 79.92724 110.62304
#
# Poissons Ratio (x) = 0.20921 0.12225
# Poissons Ratio (y) = 0.20173 0.35067
# Poissons Ratio (z) = 0.08517 0.25336
#
# Static dielectric constant tensor:
#      x y z
#    x 2.104140 -0.019390 -0.004260 
#    y -0.019390 2.006620 -0.005070 
#    z -0.004260 -0.005070 1.978510 
# 
# From -- ./inp_files/97484.got.cif
#   From: 2010.05.17/outbox.cif.g08.bks.cpg/sg2_49_cif.got.tgz:97484.got - 2010.06.03 11:33:40.
