data_PCOD9046749
_publ_section_title
;
Structure prediction by ZEFSAII (Michael W. Deem and Ramdas Pophale) SiO2 
 PCOD9046749
Probable space group: P -1
;
_chemical_formula_sum "Si O2"
_cell_formula_units_Z 14
_cell_length_a 23.026411
_cell_length_b 5.118305
_cell_length_c 4.981609
_cell_angle_alpha 96.606408
_cell_angle_beta 90.894767
_cell_angle_gamma 65.450463
_cell_volume 530.157117
_symmetry_space_group_name_H-M "P -1"
_symmetry_group_IT_number 2
_symmetry_cell_setting 'triclinic'
loop_
_space_group_symop_operation_xyz
x,y,z
-x,-y,-z
loop_
_atom_site_type_symbol
_atom_site_label
_atom_site_fract_x
_atom_site_fract_y
_atom_site_fract_z
Si Si1 0.566809 0.142937 0.215976
Si Si2 0.261820 0.084475 0.887486
Si Si3 0.868700 0.444825 0.965858
Si Si4 0.666681 0.682798 0.443867
Si Si5 0.955651 0.329168 0.464076
Si Si6 0.755130 0.346998 0.773522
Si Si7 0.421115 0.507287 0.225085
O O1 0.492071 0.255407 0.165351
O O2 0.571732 0.288206 0.514297
O O3 0.608665 0.803820 0.232814
O O4 0.595047 0.279485 0.005862
O O5 0.300007 0.104430 0.627197
O O6 0.185311 0.265394 0.870551
O O7 0.274579 0.315830 0.106667
O O8 0.271534 0.825412 0.057814
O O9 0.900550 0.479902 0.698611
O O10 0.828960 0.260433 0.843543
O O11 0.922939 0.322112 0.177537
O O12 0.731928 0.381067 0.466006
O O13 0.624826 0.626618 0.670158
O O14 0.000000 0.500000 0.500000
O O15 0.000000 0.000000 0.500000
#
# Coordination Sequence:
#
# PCOD9046749 Si02
#       7
#     2   2   2   2   2   2   2
#     4  10  24  43  67  97 138 184 237 305 369 436
#     4  10  26  43  70 101 147 193 239 297 360 430
#     4  10  26  50  70 108 151 190 234 300 352 424
#     4  12  24  40  68 101 140 186 246 298 366 434
#     4  12  27  44  80 111 144 190 241 290 351 420
#     4  10  26  43  70 101 147 193 239 297 360 430
#     4  10  24  43  67  97 138 184 237 305 369 436
#
# _framework density 26.407264000000001
#
# number of rings (size 3 to 8) (size 9 to 14) (size 15 to 20)
#    0.857    0.571    0.000    3.000   12.000    0.000 
#    0.000    4.286    0.000    0.000    0.000    0.000 
#    0.000    0.000    0.000    0.000    0.000    0.000 
#
# Total GULP energy -78084.218933 kJ/mol
# GULP energy per Si atom -5577.444209 kJ/mol
# Density = 2.634716 g / cm^3
# Si number density = 26.407264 Si / 1000 Ang^3
#
#
#
# Elastic Constant Matrix: (Units=GPa)
#
#
# Indices 1 2 3 4 5 6 
#
# 1 151.5872 31.2620 16.3211 -24.4720 -33.4204 9.0364
# 2 31.2620 108.6560 38.9741 -45.1963 -7.7819 20.3353
# 3 16.3211 38.9741 123.8856 -38.4522 -13.2075 17.8745
# 4 -24.4720 -45.1963 -38.4522 54.3386 -8.1659 -9.8655
# 5 -33.4204 -7.7819 -13.2075 -8.1659 49.6001 -10.6663
# 6 9.0364 20.3353 17.8745 -9.8655 -10.6663 36.0606
#
#
#
# Elastic Compliance Matrix: (Units=1/GPa)
#
#
# Indices 1 2 3 4 5 6 
#
# 1 0.009178 -0.000135 0.001525 0.006489 0.007880 0.001126
# 2 -0.000135 0.015536 0.000046 0.012654 0.003529 -0.004244
# 3 0.001525 0.000046 0.011614 0.009355 0.005225 -0.002061
# 4 0.006489 0.012654 0.009355 0.041411 0.016255 0.002738
# 5 0.007880 0.003529 0.005225 0.016255 0.031652 0.007255
# 6 0.001126 -0.004244 -0.002061 0.002738 0.007255 0.033759
#
#
# Mechanical properties :
#
#
# Convention : Reuss Voigt Hill
#
# Bulk Modulus (GPa) = 25.50914 61.91592 43.71253
# Shear Modulus (GPa) = 32.60634 47.83799 40.22216
#
# Velocity S-wave (km/s) = 3.51771 4.26084 3.90699
# Velocity P-wave (km/s) = 5.11663 6.90680 6.07798
#
# Compressibility (1/GPa) = 0.03920164
#
# Stress axis : x y z
#
# Youngs Moduli (GPa) = 108.95458 64.36527 86.09935
#
# Poissons Ratio (x) = 0.00869 -0.13129
# Poissons Ratio (y) = 0.01471 -0.00400
# Poissons Ratio (z) = -0.16614 -0.00299
#
# Static dielectric constant tensor:
#      x y z
#    x 2.168620 0.031550 0.252390 
#    y 0.031550 2.210750 0.212520 
#    z 0.252390 0.212520 2.407610 
# 
# From -- ./inp_files/121145.got.cif
#   From: 2010.05.17/outbox.cif.g08.bks.cpg/sg2_61_cif.got.tgz:121145.got - 2010.06.03 11:33:40.
