data_PCOD9046212
_publ_section_title
;
Structure prediction by ZEFSAII (Michael W. Deem and Ramdas Pophale) SiO2 
 PCOD9046212
Probable space group: P -1
;
_chemical_formula_sum "Si O2"
_cell_formula_units_Z 16
_cell_length_a 12.058347
_cell_length_b 9.671555
_cell_length_c 9.167235
_cell_angle_alpha 127.831169
_cell_angle_beta 107.149827
_cell_angle_gamma 53.369908
_cell_volume 673.365768
_symmetry_space_group_name_H-M "P -1"
_symmetry_group_IT_number 2
_symmetry_cell_setting 'triclinic'
loop_
_space_group_symop_operation_xyz
x,y,z
-x,-y,-z
loop_
_atom_site_type_symbol
_atom_site_label
_atom_site_fract_x
_atom_site_fract_y
_atom_site_fract_z
Si Si1 0.156499 0.362547 0.636367
Si Si2 0.329458 0.658991 0.196829
Si Si3 0.236409 0.063032 0.954252
Si Si4 0.645156 0.756549 0.096087
Si Si5 0.099816 0.650164 0.535341
Si Si6 0.028584 0.902903 0.109620
Si Si7 0.663200 0.335808 0.468512
Si Si8 0.632834 0.030467 0.740741
O O1 0.231145 0.339773 0.801114
O O2 0.126620 0.553449 0.645092
O O3 0.008790 0.387492 0.608654
O O4 0.265220 0.154992 0.449804
O O5 0.188544 0.751105 0.110561
O O6 0.300048 0.747316 0.406323
O O7 0.409627 0.749445 0.207295
O O8 0.391849 0.412335 0.071360
O O9 0.304986 0.173320 0.976634
O O10 0.069484 0.183034 0.958583
O O11 0.294495 0.847449 0.749036
O O12 0.279701 0.013986 0.107024
O O13 0.508413 0.945706 0.246709
O O14 0.248084 0.563072 0.464589
O O15 0.025423 0.898655 0.676854
O O16 0.000000 0.000000 0.000000
O O17 0.500000 0.500000 0.500000
#
# Coordination Sequence:
#
# PCOD9046212 Si02
#       8
#     2   2   2   2   2   2   2   2
#     4  11  24  44  72  98 137 182 230 285 345 400
#     4  12  26  45  73 102 138 186 231 280 351 413
#     4  11  26  44  72 101 140 178 231 287 345 406
#     4  12  28  42  69 107 140 175 237 285 341 411
#     4  10  24  42  69 100 136 177 233 279 341 412
#     4  11  21  45  71 101 137 182 229 285 347 413
#     4  11  27  45  72 100 143 182 230 282 354 405
#     4  12  25  47  72  98 143 183 230 281 352 415
#
# _framework density 23.761232
#
# number of rings (size 3 to 8) (size 9 to 14) (size 15 to 20)
#    0.000    0.750    2.500    3.375    8.750    2.500 
#    0.000    0.000    0.000    0.000    0.000    0.000 
#    0.000    0.000    0.000    0.000    0.000    0.000 
#
# Total GULP energy -89602.910142 kJ/mol
# GULP energy per Si atom -5600.181884 kJ/mol
# Density = 2.370715 g / cm^3
# Si number density = 23.761232 Si / 1000 Ang^3
#
#
#
# Elastic Constant Matrix: (Units=GPa)
#
#
# Indices 1 2 3 4 5 6 
#
# 1 125.6327 12.1355 -6.5940 1.1882 -13.8715 13.2788
# 2 12.1355 42.0362 11.0143 -1.5564 7.7235 10.7534
# 3 -6.5940 11.0143 86.8652 -6.5977 3.8972 10.6588
# 4 1.1882 -1.5564 -6.5977 42.0970 -6.6581 3.1767
# 5 -13.8715 7.7235 3.8972 -6.6581 18.0120 -1.7400
# 6 13.2788 10.7534 10.6588 3.1767 -1.7400 46.3761
#
#
#
# Elastic Compliance Matrix: (Units=1/GPa)
#
#
# Indices 1 2 3 4 5 6 
#
# 1 0.009645 -0.004307 0.001181 0.001367 0.009353 -0.001777
# 2 -0.004307 0.030245 -0.002824 -0.001425 -0.016749 -0.005662
# 3 0.001181 -0.002824 0.012445 0.002001 -0.000092 -0.002684
# 4 0.001367 -0.001425 0.002001 0.025793 0.010582 -0.001891
# 5 0.009353 -0.016749 -0.000092 0.010582 0.074152 0.003284
# 6 -0.001777 -0.005662 -0.002684 -0.001891 0.003284 0.024254
#
#
# Mechanical properties :
#
#
# Convention : Reuss Voigt Hill
#
# Bulk Modulus (GPa) = 24.73132 31.96064 28.34598
# Shear Modulus (GPa) = 24.76290 37.16225 30.96258
#
# Velocity S-wave (km/s) = 3.23175 3.95902 3.61372
# Velocity P-wave (km/s) = 4.93522 5.86331 5.41917
#
# Compressibility (1/GPa) = 0.04043456
#
# Stress axis : x y z
#
# Youngs Moduli (GPa) = 103.67704 33.06302 80.35196
#
# Poissons Ratio (x) = 0.14241 -0.09486
# Poissons Ratio (y) = 0.44655 0.22692
# Poissons Ratio (z) = -0.12240 0.09337
#
# Static dielectric constant tensor:
#      x y z
#    x 1.900780 0.005790 -0.005700 
#    y 0.005790 1.884430 0.058420 
#    z -0.005700 0.058420 1.916720 
# 
# From -- ./inp_files/186171.got.cif
#   From: 2010.05.17/outbox.cif.g08.bks.cpg/sg2_94_cif.got.tgz:186171.got - 2010.06.03 11:33:40.
