data_PCOD9046112
_publ_section_title
;
Structure prediction by ZEFSAII (Michael W. Deem and Ramdas Pophale) SiO2 
 PCOD9046112
Probable space group: P -1
;
_chemical_formula_sum "Si O2"
_cell_formula_units_Z 16
_cell_length_a 11.755306
_cell_length_b 9.219249
_cell_length_c 12.347515
_cell_angle_alpha 62.040855
_cell_angle_beta 91.960686
_cell_angle_gamma 134.287232
_cell_volume 749.678105
_symmetry_space_group_name_H-M "P -1"
_symmetry_group_IT_number 2
_symmetry_cell_setting 'triclinic'
loop_
_space_group_symop_operation_xyz
x,y,z
-x,-y,-z
loop_
_atom_site_type_symbol
_atom_site_label
_atom_site_fract_x
_atom_site_fract_y
_atom_site_fract_z
Si Si1 0.040297 0.468385 0.718214
Si Si2 0.548212 0.469312 0.350704
Si Si3 0.748973 0.663300 0.508365
Si Si4 0.340365 0.086104 0.175934
Si Si5 0.053741 0.280575 0.319373
Si Si6 0.328730 0.453807 0.091808
Si Si7 0.821096 0.694091 0.101172
Si Si8 0.365049 0.957699 0.440256
O O1 0.142195 0.443248 0.798873
O O2 0.168709 0.668220 0.554825
O O3 0.000147 0.590602 0.739406
O O4 0.856478 0.184706 0.771161
O O5 0.677701 0.553599 0.423270
O O6 0.434719 0.498873 0.375972
O O7 0.674516 0.620495 0.197624
O O8 0.395001 0.167062 0.423502
O O9 0.861927 0.653784 0.580733
O O10 0.885665 0.970882 0.404045
O O11 0.335480 0.263318 0.166083
O O12 0.404594 0.030598 0.289854
O O13 0.473413 0.250504 0.020897
O O14 0.207523 0.395528 0.200878
O O15 0.242816 0.390778 0.993632
O O16 0.000000 0.000000 0.000000
O O17 0.500000 0.000000 0.500000
#
# Coordination Sequence:
#
# PCOD9046112 Si02
#       8
#     2   2   2   2   2   2   2   2
#     4  12  26  41  67 104 137 176 225 284 340 394
#     4  11  22  43  68  98 130 184 223 278 330 405
#     4  10  24  42  67  97 140 177 223 272 347 400
#     4  11  25  43  69  99 134 178 233 277 334 407
#     4  11  25  42  66 101 140 175 220 281 339 405
#     4  11  24  45  70  94 135 188 225 273 335 410
#     4  12  24  45  70  99 134 179 232 275 334 405
#     4  12  23  41  67 100 137 167 225 291 336 387
#
# _framework density 21.342493000000001
#
# number of rings (size 3 to 8) (size 9 to 14) (size 15 to 20)
#    0.000    0.750    5.000    1.875    5.250    1.000 
#    0.000    0.000    0.000    0.000    0.000    0.000 
#    0.000    0.000    0.000    0.000    0.000    0.000 
#
# Total GULP energy -89457.627020 kJ/mol
# GULP energy per Si atom -5591.101689 kJ/mol
# Density = 2.129392 g / cm^3
# Si number density = 21.342493 Si / 1000 Ang^3
#
#
#
# Elastic Constant Matrix: (Units=GPa)
#
#
# Indices 1 2 3 4 5 6 
#
# 1 72.1494 9.1226 51.9110 -3.0287 -5.6557 1.4185
# 2 9.1226 81.0559 43.7560 -10.5584 -1.5394 29.3104
# 3 51.9110 43.7560 125.2283 -15.1678 -6.4683 7.8789
# 4 -3.0287 -10.5584 -15.1678 43.7789 14.4347 0.0739
# 5 -5.6557 -1.5394 -6.4683 14.4347 41.9029 3.4219
# 6 1.4185 29.3104 7.8789 0.0739 3.4219 34.2528
#
#
#
# Elastic Compliance Matrix: (Units=1/GPa)
#
#
# Indices 1 2 3 4 5 6 
#
# 1 0.020527 0.003321 -0.009675 -0.001844 0.002171 -0.001679
# 2 0.003321 0.023268 -0.007974 0.002926 0.000557 -0.018276
# 3 -0.009675 -0.007974 0.014841 0.002728 -0.000563 0.003861
# 4 -0.001844 0.002926 0.002728 0.027320 -0.008950 -0.002220
# 5 0.002171 0.000557 -0.000563 -0.008950 0.027432 -0.003158
# 6 -0.001679 -0.018276 0.003861 -0.002220 -0.003158 0.044336
#
#
# Mechanical properties :
#
#
# Convention : Reuss Voigt Hill
#
# Bulk Modulus (GPa) = 33.35529 54.22364 43.78947
# Shear Modulus (GPa) = 25.46164 35.56319 30.51241
#
# Velocity S-wave (km/s) = 3.45773 4.08647 3.78518
# Velocity P-wave (km/s) = 5.62172 6.90849 6.29806
#
# Compressibility (1/GPa) = 0.02998025
#
# Stress axis : x y z
#
# Youngs Moduli (GPa) = 48.71594 42.97672 67.38265
#
# Poissons Ratio (x) = -0.14272 0.65193
# Poissons Ratio (y) = -0.16177 0.53729
# Poissons Ratio (z) = 0.47133 0.34268
#
# Static dielectric constant tensor:
#      x y z
#    x 1.798370 0.009650 0.004450 
#    y 0.009650 1.764520 0.000890 
#    z 0.004450 0.000890 1.773640 
# 
# From -- ./inp_files/343557.got.cif
#   From: 2010.05.17/outbox.cif.g08.bks.cpg/sg2_172_cif.got.tgz:343557.got - 2010.06.03 11:33:40.
