data_PCOD9046856
_publ_section_title
;
Structure prediction by ZEFSAII (Michael W. Deem and Ramdas Pophale) SiO2 
 PCOD9046856
Probable space group: P -1
;
_chemical_formula_sum "Si O2"
_cell_formula_units_Z 14
_cell_length_a 14.358802
_cell_length_b 16.553552
_cell_length_c 9.060373
_cell_angle_alpha 48.978003
_cell_angle_beta 45.469909
_cell_angle_gamma 22.702043
_cell_volume 592.159077
_symmetry_space_group_name_H-M "P -1"
_symmetry_group_IT_number 2
_symmetry_cell_setting 'triclinic'
loop_
_space_group_symop_operation_xyz
x,y,z
-x,-y,-z
loop_
_atom_site_type_symbol
_atom_site_label
_atom_site_fract_x
_atom_site_fract_y
_atom_site_fract_z
Si Si1 0.924457 0.191795 0.209187
Si Si2 0.622187 0.102199 0.164166
Si Si3 0.890328 0.963904 0.482863
Si Si4 0.868929 0.591065 0.836555
Si Si5 0.612216 0.808835 0.159665
Si Si6 0.582853 0.545757 0.941782
Si Si7 0.968953 0.746871 0.421961
O O1 0.870920 0.105466 0.330603
O O2 0.704972 0.421233 0.110314
O O3 0.967615 0.166607 0.365885
O O4 0.186353 0.038382 0.018388
O O5 0.333059 0.292272 0.204938
O O6 0.632706 0.214189 0.084384
O O7 0.720303 0.950322 0.358037
O O8 0.609668 0.107805 0.627232
O O9 0.029608 0.808649 0.378186
O O10 0.922471 0.679896 0.659206
O O11 0.145497 0.341673 0.823003
O O12 0.732728 0.664832 0.055507
O O13 0.500000 0.000000 0.000000
O O14 0.807193 0.436010 0.721878
O O15 0.500000 0.500000 0.000000
#
# Coordination Sequence:
#
# PCOD9046856 Si02
#       7
#     2   2   2   2   2   2   2
#     4  10  24  43  68  98 130 172 220 271 325 385
#     4  11  24  45  66  97 137 170 218 271 320 393
#     4  11  22  45  69  95 132 171 215 276 325 379
#     4  11  25  41  67 100 126 177 218 264 330 389
#     4  11  24  42  69  94 137 168 214 276 325 381
#     4  11  25  43  67  95 134 177 216 268 328 388
#     4  11  25  42  68  98 133 172 219 267 328 391
#
# _framework density 23.642296000000002
#
# number of rings (size 3 to 8) (size 9 to 14) (size 15 to 20)
#    0.000    1.143    2.857    2.143    6.000    2.857 
#    0.000    2.143    0.000    0.000    0.000    0.000 
#    0.000    0.000    0.000    0.000    0.000    0.000 
#
# Total GULP energy -78413.127280 kJ/mol
# GULP energy per Si atom -5600.937663 kJ/mol
# Density = 2.358848 g / cm^3
# Si number density = 23.642296 Si / 1000 Ang^3
#
#
#
# Elastic Constant Matrix: (Units=GPa)
#
#
# Indices 1 2 3 4 5 6 
#
# 1 59.1304 11.7898 -1.5896 0.6621 4.1724 -5.0572
# 2 11.7898 91.2824 24.5356 -21.2729 -0.2674 -14.7138
# 3 -1.5896 24.5356 76.8635 -10.7420 5.5660 -2.7985
# 4 0.6621 -21.2729 -10.7420 30.5385 -1.6197 1.6433
# 5 4.1724 -0.2674 5.5660 -1.6197 34.2556 1.3669
# 6 -5.0572 -14.7138 -2.7985 1.6433 1.3669 33.0369
#
#
#
# Elastic Compliance Matrix: (Units=1/GPa)
#
#
# Indices 1 2 3 4 5 6 
#
# 1 0.017875 -0.002870 0.001231 -0.002186 -0.002574 0.001778
# 2 -0.002870 0.015343 -0.003550 0.009268 0.001262 0.005580
# 3 0.001231 -0.003550 0.014695 0.002550 -0.002438 -0.000174
# 4 -0.002186 0.009268 0.002550 0.040134 0.001744 0.001941
# 5 -0.002574 0.001262 -0.002438 0.001744 0.030049 -0.001369
# 6 0.001778 0.005580 -0.000174 0.001941 -0.001369 0.032972
#
#
# Mechanical properties :
#
#
# Convention : Reuss Voigt Hill
#
# Bulk Modulus (GPa) = 26.64092 32.97198 29.80645
# Shear Modulus (GPa) = 28.74268 32.40223 30.57246
#
# Velocity S-wave (km/s) = 3.49052 3.70607 3.59991
# Velocity P-wave (km/s) = 5.24764 5.68241 5.46934
#
# Compressibility (1/GPa) = 0.03753624
#
# Stress axis : x y z
#
# Youngs Moduli (GPa) = 55.94319 65.17678 68.04915
#
# Poissons Ratio (x) = 0.18707 -0.08380
# Poissons Ratio (y) = 0.16057 0.24157
# Poissons Ratio (z) = -0.06889 0.23137
#
# Static dielectric constant tensor:
#      x y z
#    x 1.920750 -0.020410 0.001420 
#    y -0.020410 1.888830 0.006150 
#    z 0.001420 0.006150 1.851390 
# 
# From -- ./inp_files/27535.got.cif
#   From: 2010.05.17/outbox.cif.g08.bks.cpg/sg2_14_cif.got.tgz:27535.got - 2010.06.03 11:33:40.
