data_PCOD9046193
_publ_section_title
;
Structure prediction by ZEFSAII (Michael W. Deem and Ramdas Pophale) SiO2 
 PCOD9046193
Probable space group: P -1
;
_chemical_formula_sum "Si O2"
_cell_formula_units_Z 15
_cell_length_a 18.251342
_cell_length_b 18.635720
_cell_length_c 22.513635
_cell_angle_alpha 16.322043
_cell_angle_beta 161.969123
_cell_angle_gamma 162.632996
_cell_volume 583.980160
_symmetry_space_group_name_H-M "P -1"
_symmetry_group_IT_number 2
_symmetry_cell_setting 'triclinic'
loop_
_space_group_symop_operation_xyz
x,y,z
-x,-y,-z
loop_
_atom_site_type_symbol
_atom_site_label
_atom_site_fract_x
_atom_site_fract_y
_atom_site_fract_z
Si Si1 0.525705 0.130877 0.246698
Si Si2 0.000000 0.000000 0.500000
Si Si3 0.031177 0.082614 0.698091
Si Si4 0.265325 0.910503 0.341750
Si Si5 0.471830 0.730034 0.229717
Si Si6 0.246106 0.306279 0.807130
Si Si7 0.351666 0.577091 0.466124
Si Si8 0.999937 0.518518 0.130943
O O1 0.815165 0.199030 0.440914
O O2 0.352023 0.084782 0.208862
O O3 0.433474 0.840010 0.366202
O O4 0.501301 0.354933 0.004568
O O5 0.756789 0.827246 0.403078
O O6 0.158571 0.818472 0.740428
O O7 0.218960 0.163256 0.836432
O O8 0.218206 0.263768 0.644371
O O9 0.872244 0.731536 0.853183
O O10 0.211359 0.585450 0.544457
O O11 0.008498 0.899261 0.184605
O O12 0.500000 0.000000 0.500000
O O13 0.410313 0.437092 0.377555
O O14 0.236068 0.641061 0.165783
O O15 0.500000 0.000000 0.000000
O O16 0.129415 0.569634 0.255237
#
# Coordination Sequence:
#
# PCOD9046193 Si02
#       8
#     2   1   2   2   2   2   2   2
#     4  12  26  43  72 102 138 181 223 279 346 404
#     4  10  24  42  68  98 130 180 230 286 340 396
#     4  12  25  43  68 103 137 183 228 282 346 404
#     4  11  24  47  75 101 136 181 221 274 346 410
#     4  11  24  45  69  95 137 183 233 285 341 403
#     4  11  25  47  70 101 141 171 228 282 331 415
#     4  11  24  44  67 101 136 181 230 286 343 404
#     4  11  25  47  69  99 142 181 238 288 339 409
#
# _framework density 25.685804000000001
#
# number of rings (size 3 to 8) (size 9 to 14) (size 15 to 20)
#    0.000    0.800    5.333    2.000    1.867    7.467 
#    0.000    0.000    0.000    0.000    0.000    0.000 
#    0.000    0.000    0.000    0.000    0.000    0.000 
#
# Total GULP energy -83730.483411 kJ/mol
# GULP energy per Si atom -5582.032227 kJ/mol
# Density = 2.562734 g / cm^3
# Si number density = 25.685804 Si / 1000 Ang^3
#
#
#
# Elastic Constant Matrix: (Units=GPa)
#
#
# Indices 1 2 3 4 5 6 
#
# 1 91.5847 10.0485 23.8710 2.5909 -23.8592 -6.8662
# 2 10.0485 40.7259 -5.6995 -3.7621 -8.0307 -14.4756
# 3 23.8710 -5.6995 110.6311 -3.5383 -25.9680 11.8493
# 4 2.5909 -3.7621 -3.5383 37.1278 1.6081 4.2787
# 5 -23.8592 -8.0307 -25.9680 1.6081 39.6298 3.6138
# 6 -6.8662 -14.4756 11.8493 4.2787 3.6138 26.5310
#
#
#
# Elastic Compliance Matrix: (Units=1/GPa)
#
#
# Indices 1 2 3 4 5 6 
#
# 1 0.013513 -0.001446 -0.001859 -0.001887 0.006430 0.002967
# 2 -0.001446 0.031713 0.001557 0.001478 0.005121 0.015298
# 3 -0.001859 0.001557 0.012039 0.001837 0.007589 -0.006339
# 4 -0.001887 0.001478 0.001837 0.027977 -0.000315 -0.004971
# 5 0.006430 0.005121 0.007589 -0.000315 0.035466 -0.003711
# 6 0.002967 0.015298 -0.006339 -0.004971 -0.003711 0.050944
#
#
# Mechanical properties :
#
#
# Convention : Reuss Voigt Hill
#
# Bulk Modulus (GPa) = 18.59839 33.26464 25.93152
# Shear Modulus (GPa) = 25.89705 34.97250 30.43477
#
# Velocity S-wave (km/s) = 3.17870 3.69392 3.44595
# Velocity P-wave (km/s) = 4.55287 5.58320 5.09415
#
# Compressibility (1/GPa) = 0.05376809
#
# Stress axis : x y z
#
# Youngs Moduli (GPa) = 74.00238 31.53313 83.06178
#
# Poissons Ratio (x) = 0.04560 0.15441
# Poissons Ratio (y) = 0.10701 -0.12929
# Poissons Ratio (z) = 0.13757 -0.04908
#
# Static dielectric constant tensor:
#      x y z
#    x 2.102740 0.044660 0.126480 
#    y 0.044660 2.006030 -0.059430 
#    z 0.126480 -0.059430 2.221570 
# 
# From -- ./inp_files/600472.got.cif
#   From: 2010.05.17/outbox.cif.g08.bks.cpg/sg2_301_cif.got.tgz:600472.got - 2010.06.03 11:33:40.
