data_PCOD9046846
_publ_section_title
;
Structure prediction by ZEFSAII (Michael W. Deem and Ramdas Pophale) SiO2 
 PCOD9046846
Probable space group: P -1
;
_chemical_formula_sum "Si O2"
_cell_formula_units_Z 14
_cell_length_a 9.358046
_cell_length_b 21.484904
_cell_length_c 8.879719
_cell_angle_alpha 149.471103
_cell_angle_beta 118.504204
_cell_angle_gamma 49.427675
_cell_volume 672.731990
_symmetry_space_group_name_H-M "P -1"
_symmetry_group_IT_number 2
_symmetry_cell_setting 'triclinic'
loop_
_space_group_symop_operation_xyz
x,y,z
-x,-y,-z
loop_
_atom_site_type_symbol
_atom_site_label
_atom_site_fract_x
_atom_site_fract_y
_atom_site_fract_z
Si Si1 0.401141 0.573441 0.259323
Si Si2 0.424372 0.266144 0.173452
Si Si3 0.020280 0.134833 0.334997
Si Si4 0.711683 0.911514 0.347335
Si Si5 0.218980 0.905178 0.458258
Si Si6 0.508736 0.372801 0.142275
Si Si7 0.346183 0.978328 0.967617
O O1 0.554737 0.609656 0.481070
O O2 0.376890 0.462812 0.122030
O O3 0.190373 0.720330 0.460738
O O4 0.500000 0.500000 0.000000
O O5 0.473678 0.281081 0.056048
O O6 0.559747 0.129898 0.068097
O O7 0.248554 0.242335 0.013820
O O8 0.131122 0.110139 0.496774
O O9 0.164595 0.124322 0.252914
O O10 0.000000 0.000000 0.000000
O O11 0.500000 0.000000 0.500000
O O12 0.696782 0.011409 0.411719
O O13 0.268699 0.908878 0.664382
O O14 0.300830 0.747905 0.100291
O O15 0.000000 0.000000 0.500000
O O16 0.500000 0.500000 0.500000
O O17 0.500000 0.000000 0.000000
#
# Coordination Sequence:
#
# PCOD9046846 Si02
#       7
#     2   2   2   2   2   2   2
#     4  11  25  47  73 101 142 189 238 289 353 431
#     4  11  22  45  70  98 139 185 228 295 357 408
#     4  12  24  43  74 104 136 186 239 293 351 419
#     4  12  21  42  70 100 137 177 234 298 347 400
#     4  12  25  38  72 106 131 175 243 292 341 411
#     4  10  24  43  68  95 142 184 226 278 363 417
#     4  12  23  40  69 107 139 170 232 300 352 401
#
# _framework density 20.810665
#
# number of rings (size 3 to 8) (size 9 to 14) (size 15 to 20)
#    0.000    0.571    5.714    1.714    8.000    0.000 
#    0.000    1.429    0.000    0.000    0.000    0.000 
#    0.000    0.000    0.000    0.000    0.000    0.000 
#
# Total GULP energy -77941.632326 kJ/mol
# GULP energy per Si atom -5567.259452 kJ/mol
# Density = 2.076330 g / cm^3
# Si number density = 20.810665 Si / 1000 Ang^3
#
#
#
# Elastic Constant Matrix: (Units=GPa)
#
#
# Indices 1 2 3 4 5 6 
#
# 1 92.5077 53.4130 35.8657 6.1489 -11.1452 16.1956
# 2 53.4130 137.5961 61.1660 -3.9765 -8.9265 14.5059
# 3 35.8657 61.1660 124.9803 -10.5947 -13.1582 -3.9185
# 4 6.1489 -3.9765 -10.5947 44.7004 -5.4196 1.3020
# 5 -11.1452 -8.9265 -13.1582 -5.4196 36.8661 -3.2934
# 6 16.1956 14.5059 -3.9185 1.3020 -3.2934 39.4064
#
#
#
# Elastic Compliance Matrix: (Units=1/GPa)
#
#
# Indices 1 2 3 4 5 6 
#
# 1 0.015559 -0.004378 -0.002504 -0.002751 0.001919 -0.004781
# 2 -0.004378 0.011156 -0.004269 0.000627 -0.000302 -0.002778
# 3 -0.002504 -0.004269 0.011508 0.002954 0.003100 0.003906
# 4 -0.002751 0.000627 0.002954 0.023965 0.003963 0.000733
# 5 0.001919 -0.000302 0.003100 0.003963 0.029497 0.001965
# 6 -0.004781 -0.002778 0.003906 0.000733 0.001965 0.028893
#
#
# Mechanical properties :
#
#
# Convention : Reuss Voigt Hill
#
# Bulk Modulus (GPa) = 62.80487 72.88593 67.84540
# Shear Modulus (GPa) = 33.74091 37.83718 35.78905
#
# Velocity S-wave (km/s) = 4.03094 4.26862 4.15148
# Velocity P-wave (km/s) = 7.20481 7.70676 7.46001
#
# Compressibility (1/GPa) = 0.01592233
#
# Stress axis : x y z
#
# Youngs Moduli (GPa) = 64.26961 89.63442 86.89234
#
# Poissons Ratio (x) = 0.39243 0.21754
# Poissons Ratio (y) = 0.28138 0.37098
# Poissons Ratio (z) = 0.16090 0.38268
#
# Static dielectric constant tensor:
#      x y z
#    x 1.683010 0.055630 0.006820 
#    y 0.055630 1.769360 0.004960 
#    z 0.006820 0.004960 1.803600 
# 
# From -- ./inp_files/224390.got.cif
#   From: 2010.05.17/outbox.cif.g08.bks.cpg/sg2_113_cif.got.tgz:224390.got - 2010.06.03 11:33:40.
