data_PCOD9046697
_publ_section_title
;
Structure prediction by ZEFSAII (Michael W. Deem and Ramdas Pophale) SiO2 
 PCOD9046697
Probable space group: P -1
;
_chemical_formula_sum "Si O2"
_cell_formula_units_Z 12
_cell_length_a 9.790103
_cell_length_b 15.532622
_cell_length_c 9.364787
_cell_angle_alpha 66.069328
_cell_angle_beta 135.661183
_cell_angle_gamma 147.117358
_cell_volume 463.544191
_symmetry_space_group_name_H-M "P -1"
_symmetry_group_IT_number 2
_symmetry_cell_setting 'triclinic'
loop_
_space_group_symop_operation_xyz
x,y,z
-x,-y,-z
loop_
_atom_site_type_symbol
_atom_site_label
_atom_site_fract_x
_atom_site_fract_y
_atom_site_fract_z
Si Si1 0.789504 0.765624 0.457026
Si Si2 0.987159 0.385701 0.607012
Si Si3 0.728406 0.971443 0.872449
Si Si4 0.309871 0.835252 0.203410
Si Si5 0.413461 0.532466 0.573534
Si Si6 0.701400 0.271912 0.019285
O O1 0.747392 0.734516 0.617774
O O2 0.651244 0.604522 0.416161
O O3 0.491192 0.717542 0.204680
O O4 0.220564 0.966706 0.590208
O O5 0.643601 0.191527 0.396996
O O6 0.887082 0.324352 0.735925
O O7 0.000000 0.500000 0.500000
O O8 0.370772 0.514268 0.724558
O O9 0.818075 0.119172 0.851975
O O10 0.617202 0.900066 0.997975
O O11 0.000000 0.000000 0.000000
O O12 0.198307 0.760085 0.009455
O O13 0.053106 0.429226 0.285968
#
# Coordination Sequence:
#
# PCOD9046697 Si02
#       6
#     2   2   2   2   2   2
#     4  11  22  41  71 101 137 184 224 283 347 403
#     4  11  24  45  67  98 139 181 229 283 343 411
#     4  11  25  44  69 100 143 181 230 286 345 408
#     4  12  24  45  73 104 138 180 237 283 343 414
#     4  10  24  43  67 101 146 174 232 282 348 406
#     4  11  23  42  71 103 138 180 233 283 343 411
#
# _framework density 25.887502000000001
#
# number of rings (size 3 to 8) (size 9 to 14) (size 15 to 20)
#    0.000    1.000    3.333    4.000    2.333    2.667 
#    3.000    0.833    0.000    0.000    0.000    0.000 
#    0.000    0.000    0.000    0.000    0.000    0.000 
#
# Total GULP energy -67048.500479 kJ/mol
# GULP energy per Si atom -5587.375040 kJ/mol
# Density = 2.582858 g / cm^3
# Si number density = 25.887502 Si / 1000 Ang^3
#
#
#
# Elastic Constant Matrix: (Units=GPa)
#
#
# Indices 1 2 3 4 5 6 
#
# 1 120.1050 48.8518 40.5485 -6.2754 -23.4094 8.5890
# 2 48.8518 131.5100 56.3800 -19.1863 3.7289 10.9847
# 3 40.5485 56.3800 123.1640 2.1633 18.1411 4.6398
# 4 -6.2754 -19.1863 2.1633 51.9963 3.0137 -4.8623
# 5 -23.4094 3.7289 18.1411 3.0137 42.2838 -13.1175
# 6 8.5890 10.9847 4.6398 -4.8623 -13.1175 52.7469
#
#
#
# Elastic Compliance Matrix: (Units=1/GPa)
#
#
# Indices 1 2 3 4 5 6 
#
# 1 0.012896 -0.003383 -0.004171 0.000051 0.009650 0.001376
# 2 -0.003383 0.011212 -0.003726 0.003852 -0.002037 -0.001608
# 3 -0.004171 -0.003726 0.012436 -0.002112 -0.007709 -0.001751
# 4 0.000051 0.003852 -0.002112 0.020887 -0.000531 0.001169
# 5 0.009650 -0.002037 -0.007709 -0.000531 0.035061 0.008201
# 6 0.001376 -0.001608 -0.001751 0.001169 0.008201 0.021370
#
#
# Mechanical properties :
#
#
# Convention : Reuss Voigt Hill
#
# Bulk Modulus (GPa) = 71.51000 74.03775 72.77387
# Shear Modulus (GPa) = 35.43980 44.67198 40.05589
#
# Velocity S-wave (km/s) = 3.70400 4.15856 3.93785
# Velocity P-wave (km/s) = 6.78058 7.19167 6.98915
#
# Compressibility (1/GPa) = 0.01398406
#
# Stress axis : x y z
#
# Youngs Moduli (GPa) = 77.54633 89.19047 80.40924
#
# Poissons Ratio (x) = 0.30176 0.33538
# Poissons Ratio (y) = 0.26236 0.29958
# Poissons Ratio (z) = 0.32344 0.33229
#
# Static dielectric constant tensor:
#      x y z
#    x 2.513730 0.137180 -0.120800 
#    y 0.137180 2.076200 -0.086140 
#    z -0.120800 -0.086140 2.303870 
# 
# From -- ./inp_files/201178.got.cif
#   From: 2010.05.17/outbox.cif.g08.bks.cpg/sg2_101_cif.got.tgz:201178.got - 2010.06.03 11:33:40.
