data_PCOD9046558
_publ_section_title
;
Structure prediction by ZEFSAII (Michael W. Deem and Ramdas Pophale) SiO2 
 PCOD9046558
Probable space group: P -1
;
_chemical_formula_sum "Si O2"
_cell_formula_units_Z 14
_cell_length_a 12.028040
_cell_length_b 7.893904
_cell_length_c 7.594462
_cell_angle_alpha 124.700008
_cell_angle_beta 100.981359
_cell_angle_gamma 97.732038
_cell_volume 554.976092
_symmetry_space_group_name_H-M "P -1"
_symmetry_group_IT_number 2
_symmetry_cell_setting 'triclinic'
loop_
_space_group_symop_operation_xyz
x,y,z
-x,-y,-z
loop_
_atom_site_type_symbol
_atom_site_label
_atom_site_fract_x
_atom_site_fract_y
_atom_site_fract_z
Si Si1 0.157959 0.997942 0.349921
Si Si2 0.540096 0.085110 0.323818
Si Si3 0.135634 0.638470 0.605588
Si Si4 0.864349 0.456586 0.860782
Si Si5 0.640784 0.309703 0.125026
Si Si6 0.891774 0.927379 0.210242
Si Si7 0.600166 0.740675 0.352738
O O1 0.192259 0.777103 0.210144
O O2 0.029511 0.978025 0.216922
O O3 0.123562 0.026415 0.560783
O O4 0.276972 0.185462 0.453974
O O5 0.597311 0.232642 0.264779
O O6 0.509901 0.232876 0.552605
O O7 0.614232 0.926557 0.318890
O O8 0.416397 0.909508 0.127248
O O9 0.157875 0.587722 0.379997
O O10 0.218668 0.587004 0.748066
O O11 0.000000 0.500000 0.500000
O O12 0.154609 0.893089 0.789618
O O13 0.831117 0.672998 0.017585
O O14 0.000000 0.500000 0.000000
O O15 0.588919 0.497342 0.154728
#
# Coordination Sequence:
#
# PCOD9046558 Si02
#       7
#     2   2   2   2   2   2   2
#     4   9  18  33  57  89 117 151 201 250 297 360
#     4  10  24  43  64  91 121 162 212 254 307 367
#     4  11  23  37  57  91 126 158 202 251 304 369
#     4   9  19  35  56  81 118 165 204 240 294 362
#     4  11  24  43  63  90 129 163 200 257 313 363
#     4   9  18  34  54  82 125 163 193 241 304 362
#     4  11  22  41  67  92 119 158 211 262 306 360
#
# _framework density 25.226312
#
# number of rings (size 3 to 8) (size 9 to 14) (size 15 to 20)
#    0.000    2.000    0.000    4.286    0.000    5.143 
#    0.000    7.143    0.000    0.000    0.000    0.000 
#    0.000    0.000    0.000    0.000    0.000    0.000 
#
# Total GULP energy -78203.770182 kJ/mol
# GULP energy per Si atom -5585.983584 kJ/mol
# Density = 2.516890 g / cm^3
# Si number density = 25.226312 Si / 1000 Ang^3
#
#
#
# Elastic Constant Matrix: (Units=GPa)
#
#
# Indices 1 2 3 4 5 6 
#
# 1 77.0333 21.9372 19.8897 -4.5627 11.1098 -7.2203
# 2 21.9372 94.9247 32.3846 21.6049 -17.0505 -33.0027
# 3 19.8897 32.3846 74.6193 12.8681 9.6561 -20.9321
# 4 -4.5627 21.6049 12.8681 47.3238 -5.5147 -5.9743
# 5 11.1098 -17.0505 9.6561 -5.5147 33.6705 5.4072
# 6 -7.2203 -33.0027 -20.9321 -5.9743 5.4072 41.1164
#
#
#
# Elastic Compliance Matrix: (Units=1/GPa)
#
#
# Indices 1 2 3 4 5 6 
#
# 1 0.016149 -0.005510 -0.002008 0.003682 -0.006749 -0.001186
# 2 -0.005510 0.020483 -0.004785 -0.005959 0.010861 0.010743
# 3 -0.002008 -0.004785 0.019605 -0.003575 -0.009005 0.006452
# 4 0.003682 -0.005959 -0.003575 0.025014 0.001290 -0.002492
# 5 -0.006749 0.010861 -0.009005 0.001290 0.040574 -0.002200
# 6 -0.001186 0.010743 0.006452 -0.002492 -0.002200 0.035948
#
#
# Mechanical properties :
#
#
# Convention : Reuss Voigt Hill
#
# Bulk Modulus (GPa) = 31.61398 43.88893 37.75146
# Shear Modulus (GPa) = 25.91725 35.91318 30.91522
#
# Velocity S-wave (km/s) = 3.20877 3.77721 3.50453
# Velocity P-wave (km/s) = 5.12715 6.03812 5.60118
#
# Compressibility (1/GPa) = 0.03163157
#
# Stress axis : x y z
#
# Youngs Moduli (GPa) = 61.92261 48.82147 51.00793
#
# Poissons Ratio (x) = 0.26901 0.10240
# Poissons Ratio (y) = 0.34119 0.24408
# Poissons Ratio (z) = 0.12431 0.23361
#
# Static dielectric constant tensor:
#      x y z
#    x 2.065880 0.016780 0.004010 
#    y 0.016780 1.974800 -0.023110 
#    z 0.004010 -0.023110 1.999610 
# 
# From -- ./inp_files/236703.got.cif
#   From: 2010.05.17/outbox.cif.g08.bks.cpg/sg2_119_cif.got.tgz:236703.got - 2010.06.03 11:33:40.
