data_PCOD9046771
_publ_section_title
;
Structure prediction by ZEFSAII (Michael W. Deem and Ramdas Pophale) SiO2 
 PCOD9046771
Probable space group: P -1
;
_chemical_formula_sum "Si O2"
_cell_formula_units_Z 16
_cell_length_a 9.081733
_cell_length_b 13.956396
_cell_length_c 8.733376
_cell_angle_alpha 85.860818
_cell_angle_beta 71.671988
_cell_angle_gamma 41.317406
_cell_volume 669.588976
_symmetry_space_group_name_H-M "P -1"
_symmetry_group_IT_number 2
_symmetry_cell_setting 'triclinic'
loop_
_space_group_symop_operation_xyz
x,y,z
-x,-y,-z
loop_
_atom_site_type_symbol
_atom_site_label
_atom_site_fract_x
_atom_site_fract_y
_atom_site_fract_z
Si Si1 0.150903 0.105469 0.878537
Si Si2 0.006289 0.504741 0.749069
Si Si3 0.400820 0.291285 0.902722
Si Si4 0.665536 0.153566 0.354894
Si Si5 0.653962 0.374343 0.831633
Si Si6 0.770576 0.490944 0.580708
Si Si7 0.876860 0.933315 0.766106
Si Si8 0.552576 0.039123 0.626144
O O1 0.337341 0.104024 0.797430
O O2 0.918043 0.229985 0.833417
O O3 0.270978 0.949075 0.794032
O O4 0.076441 0.135422 0.076496
O O5 0.199279 0.380856 0.826380
O O6 0.107266 0.547746 0.618047
O O7 0.959654 0.441446 0.650749
O O8 0.752953 0.645833 0.899121
O O9 0.520013 0.339293 0.845754
O O10 0.623508 0.112094 0.844814
O O11 0.458953 0.327639 0.359651
O O12 0.578734 0.130912 0.529076
O O13 0.904662 0.098143 0.330733
O O14 0.683872 0.428298 0.668757
O O15 0.500000 0.500000 0.000000
O O16 0.805766 0.900792 0.649227
O O17 0.500000 0.000000 0.500000
#
# Coordination Sequence:
#
# PCOD9046771 Si02
#       8
#     2   2   2   2   2   2   2   2
#     4  11  25  43  68 103 142 181 231 290 346 416
#     4  10  24  43  68 100 136 189 234 278 348 423
#     4  11  24  45  69 103 137 187 232 292 345 421
#     4  11  23  45  71 105 138 183 230 287 358 417
#     4  12  25  43  68 102 144 182 232 291 350 406
#     4  11  24  44  72 101 140 186 232 288 347 422
#     4  12  23  43  74 103 139 181 237 284 354 421
#     4  10  25  45  67 104 142 179 225 293 354 413
#
# _framework density 23.895256
#
# number of rings (size 3 to 8) (size 9 to 14) (size 15 to 20)
#    0.000    1.000    2.500    3.375    5.250    0.500 
#    2.250    6.250    0.000    0.000    0.000    0.000 
#    0.000    0.000    0.000    0.000    0.000    0.000 
#
# Total GULP energy -89624.452464 kJ/mol
# GULP energy per Si atom -5601.528279 kJ/mol
# Density = 2.384087 g / cm^3
# Si number density = 23.895256 Si / 1000 Ang^3
#
#
#
# Elastic Constant Matrix: (Units=GPa)
#
#
# Indices 1 2 3 4 5 6 
#
# 1 141.9290 44.6799 33.7667 3.9454 -23.5845 -22.3633
# 2 44.6799 99.9134 19.9878 -12.6326 -19.3539 -9.2196
# 3 33.7667 19.9878 104.6325 -11.9469 -25.9537 4.4129
# 4 3.9454 -12.6326 -11.9469 21.8127 -11.7313 1.2709
# 5 -23.5845 -19.3539 -25.9537 -11.7313 40.9409 -4.4512
# 6 -22.3633 -9.2196 4.4129 1.2709 -4.4512 32.8547
#
#
#
# Elastic Compliance Matrix: (Units=1/GPa)
#
#
# Indices 1 2 3 4 5 6 
#
# 1 0.010496 -0.003870 -0.003265 -0.005642 0.001279 0.006888
# 2 -0.003870 0.016317 0.003583 0.019250 0.013549 0.002554
# 3 -0.003265 0.003583 0.016159 0.020007 0.015566 -0.002053
# 4 -0.005642 0.019250 0.020007 0.093321 0.045428 0.001419
# 5 0.001279 0.013549 0.015566 0.045428 0.055357 0.008324
# 6 0.006888 0.002554 -0.002053 0.001419 0.008324 0.037191
#
#
# Mechanical properties :
#
#
# Convention : Reuss Voigt Hill
#
# Bulk Modulus (GPa) = 27.88150 60.37150 44.12650
# Shear Modulus (GPa) = 20.16942 35.65771 27.91357
#
# Velocity S-wave (km/s) = 2.90845 3.86716 3.42155
# Velocity P-wave (km/s) = 4.79295 6.72754 5.84089
#
# Compressibility (1/GPa) = 0.03586607
#
# Stress axis : x y z
#
# Youngs Moduli (GPa) = 95.27709 61.28681 61.88657
#
# Poissons Ratio (x) = 0.23720 0.20208
# Poissons Ratio (y) = 0.36875 -0.22174
# Poissons Ratio (z) = 0.31110 -0.21960
#
# Static dielectric constant tensor:
#      x y z
#    x 1.933190 0.042700 0.049260 
#    y 0.042700 1.911080 0.021820 
#    z 0.049260 0.021820 1.969100 
# 
# From -- ./inp_files/207302.got.cif
#   From: 2010.05.17/outbox.cif.g08.bks.cpg/sg2_104_cif.got.tgz:207302.got - 2010.06.03 11:33:40.
