data_PCOD9046160
_publ_section_title
;
Structure prediction by ZEFSAII (Michael W. Deem and Ramdas Pophale) SiO2 
 PCOD9046160
Probable space group: P -1
;
_chemical_formula_sum "Si O2"
_cell_formula_units_Z 13
_cell_length_a 12.796839
_cell_length_b 7.770458
_cell_length_c 9.210968
_cell_angle_alpha 85.294457
_cell_angle_beta 129.881209
_cell_angle_gamma 62.878775
_cell_volume 523.238643
_symmetry_space_group_name_H-M "P -1"
_symmetry_group_IT_number 2
_symmetry_cell_setting 'triclinic'
loop_
_space_group_symop_operation_xyz
x,y,z
-x,-y,-z
loop_
_atom_site_type_symbol
_atom_site_label
_atom_site_fract_x
_atom_site_fract_y
_atom_site_fract_z
Si Si1 0.050817 0.385942 0.213981
Si Si2 0.597584 0.777656 0.299443
Si Si3 0.039322 0.905522 0.884034
Si Si4 0.448654 0.557627 0.280133
Si Si5 0.262666 0.271326 0.857641
Si Si6 0.134015 0.014730 0.701283
Si Si7 0.500000 0.500000 0.000000
O O1 0.232265 0.320569 0.442619
O O2 0.085846 0.149926 0.262643
O O3 0.883121 0.554908 0.164765
O O4 0.000000 0.500000 0.000000
O O5 0.475391 0.739986 0.270770
O O6 0.679372 0.642408 0.223406
O O7 0.453621 0.048713 0.112273
O O8 0.047351 0.067393 0.780132
O O9 0.243914 0.660564 0.082140
O O10 0.000000 0.000000 0.000000
O O11 0.500000 0.500000 0.500000
O O12 0.541507 0.410093 0.224198
O O13 0.172170 0.183744 0.697689
O O14 0.325932 0.757316 0.878735
O O15 0.000000 0.000000 0.500000
#
# Coordination Sequence:
#
# PCOD9046160 Si02
#       7
#     2   2   2   2   2   2   1
#     4  12  27  45  73 105 146 195 243 306 376 444
#     4  11  25  47  72 105 147 191 242 310 371 445
#     4  11  25  47  66 103 143 183 250 299 363 451
#     4  11  25  46  75 105 147 197 244 314 369 441
#     4  11  25  46  73 107 149 191 245 302 377 444
#     4  11  24  41  72 103 137 191 240 297 360 440
#     4  10  24  42  68 106 144 180 254 286 372 428
#
# _framework density 24.845261000000001
#
# number of rings (size 3 to 8) (size 9 to 14) (size 15 to 20)
#    0.000    0.923    3.077    3.231    8.615    0.615 
#    2.769    0.000    0.000    0.000    0.000    0.000 
#    0.000    0.000    0.000    0.000    0.000    0.000 
#
# Total GULP energy -72415.006106 kJ/mol
# GULP energy per Si atom -5570.385085 kJ/mol
# Density = 2.478871 g / cm^3
# Si number density = 24.845261 Si / 1000 Ang^3
#
#
#
# Elastic Constant Matrix: (Units=GPa)
#
#
# Indices 1 2 3 4 5 6 
#
# 1 130.8686 31.1321 44.0515 6.7091 -19.3819 -12.1882
# 2 31.1321 80.8837 12.0947 9.5040 -2.0705 -21.3459
# 3 44.0515 12.0947 140.1942 17.8150 -0.5106 -9.0228
# 4 6.7091 9.5040 17.8150 20.8590 -4.4037 -12.5106
# 5 -19.3819 -2.0705 -0.5106 -4.4037 48.6189 8.0492
# 6 -12.1882 -21.3459 -9.0228 -12.5106 8.0492 38.9184
#
#
#
# Elastic Compliance Matrix: (Units=1/GPa)
#
#
# Indices 1 2 3 4 5 6 
#
# 1 0.010002 -0.003428 -0.003065 0.002019 0.003930 0.000378
# 2 -0.003428 0.015786 0.000507 -0.002588 -0.002134 0.007312
# 3 -0.003065 0.000507 0.008978 -0.007706 -0.001683 -0.000729
# 4 0.002019 -0.002588 -0.007706 0.066684 0.003656 0.018106
# 5 0.003930 -0.002134 -0.001683 0.003656 0.023005 -0.003913
# 6 0.000378 0.007312 -0.000729 0.018106 -0.003913 0.036284
#
#
# Mechanical properties :
#
#
# Convention : Reuss Voigt Hill
#
# Bulk Modulus (GPa) = 43.87073 58.50033 51.18553
# Shear Modulus (GPa) = 27.72998 39.32381 33.52690
#
# Velocity S-wave (km/s) = 3.34444 3.98269 3.67744
# Velocity P-wave (km/s) = 5.71049 6.68925 6.21915
#
# Compressibility (1/GPa) = 0.02279424
#
# Stress axis : x y z
#
# Youngs Moduli (GPa) = 99.97802 63.34584 111.37734
#
# Poissons Ratio (x) = 0.21718 0.34137
# Poissons Ratio (y) = 0.34277 -0.05648
# Poissons Ratio (z) = 0.30643 -0.03212
#
# Static dielectric constant tensor:
#      x y z
#    x 1.941760 0.041420 -0.052640 
#    y 0.041420 1.925790 0.058300 
#    z -0.052640 0.058300 2.076680 
# 
# From -- ./inp_files/239367.got.cif
#   From: 2010.05.17/outbox.cif.g08.bks.cpg/sg2_120_cif.got.tgz:239367.got - 2010.06.03 11:33:40.
