data_PCOD9046927
_publ_section_title
;
Structure prediction by ZEFSAII (Michael W. Deem and Ramdas Pophale) SiO2 
 PCOD9046927
Probable space group: P -1
;
_chemical_formula_sum "Si O2"
_cell_formula_units_Z 16
_cell_length_a 11.760002
_cell_length_b 18.431654
_cell_length_c 9.937696
_cell_angle_alpha 42.129605
_cell_angle_beta 45.137127
_cell_angle_gamma 29.541095
_cell_volume 700.537876
_symmetry_space_group_name_H-M "P -1"
_symmetry_group_IT_number 2
_symmetry_cell_setting 'triclinic'
loop_
_space_group_symop_operation_xyz
x,y,z
-x,-y,-z
loop_
_atom_site_type_symbol
_atom_site_label
_atom_site_fract_x
_atom_site_fract_y
_atom_site_fract_z
Si Si1 0.719664 0.654663 0.037139
Si Si2 0.896677 0.981904 0.235200
Si Si3 0.283922 0.152949 0.053757
Si Si4 0.439521 0.449677 0.496821
Si Si5 0.398898 0.306105 0.210101
Si Si6 0.979369 0.398539 0.742691
Si Si7 0.070649 0.256863 0.598705
Si Si8 0.072793 0.858883 0.549433
O O1 0.626073 0.630866 0.269712
O O2 0.658069 0.807942 0.914392
O O3 0.598042 0.671970 0.980533
O O4 0.000000 0.500000 0.000000
O O5 0.834870 0.895894 0.341513
O O6 0.058989 0.889003 0.358715
O O7 0.656721 0.152250 0.254309
O O8 0.000000 0.000000 0.000000
O O9 0.112654 0.141914 0.256580
O O10 0.144236 0.303636 0.864428
O O11 0.500000 0.000000 0.000000
O O12 0.500000 0.500000 0.500000
O O13 0.200433 0.601883 0.415022
O O14 0.667720 0.315826 0.400425
O O15 0.281132 0.461940 0.174241
O O16 0.228425 0.283880 0.392271
O O17 0.052165 0.267829 0.760617
O O18 0.000000 0.500000 0.500000
O O19 0.000000 0.000000 0.500000
#
# Coordination Sequence:
#
# PCOD9046927 Si02
#       8
#     2   2   2   2   2   2   2   2
#     4  12  21  43  71 102 134 182 240 292 353 429
#     4  12  28  46  68 104 148 193 237 291 364 434
#     4  12  27  45  75 106 143 190 248 300 361 431
#     4  12  24  45  70 100 143 183 232 298 365 433
#     4  11  24  42  73 100 138 180 240 295 352 426
#     4  10  24  43  69 107 137 180 237 298 358 419
#     4  11  24  44  70  99 137 184 238 293 354 426
#     4  12  29  47  71 106 150 190 240 303 370 430
#
# _framework density 22.839593000000001
#
# number of rings (size 3 to 8) (size 9 to 14) (size 15 to 20)
#    0.000    0.500    3.750    4.125    8.750    0.000 
#    0.000    1.250    0.000    0.000    0.000    0.000 
#    0.000    0.000    0.000    0.000    0.000    0.000 
#
# Total GULP energy -89500.705698 kJ/mol
# GULP energy per Si atom -5593.794106 kJ/mol
# Density = 2.278761 g / cm^3
# Si number density = 22.839593 Si / 1000 Ang^3
#
#
#
# Elastic Constant Matrix: (Units=GPa)
#
#
# Indices 1 2 3 4 5 6 
#
# 1 49.3110 -9.7553 13.0745 6.7827 0.5129 10.2683
# 2 -9.7553 127.5796 3.4295 20.9595 -5.8585 -1.3638
# 3 13.0745 3.4295 83.8919 7.7770 -2.0215 1.8172
# 4 6.7827 20.9595 7.7770 30.8085 -2.2812 4.3129
# 5 0.5129 -5.8585 -2.0215 -2.2812 37.4717 0.5974
# 6 10.2683 -1.3638 1.8172 4.3129 0.5974 52.0796
#
#
#
# Elastic Compliance Matrix: (Units=1/GPa)
#
#
# Indices 1 2 3 4 5 6 
#
# 1 0.023253 0.002735 -0.003134 -0.005664 -0.000342 -0.003931
# 2 0.002735 0.009216 -0.000155 -0.006797 0.000977 0.000259
# 3 -0.003134 -0.000155 0.012643 -0.002407 0.000548 0.000366
# 4 -0.005664 -0.006797 -0.002407 0.039349 0.001316 -0.002251
# 5 -0.000342 0.000977 0.000548 0.001316 0.026959 -0.000344
# 6 -0.003931 0.000259 0.000366 -0.002251 -0.000344 0.020161
#
#
# Mechanical properties :
#
#
# Convention : Reuss Voigt Hill
#
# Bulk Modulus (GPa) = 22.72519 30.47555 26.60037
# Shear Modulus (GPa) = 33.93126 41.00754 37.46940
#
# Velocity S-wave (km/s) = 3.85857 4.24188 4.05476
# Velocity P-wave (km/s) = 5.46104 6.11258 5.79597
#
# Compressibility (1/GPa) = 0.04400403
#
# Stress axis : x y z
#
# Youngs Moduli (GPa) = 43.00605 108.50985 79.09368
#
# Poissons Ratio (x) = -0.29677 0.24786
# Poissons Ratio (y) = -0.11762 0.01226
# Poissons Ratio (z) = 0.13477 0.01682
#
# Static dielectric constant tensor:
#      x y z
#    x 1.962300 -0.328780 0.245640 
#    y -0.328780 3.239020 -0.962900 
#    z 0.245640 -0.962900 2.460570 
# 
# From -- ./inp_files/262201.got.cif
#   From: 2010.05.17/outbox.cif.g08.bks.cpg/sg2_132_cif.got.tgz:262201.got - 2010.06.03 11:33:40.
