data_PCOD9046005
_publ_section_title
;
Structure prediction by ZEFSAII (Michael W. Deem and Ramdas Pophale) SiO2 
 PCOD9046005
Probable space group: P -1
;
_chemical_formula_sum "Si O2"
_cell_formula_units_Z 16
_cell_length_a 15.947938
_cell_length_b 11.383816
_cell_length_c 15.585851
_cell_angle_alpha 152.395356
_cell_angle_beta 140.652584
_cell_angle_gamma 55.796731
_cell_volume 754.721840
_symmetry_space_group_name_H-M "P -1"
_symmetry_group_IT_number 2
_symmetry_cell_setting 'triclinic'
loop_
_space_group_symop_operation_xyz
x,y,z
-x,-y,-z
loop_
_atom_site_type_symbol
_atom_site_label
_atom_site_fract_x
_atom_site_fract_y
_atom_site_fract_z
Si Si1 0.807457 0.514798 0.926809
Si Si2 0.133893 0.883678 0.420251
Si Si3 0.839733 0.521758 0.684147
Si Si4 0.180003 0.790669 0.096401
Si Si5 0.601112 0.613931 0.284012
Si Si6 0.659332 0.702305 0.790430
Si Si7 0.381481 0.798000 0.841369
Si Si8 0.695133 0.486030 0.095615
O O1 0.835659 0.284310 0.743260
O O2 0.775060 0.387677 0.913102
O O3 0.690217 0.584655 0.828851
O O4 0.960425 0.788478 0.225479
O O5 0.174139 0.754994 0.453252
O O6 0.221943 0.207087 0.681495
O O7 0.772976 0.679974 0.797092
O O8 0.748848 0.420946 0.460314
O O9 0.009811 0.704153 0.919843
O O10 0.280185 0.109612 0.400850
O O11 0.215418 0.693632 0.970767
O O12 0.551700 0.365514 0.152192
O O13 0.672534 0.527569 0.204011
O O14 0.464880 0.658234 0.166773
O O15 0.500000 0.500000 0.500000
O O16 0.669073 0.007525 0.014103
O O17 0.500000 0.000000 0.000000
#
# Coordination Sequence:
#
# PCOD9046005 Si02
#       8
#     2   2   2   2   2   2   2   2
#     4   9  20  36  68  98 131 164 215 269 322 381
#     4   9  18  39  66  99 132 164 210 277 322 374
#     4  10  24  42  66 102 133 170 223 270 322 387
#     4  11  24  43  69  98 131 174 217 274 330 387
#     4  11  27  45  63  97 136 168 221 273 327 396
#     4  11  24  40  66 100 135 172 211 275 325 376
#     4  12  26  45  68  95 129 176 223 265 326 400
#     4  11  24  41  69  96 132 173 218 270 335 384
#
# _framework density 21.199863000000001
#
# number of rings (size 3 to 8) (size 9 to 14) (size 15 to 20)
#    0.000    1.500    2.500    1.875    7.000    2.500 
#    0.000    1.250    0.000    0.000    0.000    0.000 
#    0.000    0.000    0.000    0.000    0.000    0.000 
#
# Total GULP energy -89511.573995 kJ/mol
# GULP energy per Si atom -5594.473375 kJ/mol
# Density = 2.115161 g / cm^3
# Si number density = 21.199863 Si / 1000 Ang^3
#
#
#
# Elastic Constant Matrix: (Units=GPa)
#
#
# Indices 1 2 3 4 5 6 
#
# 1 103.5263 7.0132 28.2751 15.0794 2.6771 -18.5501
# 2 7.0132 2.8774 0.4434 -8.6042 13.3377 11.8686
# 3 28.2751 0.4434 84.1837 11.6062 4.9098 -5.6405
# 4 15.0794 -8.6042 11.6062 17.9501 5.0265 9.3499
# 5 2.6771 13.3377 4.9098 5.0265 23.2136 -0.9119
# 6 -18.5501 11.8686 -5.6405 9.3499 -0.9119 18.0156
#
#
#
# Elastic Compliance Matrix: (Units=1/GPa)
#
#
# Indices 1 2 3 4 5 6 
#
# 1 0.009838 0.011660 -0.003044 0.001070 -0.007399 0.000565
# 2 0.011660 -0.006877 0.003262 -0.038278 0.011698 0.038016
# 3 -0.003044 0.003262 0.013770 -0.004420 -0.003434 0.001148
# 4 0.001070 -0.038278 -0.004420 0.028968 0.016955 0.010760
# 5 -0.007399 0.011698 -0.003434 0.016955 0.033342 -0.023513
# 6 0.000565 0.038016 0.001148 0.010760 -0.023513 0.024630
#
#
# Mechanical properties :
#
#
# Convention : Reuss Voigt Hill
#
# Bulk Modulus (GPa) = 24.69919 29.11676 26.90797
# Shear Modulus (GPa) = 53.52744 22.15957 37.84351
#
# Velocity S-wave (km/s) = 5.03029 3.23657 4.22961
# Velocity P-wave (km/s) = 6.73901 5.26606 6.04755
#
# Compressibility (1/GPa) = 0.04048716
#
# Stress axis : x y z
#
# Youngs Moduli (GPa) = 101.65149 -145.41154 72.61947
#
# Poissons Ratio (x) = 1.69544 0.22103
# Poissons Ratio (y) = -1.18522 -0.23690
# Poissons Ratio (z) = 0.30940 0.47437
#
# Static dielectric constant tensor:
#      x y z
#    x 1.787810 0.004990 -0.016050 
#    y 0.004990 1.751510 -0.008520 
#    z -0.016050 -0.008520 1.740880 
# 
# From -- ./inp_files/532822.got.cif
#   From: 2010.05.17/outbox.cif.g08.bks.cpg/sg2_267_cif.got.tgz:532822.got - 2010.06.03 11:33:40.
