data_PCOD9046857
_publ_section_title
;
Structure prediction by ZEFSAII (Michael W. Deem and Ramdas Pophale) SiO2 
 PCOD9046857
Probable space group: P -1
;
_chemical_formula_sum "Si O2"
_cell_formula_units_Z 15
_cell_length_a 6.670035
_cell_length_b 11.372308
_cell_length_c 12.106650
_cell_angle_alpha 111.411708
_cell_angle_beta 56.455827
_cell_angle_gamma 78.339016
_cell_volume 608.448902
_symmetry_space_group_name_H-M "P -1"
_symmetry_group_IT_number 2
_symmetry_cell_setting 'triclinic'
loop_
_space_group_symop_operation_xyz
x,y,z
-x,-y,-z
loop_
_atom_site_type_symbol
_atom_site_label
_atom_site_fract_x
_atom_site_fract_y
_atom_site_fract_z
Si Si1 0.399469 0.068037 0.241397
Si Si2 0.478261 0.583415 0.851970
Si Si3 0.000000 0.500000 0.500000
Si Si4 0.785130 0.172301 0.148310
Si Si5 0.659808 0.181128 0.852874
Si Si6 0.432213 0.313842 0.739907
Si Si7 0.806020 0.289564 0.422477
Si Si8 0.727851 0.909377 0.306411
O O1 0.487321 0.184138 0.219893
O O2 0.066022 0.169381 0.377770
O O3 0.464079 0.921074 0.106394
O O4 0.575982 0.001855 0.275531
O O5 0.230899 0.712537 0.895380
O O6 0.383217 0.465583 0.855650
O O7 0.779104 0.511842 0.672321
O O8 0.490055 0.664438 0.985578
O O9 0.144327 0.573985 0.558140
O O10 0.810582 0.221773 0.278981
O O11 0.000000 0.000000 0.000000
O O12 0.637774 0.198903 0.733167
O O13 0.984230 0.099093 0.759754
O O14 0.543274 0.316293 0.584318
O O15 0.219082 0.255662 0.771854
O O16 0.500000 0.000000 0.500000
#
# Coordination Sequence:
#
# PCOD9046857 Si02
#       8
#     2   2   1   2   2   2   2   2
#     4  11  22  40  66  97 136 180 227 283 342 403
#     4  11  24  47  66 103 140 182 235 283 351 418
#     4  10  24  44  68  96 136 190 222 280 348 408
#     4  12  26  42  69 105 139 183 230 288 350 412
#     4  11  24  43  70  99 138 181 237 288 343 413
#     4  10  24  43  68  98 135 182 231 286 351 407
#     4  11  23  44  67 101 140 179 234 281 345 421
#     4  11  22  41  66 102 136 182 229 287 343 411
#
# _framework density 24.652850999999998
#
# number of rings (size 3 to 8) (size 9 to 14) (size 15 to 20)
#    0.000    1.067    1.333    5.200    1.867    5.867 
#    7.200    0.000    0.000    0.000    0.000    0.000 
#    0.000    0.000    0.000    0.000    0.000    0.000 
#
# Total GULP energy -83548.853017 kJ/mol
# GULP energy per Si atom -5569.923534 kJ/mol
# Density = 2.459674 g / cm^3
# Si number density = 24.652851 Si / 1000 Ang^3
#
#
#
# Elastic Constant Matrix: (Units=GPa)
#
#
# Indices 1 2 3 4 5 6 
#
# 1 111.4625 36.7115 27.4584 -6.0647 23.5674 25.6720
# 2 36.7115 112.3685 -12.0628 -9.5213 11.7539 25.1760
# 3 27.4584 -12.0628 83.2829 -12.5565 25.2269 5.8225
# 4 -6.0647 -9.5213 -12.5565 16.0040 1.7960 9.7719
# 5 23.5674 11.7539 25.2269 1.7960 32.0596 8.6932
# 6 25.6720 25.1760 5.8225 9.7719 8.6932 52.4316
#
#
#
# Elastic Compliance Matrix: (Units=1/GPa)
#
#
# Indices 1 2 3 4 5 6 
#
# 1 0.012948 -0.001652 -0.000799 0.007570 -0.007168 -0.005680
# 2 -0.001652 0.016885 0.011675 0.027043 -0.012545 -0.011555
# 3 -0.000799 0.011675 0.028074 0.038401 -0.024853 -0.011369
# 4 0.007570 0.027043 0.038401 0.140866 -0.042706 -0.040129
# 5 -0.007168 -0.012545 -0.024853 -0.042706 0.060225 0.010267
# 6 -0.005680 -0.011555 -0.011369 -0.040129 0.010267 0.034441
#
#
# Mechanical properties :
#
#
# Convention : Reuss Voigt Hill
#
# Bulk Modulus (GPa) = 13.09644 45.70314 29.39979
# Shear Modulus (GPa) = 16.64206 37.09947 26.87076
#
# Velocity S-wave (km/s) = 2.60100 3.88348 3.30504
# Velocity P-wave (km/s) = 3.78737 6.21993 5.14935
#
# Compressibility (1/GPa) = 0.07635663
#
# Stress axis : x y z
#
# Youngs Moduli (GPa) = 77.23037 59.22402 35.61975
#
# Poissons Ratio (x) = 0.09785 0.02845
# Poissons Ratio (y) = 0.12760 -0.41587
# Poissons Ratio (z) = 0.06168 -0.69146
#
# Static dielectric constant tensor:
#      x y z
#    x 1.860550 -0.041260 0.034650 
#    y -0.041260 1.880900 0.074150 
#    z 0.034650 0.074150 1.963040 
# 
# From -- ./inp_files/71468.got.cif
#   From: 2010.05.17/outbox.cif.g08.bks.cpg/sg2_36_cif.got.tgz:71468.got - 2010.06.03 11:33:40.
