data_PCOD9046963
_publ_section_title
;
Structure prediction by ZEFSAII (Michael W. Deem and Ramdas Pophale) SiO2 
 PCOD9046963
Probable space group: P -1
;
_chemical_formula_sum "Si O2"
_cell_formula_units_Z 16
_cell_length_a 5.617753
_cell_length_b 11.974318
_cell_length_c 18.062629
_cell_angle_alpha 131.658165
_cell_angle_beta 52.375621
_cell_angle_gamma 107.393176
_cell_volume 707.180573
_symmetry_space_group_name_H-M "P -1"
_symmetry_group_IT_number 2
_symmetry_cell_setting 'triclinic'
loop_
_space_group_symop_operation_xyz
x,y,z
-x,-y,-z
loop_
_atom_site_type_symbol
_atom_site_label
_atom_site_fract_x
_atom_site_fract_y
_atom_site_fract_z
Si Si1 0.814584 0.847475 0.033529
Si Si2 0.018209 0.879533 0.806024
Si Si3 0.933799 0.340997 0.968113
Si Si4 0.181698 0.942305 0.515813
Si Si5 0.819515 0.395675 0.590611
Si Si6 0.283326 0.338298 0.166072
Si Si7 0.438314 0.396434 0.397065
Si Si8 0.127795 0.945509 0.228449
O O1 0.472805 0.939794 0.133570
O O2 0.817779 0.741330 0.057872
O O3 0.021404 0.971831 0.068653
O O4 0.879824 0.733242 0.902512
O O5 0.308819 0.753945 0.716765
O O6 0.734427 0.791308 0.826418
O O7 0.069868 0.940731 0.741689
O O8 0.930977 0.224014 0.850104
O O9 0.613722 0.353185 0.078657
O O10 0.000000 0.500000 0.000000
O O11 0.254012 0.759273 0.430579
O O12 0.500000 0.000000 0.500000
O O13 0.000000 0.000000 0.500000
O O14 0.946248 0.004279 0.653080
O O15 0.868618 0.504696 0.698075
O O16 0.580957 0.503989 0.630258
O O17 0.110552 0.355734 0.463051
O O18 0.500000 0.500000 0.500000
#
# Coordination Sequence:
#
# PCOD9046963 Si02
#       8
#     2   2   2   2   2   2   2   2
#     4  10  24  43  69  98 142 187 232 297 369 432
#     4  11  23  41  74 101 146 181 235 300 370 448
#     4  10  25  44  70  96 140 188 241 295 357 430
#     4  12  31  49  78 109 147 198 256 310 362 445
#     4  11  27  44  68 108 142 186 247 296 373 443
#     4  11  25  41  66 109 134 183 236 295 361 439
#     4  11  23  43  71 101 146 190 227 304 378 441
#     4  10  25  47  70 102 140 187 245 295 373 433
#
# _framework density 22.625057999999999
#
# number of rings (size 3 to 8) (size 9 to 14) (size 15 to 20)
#    0.000    1.250    1.250    1.875   14.000    7.500 
#    0.000    0.000    0.000    0.000    0.000    0.000 
#    0.000    0.000    0.000    0.000    0.000    0.000 
#
# Total GULP energy -89410.876437 kJ/mol
# GULP energy per Si atom -5588.179777 kJ/mol
# Density = 2.257356 g / cm^3
# Si number density = 22.625058 Si / 1000 Ang^3
#
#
#
# Elastic Constant Matrix: (Units=GPa)
#
#
# Indices 1 2 3 4 5 6 
#
# 1 88.6838 63.1873 42.6077 10.1185 4.8287 -12.6700
# 2 63.1873 198.1412 54.3764 35.4639 11.0307 1.1057
# 3 42.6077 54.3764 133.1203 11.0808 20.4878 -6.6440
# 4 10.1185 35.4639 11.0808 33.1343 1.0759 4.5373
# 5 4.8287 11.0307 20.4878 1.0759 45.3776 4.5553
# 6 -12.6700 1.1057 -6.6440 4.5373 4.5553 34.0313
#
#
#
# Elastic Compliance Matrix: (Units=1/GPa)
#
#
# Indices 1 2 3 4 5 6 
#
# 1 0.016902 -0.004525 -0.003306 -0.000009 0.000215 0.005767
# 2 -0.004525 0.008066 -0.001257 -0.006643 -0.000631 -0.001222
# 3 -0.003306 -0.001257 0.009836 -0.000997 -0.003899 0.001385
# 4 -0.000009 -0.006643 -0.000997 0.038299 0.001691 -0.005315
# 5 0.000215 -0.000631 -0.003899 0.001691 0.024304 -0.004139
# 6 0.005767 -0.001222 0.001385 -0.005315 -0.004139 0.033104
#
#
# Mechanical properties :
#
#
# Convention : Reuss Voigt Hill
#
# Bulk Modulus (GPa) = 60.14375 82.25425 71.19900
# Shear Modulus (GPa) = 32.41915 39.82690 36.12302
#
# Velocity S-wave (km/s) = 3.78946 4.20015 4.00007
# Velocity P-wave (km/s) = 6.76662 7.74312 7.27128
#
# Compressibility (1/GPa) = 0.01662683
#
# Stress axis : x y z
#
# Youngs Moduli (GPa) = 59.16555 123.97765 101.66892
#
# Poissons Ratio (x) = 0.56103 0.33610
# Poissons Ratio (y) = 0.26774 0.12782
# Poissons Ratio (z) = 0.19559 0.15587
#
# Static dielectric constant tensor:
#      x y z
#    x 1.915580 0.019790 -0.005110 
#    y 0.019790 1.830910 -0.029050 
#    z -0.005110 -0.029050 1.842680 
# 
# From -- ./inp_files/109067.got.cif
#   From: 2010.05.17/outbox.cif.g08.bks.cpg/sg2_55_cif.got.tgz:109067.got - 2010.06.03 11:33:40.
