data_PCOD9046525
_publ_section_title
;
Structure prediction by ZEFSAII (Michael W. Deem and Ramdas Pophale) SiO2 
 PCOD9046525
Probable space group: P -1
;
_chemical_formula_sum "Si O2"
_cell_formula_units_Z 16
_cell_length_a 9.711867
_cell_length_b 20.261589
_cell_length_c 6.719634
_cell_angle_alpha 62.445024
_cell_angle_beta 132.047275
_cell_angle_gamma 130.432362
_cell_volume 746.470515
_symmetry_space_group_name_H-M "P -1"
_symmetry_group_IT_number 2
_symmetry_cell_setting 'triclinic'
loop_
_space_group_symop_operation_xyz
x,y,z
-x,-y,-z
loop_
_atom_site_type_symbol
_atom_site_label
_atom_site_fract_x
_atom_site_fract_y
_atom_site_fract_z
Si Si1 0.767381 0.688855 0.475906
Si Si2 0.864235 0.186002 0.034246
Si Si3 0.185377 0.414374 0.677142
Si Si4 0.362612 0.953443 0.677141
Si Si5 0.695200 0.278271 0.490740
Si Si6 0.496024 0.612834 0.692647
Si Si7 0.397129 0.102830 0.272224
Si Si8 0.947001 0.844584 0.142848
O O1 0.778737 0.616263 0.459697
O O2 0.564465 0.642319 0.490889
O O3 0.789191 0.758413 0.236943
O O4 0.965887 0.747006 0.735120
O O5 0.728013 0.092265 0.137274
O O6 0.724160 0.227653 0.773078
O O7 0.988300 0.179026 0.971237
O O8 0.285113 0.517076 0.632447
O O9 0.932422 0.355718 0.557269
O O10 0.318064 0.394254 0.999212
O O11 0.557427 0.940339 0.812525
O O12 0.165803 0.897994 0.407624
O O13 0.414902 0.049917 0.549724
O O14 0.547647 0.317397 0.345410
O O15 0.586221 0.203379 0.324494
O O16 0.175655 0.102510 0.068927
#
# Coordination Sequence:
#
# PCOD9046525 Si02
#       8
#     2   2   2   2   2   2   2   2
#     4  11  20  41  65  92 124 166 207 252 313 366
#     4  11  22  41  65  90 131 166 204 258 310 366
#     4  11  23  46  64  91 131 159 204 269 303 374
#     4  10  24  43  61  96 128 163 210 263 304 363
#     4  12  22  42  64  93 126 166 206 255 311 373
#     4  11  25  41  68  94 121 165 211 251 322 366
#     4  11  23  41  67  92 126 167 212 255 312 368
#     4  11  22  43  64  91 128 168 208 258 306 367
#
# _framework density 21.434201000000002
#
# number of rings (size 3 to 8) (size 9 to 14) (size 15 to 20)
#    0.000    1.000    3.750    3.375    1.750    1.000 
#    2.250    0.625    0.000    0.000    0.000    0.000 
#    0.000    0.000    0.000    0.000    0.000    0.000 
#
# Total GULP energy -89461.387772 kJ/mol
# GULP energy per Si atom -5591.336736 kJ/mol
# Density = 2.138542 g / cm^3
# Si number density = 21.434201 Si / 1000 Ang^3
#
#
#
# Elastic Constant Matrix: (Units=GPa)
#
#
# Indices 1 2 3 4 5 6 
#
# 1 82.8210 31.6038 41.9483 -24.6938 -12.1410 -0.6636
# 2 31.6038 103.8357 28.4077 -21.8008 -12.6741 6.0298
# 3 41.9483 28.4077 68.4902 -5.4882 -9.9131 -14.0150
# 4 -24.6938 -21.8008 -5.4882 35.0390 -2.5878 1.5967
# 5 -12.1410 -12.6741 -9.9131 -2.5878 30.7796 -7.7505
# 6 -0.6636 6.0298 -14.0150 1.5967 -7.7505 40.5242
#
#
#
# Elastic Compliance Matrix: (Units=1/GPa)
#
#
# Indices 1 2 3 4 5 6 
#
# 1 0.024539 0.000701 -0.014026 0.016147 0.005780 -0.004084
# 2 0.000701 0.013334 -0.005436 0.008381 0.003853 -0.003446
# 3 -0.014026 -0.005436 0.027396 -0.009252 0.003045 0.011001
# 4 0.016147 0.008381 -0.009252 0.044577 0.009553 -0.004112
# 5 0.005780 0.003853 0.003045 0.009553 0.040122 0.007871
# 6 -0.004084 -0.003446 0.011001 -0.004112 0.007871 0.030594
#
#
# Mechanical properties :
#
#
# Convention : Reuss Voigt Hill
#
# Bulk Modulus (GPa) = 36.03766 51.00739 43.52253
# Shear Modulus (GPa) = 21.99413 31.48104 26.73759
#
# Velocity S-wave (km/s) = 3.20679 3.83656 3.53572
# Velocity P-wave (km/s) = 5.52820 6.59351 6.08422
#
# Compressibility (1/GPa) = 0.02774875
#
# Stress axis : x y z
#
# Youngs Moduli (GPa) = 40.75067 74.99390 36.50183
#
# Poissons Ratio (x) = -0.05257 0.51196
# Poissons Ratio (y) = -0.02857 0.19842
# Poissons Ratio (z) = 0.57155 0.40765
#
# Static dielectric constant tensor:
#      x y z
#    x 1.742410 0.039230 0.002830 
#    y 0.039230 1.798880 0.019400 
#    z 0.002830 0.019400 1.782560 
# 
# From -- ./inp_files/47182.got.cif
#   From: 2010.05.17/outbox.cif.g08.bks.cpg/sg2_24_cif.got.tgz:47182.got - 2010.06.03 11:33:40.
