data_PCOD9046901
_publ_section_title
;
Structure prediction by ZEFSAII (Michael W. Deem and Ramdas Pophale) SiO2 
 PCOD9046901
Probable space group: P -1
;
_chemical_formula_sum "Si O2"
_cell_formula_units_Z 15
_cell_length_a 17.576128
_cell_length_b 8.548029
_cell_length_c 20.715702
_cell_angle_alpha 128.944318
_cell_angle_beta 159.697938
_cell_angle_gamma 38.694615
_cell_volume 593.412536
_symmetry_space_group_name_H-M "P -1"
_symmetry_group_IT_number 2
_symmetry_cell_setting 'triclinic'
loop_
_space_group_symop_operation_xyz
x,y,z
-x,-y,-z
loop_
_atom_site_type_symbol
_atom_site_label
_atom_site_fract_x
_atom_site_fract_y
_atom_site_fract_z
Si Si1 0.668768 0.720717 0.833372
Si Si2 0.076693 0.376447 0.174396
Si Si3 0.024009 0.754591 0.805733
Si Si4 0.000000 0.500000 0.500000
Si Si5 0.296274 0.941653 0.124677
Si Si6 0.801529 0.332471 0.579150
Si Si7 0.340042 0.687017 0.857606
Si Si8 0.153084 0.477518 0.472336
O O1 0.506339 0.031573 0.756933
O O2 0.468738 0.655835 0.641537
O O3 0.758741 0.670771 0.966859
O O4 0.000000 0.500000 0.000000
O O5 0.077304 0.246181 0.205039
O O6 0.152850 0.167150 0.125270
O O7 0.274127 0.442484 0.371180
O O8 0.813972 0.777786 0.592458
O O9 0.366601 0.441269 0.985433
O O10 0.077013 0.958594 0.907344
O O11 0.156731 0.619149 0.664938
O O12 0.938450 0.597775 0.395230
O O13 0.525551 0.655710 0.274518
O O14 0.888481 0.372383 0.588340
O O15 0.098764 0.021015 0.760735
O O16 0.500000 0.500000 0.000000
#
# Coordination Sequence:
#
# PCOD9046901 Si02
#       8
#     2   2   2   1   2   2   2   2
#     4  10  24  43  69 102 139 188 234 293 354 419
#     4  10  25  45  71 103 144 185 239 295 358 424
#     4  11  24  44  68 104 137 191 236 292 354 420
#     4  12  24  46  70 104 138 190 236 290 358 418
#     4  11  23  43  71 102 140 190 235 294 351 429
#     4  11  27  46  70 107 146 187 238 299 356 424
#     4  12  27  46  72 103 143 191 238 296 357 428
#     4  11  25  44  70 107 144 184 239 291 359 425
#
# _framework density 25.277524
#
# number of rings (size 3 to 8) (size 9 to 14) (size 15 to 20)
#    0.000    1.067    2.667    2.000    1.867   10.133 
#    2.400    0.000    0.000    0.000    0.000    0.000 
#    0.000    0.000    0.000    0.000    0.000    0.000 
#
# Total GULP energy -83515.450714 kJ/mol
# GULP energy per Si atom -5567.696714 kJ/mol
# Density = 2.521999 g / cm^3
# Si number density = 25.277524 Si / 1000 Ang^3
#
#
#
# Elastic Constant Matrix: (Units=GPa)
#
#
# Indices 1 2 3 4 5 6 
#
# 1 98.3087 33.9813 8.4169 8.0169 -17.0703 -10.1603
# 2 33.9813 88.8414 36.2844 26.8652 -2.4774 -4.5347
# 3 8.4169 36.2844 98.8012 36.0593 -9.0059 -1.5874
# 4 8.0169 26.8652 36.0593 53.4308 2.8778 -6.3911
# 5 -17.0703 -2.4774 -9.0059 2.8778 41.1934 4.4529
# 6 -10.1603 -4.5347 -1.5874 -6.3911 4.4529 38.2074
#
#
#
# Elastic Compliance Matrix: (Units=1/GPa)
#
#
# Indices 1 2 3 4 5 6 
#
# 1 0.013003 -0.005203 0.001421 -0.000303 0.005164 0.002247
# 2 -0.005203 0.016211 -0.003986 -0.004612 -0.001709 -0.000197
# 3 0.001421 -0.003986 0.015045 -0.008773 0.004408 -0.001452
# 4 -0.000303 -0.004612 -0.008773 0.027757 -0.004714 0.004200
# 5 0.005164 -0.001709 0.004408 -0.004714 0.027896 -0.002686
# 6 0.002247 -0.000197 -0.001452 0.004200 -0.002686 0.027702
#
#
# Mechanical properties :
#
#
# Convention : Reuss Voigt Hill
#
# Bulk Modulus (GPa) = 34.81822 49.25741 42.03781
# Shear Modulus (GPa) = 32.73856 40.38424 36.56140
#
# Velocity S-wave (km/s) = 3.60274 4.00138 3.80728
# Velocity P-wave (km/s) = 5.57769 6.39351 5.99948
#
# Compressibility (1/GPa) = 0.02872060
#
# Stress axis : x y z
#
# Youngs Moduli (GPa) = 76.90778 61.68637 66.46901
#
# Poissons Ratio (x) = 0.32098 -0.09442
# Poissons Ratio (y) = 0.40018 0.26495
# Poissons Ratio (z) = -0.10925 0.24588
#
# Static dielectric constant tensor:
#      x y z
#    x 2.000530 0.016280 0.009630 
#    y 0.016280 2.220260 -0.114760 
#    z 0.009630 -0.114760 2.023850 
# 
# From -- ./inp_files/599555.got.cif
#   From: 2010.05.17/outbox.cif.g08.bks.cpg/sg2_300_cif.got.tgz:599555.got - 2010.06.03 11:33:40.
