data_PCOD9046743
_publ_section_title
;
Structure prediction by ZEFSAII (Michael W. Deem and Ramdas Pophale) SiO2 
 PCOD9046743
Probable space group: P -1
;
_chemical_formula_sum "Si O2"
_cell_formula_units_Z 16
_cell_length_a 5.235531
_cell_length_b 15.077027
_cell_length_c 8.571554
_cell_angle_alpha 98.526306
_cell_angle_beta 89.486149
_cell_angle_gamma 104.370709
_cell_volume 647.917867
_symmetry_space_group_name_H-M "P -1"
_symmetry_group_IT_number 2
_symmetry_cell_setting 'triclinic'
loop_
_space_group_symop_operation_xyz
x,y,z
-x,-y,-z
loop_
_atom_site_type_symbol
_atom_site_label
_atom_site_fract_x
_atom_site_fract_y
_atom_site_fract_z
Si Si1 0.102651 0.773960 0.644766
Si Si2 0.238631 0.986036 0.601903
Si Si3 0.441888 0.170851 0.818758
Si Si4 0.922128 0.309842 0.837497
Si Si5 0.442235 0.298722 0.548820
Si Si6 0.341773 0.562609 0.918297
Si Si7 0.091394 0.547283 0.346643
Si Si8 0.753773 0.719825 0.906805
O O1 0.820305 0.727198 0.557263
O O2 0.021909 0.751990 0.818674
O O3 0.168278 0.883052 0.642561
O O4 0.341815 0.736315 0.567374
O O5 0.500000 0.000000 0.500000
O O6 0.308027 0.066042 0.752197
O O7 0.000000 0.000000 0.500000
O O8 0.761095 0.203298 0.811417
O O9 0.385263 0.233728 0.688043
O O10 0.361040 0.198627 0.998748
O O11 0.985337 0.358887 0.685498
O O12 0.742995 0.368507 0.940047
O O13 0.169580 0.322870 0.945806
O O14 0.591285 0.405572 0.623012
O O15 0.076398 0.518078 0.806517
O O16 0.541563 0.631306 0.817537
O O17 0.500000 0.500000 0.000000
O O18 0.000000 0.500000 0.500000
#
# Coordination Sequence:
#
# PCOD9046743 Si02
#       8
#     2   2   2   2   2   2   2   2
#     4  12  26  47  72 110 142 193 236 308 367 432
#     4  12  24  46  76 106 142 184 240 298 367 443
#     4  10  24  44  73 100 139 188 238 289 369 431
#     4  10  24  43  67  96 146 187 240 294 375 427
#     4  11  26  46  72 102 151 185 246 298 372 424
#     4  11  23  44  68 100 142 199 243 300 368 434
#     4  11  24  40  69 101 135 187 251 299 349 431
#     4  11  26  43  73 100 149 190 241 299 367 440
#
# _framework density 24.694483999999999
#
# number of rings (size 3 to 8) (size 9 to 14) (size 15 to 20)
#    0.000    1.000    3.750    1.125   10.500    1.500 
#    0.000    2.500    0.000    0.000    0.000    0.000 
#    0.000    0.000    0.000    0.000    0.000    0.000 
#
# Total GULP energy -89301.130410 kJ/mol
# GULP energy per Si atom -5581.320651 kJ/mol
# Density = 2.463828 g / cm^3
# Si number density = 24.694484 Si / 1000 Ang^3
#
#
#
# Elastic Constant Matrix: (Units=GPa)
#
#
# Indices 1 2 3 4 5 6 
#
# 1 118.7631 53.7104 36.5227 10.6183 -1.0745 16.4902
# 2 53.7104 133.7473 57.3415 13.8005 -5.7807 29.9054
# 3 36.5227 57.3415 97.0446 4.7035 -4.9790 10.7620
# 4 10.6183 13.8005 4.7035 49.7430 11.1994 4.5253
# 5 -1.0745 -5.7807 -4.9790 11.1994 49.1128 2.1832
# 6 16.4902 29.9054 10.7620 4.5253 2.1832 33.5081
#
#
#
# Elastic Compliance Matrix: (Units=1/GPa)
#
#
# Indices 1 2 3 4 5 6 
#
# 1 0.010722 -0.002878 -0.002069 -0.001129 0.000028 -0.001893
# 2 -0.002878 0.013210 -0.005594 -0.002160 0.001791 -0.008401
# 3 -0.002069 -0.005594 0.014251 0.000391 0.000592 0.001342
# 4 -0.001129 -0.002160 0.000391 0.022119 -0.005271 -0.000286
# 5 0.000028 0.001791 0.000592 -0.005271 0.021947 -0.002520
# 6 -0.001893 -0.008401 0.001342 -0.000286 -0.002520 0.038045
#
#
# Mechanical properties :
#
#
# Convention : Reuss Voigt Hill
#
# Bulk Modulus (GPa) = 58.47393 71.63379 65.05386
# Shear Modulus (GPa) = 33.99633 39.93813 36.96723
#
# Velocity S-wave (km/s) = 3.71439 4.02592 3.87328
# Velocity P-wave (km/s) = 6.49045 7.11911 6.81203
#
# Compressibility (1/GPa) = 0.01710164
#
# Stress axis : x y z
#
# Youngs Moduli (GPa) = 93.26808 75.70257 70.17051
#
# Poissons Ratio (x) = 0.21786 0.14516
# Poissons Ratio (y) = 0.26841 0.39253
# Poissons Ratio (z) = 0.19294 0.42347
#
# Static dielectric constant tensor:
#      x y z
#    x 2.091030 0.014350 -0.003570 
#    y 0.014350 1.992340 0.025540 
#    z -0.003570 0.025540 2.085410 
# 
# From -- ./inp_files/135539.got.cif
#   From: 2010.05.17/outbox.cif.g08.bks.cpg/sg2_68_cif.got.tgz:135539.got - 2010.06.03 11:33:40.
