data_PCOD9046422
_publ_section_title
;
Structure prediction by ZEFSAII (Michael W. Deem and Ramdas Pophale) SiO2 
 PCOD9046422
Probable space group: P -1
;
_chemical_formula_sum "Si O2"
_cell_formula_units_Z 14
_cell_length_a 14.513213
_cell_length_b 5.437611
_cell_length_c 24.425544
_cell_angle_alpha 72.058680
_cell_angle_beta 18.060214
_cell_angle_gamma 78.262555
_cell_volume 541.756982
_symmetry_space_group_name_H-M "P -1"
_symmetry_group_IT_number 2
_symmetry_cell_setting 'triclinic'
loop_
_space_group_symop_operation_xyz
x,y,z
-x,-y,-z
loop_
_atom_site_type_symbol
_atom_site_label
_atom_site_fract_x
_atom_site_fract_y
_atom_site_fract_z
Si Si1 0.445070 0.485967 0.220417
Si Si2 0.624818 0.107117 0.066707
Si Si3 0.839006 0.486137 0.505915
Si Si4 0.737850 0.513826 0.316937
Si Si5 0.700037 0.928409 0.212713
Si Si6 0.361573 0.127589 0.477877
Si Si7 0.322842 0.177614 0.124343
O O1 0.584630 0.257615 0.135236
O O2 0.284045 0.420168 0.374655
O O3 0.176465 0.472986 0.329183
O O4 0.651124 0.804448 0.081584
O O5 0.356177 0.085130 0.174839
O O6 0.927391 0.333875 0.857435
O O7 0.596076 0.200474 0.649104
O O8 0.817105 0.658598 0.453517
O O9 0.500000 0.500000 0.500000
O O10 0.726568 0.713568 0.258948
O O11 0.602393 0.220929 0.385043
O O12 0.597453 0.140915 0.293134
O O13 0.000000 0.000000 0.000000
O O14 0.046326 0.874038 0.679111
O O15 0.500000 0.500000 0.000000
O O16 0.500000 0.000000 0.000000
#
# Coordination Sequence:
#
# PCOD9046422 Si02
#       7
#     2   2   2   2   2   2   2
#     4  11  25  44  73 110 145 191 241 315 369 449
#     4  12  26  46  73 105 147 189 251 298 384 437
#     4  10  24  42  72 105 146 187 247 305 373 440
#     4  11  28  47  70 108 150 198 252 315 377 449
#     4  11  26  46  74 104 152 203 257 304 382 456
#     4  11  26  47  75 107 149 197 255 311 380 454
#     4  12  27  48  78 106 146 195 253 315 382 452
#
# _framework density 25.841843000000001
#
# number of rings (size 3 to 8) (size 9 to 14) (size 15 to 20)
#    0.000    0.857    1.429    3.429   14.000    2.857 
#    0.000    0.000    0.000    0.000    0.000    0.000 
#    0.000    0.000    0.000    0.000    0.000    0.000 
#
# Total GULP energy -78214.264429 kJ/mol
# GULP energy per Si atom -5586.733173 kJ/mol
# Density = 2.578303 g / cm^3
# Si number density = 25.841843 Si / 1000 Ang^3
#
#
#
# Elastic Constant Matrix: (Units=GPa)
#
#
# Indices 1 2 3 4 5 6 
#
# 1 48.1712 35.5257 17.7838 -8.6779 -5.9811 2.3092
# 2 35.5257 114.9766 40.9536 -5.0289 5.8732 20.0463
# 3 17.7838 40.9536 154.0790 -9.3908 -7.4235 16.6489
# 4 -8.6779 -5.0289 -9.3908 45.0313 10.5571 15.5665
# 5 -5.9811 5.8732 -7.4235 10.5571 54.2083 -9.0651
# 6 2.3092 20.0463 16.6489 15.5665 -9.0651 51.6772
#
#
#
# Elastic Compliance Matrix: (Units=1/GPa)
#
#
# Indices 1 2 3 4 5 6 
#
# 1 0.028563 -0.009045 -0.000807 0.002576 0.003922 0.002404
# 2 -0.009045 0.013483 -0.001999 0.002234 -0.004100 -0.005574
# 3 -0.000807 -0.001999 0.007467 0.001779 0.000461 -0.002049
# 4 0.002576 0.002234 0.001779 0.029041 -0.007307 -0.011584
# 5 0.003922 -0.004100 0.000461 -0.007307 0.022037 0.007333
# 6 0.002404 -0.005574 -0.002049 -0.011584 0.007333 0.026842
#
#
# Mechanical properties :
#
#
# Convention : Reuss Voigt Hill
#
# Bulk Modulus (GPa) = 38.74146 56.19477 47.46812
# Shear Modulus (GPa) = 31.30126 45.04760 38.17443
#
# Velocity S-wave (km/s) = 3.48410 4.17970 3.84765
# Velocity P-wave (km/s) = 5.58655 6.71461 6.17639
#
# Compressibility (1/GPa) = 0.02581214
#
# Stress axis : x y z
#
# Youngs Moduli (GPa) = 35.00989 74.16644 133.93042
#
# Poissons Ratio (x) = 0.67085 0.10802
# Poissons Ratio (y) = 0.31667 0.26770
# Poissons Ratio (z) = 0.02824 0.14825
#
# Static dielectric constant tensor:
#      x y z
#    x 2.024180 0.017220 0.024460 
#    y 0.017220 2.075890 -0.132700 
#    z 0.024460 -0.132700 1.993990 
# 
# From -- ./inp_files/81185.got.cif
#   From: 2010.05.17/outbox.cif.g08.bks.cpg/sg2_41_cif.got.tgz:81185.got - 2010.06.03 11:33:40.
