data_PCOD9046280
_publ_section_title
;
Structure prediction by ZEFSAII (Michael W. Deem and Ramdas Pophale) SiO2 
 PCOD9046280
Probable space group: P -1
;
_chemical_formula_sum "Si O2"
_cell_formula_units_Z 15
_cell_length_a 20.673040
_cell_length_b 5.295319
_cell_length_c 8.917594
_cell_angle_alpha 56.095801
_cell_angle_beta 44.302694
_cell_angle_gamma 56.500073
_cell_volume 545.906914
_symmetry_space_group_name_H-M "P -1"
_symmetry_group_IT_number 2
_symmetry_cell_setting 'triclinic'
loop_
_space_group_symop_operation_xyz
x,y,z
-x,-y,-z
loop_
_atom_site_type_symbol
_atom_site_label
_atom_site_fract_x
_atom_site_fract_y
_atom_site_fract_z
Si Si1 0.612059 0.098416 0.961150
Si Si2 0.056435 0.859174 0.799832
Si Si3 0.500000 0.500000 0.500000
Si Si4 0.729554 0.547661 0.755947
Si Si5 0.303990 0.996513 0.627341
Si Si6 0.870685 0.803741 0.961591
Si Si7 0.886762 0.649419 0.638239
Si Si8 0.550889 0.667366 0.650526
O O1 0.679872 0.277982 0.876886
O O2 0.569242 0.345347 0.819100
O O3 0.668253 0.766934 0.913832
O O4 0.518754 0.056587 0.218402
O O5 0.119724 0.522117 0.855679
O O6 0.125362 0.041863 0.546935
O O7 0.974481 0.856058 0.813532
O O8 0.000000 0.000000 0.000000
O O9 0.385822 0.673640 0.570990
O O10 0.478581 0.662122 0.641566
O O11 0.834301 0.439744 0.693155
O O12 0.725370 0.795640 0.544213
O O13 0.214371 0.959052 0.884108
O O14 0.353429 0.227257 0.562230
O O15 0.857900 0.731791 0.831466
O O16 0.000000 0.500000 0.500000
#
# Coordination Sequence:
#
# PCOD9046280 Si02
#       8
#     2   2   1   2   2   2   2   2
#     4  10  24  46  73 105 145 200 262 315 400 463
#     4  11  24  49  81 108 157 203 255 333 407 472
#     4  12  24  44  68 100 148 202 260 330 390 460
#     4  11  26  47  76 109 151 210 259 329 396 486
#     4  11  26  46  71 108 152 210 262 326 400 473
#     4  11  27  47  76 117 154 203 268 326 399 487
#     4  12  27  49  76 116 156 205 264 331 403 483
#     4  10  24  42  70 101 149 193 256 326 386 466
#
# _framework density 27.477211
#
# number of rings (size 3 to 8) (size 9 to 14) (size 15 to 20)
#    0.000    1.067    2.667    1.600    9.333    4.800 
#    0.000    0.000    0.000    0.000    0.000    0.000 
#    0.000    0.000    0.000    0.000    0.000    0.000 
#
# Total GULP energy -83918.035645 kJ/mol
# GULP energy per Si atom -5594.535710 kJ/mol
# Density = 2.741467 g / cm^3
# Si number density = 27.477211 Si / 1000 Ang^3
#
#
#
# Elastic Constant Matrix: (Units=GPa)
#
#
# Indices 1 2 3 4 5 6 
#
# 1 209.2895 25.1484 36.2618 -10.4029 1.9026 11.1765
# 2 25.1484 69.5371 21.6363 10.4091 2.2381 -12.3420
# 3 36.2618 21.6363 108.0852 -12.1408 -6.7430 -5.0090
# 4 -10.4029 10.4091 -12.1408 44.7491 -1.4109 -8.1292
# 5 1.9026 2.2381 -6.7430 -1.4109 22.1651 4.4473
# 6 11.1765 -12.3420 -5.0090 -8.1292 4.4473 51.4610
#
#
#
# Elastic Compliance Matrix: (Units=1/GPa)
#
#
# Indices 1 2 3 4 5 6 
#
# 1 0.005392 -0.001940 -0.001398 0.001028 -0.000309 -0.001583
# 2 -0.001940 0.017723 -0.003508 -0.004940 -0.003783 0.003877
# 3 -0.001398 -0.003508 0.011131 0.003781 0.003940 0.000802
# 4 0.001028 -0.004940 0.003781 0.025341 0.002625 0.002736
# 5 -0.000309 -0.003783 0.003940 0.002625 0.047726 -0.004166
# 6 -0.001583 0.003877 0.000802 0.002736 -0.004166 0.021576
#
#
# Mechanical properties :
#
#
# Convention : Reuss Voigt Hill
#
# Bulk Modulus (GPa) = 48.65209 61.44498 55.04854
# Shear Modulus (GPa) = 33.45991 43.93273 38.69632
#
# Velocity S-wave (km/s) = 3.49339 4.00294 3.75681
# Velocity P-wave (km/s) = 5.83236 6.61630 6.23666
#
# Compressibility (1/GPa) = 0.02055410
#
# Stress axis : x y z
#
# Youngs Moduli (GPa) = 185.46612 56.42249 89.84042
#
# Poissons Ratio (x) = 0.10946 0.12557
# Poissons Ratio (y) = 0.35981 0.31518
# Poissons Ratio (z) = 0.25923 0.19794
#
# Static dielectric constant tensor:
#      x y z
#    x 2.182520 0.026850 0.041480 
#    y 0.026850 2.017340 0.145370 
#    z 0.041480 0.145370 2.002310 
# 
# From -- ./inp_files/340071.got.cif
#   From: 2010.05.17/outbox.cif.g08.bks.cpg/sg2_171_cif.got.tgz:340071.got - 2010.06.03 11:33:40.
