data_PCOD9046521
_publ_section_title
;
Structure prediction by ZEFSAII (Michael W. Deem and Ramdas Pophale) SiO2 
 PCOD9046521
Probable space group: P -1
;
_chemical_formula_sum "Si O2"
_cell_formula_units_Z 16
_cell_length_a 9.318128
_cell_length_b 6.726655
_cell_length_c 18.620547
_cell_angle_alpha 127.073232
_cell_angle_beta 69.603855
_cell_angle_gamma 127.022571
_cell_volume 743.288658
_symmetry_space_group_name_H-M "P -1"
_symmetry_group_IT_number 2
_symmetry_cell_setting 'triclinic'
loop_
_space_group_symop_operation_xyz
x,y,z
-x,-y,-z
loop_
_atom_site_type_symbol
_atom_site_label
_atom_site_fract_x
_atom_site_fract_y
_atom_site_fract_z
Si Si1 0.291628 0.058939 0.398282
Si Si2 0.506703 0.278243 0.711719
Si Si3 0.807561 0.945005 0.165224
Si Si4 0.294583 0.982045 0.953554
Si Si5 0.072362 0.395077 0.704476
Si Si6 0.009935 0.656366 0.127902
Si Si7 0.385532 0.124010 0.126156
Si Si8 0.407730 0.355016 0.594924
O O1 0.327372 0.147577 0.494756
O O2 0.403190 0.361578 0.400508
O O3 0.381215 0.870509 0.323208
O O4 0.082920 0.856995 0.371758
O O5 0.349044 0.181751 0.775844
O O6 0.621383 0.628746 0.774402
O O7 0.431920 0.205057 0.627911
O O8 0.928792 0.808779 0.127706
O O9 0.726145 0.879166 0.084823
O O10 0.916755 0.295796 0.233338
O O11 0.102938 0.690373 0.939037
O O12 0.431038 0.868396 0.890888
O O13 0.365867 0.166611 0.054098
O O14 0.024061 0.294496 0.773185
O O15 0.265947 0.449401 0.661807
O O16 0.219478 0.810134 0.109186
#
# Coordination Sequence:
#
# PCOD9046521 Si02
#       8
#     2   2   2   2   2   2   2   2
#     4  11  25  40  67  92 119 165 206 250 311 364
#     4  12  22  42  64  90 126 163 202 254 304 366
#     4  11  22  40  64  89 128 164 200 250 308 359
#     4  10  24  43  60  94 126 160 204 258 300 355
#     4  11  22  40  64  91 123 163 206 247 304 366
#     4  11  22  41  63  90 125 164 203 252 302 361
#     4  11  23  42  66  90 124 163 208 251 304 363
#     4  11  23  44  62  91 128 156 204 260 304 359
#
# _framework density 21.525956999999998
#
# number of rings (size 3 to 8) (size 9 to 14) (size 15 to 20)
#    0.000    1.000    3.750    3.375    1.750    1.000 
#    0.000    0.625    0.000    0.000    0.000    0.000 
#    0.000    0.000    0.000    0.000    0.000    0.000 
#
# Total GULP energy -89547.064162 kJ/mol
# GULP energy per Si atom -5596.691510 kJ/mol
# Density = 2.147696 g / cm^3
# Si number density = 21.525957 Si / 1000 Ang^3
#
#
#
# Elastic Constant Matrix: (Units=GPa)
#
#
# Indices 1 2 3 4 5 6 
#
# 1 26.2547 27.4268 -3.2038 -7.4925 13.6983 4.8769
# 2 27.4268 72.7399 6.8434 -20.2094 16.8403 6.9833
# 3 -3.2038 6.8434 69.0271 -10.7943 11.8653 -1.2420
# 4 -7.4925 -20.2094 -10.7943 17.0667 2.9522 0.1561
# 5 13.6983 16.8403 11.8653 2.9522 34.6484 -2.3974
# 6 4.8769 6.9833 -1.2420 0.1561 -2.3974 30.5188
#
#
#
# Elastic Compliance Matrix: (Units=1/GPa)
#
#
# Indices 1 2 3 4 5 6 
#
# 1 0.089974 -0.013033 0.018896 0.043127 -0.040352 -0.014017
# 2 -0.013033 0.034401 0.005335 0.041468 -0.017423 -0.007152
# 3 0.018896 0.005335 0.023617 0.033290 -0.021343 -0.005126
# 4 0.043127 0.041468 0.033290 0.158875 -0.063583 -0.020833
# 5 -0.040352 -0.017423 -0.021343 -0.063583 0.067058 0.015159
# 6 -0.014017 -0.007152 -0.005126 -0.020833 0.015159 0.037732
#
#
# Mechanical properties :
#
#
# Convention : Reuss Voigt Hill
#
# Bulk Modulus (GPa) = 5.86890 25.57271 15.72080
# Shear Modulus (GPa) = 11.20935 25.57713 18.39324
#
# Velocity S-wave (km/s) = 2.28444 3.45077 2.92630
# Velocity P-wave (km/s) = 3.11297 5.27094 4.32859
#
# Compressibility (1/GPa) = 0.17038980
#
# Stress axis : x y z
#
# Youngs Moduli (GPa) = 11.11434 29.06889 42.34169
#
# Poissons Ratio (x) = 0.37885 -0.80010
# Poissons Ratio (y) = 0.14485 -0.22591
# Poissons Ratio (z) = -0.21002 -0.15509
#
# Static dielectric constant tensor:
#      x y z
#    x 1.745080 0.007720 0.018300 
#    y 0.007720 1.787650 -0.000070 
#    z 0.018300 -0.000070 1.781960 
# 
# From -- ./inp_files/46542.got.cif
#   From: 2010.05.17/outbox.cif.g08.bks.cpg/sg2_24_cif.got.tgz:46542.got - 2010.06.03 11:33:40.
