data_PCOD9046111
_publ_section_title
;
Structure prediction by ZEFSAII (Michael W. Deem and Ramdas Pophale) SiO2 
 PCOD9046111
Probable space group: P -1
;
_chemical_formula_sum "Si O2"
_cell_formula_units_Z 16
_cell_length_a 9.398058
_cell_length_b 9.527981
_cell_length_c 13.507547
_cell_angle_alpha 71.712156
_cell_angle_beta 107.709332
_cell_angle_gamma 51.603280
_cell_volume 667.616544
_symmetry_space_group_name_H-M "P -1"
_symmetry_group_IT_number 2
_symmetry_cell_setting 'triclinic'
loop_
_space_group_symop_operation_xyz
x,y,z
-x,-y,-z
loop_
_atom_site_type_symbol
_atom_site_label
_atom_site_fract_x
_atom_site_fract_y
_atom_site_fract_z
Si Si1 0.892750 0.842005 0.694318
Si Si2 0.766542 0.572237 0.435070
Si Si3 0.009552 0.317993 0.036995
Si Si4 0.254562 0.093345 0.928839
Si Si5 0.567044 0.625559 0.179756
Si Si6 0.248108 0.365178 0.363930
Si Si7 0.474342 0.367530 0.227505
Si Si8 0.014596 0.923771 0.409653
O O1 0.866616 0.836647 0.805359
O O2 0.176041 0.599154 0.772302
O O3 0.850302 0.048813 0.622267
O O4 0.774418 0.792796 0.625843
O O5 0.622511 0.686847 0.274129
O O6 0.647218 0.696158 0.489894
O O7 0.000000 0.500000 0.500000
O O8 0.857668 0.332195 0.512353
O O9 0.735233 0.478113 0.932234
O O10 0.000000 0.500000 0.000000
O O11 0.142431 0.177667 0.995621
O O12 0.025881 0.340988 0.763761
O O13 0.500000 0.000000 0.000000
O O14 0.372735 0.837248 0.010403
O O15 0.487428 0.528559 0.225711
O O16 0.399475 0.324143 0.315521
O O17 0.728016 0.123679 0.283837
O O18 0.000000 0.000000 0.500000
#
# Coordination Sequence:
#
# PCOD9046111 Si02
#       8
#     2   2   2   2   2   2   2   2
#     4  11  21  44  68  97 138 176 220 288 335 405
#     4  12  23  44  70  97 129 185 231 279 333 412
#     4  11  22  40  67 100 137 172 228 277 341 406
#     4  11  21  40  68  96 134 180 218 279 344 403
#     4  11  23  42  66  96 140 172 226 280 343 402
#     4  11  23  43  68  98 138 173 229 278 340 407
#     4  10  24  42  67  97 136 173 218 291 335 399
#     4  11  23  45  70  93 138 179 227 277 345 402
#
# _framework density 23.965854
#
# number of rings (size 3 to 8) (size 9 to 14) (size 15 to 20)
#    0.000    1.000    7.500    0.000    0.000    9.500 
#    2.250    1.250    0.000    0.000    0.000    0.000 
#    0.000    0.000    0.000    0.000    0.000    0.000 
#
# Total GULP energy -89387.487199 kJ/mol
# GULP energy per Si atom -5586.717950 kJ/mol
# Density = 2.391131 g / cm^3
# Si number density = 23.965854 Si / 1000 Ang^3
#
#
#
# Elastic Constant Matrix: (Units=GPa)
#
#
# Indices 1 2 3 4 5 6 
#
# 1 132.0988 18.1716 19.1744 -9.7033 -7.9373 24.6711
# 2 18.1716 55.6919 19.3795 0.0284 0.8855 19.9345
# 3 19.1744 19.3795 119.8285 -3.6499 5.2105 1.7342
# 4 -9.7033 0.0284 -3.6499 42.0197 -4.1764 -6.0243
# 5 -7.9373 0.8855 5.2105 -4.1764 45.7255 -2.2328
# 6 24.6711 19.9345 1.7342 -6.0243 -2.2328 40.0458
#
#
#
# Elastic Compliance Matrix: (Units=1/GPa)
#
#
# Indices 1 2 3 4 5 6 
#
# 1 0.008954 -0.000808 -0.001260 0.001438 0.001613 -0.004753
# 2 -0.000808 0.023578 -0.003545 -0.002251 -0.000959 -0.011478
# 3 -0.001260 -0.003545 0.009155 0.000720 -0.001020 0.002195
# 4 0.001438 -0.002251 0.000720 0.025054 0.002701 0.004123
# 5 0.001613 -0.000959 -0.001020 0.002701 0.022589 0.001194
# 6 -0.004753 -0.011478 0.002195 0.004123 0.001194 0.034205
#
#
# Mechanical properties :
#
#
# Convention : Reuss Voigt Hill
#
# Bulk Modulus (GPa) = 32.82809 46.78557 39.80683
# Shear Modulus (GPa) = 34.50316 42.28445 38.39381
#
# Velocity S-wave (km/s) = 3.79843 4.20499 4.00687
# Velocity P-wave (km/s) = 5.74152 6.56811 6.16867
#
# Compressibility (1/GPa) = 0.03046172
#
# Stress axis : x y z
#
# Youngs Moduli (GPa) = 111.67695 42.41279 109.23473
#
# Poissons Ratio (x) = 0.03428 0.13760
# Poissons Ratio (y) = 0.09027 0.38719
# Poissons Ratio (z) = 0.14067 0.15034
#
# Static dielectric constant tensor:
#      x y z
#    x 1.371800 -0.432560 -0.880810 
#    y -0.432560 1.597040 -0.794500 
#    z -0.880810 -0.794500 0.549780 
# 
# From -- ./inp_files/209094.got.cif
#   From: 2010.05.17/outbox.cif.g08.bks.cpg/sg2_105_cif.got.tgz:209094.got - 2010.06.03 11:33:40.
