data_PCOD9046621
_publ_section_title
;
Structure prediction by ZEFSAII (Michael W. Deem and Ramdas Pophale) SiO2 
 PCOD9046621
Probable space group: P -1
;
_chemical_formula_sum "Si O2"
_cell_formula_units_Z 15
_cell_length_a 14.090141
_cell_length_b 7.997152
_cell_length_c 5.018581
_cell_angle_alpha 97.475816
_cell_angle_beta 86.866274
_cell_angle_gamma 86.982203
_cell_volume 558.832647
_symmetry_space_group_name_H-M "P -1"
_symmetry_group_IT_number 2
_symmetry_cell_setting 'triclinic'
loop_
_space_group_symop_operation_xyz
x,y,z
-x,-y,-z
loop_
_atom_site_type_symbol
_atom_site_label
_atom_site_fract_x
_atom_site_fract_y
_atom_site_fract_z
Si Si1 0.340088 0.455369 0.900374
Si Si2 0.500000 0.500000 0.500000
Si Si3 0.543393 0.096485 0.263617
Si Si4 0.710914 0.039658 0.847407
Si Si5 0.095013 0.094912 0.977825
Si Si6 0.096712 0.442429 0.326474
Si Si7 0.768117 0.803893 0.403431
Si Si8 0.268282 0.633200 0.422617
O O1 0.440834 0.428179 0.745375
O O2 0.281817 0.288069 0.849798
O O3 0.282934 0.587599 0.724008
O O4 0.342642 0.505850 0.220478
O O5 0.524741 0.297826 0.344144
O O6 0.500000 0.000000 0.500000
O O7 0.653878 0.068328 0.134270
O O8 0.500000 0.000000 0.000000
O O9 0.701458 0.194814 0.677091
O O10 0.689686 0.880883 0.632355
O O11 0.822426 0.994594 0.874533
O O12 0.150357 0.079428 0.687832
O O13 0.077033 0.297301 0.082009
O O14 0.000000 0.000000 0.000000
O O15 0.169224 0.340240 0.487513
O O16 0.163901 0.598763 0.305376
O O17 0.000000 0.500000 0.500000
#
# Coordination Sequence:
#
# PCOD9046621 Si02
#       8
#     2   1   2   2   2   2   2   2
#     4  11  25  47  72 106 143 196 244 314 371 462
#     4  12  28  50  84 114 164 200 274 320 404 478
#     4  12  31  52  82 122 162 213 267 334 406 485
#     4  11  27  47  72 106 151 196 251 322 387 467
#     4  11  26  43  71 103 143 201 251 316 385 460
#     4  10  24  43  66 101 140 188 246 313 368 456
#     4  10  24  45  70  98 147 193 251 308 390 452
#     4  11  25  46  72 104 145 190 245 298 383 445
#
# _framework density 26.841664999999999
#
# number of rings (size 3 to 8) (size 9 to 14) (size 15 to 20)
#    0.000    1.067    2.667    0.800   11.200    4.800 
#    0.000    0.000    0.000    0.000    0.000    0.000 
#    0.000    0.000    0.000    0.000    0.000    0.000 
#
# Total GULP energy -83590.509224 kJ/mol
# GULP energy per Si atom -5572.700615 kJ/mol
# Density = 2.678057 g / cm^3
# Si number density = 26.841665 Si / 1000 Ang^3
#
#
#
# Elastic Constant Matrix: (Units=GPa)
#
#
# Indices 1 2 3 4 5 6 
#
# 1 108.1029 31.4454 28.7369 10.2945 -42.1220 14.3966
# 2 31.4454 138.8736 60.0168 12.1026 -13.2495 1.8565
# 3 28.7369 60.0168 177.4771 -5.8677 -19.5607 -9.3292
# 4 10.2945 12.1026 -5.8677 45.7960 -1.6641 -14.4097
# 5 -42.1220 -13.2495 -19.5607 -1.6641 47.8054 1.3219
# 6 14.3966 1.8565 -9.3292 -14.4097 1.3219 40.9505
#
#
#
# Elastic Compliance Matrix: (Units=1/GPa)
#
#
# Indices 1 2 3 4 5 6 
#
# 1 0.017409 -0.001282 -0.001470 -0.006071 0.014421 -0.008999
# 2 -0.001282 0.009109 -0.003056 -0.003054 0.000087 -0.001736
# 3 -0.001470 -0.003056 0.007284 0.003173 0.000855 0.003404
# 4 -0.006071 -0.003054 0.003173 0.028388 -0.004272 0.013123
# 5 0.014421 0.000087 0.000855 -0.004272 0.034056 -0.007481
# 6 -0.008999 -0.001736 0.003404 0.013123 -0.007481 0.033297
#
#
# Mechanical properties :
#
#
# Convention : Reuss Voigt Hill
#
# Bulk Modulus (GPa) = 45.06881 73.87242 59.47062
# Shear Modulus (GPa) = 33.65798 47.19403 40.42601
#
# Velocity S-wave (km/s) = 3.54495 4.19768 3.88505
# Velocity P-wave (km/s) = 5.79505 7.14670 6.50607
#
# Compressibility (1/GPa) = 0.02218829
#
# Stress axis : x y z
#
# Youngs Moduli (GPa) = 57.44017 109.78034 137.29049
#
# Poissons Ratio (x) = 0.14070 0.20180
# Poissons Ratio (y) = 0.07362 0.41949
# Poissons Ratio (z) = 0.08443 0.33543
#
# Static dielectric constant tensor:
#      x y z
#    x 2.328930 0.071370 -0.029010 
#    y 0.071370 2.277700 0.029620 
#    z -0.029010 0.029620 2.131400 
# 
# From -- ./inp_files/88430.got.cif
#   From: 2010.05.17/outbox.cif.g08.bks.cpg/sg2_45_cif.got.tgz:88430.got - 2010.06.03 11:33:40.
