data_PCOD9046908
_publ_section_title
;
Structure prediction by ZEFSAII (Michael W. Deem and Ramdas Pophale) SiO2 
 PCOD9046908
Probable space group: P -1
;
_chemical_formula_sum "Si O2"
_cell_formula_units_Z 16
_cell_length_a 26.155550
_cell_length_b 4.732650
_cell_length_c 12.374818
_cell_angle_alpha 120.128564
_cell_angle_beta 30.273416
_cell_angle_gamma 129.254626
_cell_volume 594.066071
_symmetry_space_group_name_H-M "P -1"
_symmetry_group_IT_number 2
_symmetry_cell_setting 'triclinic'
loop_
_space_group_symop_operation_xyz
x,y,z
-x,-y,-z
loop_
_atom_site_type_symbol
_atom_site_label
_atom_site_fract_x
_atom_site_fract_y
_atom_site_fract_z
Si Si1 0.374597 0.952409 0.199008
Si Si2 0.107111 0.919472 0.806477
Si Si3 0.547101 0.289950 0.566575
Si Si4 0.323762 0.582183 0.435354
Si Si5 0.063396 0.776037 0.113028
Si Si6 0.321913 0.373402 0.005918
Si Si7 0.093821 0.619531 0.259304
Si Si8 0.742274 0.731891 0.135289
O O1 0.314946 0.824139 0.400983
O O2 0.316675 0.661929 0.153796
O O3 0.377074 0.333293 0.237911
O O4 0.500000 0.000000 0.000000
O O5 0.062380 0.521707 0.756636
O O6 0.207423 0.265331 0.632797
O O7 0.115333 0.886860 0.912999
O O8 0.000000 0.000000 0.000000
O O9 0.592208 0.199388 0.577673
O O10 0.658111 0.592382 0.360313
O O11 0.500000 0.000000 0.500000
O O12 0.442396 0.370856 0.802535
O O13 0.032085 0.684867 0.282152
O O14 0.198209 0.834657 0.912703
O O15 0.210622 0.977850 0.146033
O O16 0.319370 0.462874 0.900125
O O17 0.000000 0.500000 0.500000
O O18 0.130800 0.284383 0.107351
#
# Coordination Sequence:
#
# PCOD9046908 Si02
#       8
#     2   2   2   2   2   2   2   2
#     4  12  29  50  75 109 160 203 265 309 389 473
#     4  11  25  45  73 106 150 197 261 319 395 457
#     4  12  25  45  79 110 147 198 254 325 391 454
#     4  12  30  48  81 114 154 209 256 326 387 469
#     4  10  24  43  69 102 147 193 251 321 383 456
#     4  11  27  46  73 107 149 202 254 314 386 458
#     4  11  26  45  71 106 148 199 252 309 387 467
#     4  11  24  45  72 106 147 185 257 316 383 463
#
# _framework density 26.933032000000001
#
# number of rings (size 3 to 8) (size 9 to 14) (size 15 to 20)
#    0.000    0.750    3.750    1.500    8.750    4.000 
#    0.000    0.000    0.000    0.000    0.000    0.000 
#    0.000    0.000    0.000    0.000    0.000    0.000 
#
# Total GULP energy -89281.074651 kJ/mol
# GULP energy per Si atom -5580.067166 kJ/mol
# Density = 2.687173 g / cm^3
# Si number density = 26.933032 Si / 1000 Ang^3
#
#
#
# Elastic Constant Matrix: (Units=GPa)
#
#
# Indices 1 2 3 4 5 6 
#
# 1 116.9835 40.7088 51.5100 2.7216 32.0259 10.1070
# 2 40.7088 126.0782 51.5091 3.3863 8.0427 13.9686
# 3 51.5100 51.5091 140.3983 -21.8962 16.1906 7.3104
# 4 2.7216 3.3863 -21.8962 54.6588 -4.1901 0.9424
# 5 32.0259 8.0427 16.1906 -4.1901 57.6018 -1.3485
# 6 10.1070 13.9686 7.3104 0.9424 -1.3485 54.5110
#
#
#
# Elastic Compliance Matrix: (Units=1/GPa)
#
#
# Indices 1 2 3 4 5 6 
#
# 1 0.012596 -0.002046 -0.003471 -0.002322 -0.005944 -0.001452
# 2 -0.002046 0.010106 -0.003190 -0.001737 0.000456 -0.001741
# 3 -0.003471 -0.003190 0.010287 0.004477 -0.000190 -0.000001
# 4 -0.002322 -0.001737 0.004477 0.020448 0.001762 -0.000035
# 5 -0.005944 0.000456 -0.000190 0.001762 0.020819 0.001495
# 6 -0.001452 -0.001741 -0.000001 -0.000035 0.001495 0.019098
#
#
# Mechanical properties :
#
#
# Convention : Reuss Voigt Hill
#
# Bulk Modulus (GPa) = 64.21190 74.54622 69.37906
# Shear Modulus (GPa) = 43.11894 49.33645 46.22770
#
# Velocity S-wave (km/s) = 4.00555 4.28462 4.14743
# Velocity P-wave (km/s) = 6.72946 7.22605 6.98217
#
# Compressibility (1/GPa) = 0.01557344
#
# Stress axis : x y z
#
# Youngs Moduli (GPa) = 79.39225 98.95184 97.21394
#
# Poissons Ratio (x) = 0.20248 0.33747
# Poissons Ratio (y) = 0.16246 0.31009
# Poissons Ratio (z) = 0.27560 0.31563
#
# Static dielectric constant tensor:
#      x y z
#    x 2.174180 -0.004470 0.083490 
#    y -0.004470 2.211630 0.063140 
#    z 0.083490 0.063140 2.285550 
# 
# From -- ./inp_files/476029.got.cif
#   From: 2010.05.17/outbox.cif.g08.bks.cpg/sg2_239_cif.got.tgz:476029.got - 2010.06.03 11:33:40.
