data_PCOD9046651
_publ_section_title
;
Structure prediction by ZEFSAII (Michael W. Deem and Ramdas Pophale) SiO2 
 PCOD9046651
Probable space group: P -1
;
_chemical_formula_sum "Si O2"
_cell_formula_units_Z 16
_cell_length_a 5.062770
_cell_length_b 20.051358
_cell_length_c 7.845536
_cell_angle_alpha 118.957281
_cell_angle_beta 114.156882
_cell_angle_gamma 70.780804
_cell_volume 627.221323
_symmetry_space_group_name_H-M "P -1"
_symmetry_group_IT_number 2
_symmetry_cell_setting 'triclinic'
loop_
_space_group_symop_operation_xyz
x,y,z
-x,-y,-z
loop_
_atom_site_type_symbol
_atom_site_label
_atom_site_fract_x
_atom_site_fract_y
_atom_site_fract_z
Si Si1 0.241339 0.877882 0.030896
Si Si2 0.770213 0.961770 0.637441
Si Si3 0.379549 0.148280 0.236364
Si Si4 0.761842 0.409026 0.619886
Si Si5 0.153782 0.441093 0.326538
Si Si6 0.209809 0.667110 0.091188
Si Si7 0.731263 0.712254 0.417281
Si Si8 0.855320 0.819695 0.303005
O O1 0.392345 0.881255 0.889365
O O2 0.959306 0.835668 0.899130
O O3 0.519650 0.840648 0.173966
O O4 0.110167 0.964350 0.167256
O O5 0.645255 0.914844 0.700476
O O6 0.956314 0.900429 0.480417
O O7 0.500000 0.000000 0.500000
O O8 0.450996 0.230779 0.424637
O O9 0.464985 0.401324 0.433386
O O10 0.785781 0.499355 0.733455
O O11 0.775938 0.374801 0.771154
O O12 0.034497 0.356202 0.534430
O O13 0.000000 0.500000 0.500000
O O14 0.942118 0.384069 0.138396
O O15 0.548082 0.676121 0.178003
O O16 0.039699 0.754852 0.155782
O O17 0.874790 0.774895 0.430999
#
# Coordination Sequence:
#
# PCOD9046651 Si02
#       8
#     2   2   2   2   2   2   2   2
#     4  11  24  43  67 103 137 185 235 302 350 418
#     4   9  20  45  65  96 136 185 235 289 353 423
#     4  11  25  41  70 101 142 179 239 293 356 409
#     4  10  24  45  66 101 134 179 226 294 345 426
#     4  11  25  43  70 102 135 176 232 284 354 428
#     4  11  24  44  70  94 138 184 228 288 359 422
#     4  10  24  43  66  95 138 182 229 287 351 424
#     4   9  23  42  64  96 131 184 231 285 351 426
#
# _framework density 25.509338
#
# number of rings (size 3 to 8) (size 9 to 14) (size 15 to 20)
#    0.000    1.750    0.000    1.875    8.750    7.000 
#    2.250    2.500    0.000    0.000    0.000    0.000 
#    0.000    0.000    0.000    0.000    0.000    0.000 
#
# Total GULP energy -89476.927408 kJ/mol
# GULP energy per Si atom -5592.307963 kJ/mol
# Density = 2.545128 g / cm^3
# Si number density = 25.509338 Si / 1000 Ang^3
#
#
#
# Elastic Constant Matrix: (Units=GPa)
#
#
# Indices 1 2 3 4 5 6 
#
# 1 72.9029 32.8921 32.6734 1.3607 22.0598 -10.9380
# 2 32.8921 145.2733 62.8195 -8.1292 1.5154 -25.8222
# 3 32.6734 62.8195 156.5116 13.5927 28.0878 -17.9834
# 4 1.3607 -8.1292 13.5927 34.4438 1.3595 -5.0788
# 5 22.0598 1.5154 28.0878 1.3595 39.1852 -13.6036
# 6 -10.9380 -25.8222 -17.9834 -5.0788 -13.6036 34.7079
#
#
#
# Elastic Compliance Matrix: (Units=1/GPa)
#
#
# Indices 1 2 3 4 5 6 
#
# 1 0.018897 -0.004494 -0.000280 -0.001567 -0.010918 -0.002042
# 2 -0.004494 0.011825 -0.004792 0.005863 0.008453 0.009070
# 3 -0.000280 -0.004792 0.009874 -0.005044 -0.007302 -0.002138
# 4 -0.001567 0.005863 -0.005044 0.033488 0.006072 0.008535
# 5 -0.010918 0.008453 -0.007302 0.006072 0.042071 0.016443
# 6 -0.002042 0.009070 -0.002138 0.008535 0.016443 0.041502
#
#
# Mechanical properties :
#
#
# Convention : Reuss Voigt Hill
#
# Bulk Modulus (GPa) = 46.59204 70.16199 58.37701
# Shear Modulus (GPa) = 27.18206 38.08757 32.63481
#
# Velocity S-wave (km/s) = 3.26785 3.86824 3.58065
# Velocity P-wave (km/s) = 5.70463 6.89312 6.32685
#
# Compressibility (1/GPa) = 0.02146289
#
# Stress axis : x y z
#
# Youngs Moduli (GPa) = 52.91948 84.56303 101.27457
#
# Poissons Ratio (x) = 0.38003 0.02839
# Poissons Ratio (y) = 0.23782 0.48534
# Poissons Ratio (z) = 0.01483 0.40526
#
# Static dielectric constant tensor:
#      x y z
#    x 2.097880 0.006170 -0.042420 
#    y 0.006170 1.993000 -0.013910 
#    z -0.042420 -0.013910 2.057290 
# 
# From -- ./inp_files/141637.got.cif
#   From: 2010.05.17/outbox.cif.g08.bks.cpg/sg2_71_cif.got.tgz:141637.got - 2010.06.03 11:33:40.
