data_PCOD9046140
_publ_section_title
;
Structure prediction by ZEFSAII (Michael W. Deem and Ramdas Pophale) SiO2 
 PCOD9046140
Probable space group: P -1
;
_chemical_formula_sum "Si O2"
_cell_formula_units_Z 14
_cell_length_a 10.355301
_cell_length_b 16.900077
_cell_length_c 7.902556
_cell_angle_alpha 110.797306
_cell_angle_beta 86.333902
_cell_angle_gamma 150.441080
_cell_volume 540.431825
_symmetry_space_group_name_H-M "P -1"
_symmetry_group_IT_number 2
_symmetry_cell_setting 'triclinic'
loop_
_space_group_symop_operation_xyz
x,y,z
-x,-y,-z
loop_
_atom_site_type_symbol
_atom_site_label
_atom_site_fract_x
_atom_site_fract_y
_atom_site_fract_z
Si Si1 0.955103 0.362373 0.526635
Si Si2 0.608510 0.603135 0.824291
Si Si3 0.467144 0.342730 0.461789
Si Si4 0.984319 0.758265 0.192039
Si Si5 0.676223 0.332229 0.983595
Si Si6 0.611446 0.854588 0.476895
Si Si7 0.488154 0.036174 0.842533
O O1 0.670046 0.257889 0.495782
O O2 0.182089 0.488495 0.442890
O O3 0.798303 0.176491 0.395454
O O4 0.205403 0.539064 0.778036
O O5 0.501344 0.449185 0.642686
O O6 0.647620 0.692026 0.736608
O O7 0.334540 0.462548 0.870620
O O8 0.912506 0.763818 0.026549
O O9 0.278019 0.154838 0.418265
O O10 0.214330 0.818865 0.177722
O O11 0.146064 0.927453 0.414947
O O12 0.484750 0.245034 0.768181
O O13 0.507687 0.148523 0.932800
O O14 0.000000 0.500000 0.000000
O O15 0.500000 0.000000 0.000000
#
# Coordination Sequence:
#
# PCOD9046140 Si02
#       7
#     2   2   2   2   2   2   2
#     4  10  24  42  72 103 140 176 217 289 357 395
#     4  10  25  44  70  94 131 196 226 273 337 399
#     4  11  24  44  67  97 138 178 231 279 331 419
#     4  10  24  45  68  98 133 182 234 276 340 409
#     4  10  25  40  65 110 137 178 218 274 370 402
#     4  10  24  42  68 101 136 172 223 292 347 400
#     4  11  25  42  73 109 142 175 225 290 346 419
#
# _framework density 25.90521
#
# number of rings (size 3 to 8) (size 9 to 14) (size 15 to 20)
#    0.000    1.714    0.000    1.286   18.000    5.143 
#    0.000    0.000    0.000    0.000    0.000    0.000 
#    0.000    0.000    0.000    0.000    0.000    0.000 
#
# Total GULP energy -78284.997298 kJ/mol
# GULP energy per Si atom -5591.785521 kJ/mol
# Density = 2.584625 g / cm^3
# Si number density = 25.905210 Si / 1000 Ang^3
#
#
#
# Elastic Constant Matrix: (Units=GPa)
#
#
# Indices 1 2 3 4 5 6 
#
# 1 74.1257 37.4735 33.4053 4.5552 -8.4534 -36.7237
# 2 37.4735 76.2866 7.8317 -3.7141 2.8501 -30.9198
# 3 33.4053 7.8317 93.2778 3.0923 -10.7000 -19.5727
# 4 4.5552 -3.7141 3.0923 29.0439 1.5007 2.0561
# 5 -8.4534 2.8501 -10.7000 1.5007 20.3090 -2.1816
# 6 -36.7237 -30.9198 -19.5727 2.0561 -2.1816 62.8347
#
#
#
# Elastic Compliance Matrix: (Units=1/GPa)
#
#
# Indices 1 2 3 4 5 6 
#
# 1 0.027561 -0.009529 -0.005362 -0.006301 0.011562 0.010356
# 2 -0.009529 0.019787 0.001925 0.003791 -0.005531 0.004451
# 3 -0.005362 0.001925 0.013537 -0.000766 0.004926 0.002226
# 4 -0.006301 0.003791 -0.000766 0.036575 -0.006635 -0.003483
# 5 0.011562 -0.005531 0.004926 -0.006635 0.058754 0.007827
# 6 0.010356 0.004451 0.002226 -0.003483 0.007827 0.025237
#
#
# Mechanical properties :
#
#
# Convention : Reuss Voigt Hill
#
# Bulk Modulus (GPa) = 28.61000 44.56790 36.58895
# Shear Modulus (GPa) = 22.82752 33.43615 28.13183
#
# Velocity S-wave (km/s) = 2.97171 3.59654 3.29895
# Velocity P-wave (km/s) = 4.77942 5.87268 5.35403
#
# Compressibility (1/GPa) = 0.03495282
#
# Stress axis : x y z
#
# Youngs Moduli (GPa) = 36.28322 50.53804 73.87230
#
# Poissons Ratio (x) = 0.48159 0.39610
# Poissons Ratio (y) = 0.34575 -0.14222
# Poissons Ratio (z) = 0.19455 -0.09730
#
# Static dielectric constant tensor:
#      x y z
#    x 2.040090 -0.003260 -0.014280 
#    y -0.003260 2.052270 -0.049180 
#    z -0.014280 -0.049180 2.091660 
# 
# From -- ./inp_files/278134.got.cif
#   From: 2010.05.17/outbox.cif.g08.bks.cpg/sg2_140_cif.got.tgz:278134.got - 2010.06.03 11:33:40.
