data_PCOD9046516
_publ_section_title
;
Structure prediction by ZEFSAII (Michael W. Deem and Ramdas Pophale) SiO2 
 PCOD9046516
Probable space group: P -1
;
_chemical_formula_sum "Si O2"
_cell_formula_units_Z 16
_cell_length_a 9.343151
_cell_length_b 21.044438
_cell_length_c 15.344439
_cell_angle_alpha 160.930967
_cell_angle_beta 48.820375
_cell_angle_gamma 124.002381
_cell_volume 717.065147
_symmetry_space_group_name_H-M "P -1"
_symmetry_group_IT_number 2
_symmetry_cell_setting 'triclinic'
loop_
_space_group_symop_operation_xyz
x,y,z
-x,-y,-z
loop_
_atom_site_type_symbol
_atom_site_label
_atom_site_fract_x
_atom_site_fract_y
_atom_site_fract_z
Si Si1 0.170383 0.314643 0.154186
Si Si2 0.440865 0.856816 0.766392
Si Si3 0.762881 0.448992 0.094544
Si Si4 0.166585 0.129662 0.096135
Si Si5 0.891707 0.363441 0.751081
Si Si6 0.889873 0.179233 0.839620
Si Si7 0.134634 0.473868 0.200392
Si Si8 0.114901 0.921734 0.101075
O O1 0.247634 0.189152 0.048037
O O2 0.256724 0.408623 0.156694
O O3 0.000000 0.500000 0.500000
O O4 0.075798 0.157445 0.938435
O O5 0.611526 0.664072 0.426144
O O6 0.269348 0.790777 0.802118
O O7 0.500000 0.000000 0.000000
O O8 0.345951 0.993598 0.901535
O O9 0.977321 0.483921 0.076482
O O10 0.775974 0.340057 0.855046
O O11 0.727100 0.323664 0.030552
O O12 0.053496 0.343125 0.460578
O O13 0.000000 0.000000 0.000000
O O14 0.775343 0.440824 0.809491
O O15 0.049543 0.152480 0.397671
O O16 0.814033 0.099184 0.854968
O O17 0.000000 0.000000 0.500000
O O18 0.041552 0.301256 0.974120
#
# Coordination Sequence:
#
# PCOD9046516 Si02
#       8
#     2   2   2   2   2   2   2   2
#     4   9  19  33  55  89 110 145 199 244 278 341
#     4  12  22  35  57  93 122 145 192 254 299 338
#     4  10  21  33  52  82 121 152 187 238 295 347
#     4  11  19  36  61  85 115 157 195 236 292 355
#     4  10  17  34  56  80 111 155 196 228 285 357
#     4  10  19  33  53  84 120 155 191 238 293 353
#     4   9  18  31  56  87 106 144 204 245 271 341
#     4  11  19  34  60  85 112 155 196 237 292 351
#
# _framework density 22.313174
#
# number of rings (size 3 to 8) (size 9 to 14) (size 15 to 20)
#    0.000    1.750    5.000    0.750    0.000    0.500 
#    0.000    0.000    0.000    3.750    0.000    0.000 
#    0.000    0.000    0.000    0.000    0.000    0.000 
#
# Total GULP energy -89080.906815 kJ/mol
# GULP energy per Si atom -5567.556676 kJ/mol
# Density = 2.226239 g / cm^3
# Si number density = 22.313174 Si / 1000 Ang^3
#
#
#
# Elastic Constant Matrix: (Units=GPa)
#
#
# Indices 1 2 3 4 5 6 
#
# 1 64.2086 49.7644 30.5170 9.2250 -9.5525 -42.1624
# 2 49.7644 124.0910 5.1230 12.1726 -15.3725 -72.4372
# 3 30.5170 5.1230 74.5481 2.6656 4.8205 -17.6236
# 4 9.2250 12.1726 2.6656 28.8160 -8.2883 -3.3191
# 5 -9.5525 -15.3725 4.8205 -8.2883 32.5259 12.6108
# 6 -42.1624 -72.4372 -17.6236 -3.3191 12.6108 57.2893
#
#
#
# Elastic Compliance Matrix: (Units=1/GPa)
#
#
# Indices 1 2 3 4 5 6 
#
# 1 0.036694 0.001352 -0.008878 -0.008355 0.000783 0.025327
# 2 0.001352 0.040314 0.010955 -0.014182 -0.007570 0.056184
# 3 -0.008878 0.010955 0.020455 -0.004052 -0.007303 0.014983
# 4 -0.008355 -0.014182 -0.004052 0.044446 0.012673 -0.025542
# 5 0.000783 -0.007570 -0.007303 0.012673 0.039121 -0.019120
# 6 0.025327 0.056184 0.014983 -0.025542 -0.019120 0.114472
#
#
# Mechanical properties :
#
#
# Convention : Reuss Voigt Hill
#
# Bulk Modulus (GPa) = 9.58584 48.18406 28.88495
# Shear Modulus (GPa) = 15.45984 35.55580 25.50782
#
# Velocity S-wave (km/s) = 2.63507 3.99618 3.38475
# Velocity P-wave (km/s) = 3.68287 6.55240 5.31496
#
# Compressibility (1/GPa) = 0.10432050
#
# Stress axis : x y z
#
# Youngs Moduli (GPa) = 27.25274 24.80510 48.88824
#
# Poissons Ratio (x) = -0.03355 0.43404
# Poissons Ratio (y) = -0.03686 -0.53556
# Poissons Ratio (z) = 0.24196 -0.27173
#
# Static dielectric constant tensor:
#      x y z
#    x 1.896900 0.047300 0.005800 
#    y 0.047300 2.040690 0.022350 
#    z 0.005800 0.022350 1.766450 
# 
# From -- ./inp_files/269886.got.cif
#   From: 2010.05.17/outbox.cif.g08.bks.cpg/sg2_135_cif.got.tgz:269886.got - 2010.06.03 11:33:40.
