data_PCOD9046486
_publ_section_title
;
Structure prediction by ZEFSAII (Michael W. Deem and Ramdas Pophale) SiO2 
 PCOD9046486
Probable space group: P -1
;
_chemical_formula_sum "Si O2"
_cell_formula_units_Z 13
_cell_length_a 5.820016
_cell_length_b 9.131800
_cell_length_c 12.060987
_cell_angle_alpha 78.735826
_cell_angle_beta 73.290932
_cell_angle_gamma 58.949560
_cell_volume 525.108132
_symmetry_space_group_name_H-M "P -1"
_symmetry_group_IT_number 2
_symmetry_cell_setting 'triclinic'
loop_
_space_group_symop_operation_xyz
x,y,z
-x,-y,-z
loop_
_atom_site_type_symbol
_atom_site_label
_atom_site_fract_x
_atom_site_fract_y
_atom_site_fract_z
Si Si1 0.282321 0.930391 0.545171
Si Si2 0.704455 0.561302 0.588812
Si Si3 0.000000 0.000000 0.000000
Si Si4 0.453153 0.346046 0.994594
Si Si5 0.910483 0.615404 0.768024
Si Si6 0.906600 0.954931 0.763805
Si Si7 0.481864 0.316307 0.729965
O O1 0.468002 0.725108 0.533367
O O2 0.150977 0.981566 0.678734
O O3 0.500000 0.000000 0.500000
O O4 0.000000 0.000000 0.500000
O O5 0.644596 0.405177 0.640137
O O6 0.000000 0.500000 0.500000
O O7 0.692380 0.637291 0.702365
O O8 0.902850 0.963305 0.895134
O O9 0.699040 0.169045 0.031022
O O10 0.182780 0.381905 0.093641
O O11 0.500000 0.500000 0.000000
O O12 0.464992 0.340811 0.861903
O O13 0.166371 0.434464 0.725052
O O14 0.964333 0.774418 0.733658
O O15 0.627587 0.112436 0.729158
#
# Coordination Sequence:
#
# PCOD9046486 Si02
#       7
#     2   2   1   2   2   2   2
#     4  12  27  50  80 113 156 211 267 334 401 478
#     4  12  27  49  76 110 153 204 261 333 395 472
#     4  10  24  42  74 106 156 186 254 314 390 470
#     4  11  22  43  71 106 148 196 246 313 394 458
#     4  12  25  47  77 107 155 201 258 320 392 475
#     4  11  25  48  75 113 153 201 260 317 401 463
#     4  11  25  45  72 112 145 196 253 323 384 482
#
# _framework density 24.756809000000001
#
# number of rings (size 3 to 8) (size 9 to 14) (size 15 to 20)
#    0.000    0.615    3.077    4.154    2.154    4.308 
#    2.769    0.000    0.000    0.000    0.000    0.000 
#    0.000    0.000    0.000    0.000    0.000    0.000 
#
# Total GULP energy -72455.640825 kJ/mol
# GULP energy per Si atom -5573.510833 kJ/mol
# Density = 2.470046 g / cm^3
# Si number density = 24.756809 Si / 1000 Ang^3
#
#
#
# Elastic Constant Matrix: (Units=GPa)
#
#
# Indices 1 2 3 4 5 6 
#
# 1 92.9692 40.5845 31.2323 -13.9292 3.5830 -16.3866
# 2 40.5845 88.8087 30.8099 5.7276 0.8874 -37.5069
# 3 31.2323 30.8099 85.0144 -1.0592 -7.1105 3.1602
# 4 -13.9292 5.7276 -1.0592 39.9346 -2.1537 0.9015
# 5 3.5830 0.8874 -7.1105 -2.1537 53.3204 1.6542
# 6 -16.3866 -37.5069 3.1602 0.9015 1.6542 50.1364
#
#
#
# Elastic Compliance Matrix: (Units=1/GPa)
#
#
# Indices 1 2 3 4 5 6 
#
# 1 0.015694 -0.005911 -0.003682 0.006138 -0.001226 0.000870
# 2 -0.005911 0.023937 -0.007343 -0.006159 -0.001744 0.016606
# 3 -0.003682 -0.007343 0.016309 0.000530 0.002809 -0.007827
# 4 0.006138 -0.006159 0.000530 0.028205 0.000998 -0.003174
# 5 -0.001226 -0.001744 0.002809 0.000998 0.019360 -0.002540
# 6 0.000870 0.016606 -0.007827 -0.003174 -0.002540 0.033287
#
#
# Mechanical properties :
#
#
# Convention : Reuss Voigt Hill
#
# Bulk Modulus (GPa) = 45.31506 52.44953 48.88229
# Shear Modulus (GPa) = 28.08682 39.62265 33.85473
#
# Velocity S-wave (km/s) = 3.37190 4.00493 3.70197
# Velocity P-wave (km/s) = 5.78822 6.52824 6.16933
#
# Compressibility (1/GPa) = 0.02206772
#
# Stress axis : x y z
#
# Youngs Moduli (GPa) = 63.72019 41.77618 61.31558
#
# Poissons Ratio (x) = 0.24693 0.22575
# Poissons Ratio (y) = 0.37664 0.45027
# Poissons Ratio (z) = 0.23460 0.30678
#
# Static dielectric constant tensor:
#      x y z
#    x 2.064010 -0.009990 -0.153170 
#    y -0.009990 1.983890 -0.119100 
#    z -0.153170 -0.119100 2.316810 
# 
# From -- ./inp_files/49100.got.cif
#   From: 2010.05.17/outbox.cif.g08.bks.cpg/sg2_25_cif.got.tgz:49100.got - 2010.06.03 11:33:40.
