data_PCOD9046134
_publ_section_title
;
Structure prediction by ZEFSAII (Michael W. Deem and Ramdas Pophale) SiO2 
 PCOD9046134
Probable space group: P -1
;
_chemical_formula_sum "Si O2"
_cell_formula_units_Z 10
_cell_length_a 8.036137
_cell_length_b 8.891436
_cell_length_c 10.087065
_cell_angle_alpha 149.468039
_cell_angle_beta 101.172496
_cell_angle_gamma 79.349279
_cell_volume 358.982509
_symmetry_space_group_name_H-M "P -1"
_symmetry_group_IT_number 2
_symmetry_cell_setting 'triclinic'
loop_
_space_group_symop_operation_xyz
x,y,z
-x,-y,-z
loop_
_atom_site_type_symbol
_atom_site_label
_atom_site_fract_x
_atom_site_fract_y
_atom_site_fract_z
Si Si1 0.035768 0.149904 0.257527
Si Si2 0.310086 0.819330 0.687153
Si Si3 0.212517 0.321700 0.770139
Si Si4 0.366586 0.803009 0.997646
Si Si5 0.184146 0.630524 0.279727
O O1 0.000000 0.500000 0.500000
O O2 0.883423 0.045216 0.246669
O O3 0.224072 0.022035 0.213639
O O4 0.000000 0.000000 0.000000
O O5 0.291644 0.557959 0.376285
O O6 0.461042 0.026949 0.831900
O O7 0.336037 0.754077 0.797695
O O8 0.018369 0.392059 0.743775
O O9 0.228341 0.969779 0.512430
O O10 0.343383 0.488865 0.825063
O O11 0.225349 0.462567 0.023863
#
# Coordination Sequence:
#
# PCOD9046134 Si02
#       5
#     2   2   2   2   2
#     4  10  24  42  68 100 142 184 226 289 358 410
#     4  10  24  44  74 110 143 188 242 298 354 432
#     4  10  24  44  71 103 143 189 240 291 358 427
#     4  10  24  46  74 109 145 188 242 298 356 433
#     4  10  24  43  71 104 142 189 239 294 354 429
#
# _framework density 27.856508000000002
#
# number of rings (size 3 to 8) (size 9 to 14) (size 15 to 20)
#    0.000    2.000    0.000    0.000   14.000    4.000 
#    0.000    8.000    0.000    0.000    0.000    0.000 
#    0.000    0.000    0.000    0.000    0.000    0.000 
#
# Total GULP energy -56074.383820 kJ/mol
# GULP energy per Si atom -5607.438382 kJ/mol
# Density = 2.779311 g / cm^3
# Si number density = 27.856508 Si / 1000 Ang^3
#
#
#
# Elastic Constant Matrix: (Units=GPa)
#
#
# Indices 1 2 3 4 5 6 
#
# 1 207.1739 61.9321 52.5265 -2.6096 27.3457 25.5516
# 2 61.9321 112.2876 58.4976 -11.1015 10.5280 27.9821
# 3 52.5265 58.4976 188.5622 -19.2417 26.2445 2.0700
# 4 -2.6096 -11.1015 -19.2417 68.6996 -13.2035 11.7810
# 5 27.3457 10.5280 26.2445 -13.2035 38.2251 10.2567
# 6 25.5516 27.9821 2.0700 11.7810 10.2567 56.3565
#
#
#
# Elastic Compliance Matrix: (Units=1/GPa)
#
#
# Indices 1 2 3 4 5 6 
#
# 1 0.006335 -0.002862 -0.000467 -0.000943 -0.003593 -0.000583
# 2 -0.002862 0.014064 -0.003682 0.002988 0.003565 -0.006824
# 3 -0.000467 -0.003682 0.007145 0.000156 -0.004176 0.002505
# 4 -0.000943 0.002988 0.000156 0.017516 0.007424 -0.006075
# 5 -0.003593 0.003565 -0.004176 0.007424 0.035319 -0.007968
# 6 -0.000583 -0.006824 0.002505 -0.006075 -0.007968 0.024025
#
#
# Mechanical properties :
#
#
# Convention : Reuss Voigt Hill
#
# Bulk Modulus (GPa) = 73.95011 94.88180 84.41595
# Shear Modulus (GPa) = 40.67268 54.99406 47.83337
#
# Velocity S-wave (km/s) = 3.82524 4.44801 4.14833
# Velocity P-wave (km/s) = 6.79076 7.77911 7.30168
#
# Compressibility (1/GPa) = 0.01352263
#
# Stress axis : x y z
#
# Youngs Moduli (GPa) = 157.85372 71.10243 139.95246
#
# Poissons Ratio (x) = 0.20350 0.06530
# Poissons Ratio (y) = 0.45179 0.51534
# Poissons Ratio (z) = 0.07365 0.26182
#
# Static dielectric constant tensor:
#      x y z
#    x 2.217520 -0.070560 -0.056010 
#    y -0.070560 2.380460 -0.211110 
#    z -0.056010 -0.211110 2.536390 
# 
# From -- ./inp_files/228184.got.cif
#   From: 2010.05.17/outbox.cif.g08.bks.cpg/sg2_115_cif.got.tgz:228184.got - 2010.06.03 11:33:40.
