data_PCOD9046875
_publ_section_title
;
Structure prediction by ZEFSAII (Michael W. Deem and Ramdas Pophale) SiO2 
 PCOD9046875
Probable space group: P -1
;
_chemical_formula_sum "Si O2"
_cell_formula_units_Z 16
_cell_length_a 9.997758
_cell_length_b 8.825098
_cell_length_c 15.967809
_cell_angle_alpha 114.332050
_cell_angle_beta 75.253679
_cell_angle_gamma 151.635412
_cell_volume 590.575208
_symmetry_space_group_name_H-M "P -1"
_symmetry_group_IT_number 2
_symmetry_cell_setting 'triclinic'
loop_
_space_group_symop_operation_xyz
x,y,z
-x,-y,-z
loop_
_atom_site_type_symbol
_atom_site_label
_atom_site_fract_x
_atom_site_fract_y
_atom_site_fract_z
Si Si1 0.233374 0.223310 0.188146
Si Si2 0.593166 0.935868 0.288931
Si Si3 0.616437 0.506459 0.055958
Si Si4 0.620717 0.502782 0.339718
Si Si5 0.243437 0.706200 0.073016
Si Si6 0.011914 0.781086 0.563121
Si Si7 0.587849 0.913830 0.564013
Si Si8 0.177252 0.619108 0.800574
O O1 0.888550 0.859533 0.148198
O O2 0.854127 0.896333 0.402359
O O3 0.354144 0.224119 0.099119
O O4 0.370399 0.303234 0.271041
O O5 0.366358 0.545992 0.223603
O O6 0.452353 0.948007 0.358398
O O7 0.730689 0.145349 0.228070
O O8 0.838518 0.125807 0.355794
O O9 0.500000 0.500000 0.000000
O O10 0.713162 0.442893 0.979711
O O11 0.470408 0.281167 0.398163
O O12 0.796175 0.530946 0.281070
O O13 0.118320 0.640463 0.166728
O O14 0.569231 0.119693 0.110448
O O15 0.000000 0.500000 0.000000
O O16 0.667338 0.397841 0.532919
O O17 0.116354 0.787494 0.466605
#
# Coordination Sequence:
#
# PCOD9046875 Si02
#       8
#     2   2   2   2   2   2   2   2
#     4  11  25  44  68  99 137 181 228 282 344 409
#     4  10  25  42  66  97 136 178 224 279 341 405
#     4  12  26  45  70 101 137 181 230 285 345 412
#     4  10  24  43  69 100 136 180 230 284 340 405
#     4  12  25  45  71  99 134 179 228 283 342 407
#     4  11  24  42  67  97 135 179 225 278 339 405
#     4  11  24  42  67  98 134 178 227 279 337 404
#     4  11  25  43  67  99 134 176 226 280 339 405
#
# _framework density 27.092231999999999
#
# number of rings (size 3 to 8) (size 9 to 14) (size 15 to 20)
#    0.000    1.000    0.000    5.250    0.000   15.000 
#    0.000    0.000    0.000    0.000    0.000    0.000 
#    0.000    0.000    0.000    0.000    0.000    0.000 
#
# Total GULP energy -89974.821910 kJ/mol
# GULP energy per Si atom -5623.426369 kJ/mol
# Density = 2.703057 g / cm^3
# Si number density = 27.092232 Si / 1000 Ang^3
#
#
#
# Elastic Constant Matrix: (Units=GPa)
#
#
# Indices 1 2 3 4 5 6 
#
# 1 142.4381 16.6335 30.5175 1.4092 -6.9247 0.3839
# 2 16.6335 113.4990 16.7011 -3.3265 -12.8632 13.9640
# 3 30.5175 16.7011 91.9143 -0.5938 -0.2946 12.8997
# 4 1.4092 -3.3265 -0.5938 47.7077 -2.2971 -2.3066
# 5 -6.9247 -12.8632 -0.2946 -2.2971 50.5697 2.0300
# 6 0.3839 13.9640 12.8997 -2.3066 2.0300 38.1632
#
#
#
# Elastic Compliance Matrix: (Units=1/GPa)
#
#
# Indices 1 2 3 4 5 6 
#
# 1 0.007698 -0.000796 -0.002554 -0.000227 0.000786 0.001021
# 2 -0.000796 0.009796 -0.001037 0.000655 0.002540 -0.003321
# 3 -0.002554 -0.001037 0.012446 -0.000044 -0.000391 -0.003783
# 4 -0.000227 0.000655 -0.000044 0.021112 0.001054 0.000997
# 5 0.000786 0.002540 -0.000391 0.001054 0.020648 -0.001840
# 6 0.001021 -0.003321 -0.003783 0.000997 -0.001840 0.028845
#
#
# Mechanical properties :
#
#
# Convention : Reuss Voigt Hill
#
# Bulk Modulus (GPa) = 47.24547 52.83951 50.04249
# Shear Modulus (GPa) = 42.96539 46.22141 44.59340
#
# Velocity S-wave (km/s) = 3.98665 4.13495 4.06148
# Velocity P-wave (km/s) = 6.21834 6.50715 6.36438
#
# Compressibility (1/GPa) = 0.02116605
#
# Stress axis : x y z
#
# Youngs Moduli (GPa) = 129.89807 102.08739 80.35032
#
# Poissons Ratio (x) = 0.08123 0.20519
# Poissons Ratio (y) = 0.10336 0.08334
# Poissons Ratio (z) = 0.33172 0.10589
#
# Static dielectric constant tensor:
#      x y z
#    x 2.103200 -0.001610 0.003220 
#    y -0.001610 2.020580 0.002130 
#    z 0.003220 0.002130 2.111620 
# 
# From -- ./inp_files/568762.got.cif
#   From: 2010.05.17/outbox.cif.g08.bks.cpg/sg2_285_cif.got.tgz:568762.got - 2010.06.03 11:33:40.
