data_PCOD9046476
_publ_section_title
;
Structure prediction by ZEFSAII (Michael W. Deem and Ramdas Pophale) SiO2 
 PCOD9046476
Probable space group: P -1
;
_chemical_formula_sum "Si O2"
_cell_formula_units_Z 12
_cell_length_a 7.264991
_cell_length_b 8.667017
_cell_length_c 11.748886
_cell_angle_alpha 114.365106
_cell_angle_beta 124.612778
_cell_angle_gamma 54.540619
_cell_volume 492.102341
_symmetry_space_group_name_H-M "P -1"
_symmetry_group_IT_number 2
_symmetry_cell_setting 'triclinic'
loop_
_space_group_symop_operation_xyz
x,y,z
-x,-y,-z
loop_
_atom_site_type_symbol
_atom_site_label
_atom_site_fract_x
_atom_site_fract_y
_atom_site_fract_z
Si Si1 0.767855 0.358615 0.431790
Si Si2 0.825260 0.558647 0.297981
Si Si3 0.670290 0.320061 0.727393
Si Si4 0.205800 0.999164 0.758754
Si Si5 0.641618 0.068240 0.952038
Si Si6 0.107848 0.678556 0.972470
O O1 0.877919 0.384223 0.353823
O O2 0.484829 0.530170 0.378699
O O3 0.959582 0.378173 0.590998
O O4 0.759605 0.160460 0.368081
O O5 0.554338 0.707761 0.299733
O O6 0.831787 0.474420 0.150650
O O7 0.781417 0.406318 0.890626
O O8 0.911399 0.133399 0.715685
O O9 0.364815 0.113191 0.827240
O O10 0.328774 0.904269 0.894921
O O11 0.753384 0.193555 0.970302
O O12 0.819067 0.841059 0.924792
#
# Coordination Sequence:
#
# PCOD9046476 Si02
#       6
#     2   2   2   2   2   2
#     4   9  19  35  53  80 107 139 174 215 259 314
#     4   9  18  34  52  82 105 138 175 216 259 311
#     4   9  19  32  58  82 100 138 178 219 261 301
#     4  10  18  35  53  79 109 138 176 214 263 317
#     4   9  19  31  54  81 106 140 172 221 266 301
#     4  10  17  34  56  79 106 134 179 220 259 310
#
# _framework density 24.385175
#
# number of rings (size 3 to 8) (size 9 to 14) (size 15 to 20)
#    1.000    1.667    1.667    0.500    0.000    0.667 
#    0.000   15.833    0.000    2.000    0.000    1.167 
#    0.000    0.000    0.000    0.000    0.000    0.000 
#
# Total GULP energy -67048.231335 kJ/mol
# GULP energy per Si atom -5587.352611 kJ/mol
# Density = 2.432967 g / cm^3
# Si number density = 24.385175 Si / 1000 Ang^3
#
#
#
# Elastic Constant Matrix: (Units=GPa)
#
#
# Indices 1 2 3 4 5 6 
#
# 1 68.5014 27.1887 18.4704 -11.2436 21.9217 -13.8092
# 2 27.1887 94.1976 53.3872 -14.8427 36.3900 -16.2009
# 3 18.4704 53.3872 98.1658 -27.0489 43.7735 -1.6293
# 4 -11.2436 -14.8427 -27.0489 28.2435 9.1415 11.8224
# 5 21.9217 36.3900 43.7735 9.1415 28.9716 -23.4189
# 6 -13.8092 -16.2009 -1.6293 11.8224 -23.4189 23.8702
#
#
#
# Elastic Compliance Matrix: (Units=1/GPa)
#
#
# Indices 1 2 3 4 5 6 
#
# 1 0.017813 -0.002654 -0.002142 -0.000393 0.000623 0.009163
# 2 -0.002654 0.018376 -0.007700 -0.000287 -0.003954 0.006674
# 3 -0.002142 -0.007700 0.006323 -0.008480 0.014168 0.012067
# 4 -0.000393 -0.000287 -0.008480 0.010033 0.026478 0.020007
# 5 0.000623 -0.003954 0.014168 0.026478 -0.011823 -0.026069
# 6 0.009163 0.006674 0.012067 0.020007 -0.026069 0.017063
#
#
# Mechanical properties :
#
#
# Convention : Reuss Voigt Hill
#
# Bulk Modulus (GPa) = 57.07734 50.99527 54.03631
# Shear Modulus (GPa) = 56.42337 27.00495 41.71416
#
# Velocity S-wave (km/s) = 4.81546 3.33142 4.14047
# Velocity P-wave (km/s) = 7.37398 5.97960 6.71309
#
# Compressibility (1/GPa) = 0.01752009
#
# Stress axis : x y z
#
# Youngs Moduli (GPa) = 56.14026 54.41925 158.14658
#
# Poissons Ratio (x) = 0.14442 0.33881
# Poissons Ratio (y) = 0.14898 1.21767
# Poissons Ratio (z) = 0.12027 0.41901
#
# Static dielectric constant tensor:
#      x y z
#    x 2.028030 0.032920 -0.053160 
#    y 0.032920 1.956510 -0.076140 
#    z -0.053160 -0.076140 1.912130 
# 
# From -- ./inp_files/241831.got.cif
#   From: 2010.05.17/outbox.cif.g08.bks.cpg/sg2_121_cif.got.tgz:241831.got - 2010.06.03 11:33:40.
