data_PCOD9046197
_publ_section_title
;
Structure prediction by ZEFSAII (Michael W. Deem and Ramdas Pophale) SiO2 
 PCOD9046197
Probable space group: P -1
;
_chemical_formula_sum "Si O2"
_cell_formula_units_Z 15
_cell_length_a 9.160118
_cell_length_b 13.005106
_cell_length_c 9.115812
_cell_angle_alpha 117.805192
_cell_angle_beta 100.860384
_cell_angle_gamma 48.751752
_cell_volume 710.528500
_symmetry_space_group_name_H-M "P -1"
_symmetry_group_IT_number 2
_symmetry_cell_setting 'triclinic'
loop_
_space_group_symop_operation_xyz
x,y,z
-x,-y,-z
loop_
_atom_site_type_symbol
_atom_site_label
_atom_site_fract_x
_atom_site_fract_y
_atom_site_fract_z
Si Si1 0.688560 0.050980 0.163767
Si Si2 0.741537 0.801802 0.827722
Si Si3 0.250382 0.512150 0.063535
Si Si4 0.310085 0.743037 0.124735
Si Si5 0.293390 0.130290 0.463822
Si Si6 0.000000 0.000000 0.000000
Si Si7 0.797173 0.038403 0.507223
Si Si8 0.030748 0.466545 0.751132
O O1 0.460698 0.159434 0.146734
O O2 0.705558 0.055266 0.343845
O O3 0.804546 0.090822 0.129219
O O4 0.779768 0.882055 0.008421
O O5 0.700890 0.885219 0.720390
O O6 0.915478 0.619448 0.732100
O O7 0.238380 0.654323 0.112359
O O8 0.133906 0.531728 0.200826
O O9 0.485340 0.369328 0.000802
O O10 0.143482 0.486528 0.905642
O O11 0.340116 0.811221 0.316284
O O12 0.139132 0.884450 0.087086
O O13 0.194004 0.303889 0.595890
O O14 0.500000 0.000000 0.500000
O O15 0.157897 0.100962 0.487504
O O16 0.000000 0.000000 0.500000
#
# Coordination Sequence:
#
# PCOD9046197 Si02
#       8
#     2   2   2   2   2   1   2   2
#     4  11  25  42  69 102 138 184 228 287 343 408
#     4  11  25  45  69 101 142 177 236 286 345 409
#     4  10  24  42  68  98 136 182 230 276 353 406
#     4  11  23  43  68  99 136 184 228 287 337 420
#     4  12  25  44  71 103 137 180 230 287 349 414
#     4  12  22  40  68  98 136 174 234 276 342 392
#     4  12  24  42  69 100 140 180 231 280 346 415
#     4  11  24  42  70  98 139 180 229 290 339 412
#
# _framework density 21.111048
#
# number of rings (size 3 to 8) (size 9 to 14) (size 15 to 20)
#    0.000    0.800    2.667    4.400    3.733    1.067 
#    0.000    0.000    0.000    3.200    0.000    0.000 
#    0.000    0.000    0.000    0.000    0.000    0.000 
#
# Total GULP energy -83569.435980 kJ/mol
# GULP energy per Si atom -5571.295732 kJ/mol
# Density = 2.106300 g / cm^3
# Si number density = 21.111048 Si / 1000 Ang^3
#
#
#
# Elastic Constant Matrix: (Units=GPa)
#
#
# Indices 1 2 3 4 5 6 
#
# 1 53.7586 18.2064 18.5497 -18.7350 2.9303 -1.2677
# 2 18.2064 101.4827 46.7396 2.1222 8.6234 -10.3416
# 3 18.5497 46.7396 114.8423 1.4249 8.3103 3.5368
# 4 -18.7350 2.1222 1.4249 32.1937 6.7001 -3.6751
# 5 2.9303 8.6234 8.3103 6.7001 26.6562 0.5569
# 6 -1.2677 -10.3416 3.5368 -3.6751 0.5569 26.9378
#
#
#
# Elastic Compliance Matrix: (Units=1/GPa)
#
#
# Indices 1 2 3 4 5 6 
#
# 1 0.027236 -0.003064 -0.003063 0.017691 -0.005558 0.003036
# 2 -0.003064 0.013484 -0.004984 -0.001350 -0.002248 0.005549
# 3 -0.003063 -0.004984 0.011448 -0.002193 -0.000988 -0.003840
# 4 0.017691 -0.001350 -0.002193 0.044890 -0.012253 0.006980
# 5 -0.005558 -0.002248 -0.000988 -0.012253 0.042315 -0.003541
# 6 0.003036 0.005549 -0.003840 0.006980 -0.003541 0.040925
#
#
# Mechanical properties :
#
#
# Convention : Reuss Voigt Hill
#
# Bulk Modulus (GPa) = 33.39417 48.56390 40.97904
# Shear Modulus (GPa) = 23.52907 29.59671 26.56289
#
# Velocity S-wave (km/s) = 3.34209 3.74833 3.55102
# Velocity P-wave (km/s) = 5.54486 6.46431 6.02216
#
# Compressibility (1/GPa) = 0.02994534
#
# Stress axis : x y z
#
# Youngs Moduli (GPa) = 36.71599 74.16224 87.35183
#
# Poissons Ratio (x) = 0.22721 0.26757
# Poissons Ratio (y) = 0.11249 0.43540
# Poissons Ratio (z) = 0.11247 0.36966
#
# Static dielectric constant tensor:
#      x y z
#    x 1.803970 0.017760 0.004840 
#    y 0.017760 1.750990 0.022560 
#    z 0.004840 0.022560 1.769430 
# 
# From -- ./inp_files/158908.got.cif
#   From: 2010.05.17/outbox.cif.g08.bks.cpg/sg2_80_cif.got.tgz:158908.got - 2010.06.03 11:33:40.
