data_PCOD9046667
_publ_section_title
;
Structure prediction by ZEFSAII (Michael W. Deem and Ramdas Pophale) SiO2 
 PCOD9046667
Probable space group: P -1
;
_chemical_formula_sum "Si O2"
_cell_formula_units_Z 16
_cell_length_a 6.903897
_cell_length_b 12.009393
_cell_length_c 14.645681
_cell_angle_alpha 89.854812
_cell_angle_beta 45.683196
_cell_angle_gamma 111.316018
_cell_volume 747.052917
_symmetry_space_group_name_H-M "P -1"
_symmetry_group_IT_number 2
_symmetry_cell_setting 'triclinic'
loop_
_space_group_symop_operation_xyz
x,y,z
-x,-y,-z
loop_
_atom_site_type_symbol
_atom_site_label
_atom_site_fract_x
_atom_site_fract_y
_atom_site_fract_z
Si Si1 0.300731 0.524848 0.842112
Si Si2 0.744051 0.475903 0.362658
Si Si3 0.565933 0.940332 0.693476
Si Si4 0.196552 0.191385 0.256162
Si Si5 0.460519 0.821308 0.538927
Si Si6 0.562890 0.339356 0.790436
Si Si7 0.125531 0.134086 0.074533
Si Si8 0.627806 0.866561 0.282597
O O1 0.252326 0.506829 0.748565
O O2 0.578386 0.670930 0.771081
O O3 0.404201 0.426177 0.844665
O O4 0.000000 0.500000 0.000000
O O5 0.500000 0.500000 0.500000
O O6 0.660513 0.329192 0.407184
O O7 0.084585 0.574628 0.291714
O O8 0.740577 0.910960 0.713827
O O9 0.626836 0.895520 0.576441
O O10 0.185613 0.853647 0.835135
O O11 0.606140 0.081371 0.669611
O O12 0.270252 0.192572 0.124963
O O13 0.840087 0.160959 0.376467
O O14 0.655802 0.870239 0.381878
O O15 0.515187 0.277053 0.706383
O O16 0.375915 0.212764 0.915508
O O17 0.965471 0.978036 0.131439
#
# Coordination Sequence:
#
# PCOD9046667 Si02
#       8
#     2   2   2   2   2   2   2   2
#     4  12  26  43  74 105 136 184 238 288 344 417
#     4  12  28  46  68 105 144 181 235 288 347 425
#     4   9  21  41  65  98 133 172 232 282 326 410
#     4  11  21  40  70  97 129 177 227 286 340 391
#     4  11  22  43  67  97 133 179 231 283 341 402
#     4  12  25  46  70  98 146 186 220 288 354 401
#     4   9  23  43  65  99 132 175 229 278 336 406
#     4  10  24  43  66  97 141 184 221 279 345 414
#
# _framework density 21.417494000000001
#
# number of rings (size 3 to 8) (size 9 to 14) (size 15 to 20)
#    0.750    0.500    2.500    3.000    3.500    2.500 
#    4.500    0.625    0.000    0.000    0.000    0.000 
#    0.000    0.000    0.000    0.000    0.000    0.000 
#
# Total GULP energy -89439.826134 kJ/mol
# GULP energy per Si atom -5589.989133 kJ/mol
# Density = 2.136875 g / cm^3
# Si number density = 21.417494 Si / 1000 Ang^3
#
#
#
# Elastic Constant Matrix: (Units=GPa)
#
#
# Indices 1 2 3 4 5 6 
#
# 1 101.6309 15.0171 40.5271 12.1681 0.9556 9.1227
# 2 15.0171 79.5158 20.3401 4.5928 -8.7245 23.7105
# 3 40.5271 20.3401 89.4535 3.3428 3.6729 1.0609
# 4 12.1681 4.5928 3.3428 31.6747 1.5167 10.1895
# 5 0.9556 -8.7245 3.6729 1.5167 17.1538 -2.7205
# 6 9.1227 23.7105 1.0609 10.1895 -2.7205 23.9631
#
#
#
# Elastic Compliance Matrix: (Units=1/GPa)
#
#
# Indices 1 2 3 4 5 6 
#
# 1 0.012768 0.000328 -0.005714 -0.003241 0.000409 -0.003508
# 2 0.000328 0.020788 -0.005094 0.003836 0.007944 -0.021197
# 3 -0.005714 -0.005094 0.015052 -0.000446 -0.004468 0.006231
# 4 -0.003241 0.003836 -0.000446 0.038794 -0.004300 -0.019526
# 5 0.000409 0.007944 -0.004468 -0.004300 0.063850 0.001259
# 6 -0.003508 -0.021197 0.006231 -0.019526 0.001259 0.072210
#
#
# Mechanical properties :
#
#
# Convention : Reuss Voigt Hill
#
# Bulk Modulus (GPa) = 36.16561 46.92988 41.54774
# Shear Modulus (GPa) = 19.71321 27.53939 23.62630
#
# Velocity S-wave (km/s) = 3.03714 3.58975 3.32494
# Velocity P-wave (km/s) = 5.40571 6.25629 5.84649
#
# Compressibility (1/GPa) = 0.02765058
#
# Stress axis : x y z
#
# Youngs Moduli (GPa) = 78.31795 48.10486 66.43673
#
# Poissons Ratio (x) = -0.01580 0.37959
# Poissons Ratio (y) = -0.02572 0.33841
# Poissons Ratio (z) = 0.44747 0.24503
#
# Static dielectric constant tensor:
#      x y z
#    x 1.738080 0.006280 0.008810 
#    y 0.006280 1.790650 0.010610 
#    z 0.008810 0.010610 1.801910 
# 
# From -- ./inp_files/482825.got.cif
#   From: 2010.05.17/outbox.cif.g08.bks.cpg/sg2_242_cif.got.tgz:482825.got - 2010.06.03 11:33:40.
