data_PCOD9046472
_publ_section_title
;
Structure prediction by ZEFSAII (Michael W. Deem and Ramdas Pophale) SiO2 
 PCOD9046472
Probable space group: P -1
;
_chemical_formula_sum "Si O2"
_cell_formula_units_Z 13
_cell_length_a 11.467680
_cell_length_b 10.950098
_cell_length_c 14.780078
_cell_angle_alpha 40.094903
_cell_angle_beta 149.869759
_cell_angle_gamma 139.935100
_cell_volume 568.322151
_symmetry_space_group_name_H-M "P -1"
_symmetry_group_IT_number 2
_symmetry_cell_setting 'triclinic'
loop_
_space_group_symop_operation_xyz
x,y,z
-x,-y,-z
loop_
_atom_site_type_symbol
_atom_site_label
_atom_site_fract_x
_atom_site_fract_y
_atom_site_fract_z
Si Si1 0.500000 0.500000 0.000000
Si Si2 0.664233 0.882952 0.129608
Si Si3 0.206680 0.278427 0.511953
Si Si4 0.479428 0.257108 0.537031
Si Si5 0.284249 0.070743 0.179370
Si Si6 0.892930 0.793727 0.840829
Si Si7 0.201676 0.588029 0.897186
O O1 0.446826 0.264721 0.124818
O O2 0.755624 0.506146 0.115155
O O3 0.802533 0.810837 0.344259
O O4 0.475782 0.694154 0.059366
O O5 0.856026 0.029526 0.107924
O O6 0.500000 0.000000 0.000000
O O7 0.374738 0.203656 0.598166
O O8 0.335703 0.517982 0.467719
O O9 0.945754 0.257855 0.303662
O O10 0.251426 0.255401 0.321866
O O11 0.606280 0.105522 0.668079
O O12 0.274670 0.134525 0.241280
O O13 0.000000 0.000000 0.000000
O O14 0.929144 0.593871 0.019873
#
# Coordination Sequence:
#
# PCOD9046472 Si02
#       7
#     1   2   2   2   2   2   2
#     4  10  24  42  74 100 140 184 236 288 350 418
#     4  12  28  44  72 107 142 189 237 289 355 426
#     4  11  27  45  74 105 145 194 231 293 356 425
#     4  11  24  46  72 104 145 185 244 288 359 423
#     4  11  24  45  72 102 140 189 235 297 351 422
#     4  11  25  46  73 104 141 187 234 301 352 415
#     4  11  25  50  70 104 146 183 240 293 352 423
#
# _framework density 22.87435
#
# number of rings (size 3 to 8) (size 9 to 14) (size 15 to 20)
#    0.000    0.923    1.538    4.154   10.769    2.462 
#    0.000    1.538    0.000    0.000    0.000    0.000 
#    0.000    0.000    0.000    0.000    0.000    0.000 
#
# Total GULP energy -72560.276917 kJ/mol
# GULP energy per Si atom -5581.559763 kJ/mol
# Density = 2.282229 g / cm^3
# Si number density = 22.874350 Si / 1000 Ang^3
#
#
#
# Elastic Constant Matrix: (Units=GPa)
#
#
# Indices 1 2 3 4 5 6 
#
# 1 74.6445 22.6086 28.6172 -15.1143 -6.4523 16.0017
# 2 22.6086 115.1722 27.6293 -10.0219 -16.4671 33.2624
# 3 28.6172 27.6293 108.3057 -7.4278 -1.9249 17.6476
# 4 -15.1143 -10.0219 -7.4278 29.3173 -6.5494 -5.4486
# 5 -6.4523 -16.4671 -1.9249 -6.5494 29.4321 -14.3766
# 6 16.0017 33.2624 17.6476 -5.4486 -14.3766 40.5587
#
#
#
# Elastic Compliance Matrix: (Units=1/GPa)
#
#
# Indices 1 2 3 4 5 6 
#
# 1 0.017436 -0.000631 -0.003420 0.008355 0.003958 -0.002348
# 2 -0.000631 0.012030 -0.001446 0.002845 0.003541 -0.007350
# 3 -0.003420 -0.001446 0.010940 -0.000657 -0.002563 -0.003222
# 4 0.008355 0.002845 -0.000657 0.044038 0.016278 0.006342
# 5 0.003958 0.003541 -0.002563 0.016278 0.048027 0.015861
# 6 -0.002348 -0.007350 -0.003222 0.006342 0.015861 0.039486
#
#
# Mechanical properties :
#
#
# Convention : Reuss Voigt Hill
#
# Bulk Modulus (GPa) = 34.00097 50.64807 42.32452
# Shear Modulus (GPa) = 25.93933 34.47945 30.20939
#
# Velocity S-wave (km/s) = 3.37113 3.88666 3.63804
# Velocity P-wave (km/s) = 5.48172 6.50626 6.01584
#
# Compressibility (1/GPa) = 0.02941093
#
# Stress axis : x y z
#
# Youngs Moduli (GPa) = 57.35109 83.12412 91.40680
#
# Poissons Ratio (x) = 0.05248 0.31263
# Poissons Ratio (y) = 0.03621 0.13221
# Poissons Ratio (z) = 0.19615 0.12023
#
# Static dielectric constant tensor:
#      x y z
#    x 1.870650 -0.056390 -0.031850 
#    y -0.056390 1.888920 0.035890 
#    z -0.031850 0.035890 1.872120 
# 
# From -- ./inp_files/449605.got.cif
#   From: 2010.05.17/outbox.cif.g08.bks.cpg/sg2_225_cif.got.tgz:449605.got - 2010.06.03 11:33:40.
