data_PCOD9046949
_publ_section_title
;
Structure prediction by ZEFSAII (Michael W. Deem and Ramdas Pophale) SiO2 
 PCOD9046949
Probable space group: P -1
;
_chemical_formula_sum "Si O2"
_cell_formula_units_Z 14
_cell_length_a 9.382928
_cell_length_b 15.217792
_cell_length_c 14.901380
_cell_angle_alpha 140.647734
_cell_angle_beta 39.962176
_cell_angle_gamma 152.020620
_cell_volume 607.465272
_symmetry_space_group_name_H-M "P -1"
_symmetry_group_IT_number 2
_symmetry_cell_setting 'triclinic'
loop_
_space_group_symop_operation_xyz
x,y,z
-x,-y,-z
loop_
_atom_site_type_symbol
_atom_site_label
_atom_site_fract_x
_atom_site_fract_y
_atom_site_fract_z
Si Si1 0.185646 0.883223 0.349548
Si Si2 0.469563 0.352993 0.459899
Si Si3 0.783473 0.613382 0.691850
Si Si4 0.807012 0.259850 0.252359
Si Si5 0.816458 0.721135 0.053469
Si Si6 0.876375 0.593628 0.104980
Si Si7 0.376612 0.049177 0.675454
O O1 0.335750 0.828509 0.294960
O O2 0.907532 0.841482 0.502520
O O3 0.015168 0.752768 0.240896
O O4 0.493939 0.099999 0.337494
O O5 0.500000 0.500000 0.500000
O O6 0.632897 0.463732 0.563635
O O7 0.688783 0.327924 0.297633
O O8 0.501999 0.578494 0.840521
O O9 0.917135 0.581999 0.684968
O O10 0.066750 0.836669 0.697850
O O11 0.931006 0.185993 0.076105
O O12 0.947308 0.697417 0.058014
O O13 0.720862 0.837491 0.211601
O O14 0.500000 0.500000 0.000000
O O15 0.000000 0.500000 0.000000
O O16 0.500000 0.000000 0.500000
#
# Coordination Sequence:
#
# PCOD9046949 Si02
#       7
#     2   2   2   2   2   2   2
#     4  10  25  44  68 100 141 183 227 287 351 404
#     4  11  24  41  70 102 140 186 232 284 345 407
#     4  10  24  43  69  97 135 187 229 276 351 409
#     4  11  25  44  69  99 140 182 237 283 342 419
#     4  12  27  45  74 104 136 185 239 286 348 414
#     4  11  25  44  69  98 145 178 228 290 355 408
#     4  11  26  47  74 101 140 182 237 283 341 425
#
# _framework density 23.046582999999998
#
# number of rings (size 3 to 8) (size 9 to 14) (size 15 to 20)
#    0.000    1.143    1.429    2.571   10.000    8.571 
#    0.000    0.000    0.000    0.000    0.000    0.000 
#    0.000    0.000    0.000    0.000    0.000    0.000 
#
# Total GULP energy -78209.348688 kJ/mol
# GULP energy per Si atom -5586.382049 kJ/mol
# Density = 2.299413 g / cm^3
# Si number density = 23.046583 Si / 1000 Ang^3
#
#
#
# Elastic Constant Matrix: (Units=GPa)
#
#
# Indices 1 2 3 4 5 6 
#
# 1 157.3010 29.0602 60.0121 -9.7267 -24.6623 8.1134
# 2 29.0602 93.4330 29.4057 -19.9850 -12.2681 13.8051
# 3 60.0121 29.4057 112.2827 -12.1166 -26.2148 -2.5738
# 4 -9.7267 -19.9850 -12.1166 32.7869 1.9387 -7.4379
# 5 -24.6623 -12.2681 -26.2148 1.9387 48.1345 -0.5470
# 6 8.1134 13.8051 -2.5738 -7.4379 -0.5470 34.6322
#
#
#
# Elastic Compliance Matrix: (Units=1/GPa)
#
#
# Indices 1 2 3 4 5 6 
#
# 1 0.008387 -0.000865 -0.003840 0.000000 0.001964 -0.001874
# 2 -0.000865 0.013832 -0.002200 0.006341 0.001582 -0.004088
# 3 -0.003840 -0.002200 0.012957 0.002819 0.004453 0.003416
# 4 0.000000 0.006341 0.002819 0.036566 0.001742 0.005563
# 5 0.001964 0.001582 0.004453 0.001742 0.024540 0.000002
# 6 -0.001874 -0.004088 0.003416 0.005563 0.000002 0.032392
#
#
# Mechanical properties :
#
#
# Convention : Reuss Voigt Hill
#
# Bulk Modulus (GPa) = 46.80572 66.66362 56.73467
# Shear Modulus (GPa) = 33.42084 39.41333 36.41708
#
# Velocity S-wave (km/s) = 3.81221 4.13989 3.97942
# Velocity P-wave (km/s) = 6.30321 7.20000 6.76648
#
# Compressibility (1/GPa) = 0.02136491
#
# Stress axis : x y z
#
# Youngs Moduli (GPa) = 119.23525 72.29398 77.17686
#
# Poissons Ratio (x) = 0.06253 0.29639
# Poissons Ratio (y) = 0.10314 0.16981
# Poissons Ratio (z) = 0.45792 0.15907
#
# Static dielectric constant tensor:
#      x y z
#    x 1.926360 -0.047820 -0.012420 
#    y -0.047820 1.882680 -0.023180 
#    z -0.012420 -0.023180 1.938950 
# 
# From -- ./inp_files/155085.got.cif
#   From: 2010.05.17/outbox.cif.g08.bks.cpg/sg2_78_cif.got.tgz:155085.got - 2010.06.03 11:33:40.
