data_PCOD9046295
_publ_section_title
;
Structure prediction by ZEFSAII (Michael W. Deem and Ramdas Pophale) SiO2 
 PCOD9046295
Probable space group: P -1
;
_chemical_formula_sum "Si O2"
_cell_formula_units_Z 14
_cell_length_a 16.619333
_cell_length_b 8.724530
_cell_length_c 8.840326
_cell_angle_alpha 67.007545
_cell_angle_beta 123.415896
_cell_angle_gamma 144.829719
_cell_volume 611.535497
_symmetry_space_group_name_H-M "P -1"
_symmetry_group_IT_number 2
_symmetry_cell_setting 'triclinic'
loop_
_space_group_symop_operation_xyz
x,y,z
-x,-y,-z
loop_
_atom_site_type_symbol
_atom_site_label
_atom_site_fract_x
_atom_site_fract_y
_atom_site_fract_z
Si Si1 0.080944 0.598849 0.881021
Si Si2 0.069908 0.286504 0.456879
Si Si3 0.516630 0.408908 0.200998
Si Si4 0.245936 0.338579 0.408531
Si Si5 0.933014 0.739941 0.201390
Si Si6 0.554618 0.919395 0.986757
Si Si7 0.349663 0.430791 0.165277
O O1 0.029788 0.362353 0.830735
O O2 0.042170 0.716876 0.706250
O O3 0.266646 0.832955 0.970521
O O4 0.000000 0.500000 0.000000
O O5 0.192115 0.438265 0.387928
O O6 0.127410 0.399317 0.642435
O O7 0.000000 0.000000 0.500000
O O8 0.668823 0.633345 0.374175
O O9 0.368706 0.261610 0.207941
O O10 0.500000 0.500000 0.000000
O O11 0.522225 0.235096 0.194133
O O12 0.359439 0.492925 0.325305
O O13 0.094663 0.048167 0.290432
O O14 0.803458 0.689120 0.018052
O O15 0.501174 0.708446 0.133408
O O16 0.500000 0.000000 0.000000
#
# Coordination Sequence:
#
# PCOD9046295 Si02
#       7
#     2   2   2   2   2   2   2
#     4  12  27  47  74 111 148 199 244 307 376 446
#     4  10  24  42  70 103 144 190 245 296 361 436
#     4  10  24  43  70 101 143 194 242 297 368 437
#     4  11  24  43  72 110 142 190 256 308 358 441
#     4  11  24  44  73 104 150 190 244 306 375 435
#     4  11  25  46  74  99 151 194 242 301 383 439
#     4  11  23  44  72 107 142 196 247 307 367 439
#
# _framework density 22.893191999999999
#
# number of rings (size 3 to 8) (size 9 to 14) (size 15 to 20)
#    0.000    1.143    1.429    3.857   14.000    0.000 
#    0.000    0.714    0.000    0.000    0.000    0.000 
#    0.000    0.000    0.000    0.000    0.000    0.000 
#
# Total GULP energy -77982.989034 kJ/mol
# GULP energy per Si atom -5570.213502 kJ/mol
# Density = 2.284109 g / cm^3
# Si number density = 22.893192 Si / 1000 Ang^3
#
#
#
# Elastic Constant Matrix: (Units=GPa)
#
#
# Indices 1 2 3 4 5 6 
#
# 1 232.1362 34.8911 65.7392 0.2460 -25.3811 12.4687
# 2 34.8911 46.8093 32.0869 7.0940 -6.5075 19.1996
# 3 65.7392 32.0869 133.2686 12.1836 -1.5775 4.6896
# 4 0.2460 7.0940 12.1836 16.7206 5.1657 -1.8303
# 5 -25.3811 -6.5075 -1.5775 5.1657 56.1199 -10.0179
# 6 12.4687 19.1996 4.6896 -1.8303 -10.0179 33.5508
#
#
#
# Elastic Compliance Matrix: (Units=1/GPa)
#
#
# Indices 1 2 3 4 5 6 
#
# 1 0.005569 -0.002940 -0.002244 0.002246 0.002025 0.000654
# 2 -0.002940 0.038154 -0.005686 -0.014435 0.000594 -0.020557
# 3 -0.002244 -0.005686 0.010320 -0.004659 -0.000558 0.002224
# 4 0.002246 -0.014435 -0.004659 0.072149 -0.005583 0.010346
# 5 0.002025 0.000594 -0.000558 -0.005583 0.020140 0.004695
# 6 0.000654 -0.020557 0.002224 0.010346 0.004695 0.042982
#
#
# Mechanical properties :
#
#
# Convention : Reuss Voigt Hill
#
# Bulk Modulus (GPa) = 30.95568 75.29430 53.12499
# Shear Modulus (GPa) = 22.54058 39.91139 31.22598
#
# Velocity S-wave (km/s) = 3.14123 4.17990 3.69722
# Velocity P-wave (km/s) = 5.16794 7.50042 6.44065
#
# Compressibility (1/GPa) = 0.03230425
#
# Stress axis : x y z
#
# Youngs Moduli (GPa) = 179.56622 26.20936 96.89539
#
# Poissons Ratio (x) = 0.07706 0.21739
# Poissons Ratio (y) = 0.52795 0.55095
# Poissons Ratio (z) = 0.40287 0.14903
#
# Static dielectric constant tensor:
#      x y z
#    x 2.554210 -0.329510 0.254560 
#    y -0.329510 2.211320 -0.158810 
#    z 0.254560 -0.158810 2.000010 
# 
# From -- ./inp_files/298358.got.cif
#   From: 2010.05.17/outbox.cif.g08.bks.cpg/sg2_150_cif.got.tgz:298358.got - 2010.06.03 11:33:40.
