data_PCOD9046769
_publ_section_title
;
Structure prediction by ZEFSAII (Michael W. Deem and Ramdas Pophale) SiO2 
 PCOD9046769
Probable space group: P -1
;
_chemical_formula_sum "Si O2"
_cell_formula_units_Z 13
_cell_length_a 8.623670
_cell_length_b 6.349912
_cell_length_c 17.595346
_cell_angle_alpha 83.710087
_cell_angle_beta 51.901684
_cell_angle_gamma 114.157401
_cell_volume 597.441298
_symmetry_space_group_name_H-M "P -1"
_symmetry_group_IT_number 2
_symmetry_cell_setting 'triclinic'
loop_
_space_group_symop_operation_xyz
x,y,z
-x,-y,-z
loop_
_atom_site_type_symbol
_atom_site_label
_atom_site_fract_x
_atom_site_fract_y
_atom_site_fract_z
Si Si1 0.500000 0.000000 0.000000
Si Si2 0.928120 0.935023 0.873931
Si Si3 0.745520 0.409639 0.041016
Si Si4 0.181758 0.641294 0.547289
Si Si5 0.260235 0.848219 0.683478
Si Si6 0.670048 0.496112 0.216263
Si Si7 0.829988 0.688290 0.551516
O O1 0.719219 0.966527 0.913495
O O2 0.355248 0.841134 0.971503
O O3 0.091744 0.936017 0.756688
O O4 0.796738 0.651187 0.965876
O O5 0.123149 0.185568 0.859031
O O6 0.581902 0.371912 0.164226
O O7 0.000000 0.500000 0.000000
O O8 0.174627 0.690900 0.635826
O O9 0.169896 0.392617 0.531969
O O10 0.951443 0.597389 0.575241
O O11 0.448294 0.900884 0.424551
O O12 0.235544 0.651478 0.762748
O O13 0.445069 0.438260 0.335488
O O14 0.000000 0.000000 0.500000
#
# Coordination Sequence:
#
# PCOD9046769 Si02
#       7
#     1   2   2   2   2   2   2
#     4  12  28  48  72 104 146 192 246 302 362 432
#     4  12  25  49  71 106 145 191 245 299 368 434
#     4  12  26  49  75 105 145 188 245 308 362 435
#     4  10  24  43  67  99 144 183 235 299 345 433
#     4  11  23  44  70 102 138 188 240 288 364 424
#     4  12  25  44  73 103 140 195 234 297 372 428
#     4  11  23  44  67 104 142 186 239 294 360 428
#
# _framework density 21.759459
#
# number of rings (size 3 to 8) (size 9 to 14) (size 15 to 20)
#    0.000    0.615    6.154    0.923    2.154    1.846 
#    2.769    0.000    0.000    0.000    0.000    0.000 
#    0.000    0.000    0.000    0.000    0.000    0.000 
#
# Total GULP energy -72410.506717 kJ/mol
# GULP energy per Si atom -5570.038978 kJ/mol
# Density = 2.170993 g / cm^3
# Si number density = 21.759459 Si / 1000 Ang^3
#
#
#
# Elastic Constant Matrix: (Units=GPa)
#
#
# Indices 1 2 3 4 5 6 
#
# 1 71.3043 23.1969 30.8106 25.4712 -27.3388 9.9824
# 2 23.1969 125.3423 29.5701 50.6331 9.2984 21.3941
# 3 30.8106 29.5701 61.0018 38.3872 -0.7443 -13.8932
# 4 25.4712 50.6331 38.3872 39.3650 -7.7779 3.3193
# 5 -27.3388 9.2984 -0.7443 -7.7779 37.9823 16.2568
# 6 9.9824 21.3941 -13.8932 3.3193 16.2568 34.4100
#
#
#
# Elastic Compliance Matrix: (Units=1/GPa)
#
#
# Indices 1 2 3 4 5 6 
#
# 1 -0.000819 0.016003 0.044524 -0.072176 -0.031251 0.029991
# 2 0.016003 0.016226 -0.016617 -0.009072 0.017755 -0.028953
# 3 0.044524 -0.016617 -0.054913 0.067252 0.077945 -0.068068
# 4 -0.072176 -0.009072 0.067252 -0.008262 -0.092058 0.098021
# 5 -0.031251 0.017755 0.077945 -0.092058 -0.042946 0.058667
# 6 0.029991 -0.028953 -0.068068 0.098021 0.058667 -0.026293
#
#
# Mechanical properties :
#
#
# Convention : Reuss Voigt Hill
#
# Bulk Modulus (GPa) = 20.69721 47.20040 33.94880
# Shear Modulus (GPa) = -26.49404 33.95617 3.73106
#
# Velocity S-wave (km/s) = -3.49318 3.95463 1.31088
# Velocity P-wave (km/s) = 2.59563 6.52619 4.23402
#
# Compressibility (1/GPa) = 0.04831569
#
# Stress axis : x y z
#
# Youngs Moduli (GPa) = -1221.64747 61.62867 -18.21076
#
# Poissons Ratio (x) = -0.98624 0.81082
# Poissons Ratio (y) = 19.54992 -0.30260
# Poissons Ratio (z) = 54.39258 1.02406
#
# Static dielectric constant tensor:
#      x y z
#    x 1.755090 -0.075010 -0.018810 
#    y -0.075010 1.824230 0.015910 
#    z -0.018810 0.015910 1.817040 
# 
# From -- ./inp_files/26382.got.cif
#   From: 2010.05.17/outbox.cif.g08.bks.cpg/sg2_14_cif.got.tgz:26382.got - 2010.06.03 11:33:40.
