data_PCOD9046405
_publ_section_title
;
Structure prediction by ZEFSAII (Michael W. Deem and Ramdas Pophale) SiO2 
 PCOD9046405
Probable space group: P -1
;
_chemical_formula_sum "Si O2"
_cell_formula_units_Z 12
_cell_length_a 12.085515
_cell_length_b 9.179662
_cell_length_c 14.580774
_cell_angle_alpha 66.805825
_cell_angle_beta 162.694233
_cell_angle_gamma 115.658193
_cell_volume 432.587263
_symmetry_space_group_name_H-M "P -1"
_symmetry_group_IT_number 2
_symmetry_cell_setting 'triclinic'
loop_
_space_group_symop_operation_xyz
x,y,z
-x,-y,-z
loop_
_atom_site_type_symbol
_atom_site_label
_atom_site_fract_x
_atom_site_fract_y
_atom_site_fract_z
Si Si1 0.573795 0.389730 0.703260
Si Si2 0.631001 0.858455 0.757100
Si Si3 0.500000 0.000000 0.000000
Si Si4 0.500000 0.500000 0.000000
Si Si5 0.763223 0.312871 0.684382
Si Si6 0.575119 0.294408 0.936354
Si Si7 0.731362 0.159454 0.331077
O O1 0.543746 0.279023 0.615785
O O2 0.285784 0.510941 0.430923
O O3 0.576188 0.330143 0.822692
O O4 0.000000 0.500000 0.000000
O O5 0.389471 0.813383 0.485555
O O6 0.395767 0.879125 0.655583
O O7 0.810454 0.701490 0.956141
O O8 0.000000 0.000000 0.000000
O O9 0.498368 0.040538 0.103173
O O10 0.161116 0.823329 0.791037
O O11 0.536481 0.434055 0.941133
O O12 0.332935 0.659990 0.788734
O O13 0.182729 0.154565 0.684780
#
# Coordination Sequence:
#
# PCOD9046405 Si02
#       7
#     2   2   1   1   2   2   2
#     4  11  25  45  76 108 147 190 244 309 362 433
#     4  12  28  47  74 108 148 195 240 302 363 441
#     4  10  26  46  68 102 146 188 242 292 374 426
#     4  10  24  42  72 102 140 178 240 296 360 424
#     4  11  26  48  74 111 147 189 249 294 374 427
#     4  11  25  46  72 106 142 192 241 304 363 437
#     4  11  26  44  73 101 144 186 245 296 367 430
#
# _framework density 27.740065999999999
#
# number of rings (size 3 to 8) (size 9 to 14) (size 15 to 20)
#    0.000    1.000    1.667    2.500    9.333    5.333 
#    3.000    0.000    0.000    0.000    0.000    0.000 
#    0.000    0.000    0.000    0.000    0.000    0.000 
#
# Total GULP energy -66891.964821 kJ/mol
# GULP energy per Si atom -5574.330402 kJ/mol
# Density = 2.767693 g / cm^3
# Si number density = 27.740066 Si / 1000 Ang^3
#
#
#
# Elastic Constant Matrix: (Units=GPa)
#
#
# Indices 1 2 3 4 5 6 
#
# 1 341.4004 94.4379 51.4920 7.8505 -27.9577 -20.0661
# 2 94.4379 117.3682 16.9254 -37.0591 -7.7581 -11.3850
# 3 51.4920 16.9254 108.5852 -12.0857 -16.3436 -8.0387
# 4 7.8505 -37.0591 -12.0857 42.4728 -6.6970 -11.6749
# 5 -27.9577 -7.7581 -16.3436 -6.6970 52.9986 0.0460
# 6 -20.0661 -11.3850 -8.0387 -11.6749 0.0460 64.4203
#
#
#
# Elastic Compliance Matrix: (Units=1/GPa)
#
#
# Indices 1 2 3 4 5 6 
#
# 1 0.005095 -0.006150 -0.002322 -0.007247 0.000157 -0.001103
# 2 -0.006150 0.021037 0.003187 0.022716 0.003683 0.006314
# 3 -0.002322 0.003187 0.011445 0.007795 0.003753 0.002678
# 4 -0.007247 0.022716 0.007795 0.051566 0.008412 0.012069
# 5 0.000157 0.003683 0.003753 0.008412 0.021708 0.002677
# 6 -0.001103 0.006314 0.002678 0.012069 0.002677 0.018815
#
#
# Mechanical properties :
#
#
# Convention : Reuss Voigt Hill
#
# Bulk Modulus (GPa) = 37.02666 99.22937 68.12801
# Shear Modulus (GPa) = 33.50352 58.94492 46.22422
#
# Velocity S-wave (km/s) = 3.47906 4.61467 4.08650
# Velocity P-wave (km/s) = 5.43279 8.01513 6.84681
#
# Compressibility (1/GPa) = 0.02700757
#
# Stress axis : x y z
#
# Youngs Moduli (GPa) = 196.26685 47.53484 87.37792
#
# Poissons Ratio (x) = 0.29232 0.20291
# Poissons Ratio (y) = 1.20696 -0.27849
# Poissons Ratio (z) = 0.45578 -0.15150
#
# Static dielectric constant tensor:
#      x y z
#    x 2.182550 -0.163760 0.094780 
#    y -0.163760 0.188970 0.656780 
#    z 0.094780 0.656780 2.206020 
# 
# From -- ./inp_files/62647.got.cif
#   From: 2010.05.17/outbox.cif.g08.bks.cpg/sg2_32_cif.got.tgz:62647.got - 2010.06.03 11:33:40.
