data_PCOD9046393
_publ_section_title
;
Structure prediction by ZEFSAII (Michael W. Deem and Ramdas Pophale) SiO2 
 PCOD9046393
Probable space group: P -1
;
_chemical_formula_sum "Si O2"
_cell_formula_units_Z 15
_cell_length_a 18.915634
_cell_length_b 9.108745
_cell_length_c 5.169563
_cell_angle_alpha 118.009218
_cell_angle_beta 49.752122
_cell_angle_gamma 115.525200
_cell_volume 589.367213
_symmetry_space_group_name_H-M "P -1"
_symmetry_group_IT_number 2
_symmetry_cell_setting 'triclinic'
loop_
_space_group_symop_operation_xyz
x,y,z
-x,-y,-z
loop_
_atom_site_type_symbol
_atom_site_label
_atom_site_fract_x
_atom_site_fract_y
_atom_site_fract_z
Si Si1 0.270855 0.471476 0.582980
Si Si2 0.543780 0.360391 0.427394
Si Si3 0.098322 0.821932 0.465503
Si Si4 0.886044 0.700238 0.804592
Si Si5 0.769721 0.883447 0.859829
Si Si6 0.850690 0.370324 0.320663
Si Si7 0.583620 0.892078 0.150687
Si Si8 0.500000 0.000000 0.000000
O O1 0.356310 0.558134 0.624068
O O2 0.281108 0.291266 0.296188
O O3 0.250068 0.592543 0.501969
O O4 0.176450 0.415221 0.930884
O O5 0.500000 0.500000 0.500000
O O6 0.470294 0.287067 0.767947
O O7 0.550567 0.196200 0.104238
O O8 0.143317 0.749584 0.548891
O O9 0.986194 0.797228 0.747722
O O10 0.151905 0.008527 0.418510
O O11 0.112155 0.715055 0.086912
O O12 0.823711 0.826142 0.929762
O O13 0.902669 0.560190 0.435403
O O14 0.677808 0.970143 0.149887
O O15 0.500000 0.000000 0.500000
O O16 0.589766 0.923063 0.858845
#
# Coordination Sequence:
#
# PCOD9046393 Si02
#       8
#     2   2   2   2   2   2   2   1
#     4  11  26  45  72 108 152 202 251 311 381 462
#     4  11  24  46  71 106 146 195 250 316 385 450
#     4  12  27  46  79 109 155 200 253 312 374 443
#     4  11  25  48  73 108 155 198 253 304 382 454
#     4  11  27  45  69 110 147 200 253 313 381 455
#     4  11  26  46  74 112 150 200 257 306 375 446
#     4  10  24  45  70 102 145 190 251 311 376 453
#     4  10  24  42  72 100 140 188 252 298 384 452
#
# _framework density 25.451025000000001
#
# number of rings (size 3 to 8) (size 9 to 14) (size 15 to 20)
#    0.000    1.067    1.333    2.800    9.333    6.933 
#    2.400    0.000    0.000    0.000    0.000    0.000 
#    0.000    0.000    0.000    0.000    0.000    0.000 
#
# Total GULP energy -83670.477507 kJ/mol
# GULP energy per Si atom -5578.031834 kJ/mol
# Density = 2.539310 g / cm^3
# Si number density = 25.451025 Si / 1000 Ang^3
#
#
#
# Elastic Constant Matrix: (Units=GPa)
#
#
# Indices 1 2 3 4 5 6 
#
# 1 -26.7752 36.0584 18.2210 3.4844 59.4932 -21.9584
# 2 36.0584 112.4652 24.8314 1.9870 8.1153 -13.7471
# 3 18.2210 24.8314 69.9778 -9.9141 4.6781 10.6463
# 4 3.4844 1.9870 -9.9141 36.2980 -4.6243 10.0422
# 5 59.4932 8.1153 4.6781 -4.6243 12.1685 -9.6871
# 6 -21.9584 -13.7471 10.6463 10.0422 -9.6871 55.6803
#
#
#
# Elastic Compliance Matrix: (Units=1/GPa)
#
#
# Indices 1 2 3 4 5 6 
#
# 1 -0.002882 -0.000046 -0.000240 0.001881 0.015998 0.001342
# 2 -0.000046 0.010635 -0.004492 -0.003213 -0.003643 0.003412
# 3 -0.000240 -0.004492 0.018300 0.006420 -0.005909 -0.006889
# 4 0.001881 -0.003213 0.006420 0.030897 -0.003752 -0.007504
# 5 0.015998 -0.003643 -0.005909 -0.003752 0.015069 0.009838
# 6 0.001342 0.003412 -0.006889 -0.007504 0.009838 0.023713
#
#
# Mechanical properties :
#
#
# Convention : Reuss Voigt Hill
#
# Bulk Modulus (GPa) = 60.62793 34.87661 47.75227
# Shear Modulus (GPa) = 45.13131 25.93314 35.53223
#
# Velocity S-wave (km/s) = 4.21558 3.19555 3.74050
# Velocity P-wave (km/s) = 6.89695 5.22959 6.12031
#
# Compressibility (1/GPa) = 0.01649405
#
# Stress axis : x y z
#
# Youngs Moduli (GPa) = -346.94292 94.02773 54.64601
#
# Poissons Ratio (x) = 0.00437 0.01313
# Poissons Ratio (y) = -0.01611 0.24550
# Poissons Ratio (z) = -0.08336 0.42242
#
# Static dielectric constant tensor:
#      x y z
#    x 1.946360 -0.001110 -0.065580 
#    y -0.001110 1.922040 0.179120 
#    z -0.065580 0.179120 2.224430 
# 
# From -- ./inp_files/117298.got.cif
#   From: 2010.05.17/outbox.cif.g08.bks.cpg/sg2_59_cif.got.tgz:117298.got - 2010.06.03 11:33:40.
