data_PCOD9046734
_publ_section_title
;
Structure prediction by ZEFSAII (Michael W. Deem and Ramdas Pophale) SiO2 
 PCOD9046734
Probable space group: P -1
;
_chemical_formula_sum "Si O2"
_cell_formula_units_Z 14
_cell_length_a 16.404086
_cell_length_b 18.184648
_cell_length_c 11.684942
_cell_angle_alpha 30.615813
_cell_angle_beta 146.732497
_cell_angle_gamma 158.266195
_cell_volume 644.772053
_symmetry_space_group_name_H-M "P -1"
_symmetry_group_IT_number 2
_symmetry_cell_setting 'triclinic'
loop_
_space_group_symop_operation_xyz
x,y,z
-x,-y,-z
loop_
_atom_site_type_symbol
_atom_site_label
_atom_site_fract_x
_atom_site_fract_y
_atom_site_fract_z
Si Si1 0.806886 0.950095 0.400816
Si Si2 0.423534 0.845285 0.014142
Si Si3 0.110612 0.732694 0.356190
Si Si4 0.553806 0.991454 0.412613
Si Si5 0.615202 0.451508 0.135003
Si Si6 0.556404 0.495764 0.754588
Si Si7 0.808658 0.600951 0.677446
O O1 0.934808 0.167180 0.327396
O O2 0.669468 0.732848 0.601623
O O3 0.000000 0.000000 0.500000
O O4 0.640162 0.897305 0.183921
O O5 0.381470 0.907825 0.770384
O O6 0.234282 0.590264 0.161855
O O7 0.500000 0.000000 0.000000
O O8 0.326679 0.913629 0.286133
O O9 0.000000 0.500000 0.500000
O O10 0.886453 0.665767 0.178609
O O11 0.238012 0.826087 0.502442
O O12 0.476808 0.768027 0.629727
O O13 0.500000 0.500000 0.000000
O O14 0.553654 0.405992 0.988365
O O15 0.704239 0.533633 0.774663
O O16 0.324349 0.377145 0.583075
#
# Coordination Sequence:
#
# PCOD9046734 Si02
#       7
#     2   2   2   2   2   2   2
#     4   9  20  40  65  93 118 167 212 261 317 381
#     4  11  25  40  63  97 135 164 210 272 326 382
#     4   9  22  44  66  94 125 174 221 262 315 394
#     4  10  24  43  67  95 132 175 219 261 327 394
#     4  11  25  41  68  97 134 169 214 277 327 382
#     4   9  20  38  62  96 125 159 217 264 314 383
#     4   9  20  38  65  92 123 166 213 263 315 380
#
# _framework density 21.713099
#
# number of rings (size 3 to 8) (size 9 to 14) (size 15 to 20)
#    0.000    2.286    0.000    0.857   14.000    3.429 
#    2.571    0.000    0.000    0.000    0.000    0.000 
#    0.000    0.000    0.000    0.000    0.000    0.000 
#
# Total GULP energy -78105.129510 kJ/mol
# GULP energy per Si atom -5578.937822 kJ/mol
# Density = 2.166368 g / cm^3
# Si number density = 21.713099 Si / 1000 Ang^3
#
#
#
# Elastic Constant Matrix: (Units=GPa)
#
#
# Indices 1 2 3 4 5 6 
#
# 1 64.3498 16.5781 22.7950 18.7246 18.7659 -3.8599
# 2 16.5781 136.4135 21.2003 1.2170 14.6004 -11.9876
# 3 22.7950 21.2003 78.2000 0.9052 5.0462 4.5829
# 4 18.7246 1.2170 0.9052 34.5390 1.2679 15.6474
# 5 18.7659 14.6004 5.0462 1.2679 27.8358 6.0567
# 6 -3.8599 -11.9876 4.5829 15.6474 6.0567 27.5640
#
#
#
# Elastic Compliance Matrix: (Units=1/GPa)
#
#
# Indices 1 2 3 4 5 6 
#
# 1 0.045567 0.004996 -0.014229 -0.042892 -0.038313 0.043687
# 2 0.004996 0.009580 -0.004040 -0.008180 -0.009980 0.012374
# 3 -0.014229 -0.004040 0.018153 0.015046 0.011622 -0.017863
# 4 -0.042892 -0.008180 0.015046 0.080998 0.041399 -0.067142
# 5 -0.038313 -0.009980 0.011622 0.041399 0.074189 -0.051441
# 6 0.043687 0.012374 -0.017863 -0.067142 -0.051441 0.100167
#
#
# Mechanical properties :
#
#
# Convention : Reuss Voigt Hill
#
# Bulk Modulus (GPa) = 21.38788 44.45667 32.92228
# Shear Modulus (GPa) = 13.48490 32.54708 23.01599
#
# Velocity S-wave (km/s) = 2.49479 3.87584 3.25930
# Velocity P-wave (km/s) = 4.26266 6.36778 5.41843
#
# Compressibility (1/GPa) = 0.04675546
#
# Stress axis : x y z
#
# Youngs Moduli (GPa) = 21.94548 104.38488 55.08640
#
# Poissons Ratio (x) = -0.52150 0.78381
# Poissons Ratio (y) = -0.10964 0.22254
# Poissons Ratio (z) = 0.31225 0.42171
#
# Static dielectric constant tensor:
#      x y z
#    x 1.829930 -0.021010 0.066570 
#    y -0.021010 1.830660 -0.030590 
#    z 0.066570 -0.030590 1.819800 
# 
# From -- ./inp_files/466568.got.cif
#   From: 2010.05.17/outbox.cif.g08.bks.cpg/sg2_234_cif.got.tgz:466568.got - 2010.06.03 11:33:40.
