data_PCOD9046593
_publ_section_title
;
Structure prediction by ZEFSAII (Michael W. Deem and Ramdas Pophale) SiO2 
 PCOD9046593
Probable space group: P -1
;
_chemical_formula_sum "Si O2"
_cell_formula_units_Z 14
_cell_length_a 8.730507
_cell_length_b 12.241548
_cell_length_c 12.263177
_cell_angle_alpha 87.449117
_cell_angle_beta 75.129295
_cell_angle_gamma 143.241111
_cell_volume 683.532578
_symmetry_space_group_name_H-M "P -1"
_symmetry_group_IT_number 2
_symmetry_cell_setting 'triclinic'
loop_
_space_group_symop_operation_xyz
x,y,z
-x,-y,-z
loop_
_atom_site_type_symbol
_atom_site_label
_atom_site_fract_x
_atom_site_fract_y
_atom_site_fract_z
Si Si1 0.041592 0.470250 0.377491
Si Si2 0.849714 0.814877 0.969848
Si Si3 0.879191 0.805746 0.401256
Si Si4 0.690437 0.886600 0.286614
Si Si5 0.279800 0.513775 0.657896
Si Si6 0.105783 0.864367 0.582187
Si Si7 0.488314 0.416825 0.166038
O O1 0.396806 0.668750 0.296279
O O2 0.899912 0.268921 0.412183
O O3 0.000000 0.500000 0.500000
O O4 0.895770 0.477045 0.329173
O O5 0.608347 0.697224 0.924005
O O6 0.694026 0.637126 0.083159
O O7 0.127947 0.937541 0.841724
O O8 0.000000 0.000000 0.000000
O O9 0.889655 0.903981 0.300882
O O10 0.574590 0.666231 0.523446
O O11 0.882818 0.691483 0.343814
O O12 0.090619 0.911312 0.462976
O O13 0.645393 0.938174 0.396974
O O14 0.349243 0.553924 0.770946
O O15 0.802705 0.714382 0.709279
#
# Coordination Sequence:
#
# PCOD9046593 Si02
#       7
#     2   2   2   2   2   2   2
#     4  12  21  37  53  80 121 158 177 217 275 334
#     4  10  19  36  61  84 104 137 188 238 281 317
#     4  10  17  34  56  81 112 143 186 233 270 321
#     4  11  22  35  57  85 110 146 187 229 278 329
#     4  10  19  34  57  81 113 150 184 220 278 329
#     4  10  21  36  56  84 113 146 186 228 274 330
#     4   9  20  37  59  82 108 141 185 237 274 318
#
# _framework density 20.481833000000002
#
# number of rings (size 3 to 8) (size 9 to 14) (size 15 to 20)
#    0.000    1.714    2.857    3.857    0.000    0.571 
#    0.000    2.143    0.000   12.000    0.000    0.000 
#    0.000    0.000    0.000    0.000    0.000    0.000 
#
# Total GULP energy -77962.555678 kJ/mol
# GULP energy per Si atom -5568.753977 kJ/mol
# Density = 2.043522 g / cm^3
# Si number density = 20.481833 Si / 1000 Ang^3
#
#
#
# Elastic Constant Matrix: (Units=GPa)
#
#
# Indices 1 2 3 4 5 6 
#
# 1 114.2795 46.4270 34.6375 19.4168 33.0029 -3.3483
# 2 46.4270 111.3517 10.2995 18.4646 17.0597 -9.5122
# 3 34.6375 10.2995 65.2706 -2.2399 26.7307 12.7641
# 4 19.4168 18.4646 -2.2399 30.1761 1.7386 -0.5453
# 5 33.0029 17.0597 26.7307 1.7386 25.5203 1.5861
# 6 -3.3483 -9.5122 12.7641 -0.5453 1.5861 23.8382
#
#
#
# Elastic Compliance Matrix: (Units=1/GPa)
#
#
# Indices 1 2 3 4 5 6 
#
# 1 0.017174 -0.002487 -0.002605 -0.008647 -0.017464 0.003779
# 2 -0.002487 0.012043 0.000561 -0.005340 -0.005331 0.004388
# 3 -0.002605 0.000561 0.032034 0.005163 -0.029968 -0.015182
# 4 -0.008647 -0.005340 0.005163 0.041858 0.006842 -0.005608
# 5 -0.017464 -0.005331 -0.029968 0.006842 0.095929 0.005240
# 6 0.003779 0.004388 -0.015182 -0.005608 0.005240 0.051884
#
#
# Mechanical properties :
#
#
# Convention : Reuss Voigt Hill
#
# Bulk Modulus (GPa) = 19.16125 52.62553 35.89339
# Shear Modulus (GPa) = 18.02585 29.20944 23.61764
#
# Velocity S-wave (km/s) = 2.96985 3.78049 3.39942
# Velocity P-wave (km/s) = 4.59734 6.69370 5.74200
#
# Compressibility (1/GPa) = 0.05218866
#
# Stress axis : x y z
#
# Youngs Moduli (GPa) = 58.22812 83.03761 31.21716
#
# Poissons Ratio (x) = 0.20653 0.08132
# Poissons Ratio (y) = 0.14483 -0.01752
# Poissons Ratio (z) = 0.15168 -0.04661
#
# Static dielectric constant tensor:
#      x y z
#    x 1.591790 -0.058660 -0.043430 
#    y -0.058660 1.761680 -0.030000 
#    z -0.043430 -0.030000 1.763340 
# 
# From -- ./inp_files/254226.got.cif
#   From: 2010.05.17/outbox.cif.g08.bks.cpg/sg2_128_cif.got.tgz:254226.got - 2010.06.03 11:33:40.
