data_PCOD9046177
_publ_section_title
;
Structure prediction by ZEFSAII (Michael W. Deem and Ramdas Pophale) SiO2 
 PCOD9046177
Probable space group: P -1
;
_chemical_formula_sum "Si O2"
_cell_formula_units_Z 14
_cell_length_a 11.638171
_cell_length_b 11.421263
_cell_length_c 9.976236
_cell_angle_alpha 73.957019
_cell_angle_beta 73.895074
_cell_angle_gamma 136.002229
_cell_volume 620.414381
_symmetry_space_group_name_H-M "P -1"
_symmetry_group_IT_number 2
_symmetry_cell_setting 'triclinic'
loop_
_space_group_symop_operation_xyz
x,y,z
-x,-y,-z
loop_
_atom_site_type_symbol
_atom_site_label
_atom_site_fract_x
_atom_site_fract_y
_atom_site_fract_z
Si Si1 0.965132 0.872710 0.369268
Si Si2 0.371380 0.988101 0.956128
Si Si3 0.860073 0.049809 0.443862
Si Si4 0.838290 0.591186 0.279306
Si Si5 0.610860 0.470475 0.135661
Si Si6 0.491304 0.345303 0.924863
Si Si7 0.415217 0.029571 0.618134
O O1 0.902654 0.956577 0.392140
O O2 0.810918 0.675136 0.368454
O O3 0.970145 0.798515 0.528950
O O4 0.229629 0.108371 0.150959
O O5 0.377985 0.960108 0.806049
O O6 0.096603 0.759860 0.158665
O O7 0.500000 0.000000 0.000000
O O8 0.494295 0.228219 0.868931
O O9 0.598844 0.806219 0.671843
O O10 0.818615 0.117128 0.326936
O O11 0.815724 0.624533 0.125953
O O12 0.627946 0.313590 0.460937
O O13 0.660305 0.496782 0.953510
O O14 0.513329 0.522247 0.174773
O O15 0.500000 0.000000 0.500000
#
# Coordination Sequence:
#
# PCOD9046177 Si02
#       7
#     2   2   2   2   2   2   2
#     4   9  19  36  63  93 128 162 202 268 323 383
#     4  11  27  45  66  92 130 175 219 267 315 383
#     4   9  20  38  61  92 131 160 209 261 327 375
#     4  10  24  42  68  94 128 164 218 272 322 382
#     4   9  19  36  63  93 128 162 202 268 323 383
#     4   9  20  38  61  92 131 160 209 261 327 375
#     4  11  27  45  66  92 130 175 219 267 315 383
#
# _framework density 22.565560999999999
#
# number of rings (size 3 to 8) (size 9 to 14) (size 15 to 20)
#    0.000    2.286    0.000    0.000   14.000    3.429 
#    0.000    0.000    0.000    0.000    0.000    0.000 
#    0.000    0.000    0.000    0.000    0.000    0.000 
#
# Total GULP energy -78217.949903 kJ/mol
# GULP energy per Si atom -5586.996422 kJ/mol
# Density = 2.251420 g / cm^3
# Si number density = 22.565561 Si / 1000 Ang^3
#
#
#
# Elastic Constant Matrix: (Units=GPa)
#
#
# Indices 1 2 3 4 5 6 
#
# 1 96.5122 1.6608 5.4061 20.1999 2.7606 33.8975
# 2 1.6608 59.8076 -14.0847 12.3673 -8.3992 0.9484
# 3 5.4061 -14.0847 55.4161 23.9289 4.2501 2.0146
# 4 20.1999 12.3673 23.9289 38.8113 0.9361 -1.4000
# 5 2.7606 -8.3992 4.2501 0.9361 29.2493 7.5362
# 6 33.8975 0.9484 2.0146 -1.4000 7.5362 35.6341
#
#
#
# Elastic Compliance Matrix: (Units=1/GPa)
#
#
# Indices 1 2 3 4 5 6 
#
# 1 0.022011 0.006600 0.008526 -0.019790 0.005264 -0.023486
# 2 0.006600 0.025752 0.014906 -0.021396 0.007952 -0.010329
# 3 0.008526 0.014906 0.034661 -0.031061 0.002585 -0.012234
# 4 -0.019790 -0.021396 -0.031061 0.063150 -0.008327 0.025393
# 5 0.005264 0.007952 0.002585 -0.008327 0.039485 -0.014043
# 6 -0.023486 -0.010329 -0.012234 0.025393 -0.014043 0.055339
#
#
# Mechanical properties :
#
#
# Convention : Reuss Voigt Hill
#
# Bulk Modulus (GPa) = 7.01817 21.96673 14.49245
# Shear Modulus (GPa) = 21.94625 35.32252 28.63439
#
# Velocity S-wave (km/s) = 3.12197 3.96072 3.56609
# Velocity P-wave (km/s) = 4.01403 5.53824 4.83656
#
# Compressibility (1/GPa) = 0.14248730
#
# Stress axis : x y z
#
# Youngs Moduli (GPa) = 45.43259 38.83163 28.85124
#
# Poissons Ratio (x) = -0.25631 -0.24598
# Poissons Ratio (y) = -0.29988 -0.43005
# Poissons Ratio (z) = -0.38735 -0.57881
#
# Static dielectric constant tensor:
#      x y z
#    x 1.808960 0.034920 0.003290 
#    y 0.034920 1.861810 -0.030770 
#    z 0.003290 -0.030770 1.919270 
# 
# From -- ./inp_files/168892.got.cif
#   From: 2010.05.17/outbox.cif.g08.bks.cpg/sg2_85_cif.got.tgz:168892.got - 2010.06.03 11:33:40.
