data_PCOD9046815
_publ_section_title
;
Structure prediction by ZEFSAII (Michael W. Deem and Ramdas Pophale) SiO2 
 PCOD9046815
Probable space group: P -1
;
_chemical_formula_sum "Si O2"
_cell_formula_units_Z 14
_cell_length_a 11.131882
_cell_length_b 16.723771
_cell_length_c 4.917784
_cell_angle_alpha 80.851510
_cell_angle_beta 88.417991
_cell_angle_gamma 143.422089
_cell_volume 519.536883
_symmetry_space_group_name_H-M "P -1"
_symmetry_group_IT_number 2
_symmetry_cell_setting 'triclinic'
loop_
_space_group_symop_operation_xyz
x,y,z
-x,-y,-z
loop_
_atom_site_type_symbol
_atom_site_label
_atom_site_fract_x
_atom_site_fract_y
_atom_site_fract_z
Si Si1 0.476023 0.548045 0.221701
Si Si2 0.817964 0.365721 0.402029
Si Si3 0.962528 0.649084 0.874909
Si Si4 0.560826 0.901015 0.148230
Si Si5 0.600672 0.815550 0.667519
Si Si6 0.854946 0.853744 0.238234
Si Si7 0.903729 0.182333 0.718295
O O1 0.500000 0.500000 0.500000
O O2 0.259493 0.473005 0.201071
O O3 0.655919 0.713753 0.152893
O O4 0.500000 0.500000 0.000000
O O5 0.678395 0.227733 0.672227
O O6 0.640971 0.331716 0.333337
O O7 0.000000 0.500000 0.500000
O O8 0.920515 0.371656 0.149309
O O9 0.094022 0.781625 0.601491
O O10 0.965770 0.688586 0.152209
O O11 0.665918 0.926759 0.405156
O O12 0.583482 0.842303 0.953577
O O13 0.678386 0.041000 0.938335
O O14 0.756430 0.833479 0.536445
O O15 0.985904 0.844633 0.279918
O O16 0.000000 0.000000 0.000000
#
# Coordination Sequence:
#
# PCOD9046815 Si02
#       7
#     2   2   2   2   2   2   2
#     4  12  25  48  68 104 145 185 236 293 363 436
#     4  10  25  49  71 102 139 185 244 291 360 426
#     4  12  26  46  74 101 142 189 231 298 358 440
#     4  10  24  45  64 105 137 179 236 285 355 417
#     4  10  24  43  68 104 137 183 233 295 347 413
#     4  12  24  47  75 108 149 188 248 299 360 429
#     4  12  26  45  71 107 141 186 237 290 374 419
#
# _framework density 26.947075999999999
#
# number of rings (size 3 to 8) (size 9 to 14) (size 15 to 20)
#    0.857    0.000    4.286    1.714    2.000    4.571 
#    2.571    0.000    0.000    0.000    0.000    0.000 
#    0.000    0.000    0.000    0.000    0.000    0.000 
#
# Total GULP energy -78456.223792 kJ/mol
# GULP energy per Si atom -5604.015985 kJ/mol
# Density = 2.688574 g / cm^3
# Si number density = 26.947076 Si / 1000 Ang^3
#
#
#
# Elastic Constant Matrix: (Units=GPa)
#
#
# Indices 1 2 3 4 5 6 
#
# 1 116.9324 28.7425 52.6344 -2.7923 -30.7038 0.9334
# 2 28.7425 155.3918 29.0245 0.6190 -8.9692 10.7538
# 3 52.6344 29.0245 155.7277 15.4448 -6.7006 0.5150
# 4 -2.7923 0.6190 15.4448 43.5136 -0.1598 -1.8108
# 5 -30.7038 -8.9692 -6.7006 -0.1598 53.2600 -14.5482
# 6 0.9334 10.7538 0.5150 -1.8108 -14.5482 46.0475
#
#
#
# Elastic Compliance Matrix: (Units=1/GPa)
#
#
# Indices 1 2 3 4 5 6 
#
# 1 0.012587 -0.001358 -0.003932 0.002352 0.007217 0.002479
# 2 -0.001358 0.006947 -0.000842 0.000044 -0.000166 -0.001636
# 3 -0.003932 -0.000842 0.008157 -0.003159 -0.001505 -0.000415
# 4 0.002352 0.000044 -0.003159 0.024315 0.001416 0.001381
# 5 0.007217 -0.000166 -0.001505 0.001416 0.024859 0.007819
# 6 0.002479 -0.001636 -0.000415 0.001381 0.007819 0.024578
#
#
# Mechanical properties :
#
#
# Convention : Reuss Voigt Hill
#
# Bulk Modulus (GPa) = 64.81986 72.09497 68.45742
# Shear Modulus (GPa) = 42.06950 49.74092 45.90521
#
# Velocity S-wave (km/s) = 3.95548 4.30102 4.13186
# Velocity P-wave (km/s) = 6.70580 7.17478 6.94425
#
# Compressibility (1/GPa) = 0.01542737
#
# Stress axis : x y z
#
# Youngs Moduli (GPa) = 79.44588 143.94103 122.58979
#
# Poissons Ratio (x) = 0.19549 0.48205
# Poissons Ratio (y) = 0.10789 0.10321
# Poissons Ratio (z) = 0.31240 0.12119
#
# Static dielectric constant tensor:
#      x y z
#    x 2.206730 0.011650 0.037170 
#    y 0.011650 2.140520 -0.056920 
#    z 0.037170 -0.056920 2.017870 
# 
# From -- ./inp_files/80784.got.cif
#   From: 2010.05.17/outbox.cif.g08.bks.cpg/sg2_41_cif.got.tgz:80784.got - 2010.06.03 11:33:40.
