data_PCOD9046626
_publ_section_title
;
Structure prediction by ZEFSAII (Michael W. Deem and Ramdas Pophale) SiO2 
 PCOD9046626
Probable space group: P -1
;
_chemical_formula_sum "Si O2"
_cell_formula_units_Z 14
_cell_length_a 7.602530
_cell_length_b 18.729967
_cell_length_c 13.350734
_cell_angle_alpha 143.268286
_cell_angle_beta 45.078733
_cell_angle_gamma 149.025883
_cell_volume 584.032790
_symmetry_space_group_name_H-M "P -1"
_symmetry_group_IT_number 2
_symmetry_cell_setting 'triclinic'
loop_
_space_group_symop_operation_xyz
x,y,z
-x,-y,-z
loop_
_atom_site_type_symbol
_atom_site_label
_atom_site_fract_x
_atom_site_fract_y
_atom_site_fract_z
Si Si1 0.136742 0.195120 0.332551
Si Si2 0.694223 0.421567 0.958102
Si Si3 0.195594 0.436747 0.280929
Si Si4 0.238558 0.812397 0.362510
Si Si5 0.773629 0.326465 0.132582
Si Si6 0.407807 0.946498 0.239364
Si Si7 0.509967 0.212126 0.386061
O O1 0.442750 0.302800 0.249330
O O2 0.271985 0.142464 0.302798
O O3 0.045783 0.276298 0.534836
O O4 0.787083 0.051999 0.252649
O O5 0.571476 0.250487 0.784447
O O6 0.892542 0.540183 0.918381
O O7 0.421706 0.409612 0.111059
O O8 0.000000 0.500000 0.000000
O O9 0.416710 0.625308 0.432679
O O10 0.931172 0.388245 0.247606
O O11 0.908920 0.297887 0.318039
O O12 0.500000 0.000000 0.500000
O O13 0.156630 0.820283 0.289023
O O14 0.639343 0.155556 0.951912
O O15 0.351441 0.064456 0.361002
#
# Coordination Sequence:
#
# PCOD9046626 Si02
#       7
#     2   2   2   2   2   2   2
#     4  10  24  46  69 100 142 176 240 276 340 415
#     4  12  24  43  69  98 142 178 228 289 342 411
#     4  10  25  47  67 104 139 178 231 288 345 415
#     4  10  24  43  66 103 133 181 227 279 344 402
#     4  11  25  43  69 104 134 187 227 281 355 397
#     4  11  24  44  71 106 135 183 234 280 348 407
#     4  10  24  46  73 100 140 183 228 287 346 405
#
# _framework density 23.971257999999999
#
# number of rings (size 3 to 8) (size 9 to 14) (size 15 to 20)
#    0.000    1.429    1.429    1.714    6.000    8.000 
#    0.000    0.000    0.000    0.000    0.000    0.000 
#    0.000    0.000    0.000    0.000    0.000    0.000 
#
# Total GULP energy -78022.066766 kJ/mol
# GULP energy per Si atom -5573.004769 kJ/mol
# Density = 2.391670 g / cm^3
# Si number density = 23.971258 Si / 1000 Ang^3
#
#
#
# Elastic Constant Matrix: (Units=GPa)
#
#
# Indices 1 2 3 4 5 6 
#
# 1 53.9002 2.2819 1.0034 26.5843 5.7940 17.2918
# 2 2.2819 77.7509 48.6956 -7.6539 -21.3474 7.6570
# 3 1.0034 48.6956 117.4687 -2.0352 -7.7343 -2.1169
# 4 26.5843 -7.6539 -2.0352 46.0563 14.6611 -4.2181
# 5 5.7940 -21.3474 -7.7343 14.6611 42.0032 -1.7689
# 6 17.2918 7.6570 -2.1169 -4.2181 -1.7689 33.0099
#
#
#
# Elastic Compliance Matrix: (Units=1/GPa)
#
#
# Indices 1 2 3 4 5 6 
#
# 1 0.037896 -0.000050 -0.000998 -0.024738 0.002232 -0.022945
# 2 -0.000050 0.020909 -0.008167 -0.000164 0.008981 -0.004887
# 3 -0.000998 -0.008167 0.011848 0.000644 -0.001923 0.003156
# 4 -0.024738 -0.000164 0.000644 0.040816 -0.010053 0.017715
# 5 0.002232 0.008981 -0.001923 -0.010053 0.031093 -0.002994
# 6 -0.022945 -0.004887 0.003156 0.017715 -0.002994 0.045753
#
#
# Mechanical properties :
#
#
# Convention : Reuss Voigt Hill
#
# Bulk Modulus (GPa) = 19.14843 39.23130 29.18986
# Shear Modulus (GPa) = 22.30627 37.35646 29.83136
#
# Velocity S-wave (km/s) = 3.05379 3.95192 3.53152
# Velocity P-wave (km/s) = 4.52102 6.10124 5.36957
#
# Compressibility (1/GPa) = 0.05222361
#
# Stress axis : x y z
#
# Youngs Moduli (GPa) = 26.38806 47.82633 84.40012
#
# Poissons Ratio (x) = 0.00238 0.08425
# Poissons Ratio (y) = 0.00132 0.68928
# Poissons Ratio (z) = 0.02634 0.39059
#
# Static dielectric constant tensor:
#      x y z
#    x 1.968420 -0.093640 -0.036190 
#    y -0.093640 2.002910 0.065570 
#    z -0.036190 0.065570 1.912960 
# 
# From -- ./inp_files/159846.got.cif
#   From: 2010.05.17/outbox.cif.g08.bks.cpg/sg2_80_cif.got.tgz:159846.got - 2010.06.03 11:33:40.
