data_PCOD9046868
_publ_section_title
;
Structure prediction by ZEFSAII (Michael W. Deem and Ramdas Pophale) SiO2 
 PCOD9046868
Probable space group: P -1
;
_chemical_formula_sum "Si O2"
_cell_formula_units_Z 16
_cell_length_a 15.415695
_cell_length_b 9.572896
_cell_length_c 9.281067
_cell_angle_alpha 58.983870
_cell_angle_beta 38.749594
_cell_angle_gamma 54.621065
_cell_volume 693.500855
_symmetry_space_group_name_H-M "P -1"
_symmetry_group_IT_number 2
_symmetry_cell_setting 'triclinic'
loop_
_space_group_symop_operation_xyz
x,y,z
-x,-y,-z
loop_
_atom_site_type_symbol
_atom_site_label
_atom_site_fract_x
_atom_site_fract_y
_atom_site_fract_z
Si Si1 0.674934 0.546970 0.371780
Si Si2 0.876304 0.928912 0.140150
Si Si3 0.132740 0.825544 0.419937
Si Si4 0.334164 0.517761 0.236562
Si Si5 0.142113 0.331235 0.444461
Si Si6 0.079670 0.310716 0.058943
Si Si7 0.343099 0.759405 0.622268
Si Si8 0.335052 0.996287 0.237826
O O1 0.686630 0.509415 0.549388
O O2 0.759059 0.674589 0.136148
O O3 0.502704 0.640097 0.523837
O O4 0.726234 0.371591 0.301083
O O5 0.880422 0.777597 0.329750
O O6 0.904097 0.839366 0.997896
O O7 0.739575 0.107093 0.218608
O O8 0.000000 0.000000 0.000000
O O9 0.221983 0.706744 0.240024
O O10 0.264800 0.881157 0.291214
O O11 0.000000 0.000000 0.500000
O O12 0.036630 0.710345 0.665852
O O13 0.278680 0.389982 0.282901
O O14 0.500000 0.500000 0.000000
O O15 0.210517 0.185710 0.311084
O O16 0.000000 0.500000 0.500000
O O17 0.000000 0.500000 0.000000
O O18 0.348119 0.898088 0.423456
O O19 0.500000 0.000000 0.000000
#
# Coordination Sequence:
#
# PCOD9046868 Si02
#       8
#     2   2   2   2   2   2   2   2
#     4  11  23  45  70 101 132 187 233 284 355 411
#     4  11  23  42  68  99 136 178 226 292 342 405
#     4  12  26  44  68 103 138 180 227 284 347 409
#     4  12  25  46  69 101 139 180 229 288 343 416
#     4  11  24  44  66  99 135 179 231 273 342 415
#     4  12  22  43  71  96 139 178 232 284 343 413
#     4  10  24  43  68  99 137 175 237 286 345 415
#     4  11  23  44  65  97 138 179 225 280 344 408
#
# _framework density 23.071349999999999
#
# number of rings (size 3 to 8) (size 9 to 14) (size 15 to 20)
#    0.000    0.750    3.750    3.750    1.750    2.500 
#    2.250    0.000    0.000    0.000    0.000    0.000 
#    0.000    0.000    0.000    0.000    0.000    0.000 
#
# Total GULP energy -89170.331072 kJ/mol
# GULP energy per Si atom -5573.145692 kJ/mol
# Density = 2.301884 g / cm^3
# Si number density = 23.071350 Si / 1000 Ang^3
#
#
#
# Elastic Constant Matrix: (Units=GPa)
#
#
# Indices 1 2 3 4 5 6 
#
# 1 51.0324 11.3982 22.3091 -6.6795 -18.3235 9.6019
# 2 11.3982 133.7825 26.5029 8.0739 -5.5472 3.1999
# 3 22.3091 26.5029 123.8320 -9.9479 -31.8332 1.6746
# 4 -6.6795 8.0739 -9.9479 38.9966 5.4561 -5.3473
# 5 -18.3235 -5.5472 -31.8332 5.4561 31.1619 -5.3764
# 6 9.6019 3.1999 1.6746 -5.3473 -5.3764 42.3691
#
#
#
# Elastic Compliance Matrix: (Units=1/GPa)
#
#
# Indices 1 2 3 4 5 6 
#
# 1 0.026019 -0.001569 -0.000717 0.002226 0.013244 -0.003788
# 2 -0.001569 0.008100 -0.001926 -0.002363 -0.001142 -0.000623
# 3 -0.000717 -0.001926 0.011572 0.001895 0.010981 0.001483
# 4 0.002226 -0.002363 0.001895 0.027605 -0.001510 0.002891
# 5 0.013244 -0.001142 0.010981 -0.001510 0.051677 0.003018
# 6 -0.003788 -0.000623 0.001483 0.002891 0.003018 0.025197
#
#
# Mechanical properties :
#
#
# Convention : Reuss Voigt Hill
#
# Bulk Modulus (GPa) = 26.83360 47.67417 37.25389
# Shear Modulus (GPa) = 29.23697 39.06796 34.15247
#
# Velocity S-wave (km/s) = 3.56370 4.11950 3.85164
# Velocity P-wave (km/s) = 5.34689 6.58299 5.99687
#
# Compressibility (1/GPa) = 0.03726670
#
# Stress axis : x y z
#
# Youngs Moduli (GPa) = 38.43364 123.45372 86.41739
#
# Poissons Ratio (x) = 0.19375 0.06195
# Poissons Ratio (y) = 0.06032 0.16643
# Poissons Ratio (z) = 0.02755 0.23776
#
# Static dielectric constant tensor:
#      x y z
#    x 1.951040 0.020010 0.008190 
#    y 0.020010 2.149810 -0.137230 
#    z 0.008190 -0.137230 1.963900 
# 
# From -- ./inp_files/461880.got.cif
#   From: 2010.05.17/outbox.cif.g08.bks.cpg/sg2_231_cif.got.tgz:461880.got - 2010.06.03 11:33:40.
