data_PCOD9046496
_publ_section_title
;
Structure prediction by ZEFSAII (Michael W. Deem and Ramdas Pophale) SiO2 
 PCOD9046496
Probable space group: P -1
;
_chemical_formula_sum "Si O2"
_cell_formula_units_Z 12
_cell_length_a 13.594289
_cell_length_b 8.612290
_cell_length_c 8.760774
_cell_angle_alpha 149.118726
_cell_angle_beta 71.203171
_cell_angle_gamma 106.053416
_cell_volume 498.371254
_symmetry_space_group_name_H-M "P -1"
_symmetry_group_IT_number 2
_symmetry_cell_setting 'triclinic'
loop_
_space_group_symop_operation_xyz
x,y,z
-x,-y,-z
loop_
_atom_site_type_symbol
_atom_site_label
_atom_site_fract_x
_atom_site_fract_y
_atom_site_fract_z
Si Si1 0.429712 0.428312 0.328701
Si Si2 0.783759 0.250007 0.858130
Si Si3 0.917315 0.249999 0.291342
Si Si4 0.773838 0.861771 0.254197
Si Si5 0.773834 0.638238 0.471981
Si Si6 0.429711 0.071697 0.741590
O O1 0.500000 0.500000 0.500000
O O2 0.326218 0.259942 0.295591
O O3 0.395222 0.750006 0.552394
O O4 0.479165 0.250009 0.010422
O O5 0.731666 0.061813 0.587434
O O6 0.834213 0.948732 0.656909
O O7 0.834218 0.551279 0.008899
O O8 0.731661 0.438206 0.180919
O O9 0.844476 0.407245 0.334778
O O10 0.000000 0.500000 0.500000
O O11 0.844479 0.092755 0.320747
O O12 0.000000 0.000000 0.000000
O O13 0.673785 0.759941 0.121816
O O14 0.500000 0.000000 0.500000
#
# Coordination Sequence:
#
# PCOD9046496 Si02
#       6
#     2   2   2   2   2   2
#     4  12  27  45  72 106 149 190 245 295 362 437
#     4  10  24  42  74  99 138 195 224 294 368 430
#     4  12  26  46  76 107 138 189 248 298 358 430
#     4  11  24  47  71 103 147 189 240 297 364 426
#     4  11  24  47  71 103 147 189 240 297 364 426
#     4  12  27  45  72 106 149 190 245 295 362 437
#
# _framework density 24.078434000000001
#
# number of rings (size 3 to 8) (size 9 to 14) (size 15 to 20)
#    0.000    0.667    1.667    5.000    9.333    0.000 
#    0.000   16.667    0.000    0.000    0.000    0.000 
#    0.000    0.000    0.000    0.000    0.000    0.000 
#
# Total GULP energy -66864.715119 kJ/mol
# GULP energy per Si atom -5572.059593 kJ/mol
# Density = 2.402363 g / cm^3
# Si number density = 24.078434 Si / 1000 Ang^3
#
#
#
# Elastic Constant Matrix: (Units=GPa)
#
#
# Indices 1 2 3 4 5 6 
#
# 1 83.2193 61.4451 37.8103 -13.4393 4.5810 4.8767
# 2 61.4451 134.6732 62.5081 25.9747 -5.0876 -25.8669
# 3 37.8103 62.5081 182.4086 6.8501 13.2363 -12.9945
# 4 -13.4393 25.9747 6.8501 63.7154 -10.5453 -4.0593
# 5 4.5810 -5.0876 13.2363 -10.5453 36.9844 3.1842
# 6 4.8767 -25.8669 -12.9945 -4.0593 3.1842 17.9469
#
#
#
# Elastic Compliance Matrix: (Units=1/GPa)
#
#
# Indices 1 2 3 4 5 6 
#
# 1 0.046934 -0.036170 -0.002685 0.021227 0.001589 -0.062310
# 2 -0.036170 0.040308 -0.001038 -0.020072 -0.000731 0.062763
# 3 -0.002685 -0.001038 0.006981 -0.001102 -0.003016 0.004574
# 4 0.021227 -0.020072 -0.001102 0.027445 0.005434 -0.030252
# 5 0.001589 -0.000731 -0.003016 0.005434 0.030039 -0.007769
# 6 -0.062310 0.062763 0.004574 -0.030252 -0.007769 0.160961
#
#
# Mechanical properties :
#
#
# Convention : Reuss Voigt Hill
#
# Bulk Modulus (GPa) = 69.26153 80.42536 74.84345
# Shear Modulus (GPa) = 12.58600 39.63183 26.10891
#
# Velocity S-wave (km/s) = 2.28876 4.06143 3.29649
# Velocity P-wave (km/s) = 5.98431 7.44765 6.75572
#
# Compressibility (1/GPa) = 0.01443803
#
# Stress axis : x y z
#
# Youngs Moduli (GPa) = 21.30631 24.80871 143.25560
#
# Poissons Ratio (x) = 0.89732 0.38470
# Poissons Ratio (y) = 0.77064 0.14864
# Poissons Ratio (z) = 0.05722 0.02574
#
# Static dielectric constant tensor:
#      x y z
#    x 1.813760 -0.109360 0.048170 
#    y -0.109360 2.008170 -0.050660 
#    z 0.048170 -0.050660 1.916690 
# 
# From -- ./inp_files/299916.got.cif
#   From: 2010.05.17/outbox.cif.g08.bks.cpg/sg2_150_cif.got.tgz:299916.got - 2010.06.03 11:33:40.
