data_PCOD9046977
_publ_section_title
;
Structure prediction by ZEFSAII (Michael W. Deem and Ramdas Pophale) SiO2 
 PCOD9046977
Probable space group: P -1
;
_chemical_formula_sum "Si O2"
_cell_formula_units_Z 12
_cell_length_a 11.580372
_cell_length_b 5.276946
_cell_length_c 11.030666
_cell_angle_alpha 100.364492
_cell_angle_beta 131.492472
_cell_angle_gamma 97.761564
_cell_volume 466.166337
_symmetry_space_group_name_H-M "P -1"
_symmetry_group_IT_number 2
_symmetry_cell_setting 'triclinic'
loop_
_space_group_symop_operation_xyz
x,y,z
-x,-y,-z
loop_
_atom_site_type_symbol
_atom_site_label
_atom_site_fract_x
_atom_site_fract_y
_atom_site_fract_z
Si Si1 0.639551 0.376675 0.102179
Si Si2 0.506749 0.866684 0.787223
Si Si3 0.813569 0.003436 0.876735
Si Si4 0.257004 0.975431 0.444350
Si Si5 0.042380 0.238204 0.450063
Si Si6 0.927545 0.454207 0.174832
O O1 0.636409 0.314035 0.236785
O O2 0.804739 0.569276 0.171723
O O3 0.500000 0.500000 0.000000
O O4 0.589805 0.112688 0.959719
O O5 0.414163 0.943639 0.616551
O O6 0.665510 0.804104 0.841002
O O7 0.734953 0.952684 0.684859
O O8 0.852616 0.311494 0.984673
O O9 0.000000 0.000000 0.000000
O O10 0.105491 0.684171 0.315071
O O11 0.205409 0.198403 0.502926
O O12 0.000000 0.500000 0.500000
O O13 0.939573 0.212280 0.251057
O O14 0.000000 0.000000 0.500000
#
# Coordination Sequence:
#
# PCOD9046977 Si02
#       6
#     2   2   2   2   2   2
#     4  10  24  43  70 100 150 187 242 309 388 446
#     4  10  25  45  69 107 142 195 249 311 376 449
#     4  11  24  48  72 101 151 204 251 305 382 455
#     4  12  25  45  76 105 154 190 261 309 374 453
#     4  12  25  42  71 111 153 191 249 311 379 444
#     4  11  25  44  73 111 143 202 246 309 379 453
#
# _framework density 25.741883000000001
#
# number of rings (size 3 to 8) (size 9 to 14) (size 15 to 20)
#    0.000    1.000    3.333    2.000    4.667    1.333 
#    0.000    0.833    0.000    0.000    0.000    0.000 
#    0.000    0.000    0.000    0.000    0.000    0.000 
#
# Total GULP energy -66933.560789 kJ/mol
# GULP energy per Si atom -5577.796732 kJ/mol
# Density = 2.568329 g / cm^3
# Si number density = 25.741883 Si / 1000 Ang^3
#
#
#
# Elastic Constant Matrix: (Units=GPa)
#
#
# Indices 1 2 3 4 5 6 
#
# 1 197.3267 29.8693 38.7504 -8.5523 -4.9389 -15.8893
# 2 29.8693 80.6264 17.6296 3.5960 -19.4873 -13.5873
# 3 38.7504 17.6296 114.0570 3.9883 -18.0519 -5.2370
# 4 -8.5523 3.5960 3.9883 51.6621 -5.0965 1.5773
# 5 -4.9389 -19.4873 -18.0519 -5.0965 51.1986 -13.0291
# 6 -15.8893 -13.5873 -5.2370 1.5773 -13.0291 27.9446
#
#
#
# Elastic Compliance Matrix: (Units=1/GPa)
#
#
# Indices 1 2 3 4 5 6 
#
# 1 0.005853 -0.001430 -0.001681 0.001140 0.000130 0.002314
# 2 -0.001430 0.017278 -0.000124 -0.000873 0.009356 0.011976
# 3 -0.001681 -0.000124 0.010146 -0.000743 0.004006 0.002795
# 4 0.001140 -0.000873 -0.000743 0.019812 0.001390 -0.000385
# 5 0.000130 0.009356 0.004006 0.001390 0.029504 0.019051
# 6 0.002314 0.011976 0.002795 -0.000385 0.019051 0.052352
#
#
# Mechanical properties :
#
#
# Convention : Reuss Voigt Hill
#
# Bulk Modulus (GPa) = 37.30199 62.72320 50.01260
# Shear Modulus (GPa) = 33.25548 46.54514 39.90031
#
# Velocity S-wave (km/s) = 3.59818 4.25685 3.94129
# Velocity P-wave (km/s) = 5.63779 6.96994 6.33896
#
# Compressibility (1/GPa) = 0.02680822
#
# Stress axis : x y z
#
# Youngs Moduli (GPa) = 170.84367 57.87635 98.56196
#
# Poissons Ratio (x) = 0.08279 0.16564
# Poissons Ratio (y) = 0.24439 0.01218
# Poissons Ratio (z) = 0.28712 0.00715
#
# Static dielectric constant tensor:
#      x y z
#    x 2.178020 0.040950 -0.026510 
#    y 0.040950 2.125140 0.101910 
#    z -0.026510 0.101910 2.189830 
# 
# From -- ./inp_files/64342.got.cif
#   From: 2010.05.17/outbox.cif.g08.bks.cpg/sg2_33_cif.got.tgz:64342.got - 2010.06.03 11:33:40.
