data_PCOD9046325
_publ_section_title
;
Structure prediction by ZEFSAII (Michael W. Deem and Ramdas Pophale) SiO2 
 PCOD9046325
Probable space group: P -1
;
_chemical_formula_sum "Si O2"
_cell_formula_units_Z 16
_cell_length_a 17.569947
_cell_length_b 9.592275
_cell_length_c 8.607138
_cell_angle_alpha 95.242839
_cell_angle_beta 82.479105
_cell_angle_gamma 151.003224
_cell_volume 696.343062
_symmetry_space_group_name_H-M "P -1"
_symmetry_group_IT_number 2
_symmetry_cell_setting 'triclinic'
loop_
_space_group_symop_operation_xyz
x,y,z
-x,-y,-z
loop_
_atom_site_type_symbol
_atom_site_label
_atom_site_fract_x
_atom_site_fract_y
_atom_site_fract_z
Si Si1 0.939490 0.854998 0.665288
Si Si2 0.152703 0.658138 0.031359
Si Si3 0.912448 0.172084 0.245861
Si Si4 0.685282 0.311565 0.502459
Si Si5 0.808125 0.194364 0.514418
Si Si6 0.705534 0.681012 0.028694
Si Si7 0.828008 0.609013 0.162145
Si Si8 0.367061 0.214556 0.182536
O O1 0.759275 0.521414 0.646251
O O2 0.051745 0.900421 0.663424
O O3 0.000000 0.000000 0.500000
O O4 0.996130 0.052316 0.804671
O O5 0.087410 0.508945 0.201316
O O6 0.297289 0.991020 0.053296
O O7 0.178809 0.559293 0.918033
O O8 0.000000 0.500000 0.000000
O O9 0.789969 0.082352 0.344259
O O10 0.848311 0.001292 0.089463
O O11 0.749624 0.257753 0.509488
O O12 0.744012 0.468337 0.338092
O O13 0.500000 0.000000 0.500000
O O14 0.000000 0.500000 0.500000
O O15 0.719192 0.964970 0.650990
O O16 0.747659 0.588606 0.058988
O O17 0.552877 0.480956 0.153583
O O18 0.668917 0.687988 0.868356
#
# Coordination Sequence:
#
# PCOD9046325 Si02
#       8
#     2   2   2   2   2   2   2   2
#     4   9  20  40  61  93 132 170 211 279 329 402
#     4  12  23  41  66  97 126 177 231 280 323 408
#     4  11  22  42  67  96 133 176 233 274 331 408
#     4  11  22  41  69 104 137 173 231 290 338 399
#     4  12  23  41  74 102 130 187 229 280 342 403
#     4  10  24  46  65 101 142 179 215 292 347 411
#     4  10  24  42  70  95 135 182 229 274 349 404
#     4  11  24  43  71  98 143 174 228 286 343 410
#
# _framework density 22.977181000000002
#
# number of rings (size 3 to 8) (size 9 to 14) (size 15 to 20)
#    0.000    1.250    3.750    1.500    0.000    3.000 
#    2.250    2.500    0.000    0.000    0.000    0.000 
#    0.000    0.000    0.000    0.000    0.000    0.000 
#
# Total GULP energy -89225.664524 kJ/mol
# GULP energy per Si atom -5576.604033 kJ/mol
# Density = 2.292488 g / cm^3
# Si number density = 22.977181 Si / 1000 Ang^3
#
#
#
# Elastic Constant Matrix: (Units=GPa)
#
#
# Indices 1 2 3 4 5 6 
#
# 1 110.4797 36.4412 25.1338 8.2885 16.8954 -13.3244
# 2 36.4412 102.5296 15.8097 2.3045 -7.3844 6.1372
# 3 25.1338 15.8097 73.0299 -12.1041 3.1487 -12.4528
# 4 8.2885 2.3045 -12.1041 46.8426 -15.3311 1.4716
# 5 16.8954 -7.3844 3.1487 -15.3311 38.9244 -0.5869
# 6 -13.3244 6.1372 -12.4528 1.4716 -0.5869 39.3773
#
#
#
# Elastic Compliance Matrix: (Units=1/GPa)
#
#
# Indices 1 2 3 4 5 6 
#
# 1 0.014009 -0.005220 -0.003566 -0.006295 -0.009193 0.004524
# 2 -0.005220 0.012445 -0.001543 0.001812 0.005403 -0.004181
# 3 -0.003566 -0.001543 0.016805 0.005631 0.002177 0.004170
# 4 -0.006295 0.001812 0.005631 0.028384 0.013778 -0.001487
# 5 -0.009193 0.005403 0.002177 0.013778 0.035908 -0.003244
# 6 0.004524 -0.004181 0.004170 -0.001487 -0.003244 0.028904
#
#
# Mechanical properties :
#
#
# Convention : Reuss Voigt Hill
#
# Bulk Modulus (GPa) = 44.24998 48.97871 46.61434
# Shear Modulus (GPa) = 30.36795 38.93914 34.65355
#
# Velocity S-wave (km/s) = 3.63940 4.12112 3.88773
# Velocity P-wave (km/s) = 6.07951 6.63381 6.36270
#
# Compressibility (1/GPa) = 0.02259888
#
# Stress axis : x y z
#
# Youngs Moduli (GPa) = 71.38516 80.35137 59.50610
#
# Poissons Ratio (x) = 0.41947 0.21223
# Poissons Ratio (y) = 0.37266 0.09182
# Poissons Ratio (z) = 0.25459 0.12399
#
# Static dielectric constant tensor:
#      x y z
#    x 1.655480 0.136200 -0.132970 
#    y 0.136200 1.749500 0.124880 
#    z -0.132970 0.124880 1.918030 
# 
# From -- ./inp_files/329036.got.cif
#   From: 2010.05.17/outbox.cif.g08.bks.cpg/sg2_165_cif.got.tgz:329036.got - 2010.06.03 11:33:40.
