data_PCOD9046648
_publ_section_title
;
Structure prediction by ZEFSAII (Michael W. Deem and Ramdas Pophale) SiO2 
 PCOD9046648
Probable space group: P -1
;
_chemical_formula_sum "Si O2"
_cell_formula_units_Z 16
_cell_length_a 8.905166
_cell_length_b 14.438207
_cell_length_c 14.507885
_cell_angle_alpha 148.287649
_cell_angle_beta 128.771805
_cell_angle_gamma 48.554774
_cell_volume 725.495227
_symmetry_space_group_name_H-M "P -1"
_symmetry_group_IT_number 2
_symmetry_cell_setting 'triclinic'
loop_
_space_group_symop_operation_xyz
x,y,z
-x,-y,-z
loop_
_atom_site_type_symbol
_atom_site_label
_atom_site_fract_x
_atom_site_fract_y
_atom_site_fract_z
Si Si1 0.896712 0.448890 0.200519
Si Si2 0.646554 0.621242 0.662924
Si Si3 0.039601 0.691915 0.694490
Si Si4 0.381131 0.097794 0.262499
Si Si5 0.728072 0.862429 0.453776
Si Si6 0.830960 0.903363 0.328598
Si Si7 0.991644 0.136122 0.834077
Si Si8 0.674533 0.122773 0.121773
O O1 0.906157 0.321067 0.186813
O O2 0.755861 0.661064 0.339995
O O3 0.122522 0.468174 0.294514
O O4 0.865959 0.326682 0.998801
O O5 0.500000 0.500000 0.500000
O O6 0.642598 0.713182 0.640490
O O7 0.532270 0.785220 0.826803
O O8 0.216343 0.724610 0.730690
O O9 0.000000 0.500000 0.500000
O O10 0.832378 0.855784 0.727778
O O11 0.599540 0.037104 0.340723
O O12 0.369172 0.954601 0.057702
O O13 0.799165 0.800024 0.322100
O O14 0.500000 0.000000 0.500000
O O15 0.867410 0.990875 0.644218
O O16 0.909198 0.821324 0.187851
O O17 0.000000 0.000000 0.500000
O O18 0.169299 0.027455 0.880790
#
# Coordination Sequence:
#
# PCOD9046648 Si02
#       8
#     2   2   2   2   2   2   2   2
#     4  11  25  44  67 102 133 178 236 278 338 404
#     4  11  21  37  64  99 132 169 212 284 338 402
#     4  11  24  39  62 105 140 172 216 284 342 414
#     4  11  22  39  66  97 130 172 223 265 351 401
#     4  11  27  47  69  93 135 188 228 281 336 400
#     4  10  24  43  66  95 129 186 229 271 328 405
#     4  11  22  45  71  95 140 173 229 285 333 408
#     4  12  21  39  67 103 137 171 211 285 354 395
#
# _framework density 22.053901
#
# number of rings (size 3 to 8) (size 9 to 14) (size 15 to 20)
#    0.000    1.000    3.750    4.500    5.250    1.000 
#    0.000    0.000    0.000    0.000    0.000    0.000 
#    0.000    0.000    0.000    0.000    0.000    0.000 
#
# Total GULP energy -89293.519203 kJ/mol
# GULP energy per Si atom -5580.844950 kJ/mol
# Density = 2.200371 g / cm^3
# Si number density = 22.053901 Si / 1000 Ang^3
#
#
#
# Elastic Constant Matrix: (Units=GPa)
#
#
# Indices 1 2 3 4 5 6 
#
# 1 104.5981 19.5972 12.9573 -7.1932 -1.4041 -0.5421
# 2 19.5972 74.0045 27.2174 -5.8397 1.4808 -21.1867
# 3 12.9573 27.2174 94.2014 4.8215 0.1373 -0.4496
# 4 -7.1932 -5.8397 4.8215 25.4261 -0.0577 -4.6259
# 5 -1.4041 1.4808 0.1373 -0.0577 40.6986 -0.5885
# 6 -0.5421 -21.1867 -0.4496 -4.6259 -0.5885 39.9851
#
#
#
# Elastic Compliance Matrix: (Units=1/GPa)
#
#
# Indices 1 2 3 4 5 6 
#
# 1 0.010294 -0.002519 -0.000812 0.002319 0.000439 -0.000930
# 2 -0.002519 0.020133 -0.005777 0.007075 -0.000625 0.011378
# 3 -0.000812 -0.005777 0.012614 -0.004578 0.000083 -0.003459
# 4 0.002319 0.007075 -0.004578 0.044085 0.000028 0.008830
# 5 0.000439 -0.000625 0.000083 0.000028 0.024609 0.000041
# 6 -0.000930 0.011378 -0.003459 0.008830 0.000041 0.032009
#
#
# Mechanical properties :
#
#
# Convention : Reuss Voigt Hill
#
# Bulk Modulus (GPa) = 40.28394 43.59423 41.93908
# Shear Modulus (GPa) = 29.37118 35.42410 32.39764
#
# Velocity S-wave (km/s) = 3.65333 4.01215 3.83694
# Velocity P-wave (km/s) = 6.00846 6.42442 6.21992
#
# Compressibility (1/GPa) = 0.02482379
#
# Stress axis : x y z
#
# Youngs Moduli (GPa) = 97.14831 49.67023 79.27626
#
# Poissons Ratio (x) = 0.12513 0.06436
# Poissons Ratio (y) = 0.24474 0.45801
# Poissons Ratio (z) = 0.07886 0.28696
#
# Static dielectric constant tensor:
#      x y z
#    x 31.319770 12.500760 9.304250 
#    y 12.500760 7.133790 3.929750 
#    z 9.304250 3.929750 4.845280 
# 
# From -- ./inp_files/271733.got.cif
#   From: 2010.05.17/outbox.cif.g08.bks.cpg/sg2_136_cif.got.tgz:271733.got - 2010.06.03 11:33:40.
