data_PCOD9046226
_publ_section_title
;
Structure prediction by ZEFSAII (Michael W. Deem and Ramdas Pophale) SiO2 
 PCOD9046226
Probable space group: P -1
;
_chemical_formula_sum "Si O2"
_cell_formula_units_Z 16
_cell_length_a 8.929087
_cell_length_b 7.470159
_cell_length_c 15.101082
_cell_angle_alpha 74.069990
_cell_angle_beta 138.983719
_cell_angle_gamma 114.107364
_cell_volume 602.431342
_symmetry_space_group_name_H-M "P -1"
_symmetry_group_IT_number 2
_symmetry_cell_setting 'triclinic'
loop_
_space_group_symop_operation_xyz
x,y,z
-x,-y,-z
loop_
_atom_site_type_symbol
_atom_site_label
_atom_site_fract_x
_atom_site_fract_y
_atom_site_fract_z
Si Si1 0.588620 0.918341 0.461415
Si Si2 0.115627 0.201599 0.639656
Si Si3 0.413433 0.881205 0.067923
Si Si4 0.442207 0.434582 0.608437
Si Si5 0.695522 0.757480 0.958662
Si Si6 0.839827 0.538084 0.209268
Si Si7 0.961995 0.635097 0.818321
Si Si8 0.332871 0.177698 0.260064
O O1 0.419817 0.992087 0.308904
O O2 0.863595 0.033258 0.546571
O O3 0.500000 0.000000 0.500000
O O4 0.552099 0.688780 0.462021
O O5 0.347817 0.142920 0.781338
O O6 0.210088 0.303344 0.575136
O O7 0.084870 0.349917 0.681529
O O8 0.303204 0.021970 0.054205
O O9 0.209019 0.678974 0.976190
O O10 0.500000 0.000000 0.000000
O O11 0.453908 0.652902 0.617349
O O12 0.719742 0.465326 0.762724
O O13 0.427218 0.609609 0.875673
O O14 0.741120 0.749537 0.875890
O O15 0.846512 0.689081 0.110542
O O16 0.993602 0.409061 0.256790
O O17 0.886578 0.832255 0.770164
#
# Coordination Sequence:
#
# PCOD9046226 Si02
#       8
#     2   2   2   2   2   2   2   2
#     4  12  28  50  77 103 141 194 247 301 355 431
#     4  12  25  45  73 106 145 191 235 297 365 427
#     4  12  23  39  68 106 145 181 238 293 353 431
#     4  10  25  49  71 106 144 188 239 301 358 422
#     4  11  22  40  68 103 148 186 238 288 358 436
#     4  11  20  39  68 104 144 193 227 290 362 423
#     4  10  24  42  69 101 146 187 237 297 354 421
#     4  10  26  48  69 109 140 192 241 296 362 414
#
# _framework density 26.559041000000001
#
# number of rings (size 3 to 8) (size 9 to 14) (size 15 to 20)
#    0.750    0.250    3.750    2.625    1.750    4.500 
#    2.250    0.000    0.000    0.000    0.000    0.000 
#    0.000    0.000    0.000    0.000    0.000    0.000 
#
# Total GULP energy -89379.712399 kJ/mol
# GULP energy per Si atom -5586.232025 kJ/mol
# Density = 2.649859 g / cm^3
# Si number density = 26.559041 Si / 1000 Ang^3
#
#
#
# Elastic Constant Matrix: (Units=GPa)
#
#
# Indices 1 2 3 4 5 6 
#
# 1 117.1721 36.5224 29.1303 9.7232 -6.1461 -20.5971
# 2 36.5224 106.3447 27.6318 20.3480 4.7215 -26.6597
# 3 29.1303 27.6318 59.7179 10.9042 15.5795 -6.5016
# 4 9.7232 20.3480 10.9042 41.9401 -4.3621 -4.4658
# 5 -6.1461 4.7215 15.5795 -4.3621 54.2702 11.4424
# 6 -20.5971 -26.6597 -6.5016 -4.4658 11.4424 45.1172
#
#
#
# Elastic Compliance Matrix: (Units=1/GPa)
#
#
# Indices 1 2 3 4 5 6 
#
# 1 0.010884 -0.002005 -0.004721 0.000182 0.002238 0.002554
# 2 -0.002005 0.013639 -0.003087 -0.004869 -0.002356 0.006814
# 3 -0.004721 -0.003087 0.023273 -0.004143 -0.007461 0.000857
# 4 0.000182 -0.004869 -0.004143 0.027494 0.004210 -0.001738
# 5 0.002238 -0.002356 -0.007461 0.004210 0.022801 -0.006811
# 6 0.002554 0.006814 0.000857 -0.001738 -0.006811 0.029036
#
#
# Mechanical properties :
#
#
# Convention : Reuss Voigt Hill
#
# Bulk Modulus (GPa) = 35.49898 52.20040 43.84969
# Shear Modulus (GPa) = 32.02211 40.92884 36.47548
#
# Velocity S-wave (km/s) = 3.47608 3.92988 3.70993
# Velocity P-wave (km/s) = 5.43193 6.34737 5.90741
#
# Compressibility (1/GPa) = 0.02816982
#
# Stress axis : x y z
#
# Youngs Moduli (GPa) = 91.87450 73.32094 42.96894
#
# Poissons Ratio (x) = 0.14704 0.20284
# Poissons Ratio (y) = 0.18424 0.13265
# Poissons Ratio (z) = 0.43370 0.22634
#
# Static dielectric constant tensor:
#      x y z
#    x 2.056160 -0.017750 -0.040560 
#    y -0.017750 2.157090 -0.076560 
#    z -0.040560 -0.076560 2.158920 
# 
# From -- ./inp_files/494993.got.cif
#   From: 2010.05.17/outbox.cif.g08.bks.cpg/sg2_248_cif.got.tgz:494993.got - 2010.06.03 11:33:40.
