data_PCOD9046429
_publ_section_title
;
Structure prediction by ZEFSAII (Michael W. Deem and Ramdas Pophale) SiO2 
 PCOD9046429
Probable space group: P -1
;
_chemical_formula_sum "Si O2"
_cell_formula_units_Z 15
_cell_length_a 12.903110
_cell_length_b 12.890706
_cell_length_c 7.064887
_cell_angle_alpha 42.480073
_cell_angle_beta 113.949799
_cell_angle_gamma 128.710826
_cell_volume 615.827298
_symmetry_space_group_name_H-M "P -1"
_symmetry_group_IT_number 2
_symmetry_cell_setting 'triclinic'
loop_
_space_group_symop_operation_xyz
x,y,z
-x,-y,-z
loop_
_atom_site_type_symbol
_atom_site_label
_atom_site_fract_x
_atom_site_fract_y
_atom_site_fract_z
Si Si1 0.251537 0.341031 0.810400
Si Si2 0.834987 0.270784 0.569573
Si Si3 0.480460 0.356964 0.514046
Si Si4 0.886018 0.967536 0.105723
Si Si5 0.269853 0.872647 0.697610
Si Si6 0.191188 0.149919 0.393669
Si Si7 0.871556 0.463179 0.695957
Si Si8 0.500000 0.000000 0.000000
O O1 0.397419 0.512902 0.710785
O O2 0.248030 0.180802 0.904646
O O3 0.169994 0.390443 0.537250
O O4 0.178069 0.261293 0.063077
O O5 0.727462 0.160663 0.477954
O O6 0.791316 0.344220 0.611308
O O7 0.970986 0.436022 0.359275
O O8 0.876946 0.143206 0.873344
O O9 0.500000 0.500000 0.500000
O O10 0.338856 0.280156 0.413583
O O11 0.494070 0.185659 0.805546
O O12 0.898771 0.911414 0.401866
O O13 0.000000 0.000000 0.000000
O O14 0.196227 0.982564 0.532590
O O15 0.405350 0.969160 0.786839
O O16 0.178701 0.672789 0.987372
#
# Coordination Sequence:
#
# PCOD9046429 Si02
#       8
#     2   2   2   2   2   2   2   1
#     4  12  24  44  70 102 138 182 234 289 356 423
#     4  11  24  43  67  98 137 190 229 284 359 423
#     4  11  23  44  73  99 143 186 234 295 360 418
#     4  12  24  44  67 101 140 179 234 292 347 421
#     4  11  22  45  70  97 140 185 231 290 358 422
#     4  11  25  43  72  99 139 185 235 290 358 424
#     4  11  24  43  67  99 143 179 233 293 345 429
#     4  10  24  42  72 108 138 184 238 300 348 432
#
# _framework density 24.357476999999999
#
# number of rings (size 3 to 8) (size 9 to 14) (size 15 to 20)
#    0.000    0.800    6.667    0.800    0.000    2.667 
#    4.800    0.667    0.000    0.000    0.000    0.000 
#    0.000    0.000    0.000    0.000    0.000    0.000 
#
# Total GULP energy -83617.788865 kJ/mol
# GULP energy per Si atom -5574.519258 kJ/mol
# Density = 2.430204 g / cm^3
# Si number density = 24.357477 Si / 1000 Ang^3
#
#
#
# Elastic Constant Matrix: (Units=GPa)
#
#
# Indices 1 2 3 4 5 6 
#
# 1 54.8814 20.9179 24.8438 0.8831 0.0471 -6.3147
# 2 20.9179 118.7918 36.5109 13.7028 9.7106 -15.3522
# 3 24.8438 36.5109 123.7076 1.5643 -7.2614 -8.3451
# 4 0.8831 13.7028 1.5643 43.9346 -3.7508 8.8571
# 5 0.0471 9.7106 -7.2614 -3.7508 34.0472 -0.2258
# 6 -6.3147 -15.3522 -8.3451 8.8571 -0.2258 30.4585
#
#
#
# Elastic Compliance Matrix: (Units=1/GPa)
#
#
# Indices 1 2 3 4 5 6 
#
# 1 0.020893 -0.002352 -0.003354 -0.000022 -0.000061 0.002233
# 2 -0.002352 0.011338 -0.002666 -0.004952 -0.004305 0.005905
# 3 -0.003354 -0.002666 0.009736 0.000712 0.002923 0.000443
# 4 -0.000022 -0.004952 0.000712 0.026682 0.004437 -0.010031
# 5 -0.000061 -0.004305 0.002923 0.004437 0.031695 -0.002437
# 6 0.002233 0.005905 0.000443 -0.010031 -0.002437 0.039291
#
#
# Mechanical properties :
#
#
# Convention : Reuss Voigt Hill
#
# Bulk Modulus (GPa) = 39.64547 51.32511 45.48529
# Shear Modulus (GPa) = 30.34212 36.02860 33.18536
#
# Velocity S-wave (km/s) = 3.53328 3.85016 3.69512
# Velocity P-wave (km/s) = 5.74084 6.39393 6.07616
#
# Compressibility (1/GPa) = 0.02522356
#
# Stress axis : x y z
#
# Youngs Moduli (GPa) = 47.86205 88.20072 102.70698
#
# Poissons Ratio (x) = 0.20744 0.34453
# Poissons Ratio (y) = 0.11257 0.27378
# Poissons Ratio (z) = 0.16055 0.23511
#
# Static dielectric constant tensor:
#      x y z
#    x 1.950910 0.047680 -0.048070 
#    y 0.047680 1.980930 -0.070540 
#    z -0.048070 -0.070540 1.964870 
# 
# From -- ./inp_files/38439.got.cif
#   From: 2010.05.17/outbox.cif.g08.bks.cpg/sg2_20_cif.got.tgz:38439.got - 2010.06.03 11:33:40.
