data_PCOD9046202
_publ_section_title
;
Structure prediction by ZEFSAII (Michael W. Deem and Ramdas Pophale) SiO2 
 PCOD9046202
Probable space group: P -1
;
_chemical_formula_sum "Si O2"
_cell_formula_units_Z 14
_cell_length_a 9.325451
_cell_length_b 17.228845
_cell_length_c 23.248280
_cell_angle_alpha 21.160828
_cell_angle_beta 151.640708
_cell_angle_gamma 154.753654
_cell_volume 558.706811
_symmetry_space_group_name_H-M "P -1"
_symmetry_group_IT_number 2
_symmetry_cell_setting 'triclinic'
loop_
_space_group_symop_operation_xyz
x,y,z
-x,-y,-z
loop_
_atom_site_type_symbol
_atom_site_label
_atom_site_fract_x
_atom_site_fract_y
_atom_site_fract_z
Si Si1 0.458532 0.737536 0.158650
Si Si2 0.505877 0.874395 0.648826
Si Si3 0.666561 0.284730 0.498918
Si Si4 0.754948 0.719503 0.539505
Si Si5 0.687334 0.683331 0.162524
Si Si6 0.461707 0.029320 0.172484
Si Si7 0.320210 0.520408 0.980635
O O1 0.461948 0.578476 0.324095
O O2 0.729214 0.781316 0.174194
O O3 0.077995 0.569431 0.112261
O O4 0.500000 0.000000 0.000000
O O5 0.619943 0.665794 0.828266
O O6 0.130955 0.769616 0.619349
O O7 0.500000 0.000000 0.500000
O O8 0.733680 0.079609 0.635203
O O9 0.358837 0.206156 0.491212
O O10 0.566296 0.401513 0.328352
O O11 0.000000 0.500000 0.500000
O O12 0.662977 0.877116 0.353894
O O13 0.456199 0.777448 0.983443
O O14 0.061869 0.815721 0.173895
O O15 0.517033 0.206890 0.123776
O O16 0.500000 0.500000 0.000000
#
# Coordination Sequence:
#
# PCOD9046202 Si02
#       7
#     2   2   2   2   2   2   2
#     4  11  26  43  67 102 134 177 232 286 343 408
#     4  12  28  46  69 106 146 180 230 295 354 405
#     4  11  23  45  73 102 134 189 238 281 336 425
#     4  11  25  45  73 100 136 188 236 282 341 426
#     4  10  24  42  68  98 137 178 227 287 340 411
#     4  11  24  44  68 101 135 180 230 281 349 411
#     4  12  25  43  69  98 138 183 224 285 341 413
#
# _framework density 25.057865
#
# number of rings (size 3 to 8) (size 9 to 14) (size 15 to 20)
#    0.000    0.857    2.857    3.000   10.000    0.571 
#    0.000    1.429    0.000    0.000    0.000    0.000 
#    0.000    0.000    0.000    0.000    0.000    0.000 
#
# Total GULP energy -78189.366352 kJ/mol
# GULP energy per Si atom -5584.954739 kJ/mol
# Density = 2.500083 g / cm^3
# Si number density = 25.057865 Si / 1000 Ang^3
#
#
#
# Elastic Constant Matrix: (Units=GPa)
#
#
# Indices 1 2 3 4 5 6 
#
# 1 61.5102 12.1722 10.0651 -3.8144 -14.2402 5.8869
# 2 12.1722 64.6571 11.7849 1.7109 -3.8696 11.1538
# 3 10.0651 11.7849 201.8732 0.2927 -10.5925 -6.1812
# 4 -3.8144 1.7109 0.2927 33.7146 -2.9538 7.3735
# 5 -14.2402 -3.8696 -10.5925 -2.9538 50.1032 -3.4669
# 6 5.8869 11.1538 -6.1812 7.3735 -3.4669 31.1110
#
#
#
# Elastic Compliance Matrix: (Units=1/GPa)
#
#
# Indices 1 2 3 4 5 6 
#
# 1 0.018505 -0.002667 -0.000602 0.003299 0.004920 -0.002899
# 2 -0.002667 0.017171 -0.001053 0.000121 -0.000055 -0.005895
# 3 -0.000602 -0.001053 0.005147 -0.000350 0.000933 0.001701
# 4 0.003299 0.000121 -0.000350 0.031989 0.002200 -0.008073
# 5 0.004920 -0.000055 0.000933 0.002200 0.021761 0.001178
# 6 -0.002899 -0.005895 0.001701 -0.008073 0.001178 0.037188
#
#
# Mechanical properties :
#
#
# Convention : Reuss Voigt Hill
#
# Bulk Modulus (GPa) = 31.07711 44.00944 37.54327
# Shear Modulus (GPa) = 33.08401 42.58699 37.83550
#
# Velocity S-wave (km/s) = 3.63754 4.12703 3.88999
# Velocity P-wave (km/s) = 5.48373 6.34910 5.93222
#
# Compressibility (1/GPa) = 0.03217803
#
# Stress axis : x y z
#
# Youngs Moduli (GPa) = 54.04006 58.23892 194.30200
#
# Poissons Ratio (x) = 0.15530 0.11703
# Poissons Ratio (y) = 0.14411 0.20460
# Poissons Ratio (z) = 0.03255 0.06133
#
# Static dielectric constant tensor:
#      x y z
#    x 1.989050 -0.019670 -0.001870 
#    y -0.019670 2.042990 0.026080 
#    z -0.001870 0.026080 2.203900 
# 
# From -- ./inp_files/608445.got.cif
#   From: 2010.05.17/outbox.cif.g08.bks.cpg/sg2_305_cif.got.tgz:608445.got - 2010.06.03 11:33:40.
