data_PCOD9046070
_publ_section_title
;
Structure prediction by ZEFSAII (Michael W. Deem and Ramdas Pophale) SiO2 
 PCOD9046070
Probable space group: P -1
;
_chemical_formula_sum "Si O2"
_cell_formula_units_Z 16
_cell_length_a 21.338481
_cell_length_b 10.952719
_cell_length_c 12.478139
_cell_angle_alpha 39.212653
_cell_angle_beta 152.330316
_cell_angle_gamma 148.668870
_cell_volume 702.165593
_symmetry_space_group_name_H-M "P -1"
_symmetry_group_IT_number 2
_symmetry_cell_setting 'triclinic'
loop_
_space_group_symop_operation_xyz
x,y,z
-x,-y,-z
loop_
_atom_site_type_symbol
_atom_site_label
_atom_site_fract_x
_atom_site_fract_y
_atom_site_fract_z
Si Si1 0.519188 0.880287 0.281598
Si Si2 0.411378 0.640184 0.668876
Si Si3 0.230493 0.232967 0.827357
Si Si4 0.994499 0.628574 0.512326
Si Si5 0.639417 0.908156 0.207885
Si Si6 0.324359 0.492979 0.420025
Si Si7 0.773178 0.191059 0.614332
Si Si8 0.040260 0.745279 0.939496
O O1 0.546136 0.857892 0.213746
O O2 0.405758 0.636449 0.338235
O O3 0.692992 0.010458 0.517998
O O4 0.440686 0.030755 0.049410
O O5 0.272266 0.380154 0.681422
O O6 0.370490 0.673406 0.464256
O O7 0.375921 0.790911 0.589555
O O8 0.591119 0.696387 0.912499
O O9 0.139105 0.304700 0.723847
O O10 0.113491 0.953357 0.822926
O O11 0.929508 0.434132 0.639662
O O12 0.000000 0.500000 0.500000
O O13 0.174192 0.863217 0.648386
O O14 0.623791 0.666380 0.339556
O O15 0.131336 0.320155 0.230781
O O16 0.832800 0.143334 0.845593
O O17 0.000000 0.500000 0.000000
#
# Coordination Sequence:
#
# PCOD9046070 Si02
#       8
#     2   2   2   2   2   2   2   2
#     4  11  26  45  73  99 141 186 237 291 346 419
#     4  10  24  42  68 100 138 179 231 286 346 419
#     4  10  24  42  67 101 138 180 234 284 349 422
#     4  11  22  45  71  96 137 180 233 288 346 413
#     4  11  25  47  71 104 137 186 236 293 351 413
#     4  12  25  44  69 104 142 185 231 291 352 422
#     4  11  24  44  69 102 137 186 231 285 354 415
#     4  12  25  43  65 101 143 181 225 285 355 416
#
# _framework density 22.786648
#
# number of rings (size 3 to 8) (size 9 to 14) (size 15 to 20)
#    0.000    1.000    3.750    1.875    7.000    2.500 
#    0.000    5.000    0.000    0.000    0.000    0.000 
#    0.000    0.000    0.000    0.000    0.000    0.000 
#
# Total GULP energy -89328.082412 kJ/mol
# GULP energy per Si atom -5583.005151 kJ/mol
# Density = 2.273479 g / cm^3
# Si number density = 22.786648 Si / 1000 Ang^3
#
#
#
# Elastic Constant Matrix: (Units=GPa)
#
#
# Indices 1 2 3 4 5 6 
#
# 1 94.8360 23.2029 24.1814 1.8476 0.1061 15.2372
# 2 23.2029 132.6327 8.1559 -12.1824 -7.9828 39.6223
# 3 24.1814 8.1559 71.4563 11.2840 -3.2776 10.5803
# 4 1.8476 -12.1824 11.2840 21.1926 -7.9025 5.5570
# 5 0.1061 -7.9828 -3.2776 -7.9025 24.7877 8.9645
# 6 15.2372 39.6223 10.5803 5.5570 8.9645 32.9410
#
#
#
# Elastic Compliance Matrix: (Units=1/GPa)
#
#
# Indices 1 2 3 4 5 6 
#
# 1 0.012418 0.001475 -0.003796 0.005883 0.004916 -0.008629
# 2 0.001475 0.039899 -0.001459 0.066416 0.061348 -0.076105
# 3 -0.003796 -0.001459 0.016951 -0.010149 -0.001517 0.000191
# 4 0.005883 0.066416 -0.010149 0.175729 0.128068 -0.143845
# 5 0.004916 0.061348 -0.001517 0.128068 0.150683 -0.138189
# 6 -0.008629 -0.076105 0.000191 -0.143845 -0.138189 0.187701
#
#
# Mechanical properties :
#
#
# Convention : Reuss Voigt Hill
#
# Bulk Modulus (GPa) = 16.20540 45.55615 30.88077
# Shear Modulus (GPa) = 8.17647 32.00992 20.09320
#
# Velocity S-wave (km/s) = 1.89633 3.75209 2.97273
# Velocity P-wave (km/s) = 3.45282 6.22951 5.03631
#
# Compressibility (1/GPa) = 0.06170784
#
# Stress axis : x y z
#
# Youngs Moduli (GPa) = 80.52846 25.06306 58.99512
#
# Poissons Ratio (x) = -0.03697 0.22397
# Poissons Ratio (y) = -0.11879 0.08606
# Poissons Ratio (z) = 0.30572 0.03656
#
# Static dielectric constant tensor:
#      x y z
#    x 1.964100 -0.070740 0.044580 
#    y -0.070740 1.877020 -0.044380 
#    z 0.044580 -0.044380 1.873510 
# 
# From -- ./inp_files/259053.got.cif
#   From: 2010.05.17/outbox.cif.g08.bks.cpg/sg2_130_cif.got.tgz:259053.got - 2010.06.03 11:33:40.
