data_PCOD9046801
_publ_section_title
;
Structure prediction by ZEFSAII (Michael W. Deem and Ramdas Pophale) SiO2 
 PCOD9046801
Probable space group: P -1
;
_chemical_formula_sum "Si O2"
_cell_formula_units_Z 16
_cell_length_a 17.434603
_cell_length_b 5.211018
_cell_length_c 12.387872
_cell_angle_alpha 62.171792
_cell_angle_beta 42.182569
_cell_angle_gamma 86.704226
_cell_volume 584.213966
_symmetry_space_group_name_H-M "P -1"
_symmetry_group_IT_number 2
_symmetry_cell_setting 'triclinic'
loop_
_space_group_symop_operation_xyz
x,y,z
-x,-y,-z
loop_
_atom_site_type_symbol
_atom_site_label
_atom_site_fract_x
_atom_site_fract_y
_atom_site_fract_z
Si Si1 0.643514 0.796472 0.915685
Si Si2 0.233783 0.924991 0.662696
Si Si3 0.173406 0.466427 0.325817
Si Si4 0.900109 0.433448 0.841319
Si Si5 0.493862 0.495087 0.343579
Si Si6 0.760030 0.644616 0.121394
Si Si7 0.385352 0.926424 0.310916
Si Si8 0.121016 0.314177 0.644977
O O1 0.732132 0.666217 0.791580
O O2 0.738717 0.147512 0.806050
O O3 0.562798 0.852548 0.892658
O O4 0.552070 0.543539 0.151329
O O5 0.206549 0.555831 0.785272
O O6 0.302046 0.026925 0.455241
O O7 0.353330 0.171443 0.567427
O O8 0.113264 0.997256 0.775397
O O9 0.083703 0.437635 0.323241
O O10 0.097751 0.265045 0.550423
O O11 0.034751 0.477921 0.741038
O O12 0.823584 0.577152 0.961833
O O13 0.817799 0.033052 0.002130
O O14 0.604795 0.494276 0.301597
O O15 0.477119 0.823812 0.302657
O O16 0.272337 0.579028 0.449530
#
# Coordination Sequence:
#
# PCOD9046801 Si02
#       8
#     2   2   2   2   2   2   2   2
#     4  11  22  41  69 104 140 170 223 280 345 407
#     4  11  26  46  69  97 139 187 227 282 334 403
#     4  11  21  44  70 103 138 171 220 287 341 407
#     4  12  26  47  73 101 137 181 226 289 333 407
#     4  11  24  44  68 101 136 179 229 282 340 406
#     4  12  29  46  70 102 137 182 236 276 337 399
#     4  10  24  43  68 102 139 182 222 282 340 410
#     4  10  25  45  71 103 136 178 228 278 351 401
#
# _framework density 27.387225999999998
#
# number of rings (size 3 to 8) (size 9 to 14) (size 15 to 20)
#    0.000    1.000    3.750    1.125    8.750    2.000 
#    0.000    3.125    0.000    0.000    0.000    0.000 
#    0.000    0.000    0.000    0.000    0.000    0.000 
#
# Total GULP energy -89712.824218 kJ/mol
# GULP energy per Si atom -5607.051514 kJ/mol
# Density = 2.732489 g / cm^3
# Si number density = 27.387226 Si / 1000 Ang^3
#
#
#
# Elastic Constant Matrix: (Units=GPa)
#
#
# Indices 1 2 3 4 5 6 
#
# 1 104.5740 31.9073 35.1736 2.1703 3.8688 -32.7728
# 2 31.9073 162.7091 25.7079 10.0344 -21.0849 -6.3721
# 3 35.1736 25.7079 47.7963 -1.1974 -4.8596 -1.5442
# 4 2.1703 10.0344 -1.1974 43.2401 -2.2737 -2.0942
# 5 3.8688 -21.0849 -4.8596 -2.2737 35.1135 9.5555
# 6 -32.7728 -6.3721 -1.5442 -2.0942 9.5555 50.4927
#
#
#
# Elastic Compliance Matrix: (Units=1/GPa)
#
#
# Indices 1 2 3 4 5 6 
#
# 1 0.019452 -0.002278 -0.013595 -0.000645 -0.009142 0.013626
# 2 -0.002278 0.007567 -0.001990 -0.001518 0.004847 -0.001565
# 3 -0.013595 -0.001990 0.032505 0.001982 0.007493 -0.009417
# 4 -0.000645 -0.001518 0.001982 0.023626 0.000893 0.000261
# 5 -0.009142 0.004847 0.007493 0.000893 0.036761 -0.012013
# 6 0.013626 -0.001565 -0.009417 0.000261 -0.012013 0.030448
#
#
# Mechanical properties :
#
#
# Convention : Reuss Voigt Hill
#
# Bulk Modulus (GPa) = 42.01976 55.62856 48.82416
# Shear Modulus (GPa) = 25.77089 40.58863 33.17976
#
# Velocity S-wave (km/s) = 3.07087 3.85389 3.48444
# Velocity P-wave (km/s) = 5.28676 6.33713 5.83562
#
# Compressibility (1/GPa) = 0.02379833
#
# Stress axis : x y z
#
# Youngs Moduli (GPa) = 51.40761 132.14474 30.76496
#
# Poissons Ratio (x) = 0.30101 0.41826
# Poissons Ratio (y) = 0.11710 0.06121
# Poissons Ratio (z) = 0.69891 0.26293
#
# Static dielectric constant tensor:
#      x y z
#    x 2.171640 0.035270 0.004060 
#    y 0.035270 2.148260 -0.038360 
#    z 0.004060 -0.038360 2.131600 
# 
# From -- ./inp_files/69346.got.cif
#   From: 2010.05.17/outbox.cif.g08.bks.cpg/sg2_35_cif.got.tgz:69346.got - 2010.06.03 11:33:40.
