data_PCOD9046108
_publ_section_title
;
Structure prediction by ZEFSAII (Michael W. Deem and Ramdas Pophale) SiO2 
 PCOD9046108
Probable space group: P -1
;
_chemical_formula_sum "Si O2"
_cell_formula_units_Z 12
_cell_length_a 10.696488
_cell_length_b 11.729987
_cell_length_c 5.207061
_cell_angle_alpha 60.714988
_cell_angle_beta 65.119255
_cell_angle_gamma 62.158093
_cell_volume 487.956315
_symmetry_space_group_name_H-M "P -1"
_symmetry_group_IT_number 2
_symmetry_cell_setting 'triclinic'
loop_
_space_group_symop_operation_xyz
x,y,z
-x,-y,-z
loop_
_atom_site_type_symbol
_atom_site_label
_atom_site_fract_x
_atom_site_fract_y
_atom_site_fract_z
Si Si1 0.057743 0.121680 0.901848
Si Si2 0.168998 0.197596 0.228213
Si Si3 0.654265 0.230048 0.636863
Si Si4 0.556469 0.128230 0.339964
Si Si5 0.879056 0.364498 0.483731
Si Si6 0.647778 0.660301 0.390414
O O1 0.176824 0.129847 0.576408
O O2 0.930555 0.268712 0.797789
O O3 0.113942 0.114454 0.149128
O O4 0.000000 0.000000 0.000000
O O5 0.032186 0.339690 0.235106
O O6 0.300942 0.234193 0.946622
O O7 0.784092 0.290927 0.482885
O O8 0.498285 0.351245 0.599322
O O9 0.640703 0.152449 0.993707
O O10 0.651085 0.132265 0.507487
O O11 0.413320 0.263544 0.373675
O O12 0.500000 0.000000 0.500000
O O13 0.778796 0.518774 0.459873
#
# Coordination Sequence:
#
# PCOD9046108 Si02
#       6
#     2   2   2   2   2   2
#     4  10  24  43  65  96 136 176 220 268 331 395
#     4  10  24  42  67  96 133 174 221 274 328 395
#     4  10  24  42  67  96 133 174 221 274 328 395
#     4  10  24  43  65  96 136 176 220 268 331 395
#     4  10  24  43  69  99 135 175 222 275 334 395
#     4  10  24  43  69  99 135 175 222 275 334 395
#
# _framework density 24.592365999999998
#
# number of rings (size 3 to 8) (size 9 to 14) (size 15 to 20)
#    2.000    0.000    0.000    2.000    4.667    4.000 
#    0.000    0.000    0.000    0.000    0.000    0.000 
#    0.000    0.000    0.000    0.000    0.000    0.000 
#
# Total GULP energy -67068.262306 kJ/mol
# GULP energy per Si atom -5589.021859 kJ/mol
# Density = 2.453639 g / cm^3
# Si number density = 24.592366 Si / 1000 Ang^3
#
#
#
# Elastic Constant Matrix: (Units=GPa)
#
#
# Indices 1 2 3 4 5 6 
#
# 1 61.3347 6.9489 -11.7833 2.6573 5.1613 -3.2497
# 2 6.9489 106.4545 29.8118 9.5304 10.5326 -5.1461
# 3 -11.7833 29.8118 64.3809 9.1459 19.3408 4.4460
# 4 2.6573 9.5304 9.1459 31.0961 6.3648 -0.4370
# 5 5.1613 10.5326 19.3408 6.3648 39.3149 5.7542
# 6 -3.2497 -5.1461 4.4460 -0.4370 5.7542 42.9421
#
#
#
# Elastic Compliance Matrix: (Units=1/GPa)
#
#
# Indices 1 2 3 4 5 6 
#
# 1 0.018197 -0.002177 0.005877 -0.001661 -0.004590 0.001106
# 2 -0.002177 0.011314 -0.005520 -0.001629 -0.000022 0.001749
# 3 0.005877 -0.005520 0.022662 -0.003512 -0.009682 -0.001301
# 4 -0.001661 -0.001629 -0.003512 0.034526 -0.003330 0.000840
# 5 -0.004590 -0.000022 -0.009682 -0.003330 0.031881 -0.003653
# 6 0.001106 0.001749 -0.001301 0.000840 -0.003653 0.024213
#
#
# Mechanical properties :
#
#
# Convention : Reuss Voigt Hill
#
# Bulk Modulus (GPa) = 20.60533 31.34723 25.97628
# Shear Modulus (GPa) = 30.74815 36.48347 33.61581
#
# Velocity S-wave (km/s) = 3.53981 3.85584 3.70120
# Velocity P-wave (km/s) = 5.01039 5.70944 5.37130
#
# Compressibility (1/GPa) = 0.04853113
#
# Stress axis : x y z
#
# Youngs Moduli (GPa) = 54.95558 88.38360 44.12704
#
# Poissons Ratio (x) = 0.19244 -0.25934
# Poissons Ratio (y) = 0.11966 0.24360
# Poissons Ratio (z) = -0.32298 0.48792
#
# Static dielectric constant tensor:
#      x y z
#    x 1.977590 -0.091810 0.044580 
#    y -0.091810 1.984720 -0.019060 
#    z 0.044580 -0.019060 1.895930 
# 
# From -- ./inp_files/68332.got.cif
#   From: 2010.05.17/outbox.cif.g08.bks.cpg/sg2_35_cif.got.tgz:68332.got - 2010.06.03 11:33:40.
