data_PCOD9046255
_publ_section_title
;
Structure prediction by ZEFSAII (Michael W. Deem and Ramdas Pophale) SiO2 
 PCOD9046255
Probable space group: P -1
;
_chemical_formula_sum "Si O2"
_cell_formula_units_Z 16
_cell_length_a 20.344262
_cell_length_b 13.326172
_cell_length_c 8.994458
_cell_angle_alpha 104.239928
_cell_angle_beta 57.682539
_cell_angle_gamma 154.109653
_cell_volume 693.836945
_symmetry_space_group_name_H-M "P -1"
_symmetry_group_IT_number 2
_symmetry_cell_setting 'triclinic'
loop_
_space_group_symop_operation_xyz
x,y,z
-x,-y,-z
loop_
_atom_site_type_symbol
_atom_site_label
_atom_site_fract_x
_atom_site_fract_y
_atom_site_fract_z
Si Si1 0.399487 0.977858 0.047177
Si Si2 0.381553 0.696220 0.571487
Si Si3 0.126747 0.170845 0.154631
Si Si4 0.266665 0.180997 0.388304
Si Si5 0.597302 0.390187 0.761019
Si Si6 0.259682 0.129038 0.039566
Si Si7 0.800077 0.320730 0.120106
Si Si8 0.462909 0.224790 0.296903
O O1 0.581805 0.269644 0.838367
O O2 0.218908 0.719372 0.048837
O O3 0.349504 0.996232 0.245205
O O4 0.500000 0.000000 0.000000
O O5 0.295088 0.508497 0.484760
O O6 0.206138 0.564473 0.790821
O O7 0.494826 0.774302 0.596086
O O8 0.578674 0.001105 0.353886
O O9 0.265455 0.358435 0.211561
O O10 0.112917 0.030493 0.091599
O O11 0.290753 0.432521 0.935553
O O12 0.900456 0.950455 0.375321
O O13 0.500664 0.526110 0.185105
O O14 0.317978 0.147315 0.419730
O O15 0.185509 0.044358 0.272177
O O16 0.344355 0.115310 0.930907
O O17 0.000000 0.500000 0.000000
#
# Coordination Sequence:
#
# PCOD9046255 Si02
#       8
#     2   2   2   2   2   2   2   2
#     4  10  18  36  62  79 114 152 186 237 282 327
#     4  10  22  39  56  76 121 152 180 238 299 331
#     4  10  19  33  59  83 111 140 192 238 275 335
#     4  10  18  32  58  86 109 139 187 239 279 326
#     4  10  19  35  56  83 110 154 184 226 290 340
#     4  10  17  34  55  85 112 144 184 235 284 335
#     4  10  22  39  59  82 112 153 197 238 286 340
#     4  10  20  37  56  83 112 150 187 231 282 340
#
# _framework density 23.060172999999999
#
# number of rings (size 3 to 8) (size 9 to 14) (size 15 to 20)
#    0.000    2.000    6.250    0.375    0.000    2.000 
#    0.000    3.125    0.000    1.500    0.000    0.000 
#    0.000    0.000    0.000    0.000    0.000    0.000 
#
# Total GULP energy -89148.043847 kJ/mol
# GULP energy per Si atom -5571.752740 kJ/mol
# Density = 2.300769 g / cm^3
# Si number density = 23.060173 Si / 1000 Ang^3
#
#
#
# Elastic Constant Matrix: (Units=GPa)
#
#
# Indices 1 2 3 4 5 6 
#
# 1 181.6757 23.4107 26.3979 20.5961 -27.1279 -5.0150
# 2 23.4107 23.6159 10.6052 11.9232 0.0780 -1.9165
# 3 26.3979 10.6052 48.9391 1.9127 -22.0414 -2.9008
# 4 20.5961 11.9232 1.9127 15.4494 23.1750 3.0031
# 5 -27.1279 0.0780 -22.0414 23.1750 34.7284 3.2245
# 6 -5.0150 -1.9165 -2.9008 3.0031 3.2245 32.6495
#
#
#
# Elastic Compliance Matrix: (Units=1/GPa)
#
#
# Indices 1 2 3 4 5 6 
#
# 1 0.004755 -0.009114 -0.004517 0.012681 -0.007536 -0.000628
# 2 -0.009114 0.055634 -0.018604 0.008586 -0.024956 0.001888
# 3 -0.004517 -0.018604 0.023901 0.024251 -0.004364 -0.001462
# 4 0.012681 0.008586 0.024251 -0.063305 0.067171 0.003795
# 5 -0.007536 -0.024956 -0.004364 0.067171 -0.023997 -0.006819
# 6 -0.000628 0.001888 -0.001462 0.003795 -0.006819 0.030837
#
#
# Mechanical properties :
#
#
# Convention : Reuss Voigt Hill
#
# Bulk Modulus (GPa) = 50.45081 41.67315 46.06198
# Shear Modulus (GPa) = 50.55624 29.48658 40.02141
#
# Velocity S-wave (km/s) = 4.68735 3.57974 4.17048
# Velocity P-wave (km/s) = 7.15684 5.93269 6.57332
#
# Compressibility (1/GPa) = 0.01982129
#
# Stress axis : x y z
#
# Youngs Moduli (GPa) = 210.31874 17.97478 41.83854
#
# Poissons Ratio (x) = 0.16381 0.18898
# Poissons Ratio (y) = 1.91676 0.77835
# Poissons Ratio (z) = 0.94999 0.33440
#
# Static dielectric constant tensor:
#      x y z
#    x 1.898440 -0.038560 -0.032620 
#    y -0.038560 1.993430 0.005000 
#    z -0.032620 0.005000 1.862740 
# 
# From -- ./inp_files/347281.got.cif
#   From: 2010.05.17/outbox.cif.g08.bks.cpg/sg2_174_cif.got.tgz:347281.got - 2010.06.03 11:33:40.
