data_PCOD9046711
_publ_section_title
;
Structure prediction by ZEFSAII (Michael W. Deem and Ramdas Pophale) SiO2 
 PCOD9046711
Probable space group: P -1
;
_chemical_formula_sum "Si O2"
_cell_formula_units_Z 16
_cell_length_a 7.900115
_cell_length_b 5.226231
_cell_length_c 19.278013
_cell_angle_alpha 88.947949
_cell_angle_beta 109.786390
_cell_angle_gamma 60.313620
_cell_volume 633.585913
_symmetry_space_group_name_H-M "P -1"
_symmetry_group_IT_number 2
_symmetry_cell_setting 'triclinic'
loop_
_space_group_symop_operation_xyz
x,y,z
-x,-y,-z
loop_
_atom_site_type_symbol
_atom_site_label
_atom_site_fract_x
_atom_site_fract_y
_atom_site_fract_z
Si Si1 0.006230 0.878015 0.820659
Si Si2 0.100592 0.435263 0.418433
Si Si3 0.702856 0.839315 0.685242
Si Si4 0.117913 0.164081 0.046599
Si Si5 0.290744 0.767050 0.508180
Si Si6 0.652909 0.511108 0.798601
Si Si7 0.644919 0.534573 0.347480
Si Si8 0.499223 0.443582 0.918132
O O1 0.907769 0.847156 0.736851
O O2 0.916546 0.802390 0.876339
O O3 0.255738 0.652386 0.860596
O O4 0.894020 0.237736 0.815423
O O5 0.218652 0.406181 0.362304
O O6 0.120340 0.671280 0.466954
O O7 0.862832 0.521419 0.369116
O O8 0.221208 0.096406 0.469015
O O9 0.618297 0.780442 0.744681
O O10 0.518968 0.165286 0.634115
O O11 0.366327 0.922178 0.067296
O O12 0.000000 0.500000 0.000000
O O13 0.000000 0.000000 0.000000
O O14 0.500000 0.500000 0.500000
O O15 0.319026 0.733333 0.595351
O O16 0.482368 0.444620 0.740032
O O17 0.615966 0.531713 0.875513
O O18 0.500000 0.500000 0.000000
#
# Coordination Sequence:
#
# PCOD9046711 Si02
#       8
#     2   2   2   2   2   2   2   2
#     4  10  24  43  67 103 141 188 242 290 367 431
#     4  12  27  44  73 108 141 192 245 299 356 429
#     4  11  25  44  70  98 146 195 235 304 355 436
#     4  11  25  46  72 107 144 183 235 299 365 431
#     4  12  25  46  73 106 148 189 241 301 361 422
#     4  10  25  44  70 101 148 190 241 301 367 435
#     4  11  25  45  70 103 145 189 242 295 363 428
#     4  11  23  46  75 107 145 191 246 305 368 442
#
# _framework density 25.253086
#
# number of rings (size 3 to 8) (size 9 to 14) (size 15 to 20)
#    0.000    1.000    2.500    2.625    8.750    1.500 
#    2.250    0.000    0.000    0.000    0.000    0.000 
#    0.000    0.000    0.000    0.000    0.000    0.000 
#
# Total GULP energy -89523.633286 kJ/mol
# GULP energy per Si atom -5595.227080 kJ/mol
# Density = 2.519561 g / cm^3
# Si number density = 25.253086 Si / 1000 Ang^3
#
#
#
# Elastic Constant Matrix: (Units=GPa)
#
#
# Indices 1 2 3 4 5 6 
#
# 1 94.6673 39.5856 42.0307 -5.2884 17.6919 -22.3665
# 2 39.5856 117.4754 59.4889 -20.8448 5.6515 -4.6821
# 3 42.0307 59.4889 112.6277 -5.9240 -1.2348 -7.9340
# 4 -5.2884 -20.8448 -5.9240 53.8028 -8.0044 0.3181
# 5 17.6919 5.6515 -1.2348 -8.0044 57.6221 -6.8254
# 6 -22.3665 -4.6821 -7.9340 0.3181 -6.8254 51.3823
#
#
#
# Elastic Compliance Matrix: (Units=1/GPa)
#
#
# Indices 1 2 3 4 5 6 
#
# 1 0.015523 -0.002951 -0.003937 -0.000681 -0.004022 0.005350
# 2 -0.002951 0.013068 -0.005654 0.004151 -0.000038 -0.000998
# 3 -0.003937 -0.005654 0.013319 -0.000822 0.001945 0.000091
# 4 -0.000681 0.004151 -0.000822 0.020429 0.002644 0.000180
# 5 -0.004022 -0.000038 0.001945 0.002644 0.019129 0.001071
# 6 0.005350 -0.000998 0.000091 0.000180 0.001071 0.021855
#
#
# Mechanical properties :
#
#
# Convention : Reuss Voigt Hill
#
# Bulk Modulus (GPa) = 59.43083 67.44232 63.43658
# Shear Modulus (GPa) = 37.30888 44.80579 41.05733
#
# Velocity S-wave (km/s) = 3.84786 4.21678 4.03654
# Velocity P-wave (km/s) = 6.58229 7.10442 6.84834
#
# Compressibility (1/GPa) = 0.01682628
#
# Stress axis : x y z
#
# Youngs Moduli (GPa) = 64.42036 76.52027 75.08170
#
# Poissons Ratio (x) = 0.22582 0.29561
# Poissons Ratio (y) = 0.19011 0.42449
# Poissons Ratio (z) = 0.25364 0.43262
#
# Static dielectric constant tensor:
#      x y z
#    x 2.089100 0.063760 0.046180 
#    y 0.063760 2.042410 0.005660 
#    z 0.046180 0.005660 1.982070 
# 
# From -- ./inp_files/585650.got.cif
#   From: 2010.05.17/outbox.cif.g08.bks.cpg/sg2_293_cif.got.tgz:585650.got - 2010.06.03 11:33:40.
