data_PCOD9046378
_publ_section_title
;
Structure prediction by ZEFSAII (Michael W. Deem and Ramdas Pophale) SiO2 
 PCOD9046378
Probable space group: P -1
;
_chemical_formula_sum "Si O2"
_cell_formula_units_Z 12
_cell_length_a 14.926002
_cell_length_b 7.544244
_cell_length_c 7.208181
_cell_angle_alpha 142.085704
_cell_angle_beta 63.362849
_cell_angle_gamma 105.673466
_cell_volume 440.637559
_symmetry_space_group_name_H-M "P -1"
_symmetry_group_IT_number 2
_symmetry_cell_setting 'triclinic'
loop_
_space_group_symop_operation_xyz
x,y,z
-x,-y,-z
loop_
_atom_site_type_symbol
_atom_site_label
_atom_site_fract_x
_atom_site_fract_y
_atom_site_fract_z
Si Si1 0.399110 0.138993 0.317267
Si Si2 0.810529 0.523320 0.819693
Si Si3 0.891043 0.460754 0.288714
Si Si4 0.606093 0.289599 0.706430
Si Si5 0.313329 0.766254 0.821227
Si Si6 0.902918 0.897275 0.310051
O O1 0.400884 0.984798 0.383924
O O2 0.377862 0.485673 0.629317
O O3 0.313033 0.038281 0.180859
O O4 0.500000 0.000000 0.000000
O O5 0.864176 0.561491 0.605828
O O6 0.699130 0.451289 0.820803
O O7 0.874570 0.243025 0.630275
O O8 0.817752 0.791583 0.168877
O O9 0.796512 0.311765 0.183273
O O10 0.906852 0.725743 0.357753
O O11 0.991243 0.220875 0.985791
O O12 0.631611 0.198408 0.395455
O O13 0.500000 0.500000 0.000000
#
# Coordination Sequence:
#
# PCOD9046378 Si02
#       6
#     2   2   2   2   2   2
#     4  12  25  44  67  93 134 172 215 270 321 378
#     4  11  25  44  65  98 134 169 216 270 319 383
#     4  10  24  42  71  97 131 172 215 264 325 388
#     4  11  25  44  68  97 130 176 218 266 324 384
#     4  11  26  45  65 100 132 169 217 268 321 386
#     4  11  24  44  68  98 131 171 215 266 325 384
#
# _framework density 27.233267000000001
#
# number of rings (size 3 to 8) (size 9 to 14) (size 15 to 20)
#    0.000    1.000    1.667    3.500    0.000   12.667 
#    0.000    0.000    0.000    0.000    0.000    0.000 
#    0.000    0.000    0.000    0.000    0.000    0.000 
#
# Total GULP energy -67579.668755 kJ/mol
# GULP energy per Si atom -5631.639063 kJ/mol
# Density = 2.717128 g / cm^3
# Si number density = 27.233267 Si / 1000 Ang^3
#
#
#
# Elastic Constant Matrix: (Units=GPa)
#
#
# Indices 1 2 3 4 5 6 
#
# 1 122.0277 44.7774 28.5077 -6.1697 -20.3586 8.1287
# 2 44.7774 185.2910 42.8831 -31.7581 -4.9143 -30.3270
# 3 28.5077 42.8831 114.4349 -7.2678 -3.2415 -1.6130
# 4 -6.1697 -31.7581 -7.2678 34.9529 6.2857 13.1306
# 5 -20.3586 -4.9143 -3.2415 6.2857 52.0155 -11.9670
# 6 8.1287 -30.3270 -1.6130 13.1306 -11.9670 36.6481
#
#
#
# Elastic Compliance Matrix: (Units=1/GPa)
#
#
# Indices 1 2 3 4 5 6 
#
# 1 0.010230 -0.002639 -0.001535 -0.000087 0.002851 -0.003558
# 2 -0.002639 0.008224 -0.002057 0.004272 0.000462 0.005921
# 3 -0.001535 -0.002057 0.009890 0.000492 -0.000532 -0.001276
# 4 -0.000087 0.004272 0.000492 0.038596 -0.007161 -0.012591
# 5 0.002851 0.000462 -0.000532 -0.007161 0.023510 0.009969
# 6 -0.003558 0.005921 -0.001276 -0.012591 0.009969 0.040685
#
#
# Mechanical properties :
#
#
# Convention : Reuss Voigt Hill
#
# Bulk Modulus (GPa) = 62.95682 72.67668 67.81675
# Shear Modulus (GPa) = 33.58202 45.09567 39.33885
#
# Velocity S-wave (km/s) = 3.51540 4.07369 3.80480
# Velocity P-wave (km/s) = 6.29644 6.99080 6.65269
#
# Compressibility (1/GPa) = 0.01588390
#
# Stress axis : x y z
#
# Youngs Moduli (GPa) = 97.75332 121.59550 101.11447
#
# Poissons Ratio (x) = 0.32084 0.15517
# Poissons Ratio (y) = 0.25793 0.20796
# Poissons Ratio (z) = 0.15001 0.25008
#
# Static dielectric constant tensor:
#      x y z
#    x 2.147740 0.050910 0.006770 
#    y 0.050910 2.083440 -0.010580 
#    z 0.006770 -0.010580 1.999500 
# 
# From -- ./inp_files/299915.got.cif
#   From: 2010.05.17/outbox.cif.g08.bks.cpg/sg2_150_cif.got.tgz:299915.got - 2010.06.03 11:33:40.
