data_PCOD9046956
_publ_section_title
;
Structure prediction by ZEFSAII (Michael W. Deem and Ramdas Pophale) SiO2 
 PCOD9046956
Probable space group: P -1
;
_chemical_formula_sum "Si O2"
_cell_formula_units_Z 14
_cell_length_a 12.334542
_cell_length_b 8.458518
_cell_length_c 9.785786
_cell_angle_alpha 110.359796
_cell_angle_beta 53.479339
_cell_angle_gamma 130.607519
_cell_volume 621.605919
_symmetry_space_group_name_H-M "P -1"
_symmetry_group_IT_number 2
_symmetry_cell_setting 'triclinic'
loop_
_space_group_symop_operation_xyz
x,y,z
-x,-y,-z
loop_
_atom_site_type_symbol
_atom_site_label
_atom_site_fract_x
_atom_site_fract_y
_atom_site_fract_z
Si Si1 0.049295 0.391406 0.632043
Si Si2 0.672030 0.407391 0.294041
Si Si3 0.650618 0.776879 0.353880
Si Si4 0.030536 0.838646 0.874727
Si Si5 0.201214 0.828310 0.004780
Si Si6 0.517703 0.693380 0.121974
Si Si7 0.851400 0.555723 0.707156
O O1 0.981491 0.513557 0.653145
O O2 0.213508 0.540093 0.643117
O O3 0.092849 0.320751 0.440948
O O4 0.906993 0.231682 0.795805
O O5 0.708531 0.627295 0.290987
O O6 0.480188 0.264945 0.444309
O O7 0.715760 0.294937 0.117533
O O8 0.558752 0.704315 0.254614
O O9 0.804114 0.019321 0.300152
O O10 0.077667 0.759394 0.945439
O O11 0.866370 0.688646 0.863839
O O12 0.000000 0.000000 0.000000
O O13 0.340108 0.076369 0.970423
O O14 0.335591 0.645193 0.230586
O O15 0.500000 0.500000 0.000000
#
# Coordination Sequence:
#
# PCOD9046956 Si02
#       7
#     2   2   2   2   2   2   2
#     4  11  24  42  68 106 132 179 224 288 335 400
#     4  11  22  44  70 101 132 176 239 279 334 405
#     4  10  24  43  69  98 136 178 224 287 336 403
#     4  11  23  43  70 100 131 185 228 276 337 411
#     4  11  25  43  75  97 132 183 239 274 327 418
#     4  11  25  46  66 100 138 180 219 286 350 402
#     4  11  24  44  67  97 146 172 221 283 352 397
#
# _framework density 22.522309
#
# number of rings (size 3 to 8) (size 9 to 14) (size 15 to 20)
#    0.000    1.143    2.857    3.000    4.000    5.143 
#    5.143    2.143    0.000    0.000    0.000    0.000 
#    0.000    0.000    0.000    0.000    0.000    0.000 
#
# Total GULP energy -78210.284000 kJ/mol
# GULP energy per Si atom -5586.448857 kJ/mol
# Density = 2.247105 g / cm^3
# Si number density = 22.522309 Si / 1000 Ang^3
#
#
#
# Elastic Constant Matrix: (Units=GPa)
#
#
# Indices 1 2 3 4 5 6 
#
# 1 93.0607 30.7818 10.7711 -7.4185 -0.7438 11.2206
# 2 30.7818 77.3042 40.0802 -14.8450 6.4557 7.9690
# 3 10.7711 40.0802 93.5580 -26.8005 8.1218 1.7234
# 4 -7.4185 -14.8450 -26.8005 37.9758 -1.9236 1.5773
# 5 -0.7438 6.4557 8.1218 -1.9236 34.8379 4.0771
# 6 11.2206 7.9690 1.7234 1.5773 4.0771 32.7056
#
#
#
# Elastic Compliance Matrix: (Units=1/GPa)
#
#
# Indices 1 2 3 4 5 6 
#
# 1 0.012879 -0.005177 0.001097 0.001485 0.001467 -0.003470
# 2 -0.005177 0.019347 -0.007044 0.001596 -0.001680 -0.002434
# 3 0.001097 -0.007044 0.016280 0.008835 -0.002015 0.000307
# 4 0.001485 0.001596 0.008835 0.033599 -0.000121 -0.002969
# 5 0.001467 -0.001680 -0.002015 -0.000121 0.029945 -0.003715
# 6 -0.003470 -0.002434 0.000307 -0.002969 -0.003715 0.032949
#
#
# Mechanical properties :
#
#
# Convention : Reuss Voigt Hill
#
# Bulk Modulus (GPa) = 38.08308 47.46545 42.77426
# Shear Modulus (GPa) = 28.40878 33.25653 30.83265
#
# Velocity S-wave (km/s) = 3.55542 3.84683 3.70399
# Velocity P-wave (km/s) = 5.81381 6.39151 6.10949
#
# Compressibility (1/GPa) = 0.02625838
#
# Stress axis : x y z
#
# Youngs Moduli (GPa) = 77.64279 51.68629 61.42421
#
# Poissons Ratio (x) = 0.26757 -0.06738
# Poissons Ratio (y) = 0.40195 0.43270
# Poissons Ratio (z) = -0.08517 0.36410
#
# Static dielectric constant tensor:
#      x y z
#    x 1.868630 0.076870 0.057610 
#    y 0.076870 2.116660 0.330260 
#    z 0.057610 0.330260 2.302080 
# 
# From -- ./inp_files/243743.got.cif
#   From: 2010.05.17/outbox.cif.g08.bks.cpg/sg2_122_cif.got.tgz:243743.got - 2010.06.03 11:33:40.
