data_PCOD9046974
_publ_section_title
;
Structure prediction by ZEFSAII (Michael W. Deem and Ramdas Pophale) SiO2 
 PCOD9046974
Probable space group: P -1
;
_chemical_formula_sum "Si O2"
_cell_formula_units_Z 16
_cell_length_a 17.961118
_cell_length_b 12.379340
_cell_length_c 5.414313
_cell_angle_alpha 132.526268
_cell_angle_beta 116.356492
_cell_angle_gamma 47.528766
_cell_volume 654.243329
_symmetry_space_group_name_H-M "P -1"
_symmetry_group_IT_number 2
_symmetry_cell_setting 'triclinic'
loop_
_space_group_symop_operation_xyz
x,y,z
-x,-y,-z
loop_
_atom_site_type_symbol
_atom_site_label
_atom_site_fract_x
_atom_site_fract_y
_atom_site_fract_z
Si Si1 0.266274 0.575215 0.534821
Si Si2 0.507376 0.147499 0.602029
Si Si3 0.384085 0.539173 0.161084
Si Si4 0.336113 0.906132 0.611909
Si Si5 0.877235 0.822551 0.352225
Si Si6 0.300711 0.255101 0.293845
Si Si7 0.879970 0.647848 0.583624
Si Si8 0.960791 0.113747 0.366819
O O1 0.329967 0.557681 0.365716
O O2 0.250702 0.414287 0.266215
O O3 0.158132 0.758295 0.624693
O O4 0.316379 0.575535 0.870426
O O5 0.614342 0.065683 0.507897
O O6 0.412374 0.216199 0.387347
O O7 0.500000 0.000000 0.500000
O O8 0.476663 0.332010 0.966608
O O9 0.402078 0.695965 0.430038
O O10 0.219241 0.975319 0.519470
O O11 0.328015 0.054482 0.010129
O O12 0.861962 0.776563 0.531425
O O13 0.985775 0.783132 0.412120
O O14 0.870863 0.712602 0.952443
O O15 0.220535 0.355454 0.558735
O O16 0.000000 0.500000 0.500000
O O17 0.000000 0.000000 0.500000
O O18 0.000000 0.000000 0.000000
#
# Coordination Sequence:
#
# PCOD9046974 Si02
#       8
#     2   2   2   2   2   2   2   2
#     4  11  24  46  69 101 139 177 226 280 335 404
#     4  11  23  43  70 102 135 177 226 281 338 401
#     4  11  26  45  71 101 135 179 224 277 340 402
#     4  11  23  44  67  98 136 176 225 280 334 400
#     4  11  24  39  62  95 130 174 221 274 331 389
#     4  10  24  43  70 100 136 180 225 278 339 400
#     4  11  23  41  64  95 132 173 218 273 331 394
#     4  12  24  41  67  98 134 182 226 273 334 402
#
# _framework density 24.455732999999999
#
# number of rings (size 3 to 8) (size 9 to 14) (size 15 to 20)
#    0.000    1.000    0.000    6.375    0.000   11.000 
#    0.000    3.750    0.000    0.000    0.000    0.000 
#    0.000    0.000    0.000    0.000    0.000    0.000 
#
# Total GULP energy -89179.210888 kJ/mol
# GULP energy per Si atom -5573.700680 kJ/mol
# Density = 2.440007 g / cm^3
# Si number density = 24.455733 Si / 1000 Ang^3
#
#
#
# Elastic Constant Matrix: (Units=GPa)
#
#
# Indices 1 2 3 4 5 6 
#
# 1 102.5937 12.2737 17.7344 -6.2585 -24.0674 16.5263
# 2 12.2737 99.3413 44.9377 1.7456 -10.9934 15.3203
# 3 17.7344 44.9377 81.2117 -2.5757 6.3545 5.9613
# 4 -6.2585 1.7456 -2.5757 46.3822 1.5241 -5.0509
# 5 -24.0674 -10.9934 6.3545 1.5241 36.0311 8.1092
# 6 16.5263 15.3203 5.9613 -5.0509 8.1092 57.9813
#
#
#
# Elastic Compliance Matrix: (Units=1/GPa)
#
#
# Indices 1 2 3 4 5 6 
#
# 1 0.014300 0.002968 -0.005303 0.000445 0.012737 -0.006057
# 2 0.002968 0.016281 -0.010084 -0.001721 0.010077 -0.005670
# 3 -0.005303 -0.010084 0.019681 0.001536 -0.011016 0.003827
# 4 0.000445 -0.001721 0.001536 0.022093 -0.001966 0.002369
# 5 0.012737 0.010077 -0.011016 -0.001966 0.043945 -0.011478
# 6 -0.006057 -0.005670 0.003827 0.002369 -0.011478 0.021890
#
#
# Mechanical properties :
#
#
# Convention : Reuss Voigt Hill
#
# Bulk Modulus (GPa) = 39.33280 48.11538 43.72409
# Shear Modulus (GPa) = 29.15418 41.95897 35.55657
#
# Velocity S-wave (km/s) = 3.45646 4.14661 3.81716
# Velocity P-wave (km/s) = 5.66106 6.53016 6.11108
#
# Compressibility (1/GPa) = 0.02542407
#
# Stress axis : x y z
#
# Youngs Moduli (GPa) = 69.93220 61.42100 50.81030
#
# Poissons Ratio (x) = -0.18229 0.26943
# Poissons Ratio (y) = -0.20754 0.51237
# Poissons Ratio (z) = 0.37083 0.61936
#
# Static dielectric constant tensor:
#      x y z
#    x 2.062200 -0.249070 0.398680 
#    y -0.249070 2.046340 -0.083250 
#    z 0.398680 -0.083250 2.144510 
# 
# From -- ./inp_files/109929.got.cif
#   From: 2010.05.17/outbox.cif.g08.bks.cpg/sg2_55_cif.got.tgz:109929.got - 2010.06.03 11:33:40.
