data_PCOD9046989
_publ_section_title
;
Structure prediction by ZEFSAII (Michael W. Deem and Ramdas Pophale) SiO2 
 PCOD9046989
Probable space group: P -1
;
_chemical_formula_sum "Si O2"
_cell_formula_units_Z 16
_cell_length_a 13.021518
_cell_length_b 15.065458
_cell_length_c 16.545349
_cell_angle_alpha 151.900025
_cell_angle_beta 144.585991
_cell_angle_gamma 54.683109
_cell_volume 758.890575
_symmetry_space_group_name_H-M "P -1"
_symmetry_group_IT_number 2
_symmetry_cell_setting 'triclinic'
loop_
_space_group_symop_operation_xyz
x,y,z
-x,-y,-z
loop_
_atom_site_type_symbol
_atom_site_label
_atom_site_fract_x
_atom_site_fract_y
_atom_site_fract_z
Si Si1 0.584464 0.003708 0.645084
Si Si2 0.905672 0.274924 0.309064
Si Si3 0.990005 0.037721 0.930089
Si Si4 0.934171 0.180561 0.594393
Si Si5 0.523517 0.861783 0.155185
Si Si6 0.737948 0.202942 0.319911
Si Si7 0.605169 0.502430 0.828987
Si Si8 0.601419 0.547697 0.516059
O O1 0.511041 0.754081 0.426375
O O2 0.500000 0.000000 0.500000
O O3 0.830912 0.118877 0.884920
O O4 0.520389 0.124714 0.767459
O O5 0.867921 0.248893 0.359016
O O6 0.000000 0.500000 0.500000
O O7 0.671190 0.146605 0.020294
O O8 0.063144 0.190285 0.326290
O O9 0.217030 0.202630 0.175388
O O10 0.000000 0.000000 0.000000
O O11 0.851726 0.178710 0.450576
O O12 0.734286 0.088624 0.449738
O O13 0.000000 0.000000 0.500000
O O14 0.148773 0.402199 0.929369
O O15 0.548569 0.659912 0.973659
O O16 0.714994 0.412000 0.479204
O O17 0.500000 0.000000 0.000000
O O18 0.543475 0.516003 0.707323
O O19 0.500000 0.500000 0.500000
#
# Coordination Sequence:
#
# PCOD9046989 Si02
#       8
#     2   2   2   2   2   2   2   2
#     4  12  29  45  69 103 143 189 238 290 356 435
#     4  12  23  40  74 102 137 183 237 294 352 413
#     4  12  24  45  68  99 141 182 235 293 350 417
#     4  10  24  43  70 102 142 181 232 294 357 425
#     4  11  23  45  71  99 141 185 236 294 361 416
#     4  12  23  42  72 105 132 181 241 285 346 430
#     4  11  24  48  70 102 146 184 233 301 358 418
#     4  12  26  43  73 106 138 182 242 297 351 419
#
# _framework density 21.083409
#
# number of rings (size 3 to 8) (size 9 to 14) (size 15 to 20)
#    0.000    0.500    5.000    3.000    3.500    4.000 
#    0.000    0.000    0.000    0.000    0.000    0.000 
#    0.000    0.000    0.000    0.000    0.000    0.000 
#
# Total GULP energy -89311.120660 kJ/mol
# GULP energy per Si atom -5581.945041 kJ/mol
# Density = 2.103542 g / cm^3
# Si number density = 21.083409 Si / 1000 Ang^3
#
#
#
# Elastic Constant Matrix: (Units=GPa)
#
#
# Indices 1 2 3 4 5 6 
#
# 1 172.5948 44.0356 37.7496 -17.0971 -9.0009 17.2165
# 2 44.0356 112.5489 32.2617 -28.6727 -10.0465 22.9024
# 3 37.7496 32.2617 84.4680 -16.2741 14.9352 3.5746
# 4 -17.0971 -28.6727 -16.2741 50.0289 1.2350 -6.6200
# 5 -9.0009 -10.0465 14.9352 1.2350 44.5076 -5.8054
# 6 17.2165 22.9024 3.5746 -6.6200 -5.8054 33.5010
#
#
#
# Elastic Compliance Matrix: (Units=1/GPa)
#
#
# Indices 1 2 3 4 5 6 
#
# 1 0.007080 -0.001259 -0.002828 0.000459 0.001814 -0.002071
# 2 -0.001259 0.013368 -0.003834 0.005041 0.003054 -0.006557
# 3 -0.002828 -0.003834 0.016161 0.002481 -0.006710 0.001678
# 4 0.000459 0.005041 0.002481 0.023945 -0.000168 0.000756
# 5 0.001814 0.003054 -0.006710 -0.000168 0.026065 0.002180
# 6 -0.002071 -0.006557 0.001678 0.000756 0.002180 0.035745
#
#
# Mechanical properties :
#
#
# Convention : Reuss Voigt Hill
#
# Bulk Modulus (GPa) = 48.15615 66.41172 57.28393
# Shear Modulus (GPa) = 34.45205 42.64516 38.54861
#
# Velocity S-wave (km/s) = 4.04677 4.50231 4.28060
# Velocity P-wave (km/s) = 6.68771 7.65478 7.18753
#
# Compressibility (1/GPa) = 0.02076578
#
# Stress axis : x y z
#
# Youngs Moduli (GPa) = 141.23521 74.80569 61.87922
#
# Poissons Ratio (x) = 0.09421 0.17499
# Poissons Ratio (y) = 0.17787 0.23726
# Poissons Ratio (z) = 0.39939 0.28683
#
# Static dielectric constant tensor:
#      x y z
#    x 1.734270 -0.039130 0.003730 
#    y -0.039130 1.629770 -0.064980 
#    z 0.003730 -0.064980 1.766530 
# 
# From -- ./inp_files/187832.got.cif
#   From: 2010.05.17/outbox.cif.g08.bks.cpg/sg2_94_cif.got.tgz:187832.got - 2010.06.03 11:33:40.
