data_PCOD9046358
_publ_section_title
;
Structure prediction by ZEFSAII (Michael W. Deem and Ramdas Pophale) SiO2 
 PCOD9046358
Probable space group: P -1
;
_chemical_formula_sum "Si O2"
_cell_formula_units_Z 14
_cell_length_a 15.024640
_cell_length_b 6.079123
_cell_length_c 12.918768
_cell_angle_alpha 66.952041
_cell_angle_beta 37.369581
_cell_angle_gamma 55.936181
_cell_volume 589.907103
_symmetry_space_group_name_H-M "P -1"
_symmetry_group_IT_number 2
_symmetry_cell_setting 'triclinic'
loop_
_space_group_symop_operation_xyz
x,y,z
-x,-y,-z
loop_
_atom_site_type_symbol
_atom_site_label
_atom_site_fract_x
_atom_site_fract_y
_atom_site_fract_z
Si Si1 0.821187 0.054461 0.546588
Si Si2 0.878683 0.191940 0.815240
Si Si3 0.697740 0.880379 0.078147
Si Si4 0.407955 0.363434 0.345477
Si Si5 0.365691 0.583182 0.699202
Si Si6 0.805553 0.912423 0.359235
Si Si7 0.684718 0.772220 0.874843
O O1 0.720184 0.349498 0.631030
O O2 0.748621 0.062712 0.495965
O O3 0.791035 0.845166 0.681881
O O4 0.011637 0.951680 0.360734
O O5 0.723055 0.464986 0.879541
O O6 0.003266 0.254144 0.760454
O O7 0.827783 0.992892 0.960117
O O8 0.698175 0.639381 0.188444
O O9 0.518042 0.131670 0.207825
O O10 0.731013 0.790712 0.946244
O O11 0.541149 0.398934 0.287280
O O12 0.297028 0.253640 0.531425
O O13 0.500000 0.500000 0.500000
O O14 0.229805 0.872545 0.736745
O O15 0.500000 0.000000 0.000000
#
# Coordination Sequence:
#
# PCOD9046358 Si02
#       7
#     2   2   2   2   2   2   2
#     4  10  24  44  71 103 138 186 228 284 345 409
#     4  10  26  47  68 107 141 181 230 288 357 402
#     4  12  27  43  70 106 143 180 235 288 342 417
#     4  12  22  44  73 106 136 187 236 279 344 412
#     4  12  22  44  72 104 137 185 239 282 341 411
#     4  10  24  42  71 103 137 179 234 284 341 408
#     4  12  25  47  72 101 143 181 236 286 342 422
#
# _framework density 23.73255
#
# number of rings (size 3 to 8) (size 9 to 14) (size 15 to 20)
#    0.857    0.000    2.857    4.286    2.000    4.571 
#    0.000    2.857    0.000    0.000    0.000    0.000 
#    0.000    0.000    0.000    0.000    0.000    0.000 
#
# Total GULP energy -78247.424804 kJ/mol
# GULP energy per Si atom -5589.101772 kJ/mol
# Density = 2.367853 g / cm^3
# Si number density = 23.732550 Si / 1000 Ang^3
#
#
#
# Elastic Constant Matrix: (Units=GPa)
#
#
# Indices 1 2 3 4 5 6 
#
# 1 24.3250 11.5043 24.1511 6.3026 6.6698 -5.4755
# 2 11.5043 128.8229 52.6134 -22.7032 -1.4864 -9.8174
# 3 24.1511 52.6134 120.9070 -26.8577 -10.0094 1.2335
# 4 6.3026 -22.7032 -26.8577 54.8334 1.5650 -1.9431
# 5 6.6698 -1.4864 -10.0094 1.5650 30.3654 -3.1520
# 6 -5.4755 -9.8174 1.2335 -1.9431 -3.1520 25.9722
#
#
#
# Elastic Compliance Matrix: (Units=1/GPa)
#
#
# Indices 1 2 3 4 5 6 
#
# 1 0.075143 -0.000769 -0.020540 -0.017967 -0.021077 0.012625
# 2 -0.000769 0.010116 -0.003736 0.002597 -0.000286 0.003999
# 3 -0.020540 -0.003736 0.016686 0.008563 0.008888 -0.004816
# 4 -0.017967 0.002597 0.008563 0.025391 0.005521 -0.000643
# 5 -0.021077 -0.000286 0.008888 0.005521 0.040226 0.000321
# 6 0.012625 0.003999 -0.004816 -0.000643 0.000321 0.042895
#
#
# Mechanical properties :
#
#
# Convention : Reuss Voigt Hill
#
# Bulk Modulus (GPa) = 19.28445 50.06585 34.67515
# Shear Modulus (GPa) = 17.99636 34.61994 26.30815
#
# Velocity S-wave (km/s) = 2.75671 3.82351 3.33307
# Velocity P-wave (km/s) = 4.27504 6.37447 5.42724
#
# Compressibility (1/GPa) = 0.05185524
#
# Stress axis : x y z
#
# Youngs Moduli (GPa) = 13.30797 98.85052 59.92876
#
# Poissons Ratio (x) = 0.07604 1.23093
# Poissons Ratio (y) = 0.01024 0.22390
# Poissons Ratio (z) = 0.27334 0.36932
#
# Static dielectric constant tensor:
#      x y z
#    x 1.932260 0.047380 0.001420 
#    y 0.047380 1.915290 0.037640 
#    z 0.001420 0.037640 1.910040 
# 
# From -- ./inp_files/536259.got.cif
#   From: 2010.05.17/outbox.cif.g08.bks.cpg/sg2_269_cif.got.tgz:536259.got - 2010.06.03 11:33:40.
