data_PCOD9046079
_publ_section_title
;
Structure prediction by ZEFSAII (Michael W. Deem and Ramdas Pophale) SiO2 
 PCOD9046079
Probable space group: P -1
;
_chemical_formula_sum "Si O2"
_cell_formula_units_Z 16
_cell_length_a 16.375902
_cell_length_b 13.662579
_cell_length_c 5.610103
_cell_angle_alpha 104.595745
_cell_angle_beta 72.855658
_cell_angle_gamma 145.011843
_cell_volume 687.626306
_symmetry_space_group_name_H-M "P -1"
_symmetry_group_IT_number 2
_symmetry_cell_setting 'triclinic'
loop_
_space_group_symop_operation_xyz
x,y,z
-x,-y,-z
loop_
_atom_site_type_symbol
_atom_site_label
_atom_site_fract_x
_atom_site_fract_y
_atom_site_fract_z
Si Si1 0.310343 0.164500 0.898499
Si Si2 0.875108 0.844864 0.693615
Si Si3 0.879701 0.278884 0.110897
Si Si4 0.941448 0.157544 0.284921
Si Si5 0.571914 0.927901 0.086068
Si Si6 0.094567 0.489786 0.628091
Si Si7 0.434753 0.527565 0.417254
Si Si8 0.423586 0.754671 0.618991
O O1 0.369299 0.130991 0.991012
O O2 0.453973 0.362043 0.831148
O O3 0.223297 0.040341 0.659505
O O4 0.192839 0.124244 0.095761
O O5 0.733769 0.657253 0.588483
O O6 0.951216 0.833995 0.789532
O O7 0.000000 0.000000 0.500000
O O8 0.907937 0.189038 0.097197
O O9 0.890580 0.375230 0.366928
O O10 0.716594 0.132012 0.069444
O O11 0.001581 0.409215 0.894502
O O12 0.017289 0.321829 0.461793
O O13 0.503066 0.870501 0.378142
O O14 0.476232 0.851127 0.885124
O O15 0.256412 0.611786 0.621656
O O16 0.500000 0.500000 0.500000
O O17 0.444429 0.653623 0.568102
#
# Coordination Sequence:
#
# PCOD9046079 Si02
#       8
#     2   2   2   2   2   2   2   2
#     4  10  24  42  67 102 137 190 235 287 357 431
#     4  12  25  41  67 104 140 186 235 293 357 425
#     4  10  26  44  74 101 137 193 233 307 355 442
#     4  11  24  44  68  99 145 181 238 294 357 427
#     4  10  25  46  73 103 146 188 238 296 361 429
#     4  11  25  46  70 105 140 183 247 292 373 415
#     4  11  23  41  65  98 139 190 234 293 350 430
#     4  11  25  46  71 106 141 189 239 300 360 427
#
# _framework density 23.268453000000001
#
# number of rings (size 3 to 8) (size 9 to 14) (size 15 to 20)
#    0.000    1.250    1.250    2.625   10.500    3.000 
#    0.000    0.000    0.000    0.000    0.000    0.000 
#    0.000    0.000    0.000    0.000    0.000    0.000 
#
# Total GULP energy -89101.766280 kJ/mol
# GULP energy per Si atom -5568.860393 kJ/mol
# Density = 2.321549 g / cm^3
# Si number density = 23.268453 Si / 1000 Ang^3
#
#
#
# Elastic Constant Matrix: (Units=GPa)
#
#
# Indices 1 2 3 4 5 6 
#
# 1 99.3258 4.8636 16.9377 -16.4226 -24.8609 4.1094
# 2 4.8636 180.4759 46.5661 0.5412 9.1978 23.8038
# 3 16.9377 46.5661 60.1884 -4.5195 4.2528 7.9176
# 4 -16.4226 0.5412 -4.5195 33.7139 7.3641 -4.5359
# 5 -24.8609 9.1978 4.2528 7.3641 33.3665 8.5903
# 6 4.1094 23.8038 7.9176 -4.5359 8.5903 40.8546
#
#
#
# Elastic Compliance Matrix: (Units=1/GPa)
#
#
# Indices 1 2 3 4 5 6 
#
# 1 0.014286 0.000610 -0.004634 0.003544 0.011010 -0.002816
# 2 0.000610 0.007403 -0.005542 -0.001088 0.000255 -0.003475
# 3 -0.004634 -0.005542 0.022663 0.002157 -0.005468 0.000692
# 4 0.003544 -0.001088 0.002157 0.033662 -0.006015 0.004861
# 5 0.011010 0.000255 -0.005468 -0.006015 0.042659 -0.009834
# 6 -0.002816 -0.003475 0.000692 0.004861 -0.009834 0.029258
#
#
# Mechanical properties :
#
#
# Convention : Reuss Voigt Hill
#
# Bulk Modulus (GPa) = 39.64788 52.96945 46.30867
# Shear Modulus (GPa) = 28.17365 39.69520 33.93442
#
# Velocity S-wave (km/s) = 3.48344 4.13482 3.82303
# Velocity P-wave (km/s) = 5.76676 6.75348 6.27953
#
# Compressibility (1/GPa) = 0.02522203
#
# Stress axis : x y z
#
# Youngs Moduli (GPa) = 69.99646 135.08146 44.12417
#
# Poissons Ratio (x) = -0.08244 0.20447
# Poissons Ratio (y) = -0.04272 0.24453
# Poissons Ratio (z) = 0.32436 0.74859
#
# Static dielectric constant tensor:
#      x y z
#    x 1.890890 -0.116820 -0.003160 
#    y -0.116820 2.153300 0.123000 
#    z -0.003160 0.123000 1.952540 
# 
# From -- ./inp_files/99838.got.cif
#   From: 2010.05.17/outbox.cif.g08.bks.cpg/sg2_50_cif.got.tgz:99838.got - 2010.06.03 11:33:40.
