data_PCOD9046643
_publ_section_title
;
Structure prediction by ZEFSAII (Michael W. Deem and Ramdas Pophale) SiO2 
 PCOD9046643
Probable space group: P -1
;
_chemical_formula_sum "Si O2"
_cell_formula_units_Z 15
_cell_length_a 9.251772
_cell_length_b 15.558407
_cell_length_c 9.281924
_cell_angle_alpha 141.984290
_cell_angle_beta 109.509546
_cell_angle_gamma 51.981375
_cell_volume 615.936540
_symmetry_space_group_name_H-M "P -1"
_symmetry_group_IT_number 2
_symmetry_cell_setting 'triclinic'
loop_
_space_group_symop_operation_xyz
x,y,z
-x,-y,-z
loop_
_atom_site_type_symbol
_atom_site_label
_atom_site_fract_x
_atom_site_fract_y
_atom_site_fract_z
Si Si1 0.720645 0.708789 0.754561
Si Si2 0.587283 0.770251 0.282972
Si Si3 0.317900 0.062950 0.211313
Si Si4 0.726244 0.407164 0.437426
Si Si5 0.809648 0.375338 0.758277
Si Si6 0.182600 0.211374 0.853949
Si Si7 0.000000 0.000000 0.000000
Si Si8 0.778031 0.105056 0.525594
O O1 0.755343 0.791200 0.743958
O O2 0.732686 0.537729 0.508437
O O3 0.871408 0.652759 0.860326
O O4 0.508214 0.874311 0.964577
O O5 0.641639 0.848932 0.530304
O O6 0.646027 0.815103 0.215895
O O7 0.366755 0.841170 0.319664
O O8 0.702430 0.561875 0.046099
O O9 0.156071 0.036479 0.149978
O O10 0.500000 0.500000 0.500000
O O11 0.795685 0.401399 0.617371
O O12 0.849464 0.206046 0.166534
O O13 0.726365 0.267564 0.628053
O O14 0.022052 0.266833 0.755082
O O15 0.230910 0.044502 0.741202
O O16 0.000000 0.000000 0.500000
#
# Coordination Sequence:
#
# PCOD9046643 Si02
#       8
#     2   2   2   2   2   2   1   2
#     4  11  25  50  74 106 156 213 250 322 397 462
#     4  12  23  45  73 107 147 200 254 315 384 460
#     4  11  27  47  76 112 157 202 268 322 387 477
#     4  12  27  50  77 110 162 205 256 326 392 460
#     4  11  26  46  73 111 154 195 257 327 376 467
#     4  11  23  45  73 104 146 197 257 315 384 456
#     4  12  28  50  74 118 148 206 264 320 384 480
#     4  10  24  43  66 107 148 193 247 320 383 449
#
# _framework density 24.353159000000002
#
# number of rings (size 3 to 8) (size 9 to 14) (size 15 to 20)
#    0.000    0.800    4.000    2.000    5.600    0.533 
#    7.200    0.000    0.000    0.000    0.000    0.000 
#    0.000    0.000    0.000    0.000    0.000    0.000 
#
# Total GULP energy -83524.450017 kJ/mol
# GULP energy per Si atom -5568.296668 kJ/mol
# Density = 2.429773 g / cm^3
# Si number density = 24.353159 Si / 1000 Ang^3
#
#
#
# Elastic Constant Matrix: (Units=GPa)
#
#
# Indices 1 2 3 4 5 6 
#
# 1 124.7530 46.5356 46.9814 19.7775 23.1631 13.8162
# 2 46.5356 121.2454 51.0450 14.3483 18.2594 17.2762
# 3 46.9814 51.0450 92.6838 38.8271 20.5552 21.5665
# 4 19.7775 14.3483 38.8271 50.8451 9.6647 13.2863
# 5 23.1631 18.2594 20.5552 9.6647 32.4780 18.0729
# 6 13.8162 17.2762 21.5665 13.2863 18.0729 32.9992
#
#
#
# Elastic Compliance Matrix: (Units=1/GPa)
#
#
# Indices 1 2 3 4 5 6 
#
# 1 0.010977 -0.002189 -0.003387 -0.000548 -0.005360 0.001920
# 2 -0.002189 0.011613 -0.005708 0.002636 -0.001081 -0.001902
# 3 -0.003387 -0.005708 0.022443 -0.012738 -0.002780 -0.003610
# 4 -0.000548 0.002636 -0.012738 0.030105 0.001101 -0.005549
# 5 -0.005360 -0.001081 -0.002780 0.001101 0.049371 -0.022855
# 6 0.001920 -0.001902 -0.003610 -0.005549 -0.022855 0.047606
#
#
# Mechanical properties :
#
#
# Convention : Reuss Voigt Hill
#
# Bulk Modulus (GPa) = 44.51376 69.75624 57.13500
# Shear Modulus (GPa) = 24.73149 36.20580 30.46864
#
# Velocity S-wave (km/s) = 3.19020 3.85996 3.54095
# Velocity P-wave (km/s) = 5.64694 6.96932 6.34269
#
# Compressibility (1/GPa) = 0.02246496
#
# Stress axis : x y z
#
# Youngs Moduli (GPa) = 91.09614 86.11183 44.55791
#
# Poissons Ratio (x) = 0.18847 0.15093
# Poissons Ratio (y) = 0.19938 0.25434
# Poissons Ratio (z) = 0.30857 0.49153
#
# Static dielectric constant tensor:
#      x y z
#    x 1.989840 -0.033350 -0.007180 
#    y -0.033350 1.955540 0.036300 
#    z -0.007180 0.036300 1.987850 
# 
# From -- ./inp_files/209421.got.cif
#   From: 2010.05.17/outbox.cif.g08.bks.cpg/sg2_105_cif.got.tgz:209421.got - 2010.06.03 11:33:40.
