data_PCOD9046479
_publ_section_title
;
Structure prediction by ZEFSAII (Michael W. Deem and Ramdas Pophale) SiO2 
 PCOD9046479
Probable space group: P -1
;
_chemical_formula_sum "Si O2"
_cell_formula_units_Z 13
_cell_length_a 8.471039
_cell_length_b 18.709453
_cell_length_c 8.000495
_cell_angle_alpha 131.367573
_cell_angle_beta 125.361465
_cell_angle_gamma 34.990855
_cell_volume 543.639825
_symmetry_space_group_name_H-M "P -1"
_symmetry_group_IT_number 2
_symmetry_cell_setting 'triclinic'
loop_
_space_group_symop_operation_xyz
x,y,z
-x,-y,-z
loop_
_atom_site_type_symbol
_atom_site_label
_atom_site_fract_x
_atom_site_fract_y
_atom_site_fract_z
Si Si1 0.314675 0.865359 0.524169
Si Si2 0.253981 0.953835 0.982363
Si Si3 0.000000 0.500000 0.000000
Si Si4 0.817341 0.817471 0.677091
Si Si5 0.367055 0.639054 0.219117
Si Si6 0.837725 0.489578 0.517283
Si Si7 0.179323 0.220640 0.746140
O O1 0.517845 0.873994 0.593744
O O2 0.410423 0.728112 0.302409
O O3 0.336688 0.860690 0.731361
O O4 0.000000 0.000000 0.500000
O O5 0.518911 0.878288 0.144255
O O6 0.167245 0.089026 0.071941
O O7 0.000000 0.000000 0.000000
O O8 0.132411 0.473841 0.228462
O O9 0.915778 0.641356 0.152222
O O10 0.851748 0.828254 0.518590
O O11 0.025585 0.663509 0.630996
O O12 0.526028 0.587563 0.413618
O O13 0.042700 0.739474 0.196756
O O14 0.500000 0.500000 0.000000
O O15 0.000000 0.500000 0.500000
#
# Coordination Sequence:
#
# PCOD9046479 Si02
#       7
#     2   2   1   2   2   2   2
#     4  12  26  45  71 106 145 192 250 307 380 450
#     4  12  26  47  76 103 147 196 251 316 376 453
#     4  10  24  42  74 102 148 200 242 314 376 452
#     4  11  25  44  74 105 145 193 246 311 381 460
#     4  12  27  43  76 109 151 200 248 317 378 453
#     4  11  23  46  72 108 152 193 258 308 383 446
#     4  11  25  45  70 107 146 187 253 305 381 446
#
# _framework density 23.912891999999999
#
# number of rings (size 3 to 8) (size 9 to 14) (size 15 to 20)
#    0.000    0.615    1.538    5.538    6.462    3.692 
#    0.000    0.000    0.000    0.000    0.000    0.000 
#    0.000    0.000    0.000    0.000    0.000    0.000 
#
# Total GULP energy -72581.997490 kJ/mol
# GULP energy per Si atom -5583.230576 kJ/mol
# Density = 2.385847 g / cm^3
# Si number density = 23.912892 Si / 1000 Ang^3
#
#
#
# Elastic Constant Matrix: (Units=GPa)
#
#
# Indices 1 2 3 4 5 6 
#
# 1 77.2987 18.7675 22.3855 1.4325 15.9486 -15.0430
# 2 18.7675 62.6738 30.8357 -13.2989 31.6635 5.9196
# 3 22.3855 30.8357 126.1544 14.1236 4.1380 13.3194
# 4 1.4325 -13.2989 14.1236 50.9997 12.8031 7.4476
# 5 15.9486 31.6635 4.1380 12.8031 33.2826 -6.9204
# 6 -15.0430 5.9196 13.3194 7.4476 -6.9204 39.9155
#
#
#
# Elastic Compliance Matrix: (Units=1/GPa)
#
#
# Indices 1 2 3 4 5 6 
#
# 1 0.016481 -0.002336 -0.002927 -0.000339 -0.003736 0.006950
# 2 -0.002336 0.362258 -0.085393 0.257227 -0.463984 -0.154548
# 3 -0.002927 -0.085393 0.029293 -0.062623 0.109850 0.032516
# 4 -0.000339 0.257227 -0.062623 0.206133 -0.339926 -0.114775
# 5 -0.003736 -0.463984 0.109850 -0.339926 0.632744 0.203874
# 6 0.006950 -0.154548 0.032516 -0.114775 0.203874 0.096504
#
#
# Mechanical properties :
#
#
# Convention : Reuss Voigt Hill
#
# Bulk Modulus (GPa) = 4.41072 45.56715 24.98894
# Shear Modulus (GPa) = 3.12442 37.78212 20.45327
#
# Velocity S-wave (km/s) = 1.14430 3.97922 2.92776
# Velocity P-wave (km/s) = 1.89589 6.34106 4.67993
#
# Compressibility (1/GPa) = 0.22672043
#
# Stress axis : x y z
#
# Youngs Moduli (GPa) = 60.67521 2.76047 34.13741
#
# Poissons Ratio (x) = 0.00645 0.09991
# Poissons Ratio (y) = 0.14174 2.91510
# Poissons Ratio (z) = 0.17759 0.23572
#
# Static dielectric constant tensor:
#      x y z
#    x 1.925920 0.011970 -0.007370 
#    y 0.011970 1.936870 0.014960 
#    z -0.007370 0.014960 1.946080 
# 
# From -- ./inp_files/224299.got.cif
#   From: 2010.05.17/outbox.cif.g08.bks.cpg/sg2_113_cif.got.tgz:224299.got - 2010.06.03 11:33:40.
