data_PCOD9046154
_publ_section_title
;
Structure prediction by ZEFSAII (Michael W. Deem and Ramdas Pophale) SiO2 
 PCOD9046154
Probable space group: P -1
;
_chemical_formula_sum "Si O2"
_cell_formula_units_Z 12
_cell_length_a 5.175393
_cell_length_b 17.882826
_cell_length_c 4.944962
_cell_angle_alpha 81.694920
_cell_angle_beta 91.437285
_cell_angle_gamma 107.425255
_cell_volume 431.997469
_symmetry_space_group_name_H-M "P -1"
_symmetry_group_IT_number 2
_symmetry_cell_setting 'triclinic'
loop_
_space_group_symop_operation_xyz
x,y,z
-x,-y,-z
loop_
_atom_site_type_symbol
_atom_site_label
_atom_site_fract_x
_atom_site_fract_y
_atom_site_fract_z
Si Si1 0.718274 0.794532 0.054171
Si Si2 0.424209 0.655253 0.747378
Si Si3 0.757890 0.511621 0.305623
Si Si4 0.503549 0.902490 0.348187
Si Si5 0.174642 0.925709 0.814739
Si Si6 0.057279 0.322538 0.637564
O O1 0.594365 0.830045 0.278407
O O2 0.955710 0.758092 0.171800
O O3 0.502221 0.720333 0.948896
O O4 0.867988 0.870043 0.835402
O O5 0.319014 0.561145 0.869107
O O6 0.692342 0.666730 0.568036
O O7 0.195415 0.671955 0.543683
O O8 0.500000 0.500000 0.500000
O O9 0.858626 0.604123 0.186282
O O10 0.000000 0.500000 0.500000
O O11 0.346113 0.890173 0.630466
O O12 0.757721 0.982429 0.309219
O O13 0.297176 0.922552 0.116516
#
# Coordination Sequence:
#
# PCOD9046154 Si02
#       6
#     2   2   2   2   2   2
#     4  12  27  39  74 110 148 190 254 313 385 438
#     4  10  24  42  68 104 148 196 248 310 374 445
#     4   8  16  39  64  93 141 196 246 296 366 448
#     4  10  25  48  74 105 148 200 251 307 382 464
#     4  10  25  48  74 105 148 200 251 307 382 464
#     4  10  24  42  68 104 148 196 248 310 374 445
#
# _framework density 27.777939
#
# number of rings (size 3 to 8) (size 9 to 14) (size 15 to 20)
#    0.000    2.000    0.000    0.500    9.333    0.667 
#    0.000    5.000    0.000   15.000    0.000    3.500 
#    0.000    0.000    0.000    0.000    0.000    0.000 
#
# Total GULP energy -67398.480480 kJ/mol
# GULP energy per Si atom -5616.540040 kJ/mol
# Density = 2.771472 g / cm^3
# Si number density = 27.777939 Si / 1000 Ang^3
#
#
#
# Elastic Constant Matrix: (Units=GPa)
#
#
# Indices 1 2 3 4 5 6 
#
# 1 158.2008 45.2233 43.0369 19.8366 -0.8291 0.6430
# 2 45.2233 221.8171 38.2651 40.4922 -17.7764 3.6750
# 3 43.0369 38.2651 78.9813 20.8925 -4.9954 4.8906
# 4 19.8366 40.4922 20.8925 50.7247 -0.5016 0.3703
# 5 -0.8291 -17.7764 -4.9954 -0.5016 35.7581 9.3255
# 6 0.6430 3.6750 4.8906 0.3703 9.3255 37.0884
#
#
#
# Elastic Compliance Matrix: (Units=1/GPa)
#
#
# Indices 1 2 3 4 5 6 
#
# 1 0.007654 -0.000872 -0.003635 -0.000814 -0.000953 0.000681
# 2 -0.000872 0.005827 -0.001077 -0.003829 0.002967 -0.001128
# 3 -0.003635 -0.001077 0.016671 -0.004543 0.002314 -0.002565
# 4 -0.000814 -0.003829 -0.004543 0.024925 -0.002570 0.001390
# 5 -0.000953 0.002967 0.002314 -0.002570 0.031946 -0.008589
# 6 0.000681 -0.001128 -0.002565 0.001390 -0.008589 0.029547
#
#
# Mechanical properties :
#
#
# Convention : Reuss Voigt Hill
#
# Bulk Modulus (GPa) = 52.68063 79.11664 65.89863
# Shear Modulus (GPa) = 37.29493 46.87916 42.08705
#
# Velocity S-wave (km/s) = 3.66814 4.11255 3.89668
# Velocity P-wave (km/s) = 6.07836 7.14803 6.63479
#
# Compressibility (1/GPa) = 0.01898231
#
# Stress axis : x y z
#
# Youngs Moduli (GPa) = 130.65737 171.60218 59.98474
#
# Poissons Ratio (x) = 0.14971 0.21804
# Poissons Ratio (y) = 0.11399 0.06463
# Poissons Ratio (z) = 0.47493 0.18490
#
# Static dielectric constant tensor:
#      x y z
#    x 2.135000 0.033460 0.031470 
#    y 0.033460 2.175150 -0.012060 
#    z 0.031470 -0.012060 2.120310 
# 
# From -- ./inp_files/5252.got.cif
#   From: 2010.05.17/outbox.cif.g08.bks.cpg/sg2_3_cif.got.tgz:5252.got - 2010.06.03 11:33:40.
