data_PCOD9046903
_publ_section_title
;
Structure prediction by ZEFSAII (Michael W. Deem and Ramdas Pophale) SiO2 
 PCOD9046903
Probable space group: P -1
;
_chemical_formula_sum "Si O2"
_cell_formula_units_Z 16
_cell_length_a 7.851792
_cell_length_b 9.403752
_cell_length_c 12.773955
_cell_angle_alpha 106.632562
_cell_angle_beta 64.029157
_cell_angle_gamma 64.928566
_cell_volume 625.998668
_symmetry_space_group_name_H-M "P -1"
_symmetry_group_IT_number 2
_symmetry_cell_setting 'triclinic'
loop_
_space_group_symop_operation_xyz
x,y,z
-x,-y,-z
loop_
_atom_site_type_symbol
_atom_site_label
_atom_site_fract_x
_atom_site_fract_y
_atom_site_fract_z
Si Si1 0.470840 0.847149 0.163620
Si Si2 0.869324 0.399713 0.510067
Si Si3 0.497158 0.426875 0.170161
Si Si4 0.963740 0.153297 0.242002
Si Si5 0.341866 0.991458 0.953906
Si Si6 0.720732 0.991071 0.327020
Si Si7 0.732526 0.978325 0.550707
Si Si8 0.176664 0.576491 0.082509
O O1 0.216845 0.964518 0.190801
O O2 0.404786 0.837429 0.297536
O O3 0.562285 0.972405 0.166457
O O4 0.702775 0.644766 0.012399
O O5 0.621742 0.500840 0.666920
O O6 0.000000 0.500000 0.500000
O O7 0.864683 0.336796 0.379466
O O8 0.047014 0.197714 0.480315
O O9 0.293997 0.561781 0.161089
O O10 0.723925 0.393551 0.043276
O O11 0.574169 0.217160 0.107391
O O12 0.063231 0.149512 0.100323
O O13 0.784066 0.104233 0.267580
O O14 0.500000 0.000000 0.000000
O O15 0.793972 0.009128 0.428351
O O16 0.895586 0.763029 0.207839
O O17 0.444114 0.075570 0.429419
#
# Coordination Sequence:
#
# PCOD9046903 Si02
#       8
#     2   2   2   2   2   2   2   2
#     4  10  21  35  60  90 114 151 199 248 287 344
#     4  11  23  37  63  89 117 149 201 249 288 345
#     4  11  19  33  55  92 114 144 194 252 287 330
#     4  10  20  35  60  86 114 158 193 242 289 349
#     4  10  17  34  56  85 120 144 188 241 301 340
#     4  11  22  41  57  84 122 161 190 237 301 358
#     4  10  24  39  59  83 123 157 191 239 301 355
#     4  11  20  33  59  85 115 147 199 246 283 339
#
# _framework density 25.559158
#
# number of rings (size 3 to 8) (size 9 to 14) (size 15 to 20)
#    0.000    1.500    5.000    3.000    1.750    1.500 
#    0.000    1.250    0.000    0.000    0.000    0.000 
#    0.000    0.000    0.000    0.000    0.000    0.000 
#
# Total GULP energy -89320.441080 kJ/mol
# GULP energy per Si atom -5582.527567 kJ/mol
# Density = 2.550098 g / cm^3
# Si number density = 25.559158 Si / 1000 Ang^3
#
#
#
# Elastic Constant Matrix: (Units=GPa)
#
#
# Indices 1 2 3 4 5 6 
#
# 1 57.7501 18.2410 3.0019 2.9655 -8.8672 7.3032
# 2 18.2410 67.9058 23.4097 -9.3499 -1.3350 5.5648
# 3 3.0019 23.4097 133.1583 0.9570 2.5278 -2.3708
# 4 2.9655 -9.3499 0.9570 37.5927 16.6864 3.4331
# 5 -8.8672 -1.3350 2.5278 16.6864 26.3641 -10.8477
# 6 7.3032 5.5648 -2.3708 3.4331 -10.8477 39.2661
#
#
#
# Elastic Compliance Matrix: (Units=1/GPa)
#
#
# Indices 1 2 3 4 5 6 
#
# 1 0.022058 -0.007382 0.000637 -0.009962 0.013997 0.001720
# 2 -0.007382 0.019491 -0.003240 0.010392 -0.009915 -0.005233
# 3 0.000637 -0.003240 0.008083 -0.001465 0.000672 0.001142
# 4 -0.009962 0.010392 -0.001465 0.049121 -0.039964 -0.015043
# 5 0.013997 -0.009915 0.000672 -0.039964 0.077090 0.023633
# 6 0.001720 -0.005233 0.001142 -0.015043 0.023633 0.033802
#
#
# Mechanical properties :
#
#
# Convention : Reuss Voigt Hill
#
# Bulk Modulus (GPa) = 33.71331 38.67996 36.19663
# Shear Modulus (GPa) = 20.87663 34.92203 27.89933
#
# Velocity S-wave (km/s) = 2.86107 3.70039 3.30746
# Velocity P-wave (km/s) = 4.91256 5.78131 5.36455
#
# Compressibility (1/GPa) = 0.02966188
#
# Stress axis : x y z
#
# Youngs Moduli (GPa) = 45.33528 51.30599 123.71392
#
# Poissons Ratio (x) = 0.37876 -0.07882
# Poissons Ratio (y) = 0.33468 0.40080
# Poissons Ratio (z) = -0.02888 0.16622
#
# Static dielectric constant tensor:
#      x y z
#    x 2.151560 -0.030450 0.059220 
#    y -0.030450 2.025500 -0.057900 
#    z 0.059220 -0.057900 2.090880 
# 
# From -- ./inp_files/281857.got.cif
#   From: 2010.05.17/outbox.cif.g08.bks.cpg/sg2_141_cif.got.tgz:281857.got - 2010.06.03 11:33:40.
