data_PCOD9046345
_publ_section_title
;
Structure prediction by ZEFSAII (Michael W. Deem and Ramdas Pophale) SiO2 
 PCOD9046345
Probable space group: P -1
;
_chemical_formula_sum "Si O2"
_cell_formula_units_Z 16
_cell_length_a 9.192472
_cell_length_b 7.790198
_cell_length_c 15.297553
_cell_angle_alpha 69.249114
_cell_angle_beta 108.798154
_cell_angle_gamma 144.152075
_cell_volume 598.702839
_symmetry_space_group_name_H-M "P -1"
_symmetry_group_IT_number 2
_symmetry_cell_setting 'triclinic'
loop_
_space_group_symop_operation_xyz
x,y,z
-x,-y,-z
loop_
_atom_site_type_symbol
_atom_site_label
_atom_site_fract_x
_atom_site_fract_y
_atom_site_fract_z
Si Si1 0.859367 0.932895 0.898825
Si Si2 0.365235 0.689219 0.675389
Si Si3 0.798955 0.875508 0.223060
Si Si4 0.390808 0.646875 0.493714
Si Si5 0.736643 0.208104 0.883175
Si Si6 0.149342 0.633522 0.304029
Si Si7 0.801268 0.913270 0.415545
Si Si8 0.438983 0.688929 0.052515
O O1 0.614952 0.575538 0.923104
O O2 0.879996 0.170414 0.874176
O O3 0.977237 0.976668 0.823214
O O4 0.000000 0.000000 0.000000
O O5 0.346032 0.454014 0.733926
O O6 0.337128 0.696439 0.564996
O O7 0.134097 0.563317 0.705463
O O8 0.641875 0.017451 0.693044
O O9 0.863851 0.008564 0.308977
O O10 0.645064 0.879158 0.135517
O O11 0.185539 0.512150 0.407111
O O12 0.646171 0.913470 0.441618
O O13 0.394720 0.441429 0.565215
O O14 0.740743 0.332291 0.773407
O O15 0.786412 0.404017 0.933128
O O16 0.527431 0.884345 0.949534
O O17 0.000000 0.000000 0.500000
#
# Coordination Sequence:
#
# PCOD9046345 Si02
#       8
#     2   2   2   2   2   2   2   2
#     4  12  25  45  76 107 146 203 249 315 387 448
#     4  11  26  42  73 103 146 191 255 306 383 459
#     4  11  24  45  70 105 143 197 250 305 384 455
#     4  10  24  43  65 100 143 190 246 310 383 449
#     4  11  25  46  72 108 148 196 253 309 382 451
#     4  12  25  44  70 109 143 198 246 317 380 451
#     4  10  24  42  71 100 141 194 250 311 381 454
#     4  11  26  48  70 106 153 194 253 315 379 463
#
# _framework density 26.724442
#
# number of rings (size 3 to 8) (size 9 to 14) (size 15 to 20)
#    0.000    1.000    2.500    2.625    7.000    3.500 
#    2.250    0.000    0.000    0.000    0.000    0.000 
#    0.000    0.000    0.000    0.000    0.000    0.000 
#
# Total GULP energy -89234.757516 kJ/mol
# GULP energy per Si atom -5577.172345 kJ/mol
# Density = 2.666362 g / cm^3
# Si number density = 26.724442 Si / 1000 Ang^3
#
#
#
# Elastic Constant Matrix: (Units=GPa)
#
#
# Indices 1 2 3 4 5 6 
#
# 1 113.6302 4.8576 41.2766 -2.4362 -21.6105 -4.3910
# 2 4.8576 45.7212 38.8023 -27.3311 5.0670 -7.3109
# 3 41.2766 38.8023 204.5725 -12.4093 -35.0347 13.8838
# 4 -2.4362 -27.3311 -12.4093 43.9512 -0.2747 19.9260
# 5 -21.6105 5.0670 -35.0347 -0.2747 60.1809 -3.8285
# 6 -4.3910 -7.3109 13.8838 19.9260 -3.8285 35.1078
#
#
#
# Elastic Compliance Matrix: (Units=1/GPa)
#
#
# Indices 1 2 3 4 5 6 
#
# 1 0.010083 -0.000225 -0.001814 -0.001466 0.002772 0.003066
# 2 -0.000225 0.045958 -0.008210 0.028052 -0.008862 -0.004099
# 3 -0.001814 -0.008210 0.007727 -0.001274 0.004290 -0.003801
# 4 -0.001466 0.028052 -0.001274 0.050050 -0.004850 -0.022774
# 5 0.002772 -0.008862 0.004290 -0.004850 0.020951 0.001842
# 6 0.003066 -0.004099 -0.003801 -0.022774 0.001842 0.042643
#
#
# Mechanical properties :
#
#
# Convention : Reuss Voigt Hill
#
# Bulk Modulus (GPa) = 23.11010 59.31076 41.21043
# Shear Modulus (GPa) = 23.54780 46.44714 34.99747
#
# Velocity S-wave (km/s) = 2.97161 4.17346 3.62272
# Velocity P-wave (km/s) = 4.52109 6.74280 5.74045
#
# Compressibility (1/GPa) = 0.04327113
#
# Stress axis : x y z
#
# Youngs Moduli (GPa) = 99.17374 21.75880 129.41734
#
# Poissons Ratio (x) = 0.00489 0.23478
# Poissons Ratio (y) = 0.02230 1.06249
# Poissons Ratio (z) = 0.17991 0.17863
#
# Static dielectric constant tensor:
#      x y z
#    x 2.204350 -0.056920 0.263350 
#    y -0.056920 2.321070 -0.189640 
#    z 0.263350 -0.189640 3.639000 
# 
# From -- ./inp_files/52100.got.cif
#   From: 2010.05.17/outbox.cif.g08.bks.cpg/sg2_27_cif.got.tgz:52100.got - 2010.06.03 11:33:40.
