data_PCOD9046026
_publ_section_title
;
Structure prediction by ZEFSAII (Michael W. Deem and Ramdas Pophale) SiO2 
 PCOD9046026
Probable space group: P -1
;
_chemical_formula_sum "Si O2"
_cell_formula_units_Z 13
_cell_length_a 17.830626
_cell_length_b 9.506605
_cell_length_c 11.756336
_cell_angle_alpha 39.734764
_cell_angle_beta 155.228177
_cell_angle_gamma 139.872461
_cell_volume 517.115421
_symmetry_space_group_name_H-M "P -1"
_symmetry_group_IT_number 2
_symmetry_cell_setting 'triclinic'
loop_
_space_group_symop_operation_xyz
x,y,z
-x,-y,-z
loop_
_atom_site_type_symbol
_atom_site_label
_atom_site_fract_x
_atom_site_fract_y
_atom_site_fract_z
Si Si1 0.575468 0.917242 0.289951
Si Si2 0.500000 0.500000 0.000000
Si Si3 0.147158 0.842104 0.030954
Si Si4 0.746780 0.596581 0.583728
Si Si5 0.726947 0.899725 0.158420
Si Si6 0.779568 0.434066 0.222926
Si Si7 0.204529 0.127727 0.157245
O O1 0.606592 0.713184 0.382385
O O2 0.364871 0.933803 0.000742
O O3 0.697591 0.163877 0.262287
O O4 0.655932 0.889546 0.541015
O O5 0.568436 0.772863 0.932587
O O6 0.329974 0.505722 0.855566
O O7 0.060207 0.311564 0.140475
O O8 0.723370 0.329004 0.708295
O O9 0.118834 0.973367 0.794017
O O10 0.217364 0.997264 0.138272
O O11 0.750743 0.692524 0.399469
O O12 0.000000 0.500000 0.500000
O O13 0.760915 0.607651 0.989919
O O14 0.000000 0.000000 0.000000
#
# Coordination Sequence:
#
# PCOD9046026 Si02
#       7
#     2   1   2   2   2   2   2
#     4  11  26  44  68 106 136 186 232 286 361 421
#     4  10  24  42  66 108 132 176 246 284 348 420
#     4  11  25  44  71 103 137 186 228 291 348 421
#     4  11  25  46  68  99 145 182 232 279 356 431
#     4  11  25  44  70  99 142 181 234 291 351 417
#     4  11  22  42  71  99 142 185 233 295 353 412
#     4  12  23  43  72 102 140 178 242 292 348 425
#
# _framework density 25.139454000000001
#
# number of rings (size 3 to 8) (size 9 to 14) (size 15 to 20)
#    0.000    0.923    4.615    0.923    4.308    4.923 
#    0.000    0.000    0.000    0.000    0.000    0.000 
#    0.000    0.000    0.000    0.000    0.000    0.000 
#
# Total GULP energy -72457.683511 kJ/mol
# GULP energy per Si atom -5573.667962 kJ/mol
# Density = 2.508224 g / cm^3
# Si number density = 25.139454 Si / 1000 Ang^3
#
#
#
# Elastic Constant Matrix: (Units=GPa)
#
#
# Indices 1 2 3 4 5 6 
#
# 1 119.2299 40.5714 21.4146 -3.0750 -4.5546 -2.2312
# 2 40.5714 92.1945 13.9602 -16.2797 -1.2025 0.4531
# 3 21.4146 13.9602 76.0363 -21.1743 -21.7390 1.2649
# 4 -3.0750 -16.2797 -21.1743 31.6388 10.9375 15.7456
# 5 -4.5546 -1.2025 -21.7390 10.9375 47.2444 -3.1560
# 6 -2.2312 0.4531 1.2649 15.7456 -3.1560 36.6541
#
#
#
# Elastic Compliance Matrix: (Units=1/GPa)
#
#
# Indices 1 2 3 4 5 6 
#
# 1 0.010774 -0.005295 -0.003575 -0.006169 0.000926 0.003574
# 2 -0.005295 0.015094 0.001429 0.012115 -0.002674 -0.005993
# 3 -0.003575 0.001429 0.019669 0.015505 0.004674 -0.007172
# 4 -0.006169 0.012115 0.015505 0.066465 -0.010578 -0.030523
# 5 0.000926 -0.002674 0.004674 -0.010578 0.026237 0.006731
# 6 0.003574 -0.005993 -0.007172 -0.030523 0.006731 0.041513
#
#
# Mechanical properties :
#
#
# Convention : Reuss Voigt Hill
#
# Bulk Modulus (GPa) = 32.61955 48.81701 40.71828
# Shear Modulus (GPa) = 24.40788 37.20843 30.80815
#
# Velocity S-wave (km/s) = 3.11931 3.85136 3.50450
# Velocity P-wave (km/s) = 5.09677 6.26402 5.71029
#
# Compressibility (1/GPa) = 0.03065647
#
# Stress axis : x y z
#
# Youngs Moduli (GPa) = 92.81551 66.25092 50.84026
#
# Poissons Ratio (x) = 0.35078 0.18174
# Poissons Ratio (y) = 0.49143 -0.07265
# Poissons Ratio (z) = 0.33180 -0.09467
#
# Static dielectric constant tensor:
#      x y z
#    x 2.058350 0.079480 -0.003050 
#    y 0.079480 2.030300 0.065830 
#    z -0.003050 0.065830 2.099070 
# 
# From -- ./inp_files/463528.got.cif
#   From: 2010.05.17/outbox.cif.g08.bks.cpg/sg2_232_cif.got.tgz:463528.got - 2010.06.03 11:33:40.
