data_PCOD9046654
_publ_section_title
;
Structure prediction by ZEFSAII (Michael W. Deem and Ramdas Pophale) SiO2 
 PCOD9046654
Probable space group: P -1
;
_chemical_formula_sum "Si O2"
_cell_formula_units_Z 16
_cell_length_a 6.706107
_cell_length_b 23.093079
_cell_length_c 8.740213
_cell_angle_alpha 127.394065
_cell_angle_beta 121.814347
_cell_angle_gamma 42.633743
_cell_volume 720.182367
_symmetry_space_group_name_H-M "P -1"
_symmetry_group_IT_number 2
_symmetry_cell_setting 'triclinic'
loop_
_space_group_symop_operation_xyz
x,y,z
-x,-y,-z
loop_
_atom_site_type_symbol
_atom_site_label
_atom_site_fract_x
_atom_site_fract_y
_atom_site_fract_z
Si Si1 0.432572 0.964991 0.069127
Si Si2 0.844770 0.419137 0.472945
Si Si3 0.736326 0.108890 0.532783
Si Si4 0.035482 0.810783 0.094799
Si Si5 0.176517 0.628044 0.961910
Si Si6 0.871942 0.503311 0.116588
Si Si7 0.144832 0.869377 0.719926
Si Si8 0.946499 0.776264 0.653034
O O1 0.739171 0.907036 0.188261
O O2 0.160102 0.046140 0.187375
O O3 0.369614 0.891440 0.892888
O O4 0.500000 0.000000 0.000000
O O5 0.500000 0.500000 0.500000
O O6 0.854991 0.397560 0.263573
O O7 0.028107 0.455286 0.654519
O O8 0.967791 0.325126 0.463985
O O9 0.719353 0.173751 0.761098
O O10 0.395794 0.148743 0.424124
O O11 0.839580 0.129738 0.453431
O O12 0.000000 0.000000 0.500000
O O13 0.071979 0.730590 0.075281
O O14 0.990054 0.798419 0.879137
O O15 0.019954 0.598060 0.955901
O O16 0.517874 0.568078 0.057445
O O17 0.000000 0.500000 0.000000
O O18 0.170302 0.782280 0.650972
#
# Coordination Sequence:
#
# PCOD9046654 Si02
#       8
#     2   2   2   2   2   2   2   2
#     4  11  21  41  67  91 131 169 216 269 323 385
#     4  11  23  44  69  99 132 176 220 274 335 400
#     4  12  26  43  67  99 136 174 222 274 331 393
#     4  11  23  44  66  94 135 172 217 279 329 387
#     4  10  24  43  66  96 131 175 218 272 336 391
#     4  11  22  43  67  94 131 170 219 272 329 393
#     4  11  23  41  68  95 126 181 212 269 336 383
#     4  11  25  46  65  97 139 170 225 278 325 396
#
# _framework density 22.216595000000002
#
# number of rings (size 3 to 8) (size 9 to 14) (size 15 to 20)
#    0.000    1.000    3.750    2.625    1.750    4.000 
#    2.250    0.000    0.000    0.000    0.000    0.000 
#    0.000    0.000    0.000    0.000    0.000    0.000 
#
# Total GULP energy -89332.847885 kJ/mol
# GULP energy per Si atom -5583.302993 kJ/mol
# Density = 2.216603 g / cm^3
# Si number density = 22.216595 Si / 1000 Ang^3
#
#
#
# Elastic Constant Matrix: (Units=GPa)
#
#
# Indices 1 2 3 4 5 6 
#
# 1 113.5385 37.0842 27.5624 -3.1558 21.1955 28.8243
# 2 37.0842 110.5857 26.6241 0.2484 21.1728 29.0657
# 3 27.5624 26.6241 116.4993 -3.2336 46.9871 3.1214
# 4 -3.1558 0.2484 -3.2336 25.4380 0.8106 6.4177
# 5 21.1955 21.1728 46.9871 0.8106 35.9753 10.6147
# 6 28.8243 29.0657 3.1214 6.4177 10.6147 31.5829
#
#
#
# Elastic Compliance Matrix: (Units=1/GPa)
#
#
# Indices 1 2 3 4 5 6 
#
# 1 0.012692 -0.000586 -0.001839 0.004223 -0.001519 -0.011211
# 2 -0.000586 0.012897 -0.001726 0.002429 -0.001783 -0.011058
# 3 -0.001839 -0.001726 0.020162 0.000617 -0.027294 0.010322
# 4 0.004223 0.002429 0.000617 0.043602 -0.001418 -0.014534
# 5 -0.001519 -0.001783 -0.027294 -0.001418 0.070654 -0.017733
# 6 -0.011211 -0.011058 0.010322 -0.014534 -0.017733 0.059964
#
#
# Mechanical properties :
#
#
# Convention : Reuss Voigt Hill
#
# Bulk Modulus (GPa) = 26.70207 58.12945 42.41576
# Shear Modulus (GPa) = 20.76792 35.22274 27.99533
#
# Velocity S-wave (km/s) = 3.06076 3.98606 3.55365
# Velocity P-wave (km/s) = 4.95339 6.88524 5.99761
#
# Compressibility (1/GPa) = 0.03745028
#
# Stress axis : x y z
#
# Youngs Moduli (GPa) = 78.78819 77.53651 49.59801
#
# Poissons Ratio (x) = 0.04542 0.09120
# Poissons Ratio (y) = 0.04615 0.08561
# Poissons Ratio (z) = 0.14487 0.13384
#
# Static dielectric constant tensor:
#      x y z
#    x 1.816070 0.008650 0.073030 
#    y 0.008650 1.743120 0.057350 
#    z 0.073030 0.057350 1.900560 
# 
# From -- ./inp_files/55492.got.cif
#   From: 2010.05.17/outbox.cif.g08.bks.cpg/sg2_28_cif.got.tgz:55492.got - 2010.06.03 11:33:40.
