data_PCOD9046980
_publ_section_title
;
Structure prediction by ZEFSAII (Michael W. Deem and Ramdas Pophale) SiO2 
 PCOD9046980
Probable space group: P -1
;
_chemical_formula_sum "Si O2"
_cell_formula_units_Z 12
_cell_length_a 7.502696
_cell_length_b 9.046555
_cell_length_c 12.913020
_cell_angle_alpha 84.511145
_cell_angle_beta 50.427315
_cell_angle_gamma 51.962928
_cell_volume 464.136369
_symmetry_space_group_name_H-M "P -1"
_symmetry_group_IT_number 2
_symmetry_cell_setting 'triclinic'
loop_
_space_group_symop_operation_xyz
x,y,z
-x,-y,-z
loop_
_atom_site_type_symbol
_atom_site_label
_atom_site_fract_x
_atom_site_fract_y
_atom_site_fract_z
Si Si1 0.664639 0.961698 0.294444
Si Si2 0.451507 0.301934 0.747021
Si Si3 0.627002 0.106447 0.911663
Si Si4 0.553687 0.740270 0.812146
Si Si5 0.962834 0.277334 0.626698
Si Si6 0.150699 0.656803 0.678753
O O1 0.594424 0.827131 0.290857
O O2 0.951533 0.819453 0.283254
O O3 0.705977 0.047431 0.174920
O O4 0.315669 0.174638 0.462570
O O5 0.811328 0.217555 0.616762
O O6 0.204695 0.534916 0.770540
O O7 0.425552 0.270066 0.879406
O O8 0.996078 0.888109 0.748692
O O9 0.500000 0.000000 0.000000
O O10 0.575119 0.223922 0.026551
O O11 0.680582 0.533169 0.724739
O O12 0.880402 0.694895 0.706652
O O13 0.500000 0.500000 0.500000
#
# Coordination Sequence:
#
# PCOD9046980 Si02
#       6
#     2   2   2   2   2   2
#     4  11  23  44  69  97 145 180 224 288 341 404
#     4  12  24  43  73  99 137 182 230 285 340 412
#     4  10  24  43  70 101 135 188 228 272 354 412
#     4  11  23  47  67  99 144 180 226 285 343 407
#     4  11  26  40  67 107 132 181 235 280 345 403
#     4  11  24  40  72 104 132 178 233 279 341 408
#
# _framework density 25.854472000000001
#
# number of rings (size 3 to 8) (size 9 to 14) (size 15 to 20)
#    0.000    1.000    5.000    2.000    2.333    6.000 
#    0.000    1.667    0.000    0.000    0.000    0.000 
#    0.000    0.000    0.000    0.000    0.000    0.000 
#
# Total GULP energy -67256.094725 kJ/mol
# GULP energy per Si atom -5604.674560 kJ/mol
# Density = 2.579563 g / cm^3
# Si number density = 25.854472 Si / 1000 Ang^3
#
#
#
# Elastic Constant Matrix: (Units=GPa)
#
#
# Indices 1 2 3 4 5 6 
#
# 1 110.5708 42.6394 4.3238 16.5452 9.7638 -5.2287
# 2 42.6394 157.1561 7.4334 -25.7238 19.0126 -5.3940
# 3 4.3238 7.4334 85.3854 0.0608 -0.7235 9.2967
# 4 16.5452 -25.7238 0.0608 45.9534 -0.3559 14.0864
# 5 9.7638 19.0126 -0.7235 -0.3559 40.2498 7.0616
# 6 -5.2287 -5.3940 9.2967 14.0864 7.0616 47.5324
#
#
#
# Elastic Compliance Matrix: (Units=1/GPa)
#
#
# Indices 1 2 3 4 5 6 
#
# 1 0.012200 -0.004245 -0.000645 -0.007874 -0.001661 0.003567
# 2 -0.004245 0.008986 -0.000497 0.006820 -0.003001 -0.000925
# 3 -0.000645 -0.000497 0.012114 0.000840 0.001127 -0.002913
# 4 -0.007874 0.006820 0.000840 0.031378 0.000675 -0.009656
# 5 -0.001661 -0.003001 0.001127 0.000675 0.027576 -0.005041
# 6 0.003567 -0.000925 -0.002913 -0.009656 -0.005041 0.025506
#
#
# Mechanical properties :
#
#
# Convention : Reuss Voigt Hill
#
# Bulk Modulus (GPa) = 44.39407 51.32284 47.85845
# Shear Modulus (GPa) = 36.75360 46.66152 41.70756
#
# Velocity S-wave (km/s) = 3.77444 4.25287 4.02078
# Velocity P-wave (km/s) = 6.01691 6.63398 6.33297
#
# Compressibility (1/GPa) = 0.02252553
#
# Stress axis : x y z
#
# Youngs Moduli (GPa) = 81.96870 111.28533 82.55158
#
# Poissons Ratio (x) = 0.47240 0.05325
# Poissons Ratio (y) = 0.34795 0.04102
# Poissons Ratio (z) = 0.05287 0.05530
#
# Static dielectric constant tensor:
#      x y z
#    x 2.063400 0.010260 -0.069300 
#    y 0.010260 1.979260 -0.022380 
#    z -0.069300 -0.022380 2.112570 
# 
# From -- ./inp_files/194982.got.cif
#   From: 2010.05.17/outbox.cif.g08.bks.cpg/sg2_98_cif.got.tgz:194982.got - 2010.06.03 11:33:40.
