data_PCOD9046109
_publ_section_title
;
Structure prediction by ZEFSAII (Michael W. Deem and Ramdas Pophale) SiO2 
 PCOD9046109
Probable space group: P -1
;
_chemical_formula_sum "Si O2"
_cell_formula_units_Z 14
_cell_length_a 21.569695
_cell_length_b 6.936057
_cell_length_c 8.777436
_cell_angle_alpha 56.100177
_cell_angle_beta 51.325995
_cell_angle_gamma 42.257445
_cell_volume 677.981393
_symmetry_space_group_name_H-M "P -1"
_symmetry_group_IT_number 2
_symmetry_cell_setting 'triclinic'
loop_
_space_group_symop_operation_xyz
x,y,z
-x,-y,-z
loop_
_atom_site_type_symbol
_atom_site_label
_atom_site_fract_x
_atom_site_fract_y
_atom_site_fract_z
Si Si1 0.485935 0.276328 0.699750
Si Si2 0.306218 0.300463 0.889555
Si Si3 0.017879 0.343438 0.381450
Si Si4 0.415946 0.718783 0.153683
Si Si5 0.641223 0.698396 0.534322
Si Si6 0.913447 0.328920 0.033487
Si Si7 0.858272 0.334265 0.464989
O O1 0.500000 0.500000 0.500000
O O2 0.372230 0.389969 0.821358
O O3 0.532310 0.224270 0.818135
O O4 0.626193 0.449623 0.644210
O O5 0.341013 0.220760 0.694349
O O6 0.188544 0.549177 0.953371
O O7 0.334081 0.019413 0.062296
O O8 0.000000 0.500000 0.500000
O O9 0.915460 0.403249 0.460532
O O10 0.100540 0.996323 0.421220
O O11 0.052767 0.473547 0.150314
O O12 0.451760 0.021455 0.362096
O O13 0.500000 0.500000 0.000000
O O14 0.739381 0.559438 0.547652
O O15 0.891698 0.341026 0.239783
O O16 0.000000 0.000000 0.000000
#
# Coordination Sequence:
#
# PCOD9046109 Si02
#       7
#     2   2   2   2   2   2   2
#     4  12  24  43  68  98 135 176 215 267 331 394
#     4  11  24  43  66  97 130 175 221 268 328 388
#     4  11  22  43  68  93 132 167 224 271 330 384
#     4  12  24  43  69  95 137 174 218 269 324 391
#     4  11  24  44  66  94 137 168 220 268 328 390
#     4  11  23  43  68  95 131 173 219 273 328 388
#     4  10  24  42  67  97 126 177 214 273 331 387
#
# _framework density 20.649535
#
# number of rings (size 3 to 8) (size 9 to 14) (size 15 to 20)
#    0.000    0.857    4.286    3.000    0.000    3.429 
#    0.000    1.429    0.000    0.000    0.000    0.000 
#    0.000    0.000    0.000    0.000    0.000    0.000 
#
# Total GULP energy -78351.782814 kJ/mol
# GULP energy per Si atom -5596.555915 kJ/mol
# Density = 2.060254 g / cm^3
# Si number density = 20.649535 Si / 1000 Ang^3
#
#
#
# Elastic Constant Matrix: (Units=GPa)
#
#
# Indices 1 2 3 4 5 6 
#
# 1 145.0385 72.0348 8.4768 -10.3508 2.7375 -13.1141
# 2 72.0348 88.6774 35.2028 -17.1644 -4.1626 -11.1259
# 3 8.4768 35.2028 63.7679 -30.5542 1.7305 3.7262
# 4 -10.3508 -17.1644 -30.5542 36.7166 1.1141 -4.3602
# 5 2.7375 -4.1626 1.7305 1.1141 33.7987 -4.1251
# 6 -13.1141 -11.1259 3.7262 -4.3602 -4.1251 32.6867
#
#
#
# Elastic Compliance Matrix: (Units=1/GPa)
#
#
# Indices 1 2 3 4 5 6 
#
# 1 0.013364 -0.013193 0.007467 0.003928 -0.003202 0.000140
# 2 -0.013193 0.029040 -0.016353 -0.003134 0.006421 0.006848
# 3 0.007467 -0.016353 0.035437 0.023627 -0.005722 -0.004181
# 4 0.003928 -0.003134 0.023627 0.047072 -0.003012 0.003715
# 5 -0.003202 0.006421 -0.005722 -0.003012 0.031658 0.005147
# 6 0.000140 0.006848 -0.004181 0.003715 0.005147 0.034602
#
#
# Mechanical properties :
#
#
# Convention : Reuss Voigt Hill
#
# Bulk Modulus (GPa) = 29.68866 58.76807 44.22837
# Shear Modulus (GPa) = 20.27920 32.75838 26.51879
#
# Velocity S-wave (km/s) = 3.13719 3.98728 3.58751
# Velocity P-wave (km/s) = 5.24702 7.05120 6.21493
#
# Compressibility (1/GPa) = 0.03368289
#
# Stress axis : x y z
#
# Youngs Moduli (GPa) = 74.82821 34.43583 28.21871
#
# Poissons Ratio (x) = 0.45430 -0.21071
# Poissons Ratio (y) = 0.98718 0.46147
# Poissons Ratio (z) = -0.55875 0.56315
#
# Static dielectric constant tensor:
#      x y z
#    x 1.767710 -0.065820 -0.040310 
#    y -0.065820 1.802700 0.067250 
#    z -0.040310 0.067250 1.795090 
# 
# From -- ./inp_files/340128.got.cif
#   From: 2010.05.17/outbox.cif.g08.bks.cpg/sg2_171_cif.got.tgz:340128.got - 2010.06.03 11:33:40.
