data_PCOD9046701
_publ_section_title
;
Structure prediction by ZEFSAII (Michael W. Deem and Ramdas Pophale) SiO2 
 PCOD9046701
Probable space group: P -1
;
_chemical_formula_sum "Si O2"
_cell_formula_units_Z 14
_cell_length_a 6.927214
_cell_length_b 15.741482
_cell_length_c 16.459208
_cell_angle_alpha 154.559909
_cell_angle_beta 121.660387
_cell_angle_gamma 58.533905
_cell_volume 650.559118
_symmetry_space_group_name_H-M "P -1"
_symmetry_group_IT_number 2
_symmetry_cell_setting 'triclinic'
loop_
_space_group_symop_operation_xyz
x,y,z
-x,-y,-z
loop_
_atom_site_type_symbol
_atom_site_label
_atom_site_fract_x
_atom_site_fract_y
_atom_site_fract_z
Si Si1 0.564581 0.690955 0.863988
Si Si2 0.430893 0.727054 0.205227
Si Si3 0.388973 0.297462 0.294677
Si Si4 0.015773 0.080060 0.820878
Si Si5 0.071510 0.832557 0.938285
Si Si6 0.725277 0.045919 0.480075
Si Si7 0.348952 0.779141 0.557699
O O1 0.524178 0.785120 0.845442
O O2 0.329616 0.733970 0.897620
O O3 0.629712 0.453610 0.661059
O O4 0.776644 0.787169 0.030407
O O5 0.367580 0.770141 0.322585
O O6 0.205296 0.818809 0.186403
O O7 0.627777 0.856308 0.333186
O O8 0.500000 0.500000 0.000000
O O9 0.500000 0.500000 0.500000
O O10 0.471546 0.188929 0.303048
O O11 0.115534 0.320565 0.247126
O O12 0.106235 0.864567 0.617867
O O13 0.966121 0.075731 0.901494
O O14 0.000000 0.000000 0.000000
O O15 0.632599 0.097524 0.413875
O O16 0.000000 0.000000 0.500000
#
# Coordination Sequence:
#
# PCOD9046701 Si02
#       7
#     2   2   2   2   2   2   2
#     4  10  24  43  67 102 135 179 225 266 331 401
#     4  11  28  47  71  98 134 173 222 282 340 396
#     4   9  21  42  61  97 137 174 214 269 325 385
#     4  11  25  43  66 101 134 175 219 277 340 387
#     4  11  23  40  68  99 135 176 230 268 321 405
#     4  11  26  48  68 103 129 171 229 277 334 403
#     4  11  23  43  71  93 139 176 218 277 332 390
#
# _framework density 21.519950000000001
#
# number of rings (size 3 to 8) (size 9 to 14) (size 15 to 20)
#    0.000    1.429    1.429    1.714    8.000    5.143 
#    5.143    0.000    0.000    0.000    0.000    0.000 
#    0.000    0.000    0.000    0.000    0.000    0.000 
#
# Total GULP energy -78270.134157 kJ/mol
# GULP energy per Si atom -5590.723868 kJ/mol
# Density = 2.147097 g / cm^3
# Si number density = 21.519950 Si / 1000 Ang^3
#
#
#
# Elastic Constant Matrix: (Units=GPa)
#
#
# Indices 1 2 3 4 5 6 
#
# 1 168.2539 38.5695 61.6352 -0.3463 -17.4858 -6.7487
# 2 38.5695 83.9501 20.2745 -19.7229 -23.9119 4.8066
# 3 61.6352 20.2745 106.2609 13.2767 -26.3197 -1.5845
# 4 -0.3463 -19.7229 13.2767 39.5626 -4.8666 -11.6769
# 5 -17.4858 -23.9119 -26.3197 -4.8666 39.2956 -1.7259
# 6 -6.7487 4.8066 -1.5845 -11.6769 -1.7259 30.9436
#
#
#
# Elastic Compliance Matrix: (Units=1/GPa)
#
#
# Indices 1 2 3 4 5 6 
#
# 1 0.008266 -0.002957 -0.004519 0.000652 -0.000969 0.002223
# 2 -0.002957 0.019362 -0.000538 0.011636 0.011607 0.001358
# 3 -0.004519 -0.000538 0.014345 -0.004782 0.006607 -0.001604
# 4 0.000652 0.011636 -0.004782 0.037624 0.009390 0.012811
# 5 -0.000969 0.011607 0.006607 0.009390 0.037843 0.003978
# 6 0.002223 0.001358 -0.001604 0.012811 0.003978 0.037565
#
#
# Mechanical properties :
#
#
# Convention : Reuss Voigt Hill
#
# Bulk Modulus (GPa) = 38.54189 66.60259 52.57224
# Shear Modulus (GPa) = 27.82715 37.82606 32.82661
#
# Velocity S-wave (km/s) = 3.59985 4.19707 3.90988
# Velocity P-wave (km/s) = 5.93526 7.38265 6.69817
#
# Compressibility (1/GPa) = 0.02594580
#
# Stress axis : x y z
#
# Youngs Moduli (GPa) = 120.97242 51.64732 69.71201
#
# Poissons Ratio (x) = 0.15271 0.31503
# Poissons Ratio (y) = 0.35768 0.03750
# Poissons Ratio (z) = 0.54668 0.02778
#
# Static dielectric constant tensor:
#      x y z
#    x 1.776490 0.019800 0.000290 
#    y 0.019800 1.800770 0.005570 
#    z 0.000290 0.005570 1.812930 
# 
# From -- ./inp_files/484662.got.cif
#   From: 2010.05.17/outbox.cif.g08.bks.cpg/sg2_243_cif.got.tgz:484662.got - 2010.06.03 11:33:40.
