data_PCOD9046640
_publ_section_title
;
Structure prediction by ZEFSAII (Michael W. Deem and Ramdas Pophale) SiO2 
 PCOD9046640
Probable space group: P -1
;
_chemical_formula_sum "Si O2"
_cell_formula_units_Z 16
_cell_length_a 11.824068
_cell_length_b 9.674017
_cell_length_c 11.278448
_cell_angle_alpha 45.899570
_cell_angle_beta 87.615912
_cell_angle_gamma 57.155313
_cell_volume 646.609833
_symmetry_space_group_name_H-M "P -1"
_symmetry_group_IT_number 2
_symmetry_cell_setting 'triclinic'
loop_
_space_group_symop_operation_xyz
x,y,z
-x,-y,-z
loop_
_atom_site_type_symbol
_atom_site_label
_atom_site_fract_x
_atom_site_fract_y
_atom_site_fract_z
Si Si1 0.600419 0.195666 0.085220
Si Si2 0.321565 0.256053 0.798027
Si Si3 0.680990 0.349654 0.587260
Si Si4 0.252303 0.478347 0.903985
Si Si5 0.181053 0.197970 0.201581
Si Si6 0.352161 0.046614 0.527418
Si Si7 0.860708 0.359321 0.740947
Si Si8 0.876979 0.143732 0.107800
O O1 0.698718 0.908940 0.181275
O O2 0.593490 0.161329 0.246818
O O3 0.701292 0.265973 0.023208
O O4 0.415809 0.402625 0.924489
O O5 0.315320 0.457493 0.601991
O O6 0.202620 0.447346 0.799093
O O7 0.500000 0.000000 0.000000
O O8 0.500000 0.500000 0.500000
O O9 0.734377 0.346408 0.717572
O O10 0.788171 0.041497 0.721382
O O11 0.129582 0.754740 0.822483
O O12 0.291588 0.239364 0.121889
O O13 0.247703 0.090317 0.396466
O O14 0.000000 0.500000 0.000000
O O15 0.229586 0.333458 0.431361
O O16 0.500000 0.000000 0.500000
O O17 0.914491 0.250858 0.937884
O O18 0.993940 0.176463 0.741413
#
# Coordination Sequence:
#
# PCOD9046640 Si02
#       8
#     2   2   2   2   2   2   2   2
#     4  11  23  43  73 101 136 191 243 297 361 425
#     4  10  24  43  66 106 143 178 234 310 350 418
#     4  12  25  44  74 102 139 194 247 290 364 439
#     4  11  23  45  67 103 145 180 244 297 356 433
#     4  12  27  45  72 108 147 194 235 300 375 427
#     4  12  23  47  74 101 142 188 248 306 347 435
#     4  11  25  45  69  99 142 180 246 297 355 439
#     4  11  25  43  69 100 139 188 229 303 368 421
#
# _framework density 24.744443
#
# number of rings (size 3 to 8) (size 9 to 14) (size 15 to 20)
#    0.000    0.750    3.750    3.375    8.750    0.500 
#    2.250    1.250    0.000    0.000    0.000    0.000 
#    0.000    0.000    0.000    0.000    0.000    0.000 
#
# Total GULP energy -89422.825775 kJ/mol
# GULP energy per Si atom -5588.926611 kJ/mol
# Density = 2.468812 g / cm^3
# Si number density = 24.744443 Si / 1000 Ang^3
#
#
#
# Elastic Constant Matrix: (Units=GPa)
#
#
# Indices 1 2 3 4 5 6 
#
# 1 56.6158 9.8778 3.6925 -2.3882 8.9424 0.5264
# 2 9.8778 170.6184 31.2385 1.7847 -7.5135 6.1830
# 3 3.6925 31.2385 72.0642 -4.5831 10.1533 -3.2504
# 4 -2.3882 1.7847 -4.5831 50.5675 9.6142 2.9004
# 5 8.9424 -7.5135 10.1533 9.6142 32.4559 -2.1898
# 6 0.5264 6.1830 -3.2504 2.9004 -2.1898 38.1487
#
#
#
# Elastic Compliance Matrix: (Units=1/GPa)
#
#
# Indices 1 2 3 4 5 6 
#
# 1 0.019015 -0.001528 0.000732 0.002289 -0.006534 -0.000501
# 2 -0.001528 0.006783 -0.003460 -0.001201 0.003356 -0.001089
# 3 0.000732 -0.003460 0.016564 0.002903 -0.006954 0.001342
# 4 0.002289 -0.001201 0.002903 0.021889 -0.008418 -0.001737
# 5 -0.006534 0.003356 -0.006954 -0.008418 0.038178 0.001785
# 6 -0.000501 -0.001089 0.001342 -0.001737 0.001785 0.026746
#
#
# Mechanical properties :
#
#
# Convention : Reuss Voigt Hill
#
# Bulk Modulus (GPa) = 29.54375 43.21288 36.37831
# Shear Modulus (GPa) = 33.56363 41.20041 37.38202
#
# Velocity S-wave (km/s) = 3.68694 4.08491 3.89102
# Velocity P-wave (km/s) = 5.48545 6.30478 5.90933
#
# Compressibility (1/GPa) = 0.03384810
#
# Stress axis : x y z
#
# Youngs Moduli (GPa) = 52.58984 147.43008 60.37228
#
# Poissons Ratio (x) = 0.22532 -0.04418
# Poissons Ratio (y) = 0.08038 0.20890
# Poissons Ratio (z) = -0.03848 0.51015
#
# Static dielectric constant tensor:
#      x y z
#    x 2.603850 1.080740 0.279020 
#    y 1.080740 4.034830 0.467250 
#    z 0.279020 0.467250 2.132340 
# 
# From -- ./inp_files/418911.got.cif
#   From: 2010.05.17/outbox.cif.g08.bks.cpg/sg2_210_cif.got.tgz:418911.got - 2010.06.03 11:33:40.
