data_PCOD9046406
_publ_section_title
;
Structure prediction by ZEFSAII (Michael W. Deem and Ramdas Pophale) SiO2 
 PCOD9046406
Probable space group: P -1
;
_chemical_formula_sum "Si O2"
_cell_formula_units_Z 16
_cell_length_a 10.659305
_cell_length_b 8.590772
_cell_length_c 7.133257
_cell_angle_alpha 92.448303
_cell_angle_beta 88.664138
_cell_angle_gamma 117.715965
_cell_volume 577.725952
_symmetry_space_group_name_H-M "P -1"
_symmetry_group_IT_number 2
_symmetry_cell_setting 'triclinic'
loop_
_space_group_symop_operation_xyz
x,y,z
-x,-y,-z
loop_
_atom_site_type_symbol
_atom_site_label
_atom_site_fract_x
_atom_site_fract_y
_atom_site_fract_z
Si Si1 0.997205 0.747244 0.002827
Si Si2 0.542460 0.743275 0.369146
Si Si3 0.218530 0.119499 0.061273
Si Si4 0.901972 0.564390 0.620283
Si Si5 0.492057 0.384507 0.204588
Si Si6 0.791848 0.478277 0.258801
Si Si7 0.831757 0.936557 0.520765
Si Si8 0.705684 0.207059 0.570387
O O1 0.885902 0.825276 0.042261
O O2 0.984410 0.697334 0.783742
O O3 0.929634 0.575728 0.129034
O O4 0.151949 0.909456 0.034776
O O5 0.474197 0.557818 0.254863
O O6 0.521493 0.695354 0.590157
O O7 0.713715 0.844011 0.355707
O O8 0.456436 0.856431 0.360985
O O9 0.386383 0.241936 0.054099
O O10 0.201734 0.159955 0.282478
O O11 0.211771 0.906652 0.427792
O O12 0.000000 0.500000 0.500000
O O13 0.784796 0.383583 0.702002
O O14 0.655656 0.454864 0.149616
O O15 0.827176 0.606338 0.448382
O O16 0.737790 0.291977 0.361781
O O17 0.000000 0.000000 0.500000
#
# Coordination Sequence:
#
# PCOD9046406 Si02
#       8
#     2   2   2   2   2   2   2   2
#     4  11  24  45  69 107 147 188 242 306 372 422
#     4   9  18  36  68  99 146 194 242 304 358 448
#     4  10  25  40  65 102 154 187 231 312 365 435
#     4  10  24  42  72 102 142 191 243 299 363 444
#     4   9  18  39  69 103 137 195 249 290 367 437
#     4   9  23  41  75 105 139 190 249 303 356 447
#     4  11  24  37  69 108 148 188 248 309 368 441
#     4   9  21  42  64 106 142 190 250 296 370 436
#
# _framework density 27.694794999999999
#
# number of rings (size 3 to 8) (size 9 to 14) (size 15 to 20)
#    0.750    1.500    0.000    1.125    8.750    1.000 
#    0.000    1.875    0.000    0.750    0.000    0.000 
#    0.000    0.000    0.000    0.000    0.000    0.000 
#
# Total GULP energy -89252.518711 kJ/mol
# GULP energy per Si atom -5578.282419 kJ/mol
# Density = 2.763176 g / cm^3
# Si number density = 27.694795 Si / 1000 Ang^3
#
#
#
# Elastic Constant Matrix: (Units=GPa)
#
#
# Indices 1 2 3 4 5 6 
#
# 1 190.3181 58.0819 22.4161 11.6301 -0.8538 23.0176
# 2 58.0819 101.8302 39.2894 26.5714 11.8405 34.2426
# 3 22.4161 39.2894 102.8976 24.2255 9.8910 13.9935
# 4 11.6301 26.5714 24.2255 58.2915 9.2745 17.8918
# 5 -0.8538 11.8405 9.8910 9.2745 36.1155 -0.2807
# 6 23.0176 34.2426 13.9935 17.8918 -0.2807 40.8377
#
#
#
# Elastic Compliance Matrix: (Units=1/GPa)
#
#
# Indices 1 2 3 4 5 6 
#
# 1 0.006449 -0.003648 -0.000143 0.000455 0.001265 -0.000718
# 2 -0.003648 0.018067 -0.003727 -0.001837 -0.004603 -0.011043
# 3 -0.000143 -0.003727 0.011979 -0.003207 -0.001235 0.000498
# 4 0.000455 -0.001837 -0.003207 0.022171 -0.004260 -0.007360
# 5 0.001265 -0.004603 -0.001235 -0.004260 0.030704 0.005647
# 6 -0.000718 -0.011043 0.000498 -0.007360 0.005647 0.037244
#
#
# Mechanical properties :
#
#
# Convention : Reuss Voigt Hill
#
# Bulk Modulus (GPa) = 46.60070 70.51342 58.55706
# Shear Modulus (GPa) = 33.60161 45.39950 39.50055
#
# Velocity S-wave (km/s) = 3.48700 4.05319 3.78071
# Velocity P-wave (km/s) = 5.75111 6.88627 6.34413
#
# Compressibility (1/GPa) = 0.02145890
#
# Stress axis : x y z
#
# Youngs Moduli (GPa) = 155.06018 55.35037 83.48112
#
# Poissons Ratio (x) = 0.20189 0.01195
# Poissons Ratio (y) = 0.56558 0.31114
# Poissons Ratio (z) = 0.02220 0.20630
#
# Static dielectric constant tensor:
#      x y z
#    x 2.360690 0.018550 0.044770 
#    y 0.018550 2.310950 0.009040 
#    z 0.044770 0.009040 2.160030 
# 
# From -- ./inp_files/254569.got.cif
#   From: 2010.05.17/outbox.cif.g08.bks.cpg/sg2_128_cif.got.tgz:254569.got - 2010.06.03 11:33:40.
