data_PCOD9046597
_publ_section_title
;
Structure prediction by ZEFSAII (Michael W. Deem and Ramdas Pophale) SiO2 
 PCOD9046597
Probable space group: P -1
;
_chemical_formula_sum "Si O2"
_cell_formula_units_Z 16
_cell_length_a 30.269651
_cell_length_b 16.970793
_cell_length_c 12.252294
_cell_angle_alpha 147.706346
_cell_angle_beta 160.577042
_cell_angle_gamma 22.311636
_cell_volume 775.987170
_symmetry_space_group_name_H-M "P -1"
_symmetry_group_IT_number 2
_symmetry_cell_setting 'triclinic'
loop_
_space_group_symop_operation_xyz
x,y,z
-x,-y,-z
loop_
_atom_site_type_symbol
_atom_site_label
_atom_site_fract_x
_atom_site_fract_y
_atom_site_fract_z
Si Si1 0.072367 0.587884 0.018373
Si Si2 0.850583 0.020084 0.108116
Si Si3 0.015108 0.663033 0.727995
Si Si4 0.781895 0.239102 0.766944
Si Si5 0.186439 0.720443 0.872876
Si Si6 0.512348 0.664445 0.223030
Si Si7 0.511309 0.265343 0.006901
Si Si8 0.159019 0.180270 0.714453
O O1 0.289403 0.449749 0.393773
O O2 0.070935 0.411474 0.805131
O O3 0.941000 0.787660 0.025688
O O4 0.011593 0.701336 0.891586
O O5 0.814215 0.150070 0.067576
O O6 0.662174 0.145136 0.886273
O O7 0.000000 0.000000 0.500000
O O8 0.858298 0.831025 0.469660
O O9 0.000000 0.500000 0.500000
O O10 0.197590 0.605582 0.039444
O O11 0.655968 0.256583 0.403351
O O12 0.721431 0.290265 0.812661
O O13 0.000000 0.000000 0.000000
O O14 0.975588 0.827054 0.540535
O O15 0.308502 0.482868 0.835654
O O16 0.500000 0.500000 0.000000
O O17 0.498394 0.714212 0.121802
O O18 0.616479 0.023346 0.980705
#
# Coordination Sequence:
#
# PCOD9046597 Si02
#       8
#     2   2   2   2   2   2   2   2
#     4  11  24  44  67  92 131 173 218 258 322 384
#     4  12  24  40  67  95 125 169 218 266 311 382
#     4   9  19  38  64  92 126 169 209 256 319 377
#     4  11  20  37  66  93 125 169 206 268 324 369
#     4  11  23  39  66  98 129 164 214 266 327 373
#     4  12  24  42  65  95 127 169 215 264 319 372
#     4  12  23  41  65  95 134 163 219 266 314 388
#     4  10  24  43  65  95 133 173 205 269 325 379
#
# _framework density 20.618897
#
# number of rings (size 3 to 8) (size 9 to 14) (size 15 to 20)
#    0.000    1.000    5.000    2.625    0.000    1.500 
#    0.000    4.375    0.000    6.000    0.000    0.000 
#    0.000    0.000    0.000    0.000    0.000    0.000 
#
# Total GULP energy -89109.343260 kJ/mol
# GULP energy per Si atom -5569.333954 kJ/mol
# Density = 2.057197 g / cm^3
# Si number density = 20.618897 Si / 1000 Ang^3
#
#
#
# Elastic Constant Matrix: (Units=GPa)
#
#
# Indices 1 2 3 4 5 6 
#
# 1 90.2119 45.6948 17.3118 -4.3782 -10.5172 -23.3462
# 2 45.6948 139.3655 18.5157 -10.8374 -5.1757 -24.6327
# 3 17.3118 18.5157 59.1086 -0.4756 -6.8019 -15.2907
# 4 -4.3782 -10.8374 -0.4756 31.1865 -2.5209 4.7664
# 5 -10.5172 -5.1757 -6.8019 -2.5209 19.4298 3.9021
# 6 -23.3462 -24.6327 -15.2907 4.7664 3.9021 31.5795
#
#
#
# Elastic Compliance Matrix: (Units=1/GPa)
#
#
# Indices 1 2 3 4 5 6 
#
# 1 0.015671 -0.003420 -0.000848 0.000279 0.005754 0.007754
# 2 -0.003420 0.009274 -0.000880 0.002102 -0.000217 0.003990
# 3 -0.000848 -0.000880 0.020022 -0.000965 0.004592 0.007959
# 4 0.000279 0.002102 -0.000965 0.033958 0.005672 -0.004448
# 5 0.005754 -0.000217 0.004592 0.005672 0.057192 -0.001615
# 6 0.007754 0.003990 0.007959 -0.004448 -0.001615 0.045236
#
#
# Mechanical properties :
#
#
# Convention : Reuss Voigt Hill
#
# Bulk Modulus (GPa) = 28.84189 50.19229 39.51709
# Shear Modulus (GPa) = 24.60578 30.25007 27.42792
#
# Velocity S-wave (km/s) = 3.45825 3.83443 3.65119
# Velocity P-wave (km/s) = 5.47398 6.63322 6.08128
#
# Compressibility (1/GPa) = 0.03467179
#
# Stress axis : x y z
#
# Youngs Moduli (GPa) = 63.81244 107.82869 49.94595
#
# Poissons Ratio (x) = 0.36873 0.04237
# Poissons Ratio (y) = 0.21821 0.04393
# Poissons Ratio (z) = 0.05413 0.09484
#
# Static dielectric constant tensor:
#      x y z
#    x 1.771360 0.017580 -0.015550 
#    y 0.017580 1.781450 0.001340 
#    z -0.015550 0.001340 1.692380 
# 
# From -- ./inp_files/477721.got.cif
#   From: 2010.05.17/outbox.cif.g08.bks.cpg/sg2_239_cif.got.tgz:477721.got - 2010.06.03 11:33:40.
