data_PCOD9046737
_publ_section_title
;
Structure prediction by ZEFSAII (Michael W. Deem and Ramdas Pophale) SiO2 
 PCOD9046737
Probable space group: P -1
;
_chemical_formula_sum "Si O2"
_cell_formula_units_Z 14
_cell_length_a 15.591954
_cell_length_b 24.590395
_cell_length_c 7.245652
_cell_angle_alpha 51.520841
_cell_angle_beta 130.219288
_cell_angle_gamma 162.025838
_cell_volume 654.220597
_symmetry_space_group_name_H-M "P -1"
_symmetry_group_IT_number 2
_symmetry_cell_setting 'triclinic'
loop_
_space_group_symop_operation_xyz
x,y,z
-x,-y,-z
loop_
_atom_site_type_symbol
_atom_site_label
_atom_site_fract_x
_atom_site_fract_y
_atom_site_fract_z
Si Si1 0.654418 0.572359 0.254430
Si Si2 0.448432 0.248806 0.602102
Si Si3 0.223897 0.689912 0.960045
Si Si4 0.822336 0.212153 0.022664
Si Si5 0.852197 0.743427 0.513353
Si Si6 0.998237 0.972460 0.262352
Si Si7 0.983596 0.341730 0.560165
O O1 0.753523 0.691072 0.273406
O O2 0.418081 0.403115 0.416361
O O3 0.928641 0.681386 0.360663
O O4 0.500000 0.500000 0.000000
O O5 0.731234 0.450961 0.514050
O O6 0.307993 0.190571 0.723281
O O7 0.224243 0.135942 0.367039
O O8 0.517998 0.207036 0.814383
O O9 0.141469 0.702534 0.966615
O O10 0.259088 0.754323 0.685297
O O11 0.000000 0.500000 0.000000
O O12 0.010978 0.253624 0.261894
O O13 0.918674 0.292684 0.785466
O O14 0.500000 0.000000 0.000000
O O15 0.058676 0.924688 0.450993
O O16 0.000000 0.000000 0.000000
#
# Coordination Sequence:
#
# PCOD9046737 Si02
#       7
#     2   2   2   2   2   2   2
#     4  11  22  39  70  99 127 173 218 279 335 388
#     4  10  24  43  67  95 138 173 224 269 332 399
#     4  10  24  45  68  99 136 178 227 272 328 406
#     4  12  26  44  69 101 136 176 225 278 336 397
#     4  11  24  41  68 101 133 166 228 277 330 399
#     4  11  25  42  67 101 134 176 217 278 334 398
#     4  11  23  44  71  95 132 179 222 273 334 397
#
# _framework density 21.399509999999999
#
# number of rings (size 3 to 8) (size 9 to 14) (size 15 to 20)
#    0.000    1.143    4.286    0.857    2.000    7.429 
#    2.571    0.000    0.000    0.000    0.000    0.000 
#    0.000    0.000    0.000    0.000    0.000    0.000 
#
# Total GULP energy -78123.036554 kJ/mol
# GULP energy per Si atom -5580.216897 kJ/mol
# Density = 2.135080 g / cm^3
# Si number density = 21.399510 Si / 1000 Ang^3
#
#
#
# Elastic Constant Matrix: (Units=GPa)
#
#
# Indices 1 2 3 4 5 6 
#
# 1 115.7810 15.3171 60.9427 -18.3346 -9.6987 -4.3333
# 2 15.3171 61.1017 23.4636 -6.5467 -15.1885 0.7148
# 3 60.9427 23.4636 148.1720 -5.4230 -27.7850 8.4903
# 4 -18.3346 -6.5467 -5.4230 19.6798 0.3256 2.6922
# 5 -9.6987 -15.1885 -27.7850 0.3256 40.8288 7.3360
# 6 -4.3333 0.7148 8.4903 2.6922 7.3360 21.9164
#
#
#
# Elastic Compliance Matrix: (Units=1/GPa)
#
#
# Indices 1 2 3 4 5 6 
#
# 1 0.013233 -0.000572 -0.005526 0.010084 -0.001644 0.004088
# 2 -0.000572 0.019316 -0.001137 0.005920 0.006824 -0.003314
# 3 -0.005526 -0.001137 0.010883 -0.001629 0.007017 -0.007420
# 4 0.010084 0.005920 -0.001629 0.062570 0.004186 -0.006656
# 5 -0.001644 0.006824 0.007017 0.004186 0.034113 -0.015199
# 6 0.004088 -0.003314 -0.007420 -0.006656 -0.015199 0.055324
#
#
# Mechanical properties :
#
#
# Convention : Reuss Voigt Hill
#
# Bulk Modulus (GPa) = 34.52767 58.27794 46.40281
# Shear Modulus (GPa) = 22.77255 31.50707 27.13981
#
# Velocity S-wave (km/s) = 3.26569 3.84125 3.56511
# Velocity P-wave (km/s) = 5.51266 6.85318 6.21914
#
# Compressibility (1/GPa) = 0.02896228
#
# Stress axis : x y z
#
# Youngs Moduli (GPa) = 75.56716 51.77179 91.88546
#
# Poissons Ratio (x) = 0.02959 0.50774
# Poissons Ratio (y) = 0.04319 0.10452
# Poissons Ratio (z) = 0.41757 0.05889
#
# Static dielectric constant tensor:
#      x y z
#    x 1.794130 -0.016460 0.038240 
#    y -0.016460 1.820000 0.039480 
#    z 0.038240 0.039480 1.767060 
# 
# From -- ./inp_files/101021.got.cif
#   From: 2010.05.17/outbox.cif.g08.bks.cpg/sg2_51_cif.got.tgz:101021.got - 2010.06.03 11:33:40.
