data_PCOD9046620
_publ_section_title
;
Structure prediction by ZEFSAII (Michael W. Deem and Ramdas Pophale) SiO2 
 PCOD9046620
Probable space group: P -1
;
_chemical_formula_sum "Si O2"
_cell_formula_units_Z 16
_cell_length_a 5.068235
_cell_length_b 19.997730
_cell_length_c 8.165469
_cell_angle_alpha 124.851329
_cell_angle_beta 65.330888
_cell_angle_gamma 99.587483
_cell_volume 614.292572
_symmetry_space_group_name_H-M "P -1"
_symmetry_group_IT_number 2
_symmetry_cell_setting 'triclinic'
loop_
_space_group_symop_operation_xyz
x,y,z
-x,-y,-z
loop_
_atom_site_type_symbol
_atom_site_label
_atom_site_fract_x
_atom_site_fract_y
_atom_site_fract_z
Si Si1 0.107904 0.059994 0.419867
Si Si2 0.567630 0.494547 0.664962
Si Si3 0.493450 0.903127 0.006525
Si Si4 0.840364 0.599855 0.143834
Si Si5 0.023704 0.378858 0.210914
Si Si6 0.274101 0.701076 0.316285
Si Si7 0.145001 0.868079 0.739517
Si Si8 0.104502 0.786447 0.140923
O O1 0.884011 0.084937 0.362793
O O2 0.143257 0.145913 0.624866
O O3 0.000000 0.000000 0.500000
O O4 0.362233 0.996145 0.194323
O O5 0.500000 0.500000 0.500000
O O6 0.354631 0.465276 0.817564
O O7 0.667917 0.584410 0.795775
O O8 0.832331 0.420064 0.467639
O O9 0.836224 0.897140 0.943843
O O10 0.406862 0.875968 0.808104
O O11 0.333865 0.841240 0.075057
O O12 0.597100 0.672266 0.253196
O O13 0.059037 0.630070 0.262503
O O14 0.025812 0.581879 0.904819
O O15 0.991335 0.283179 0.055821
O O16 0.252874 0.739474 0.193143
O O17 0.142251 0.773159 0.566974
#
# Coordination Sequence:
#
# PCOD9046620 Si02
#       8
#     2   2   2   2   2   2   2   2
#     4   9  20  43  66  95 135 180 228 276 339 405
#     4  11  27  44  72 104 139 177 233 288 346 423
#     4  11  23  40  68 100 134 179 222 290 337 400
#     4  11  25  46  72  99 144 184 228 288 345 412
#     4  10  25  46  68 101 135 184 227 281 350 411
#     4  10  24  43  66 101 135 184 231 276 342 413
#     4  11  23  40  66 101 138 177 227 284 340 397
#     4   9  22  44  67  94 135 178 228 277 340 414
#
# _framework density 26.046220000000002
#
# number of rings (size 3 to 8) (size 9 to 14) (size 15 to 20)
#    0.000    1.750    0.000    1.875   10.500    2.500 
#    0.000   16.250    0.000    0.000    0.000    0.000 
#    0.000    0.000    0.000    0.000    0.000    0.000 
#
# Total GULP energy -89416.884531 kJ/mol
# GULP energy per Si atom -5588.555283 kJ/mol
# Density = 2.598694 g / cm^3
# Si number density = 26.046220 Si / 1000 Ang^3
#
#
#
# Elastic Constant Matrix: (Units=GPa)
#
#
# Indices 1 2 3 4 5 6 
#
# 1 48.7071 17.5954 4.0382 14.0328 5.0814 2.3899
# 2 17.5954 132.2090 40.5151 3.1901 2.1279 13.0368
# 3 4.0382 40.5151 132.5303 23.7036 2.8930 4.7029
# 4 14.0328 3.1901 23.7036 49.6078 3.3684 -5.5357
# 5 5.0814 2.1279 2.8930 3.3684 35.4978 10.9880
# 6 2.3899 13.0368 4.7029 -5.5357 10.9880 40.4739
#
#
#
# Elastic Compliance Matrix: (Units=1/GPa)
#
#
# Indices 1 2 3 4 5 6 
#
# 1 0.024029 -0.003420 0.001707 -0.007325 -0.002412 -0.000863
# 2 -0.003420 0.009086 -0.002860 0.001427 0.000789 -0.002411
# 3 0.001707 -0.002860 0.009263 -0.004818 -0.000096 -0.000889
# 4 -0.007325 0.001427 -0.004818 0.025125 -0.002464 0.004638
# 5 -0.002412 0.000789 -0.000096 -0.002464 0.031492 -0.008987
# 6 -0.000863 -0.002411 -0.000889 0.004638 -0.008987 0.028712
#
#
# Mechanical properties :
#
#
# Convention : Reuss Voigt Hill
#
# Bulk Modulus (GPa) = 30.09250 48.63820 39.36535
# Shear Modulus (GPa) = 33.79893 41.86908 37.83401
#
# Velocity S-wave (km/s) = 3.60620 4.01370 3.81540
# Velocity P-wave (km/s) = 5.37756 6.33988 5.87845
#
# Compressibility (1/GPa) = 0.03323087
#
# Stress axis : x y z
#
# Youngs Moduli (GPa) = 41.61566 110.05697 107.95444
#
# Poissons Ratio (x) = 0.37644 -0.18427
# Poissons Ratio (y) = 0.14234 0.30879
# Poissons Ratio (z) = -0.07103 0.31481
#
# Static dielectric constant tensor:
#      x y z
#    x 2.210360 0.013950 0.009490 
#    y 0.013950 2.052550 -0.041320 
#    z 0.009490 -0.041320 2.218320 
# 
# From -- ./inp_files/140825.got.cif
#   From: 2010.05.17/outbox.cif.g08.bks.cpg/sg2_71_cif.got.tgz:140825.got - 2010.06.03 11:33:40.
