data_PCOD9046965
_publ_section_title
;
Structure prediction by ZEFSAII (Michael W. Deem and Ramdas Pophale) SiO2 
 PCOD9046965
Probable space group: P -1
;
_chemical_formula_sum "Si O2"
_cell_formula_units_Z 14
_cell_length_a 11.254171
_cell_length_b 8.088701
_cell_length_c 11.773662
_cell_angle_alpha 35.593959
_cell_angle_beta 98.595977
_cell_angle_gamma 99.878560
_cell_volume 614.471678
_symmetry_space_group_name_H-M "P -1"
_symmetry_group_IT_number 2
_symmetry_cell_setting 'triclinic'
loop_
_space_group_symop_operation_xyz
x,y,z
-x,-y,-z
loop_
_atom_site_type_symbol
_atom_site_label
_atom_site_fract_x
_atom_site_fract_y
_atom_site_fract_z
Si Si1 0.534274 0.818651 0.374401
Si Si2 0.374056 0.085539 0.039374
Si Si3 0.780100 0.959932 0.456280
Si Si4 0.838979 0.163339 0.719114
Si Si5 0.198502 0.655143 0.149890
Si Si6 0.046985 0.831526 0.829278
Si Si7 0.672847 0.350792 0.406613
O O1 0.500000 0.500000 0.500000
O O2 0.670067 0.870984 0.404444
O O3 0.444342 0.836515 0.458372
O O4 0.493671 0.038280 0.151771
O O5 0.264221 0.082125 0.117599
O O6 0.330059 0.799284 0.123173
O O7 0.369643 0.354406 0.808919
O O8 0.801281 0.677136 0.688414
O O9 0.893688 0.065902 0.337486
O O10 0.737308 0.198208 0.399842
O O11 0.876071 0.311995 0.761257
O O12 0.768429 0.370300 0.513263
O O13 0.944709 0.028495 0.744717
O O14 0.145727 0.832091 0.943498
O O15 0.000000 0.500000 0.000000
#
# Coordination Sequence:
#
# PCOD9046965 Si02
#       7
#     2   2   2   2   2   2   2
#     4  11  23  45  69 101 135 171 226 274 329 398
#     4   9  22  41  71  98 129 174 221 275 323 392
#     4  12  26  43  67 101 138 178 215 275 343 390
#     4   9  22  43  65  97 133 173 228 271 324 388
#     4  10  24  43  69  99 130 177 227 269 331 393
#     4  12  26  43  68 100 137 176 225 276 330 397
#     4  11  23  42  70  96 139 173 218 275 338 390
#
# _framework density 22.783798999999998
#
# number of rings (size 3 to 8) (size 9 to 14) (size 15 to 20)
#    0.857    0.571    1.429    2.571    4.000    7.429 
#    0.000    0.000    0.000    0.000    0.000    0.000 
#    0.000    0.000    0.000    0.000    0.000    0.000 
#
# Total GULP energy -78289.104992 kJ/mol
# GULP energy per Si atom -5592.078928 kJ/mol
# Density = 2.273194 g / cm^3
# Si number density = 22.783799 Si / 1000 Ang^3
#
#
#
# Elastic Constant Matrix: (Units=GPa)
#
#
# Indices 1 2 3 4 5 6 
#
# 1 69.3442 -4.9630 19.8165 12.8585 -2.5689 -21.5739
# 2 -4.9630 52.5899 3.3989 9.9798 -4.7904 -15.9951
# 3 19.8165 3.3989 144.7346 11.7342 11.9790 -4.4308
# 4 12.8585 9.9798 11.7342 28.3318 1.3297 6.0881
# 5 -2.5689 -4.7904 11.9790 1.3297 33.8946 8.5665
# 6 -21.5739 -15.9951 -4.4308 6.0881 8.5665 34.4271
#
#
#
# Elastic Compliance Matrix: (Units=1/GPa)
#
#
# Indices 1 2 3 4 5 6 
#
# 1 0.031372 0.018101 -0.001351 -0.027091 -0.001904 0.033160
# 2 0.018101 0.036093 0.000039 -0.028059 -0.000854 0.033292
# 3 -0.001351 0.000039 0.007606 -0.002705 -0.003028 0.001382
# 4 -0.027091 -0.028059 -0.002705 0.067713 0.003181 -0.043127
# 5 -0.001904 -0.000854 -0.003028 0.003181 0.032895 -0.010728
# 6 0.033160 0.033292 0.001382 -0.043127 -0.010728 0.075768
#
#
# Mechanical properties :
#
#
# Convention : Reuss Voigt Hill
#
# Bulk Modulus (GPa) = 9.20412 33.68595 21.44503
# Shear Modulus (GPa) = 19.67843 35.89179 27.78511
#
# Velocity S-wave (km/s) = 2.94207 3.97334 3.49594
# Velocity P-wave (km/s) = 3.94836 5.98891 5.07231
#
# Compressibility (1/GPa) = 0.10864705
#
# Stress axis : x y z
#
# Youngs Moduli (GPa) = 31.87581 27.70610 131.48307
#
# Poissons Ratio (x) = -0.50150 0.17767
# Poissons Ratio (y) = -0.57698 -0.00510
# Poissons Ratio (z) = 0.04307 -0.00107
#
# Static dielectric constant tensor:
#      x y z
#    x 1.844560 0.008100 -0.017170 
#    y 0.008100 1.874000 0.023820 
#    z -0.017170 0.023820 1.811850 
# 
# From -- ./inp_files/418736.got.cif
#   From: 2010.05.17/outbox.cif.g08.bks.cpg/sg2_210_cif.got.tgz:418736.got - 2010.06.03 11:33:40.
