data_PCOD9046150
_publ_section_title
;
Structure prediction by ZEFSAII (Michael W. Deem and Ramdas Pophale) SiO2 
 PCOD9046150
Probable space group: P -1
;
_chemical_formula_sum "Si O2"
_cell_formula_units_Z 10
_cell_length_a 8.408923
_cell_length_b 9.696561
_cell_length_c 8.753695
_cell_angle_alpha 72.225043
_cell_angle_beta 34.423966
_cell_angle_gamma 80.587712
_cell_volume 379.031235
_symmetry_space_group_name_H-M "P -1"
_symmetry_group_IT_number 2
_symmetry_cell_setting 'triclinic'
loop_
_space_group_symop_operation_xyz
x,y,z
-x,-y,-z
loop_
_atom_site_type_symbol
_atom_site_label
_atom_site_fract_x
_atom_site_fract_y
_atom_site_fract_z
Si Si1 0.254989 0.330759 0.655348
Si Si2 0.059890 0.062133 0.684769
Si Si3 0.690460 0.846694 0.869931
Si Si4 0.847132 0.244418 0.263463
Si Si5 0.325961 0.552284 0.262002
O O1 0.532875 0.277147 0.523246
O O2 0.368466 0.469871 0.413768
O O3 0.098488 0.202825 0.711454
O O4 0.024906 0.346747 0.961174
O O5 0.238793 0.104430 0.374646
O O6 0.749682 0.984580 0.893143
O O7 0.172654 0.924751 0.720943
O O8 0.947584 0.758532 0.752226
O O9 0.413668 0.726446 0.145268
O O10 0.000000 0.500000 0.500000
O O11 0.500000 0.500000 0.000000
#
# Coordination Sequence:
#
# PCOD9046150 Si02
#       5
#     2   2   2   2   2
#     4  12  23  43  71  97 135 176 214 278 331 392
#     4   9  20  45  68 101 134 176 220 269 330 399
#     4   9  22  45  68 100 134 177 220 276 322 398
#     4  10  24  42  68 103 134 167 223 273 335 384
#     4  12  26  46  68  97 132 179 226 268 330 399
#
# _framework density 26.383053
#
# number of rings (size 3 to 8) (size 9 to 14) (size 15 to 20)
#    1.200    0.400    2.000    2.400    0.000    3.200 
#    0.000    3.000    0.000    0.000    0.000    0.000 
#    0.000    0.000    0.000    0.000    0.000    0.000 
#
# Total GULP energy -56057.657722 kJ/mol
# GULP energy per Si atom -5605.765772 kJ/mol
# Density = 2.632300 g / cm^3
# Si number density = 26.383053 Si / 1000 Ang^3
#
#
#
# Elastic Constant Matrix: (Units=GPa)
#
#
# Indices 1 2 3 4 5 6 
#
# 1 68.3967 38.4599 50.9466 -6.3383 -1.8438 13.2474
# 2 38.4599 146.2544 58.5724 -32.6819 1.4689 29.0695
# 3 50.9466 58.5724 165.1111 -22.0401 -0.0496 18.1414
# 4 -6.3383 -32.6819 -22.0401 50.2654 -3.3349 0.8902
# 5 -1.8438 1.4689 -0.0496 -3.3349 61.5531 -13.5848
# 6 13.2474 29.0695 18.1414 0.8902 -13.5848 44.6402
#
#
#
# Elastic Compliance Matrix: (Units=1/GPa)
#
#
# Indices 1 2 3 4 5 6 
#
# 1 0.020571 -0.003414 -0.005202 -0.001863 0.000226 -0.001661
# 2 -0.003414 0.010829 -0.001317 0.006049 -0.001367 -0.006040
# 3 -0.005202 -0.001317 0.008561 0.002245 -0.000261 -0.001202
# 4 -0.001863 0.006049 0.002245 0.024667 0.000087 -0.004764
# 5 0.000226 -0.001367 -0.000261 0.000087 0.017682 0.006308
# 6 -0.001661 -0.006040 -0.001202 -0.004764 0.006308 0.029330
#
#
# Mechanical properties :
#
#
# Convention : Reuss Voigt Hill
#
# Bulk Modulus (GPa) = 49.76997 75.08000 62.42498
# Shear Modulus (GPa) = 36.17834 46.74396 41.46115
#
# Velocity S-wave (km/s) = 3.70709 4.21377 3.96852
# Velocity P-wave (km/s) = 6.10153 7.22454 6.68665
#
# Compressibility (1/GPa) = 0.02009244
#
# Stress axis : x y z
#
# Youngs Moduli (GPa) = 48.61309 92.34802 116.81398
#
# Poissons Ratio (x) = 0.31531 0.60768
# Poissons Ratio (y) = 0.16598 0.15387
# Poissons Ratio (z) = 0.25289 0.12165
#
# Static dielectric constant tensor:
#      x y z
#    x 2.114120 -0.059650 -0.045310 
#    y -0.059650 2.116890 0.004000 
#    z -0.045310 0.004000 1.981610 
# 
# From -- ./inp_files/24731.got.cif
#   From: 2010.05.17/outbox.cif.g08.bks.cpg/sg2_13_cif.got.tgz:24731.got - 2010.06.03 11:33:40.
