data_PCOD9046231
_publ_section_title
;
Structure prediction by ZEFSAII (Michael W. Deem and Ramdas Pophale) SiO2 
 PCOD9046231
Probable space group: P -1
;
_chemical_formula_sum "Si O2"
_cell_formula_units_Z 14
_cell_length_a 8.284415
_cell_length_b 11.981357
_cell_length_c 11.211009
_cell_angle_alpha 130.955676
_cell_angle_beta 55.972126
_cell_angle_gamma 137.623768
_cell_volume 560.179422
_symmetry_space_group_name_H-M "P -1"
_symmetry_group_IT_number 2
_symmetry_cell_setting 'triclinic'
loop_
_space_group_symop_operation_xyz
x,y,z
-x,-y,-z
loop_
_atom_site_type_symbol
_atom_site_label
_atom_site_fract_x
_atom_site_fract_y
_atom_site_fract_z
Si Si1 0.892399 0.804234 0.852790
Si Si2 0.581020 0.308651 0.420505
Si Si3 0.039052 0.268928 0.979229
Si Si4 0.912271 0.909777 0.667821
Si Si5 0.423603 0.457549 0.779694
Si Si6 0.642354 0.037215 0.589424
Si Si7 0.045173 0.444843 0.763173
O O1 0.958563 0.721987 0.872404
O O2 0.968946 0.831183 0.703174
O O3 0.602490 0.674389 0.875588
O O4 0.000000 0.000000 0.000000
O O5 0.343221 0.240503 0.391790
O O6 0.573376 0.399662 0.609062
O O7 0.808057 0.460616 0.354249
O O8 0.532568 0.117530 0.348607
O O9 0.966180 0.399522 0.062638
O O10 0.307463 0.356297 0.880406
O O11 0.894005 0.067639 0.839794
O O12 0.139053 0.983285 0.538825
O O13 0.205320 0.407174 0.749807
O O14 0.785834 0.250253 0.715901
O O15 0.500000 0.000000 0.500000
#
# Coordination Sequence:
#
# PCOD9046231 Si02
#       7
#     2   2   2   2   2   2   2
#     4  10  24  42  69 103 142 192 237 289 364 430
#     4  12  25  48  81 102 145 197 243 299 361 430
#     4  11  26  43  71 107 151 185 236 305 367 418
#     4  11  22  51  73 105 143 194 247 290 364 442
#     4  12  22  47  74 102 142 195 247 290 357 444
#     4  12  28  45  74 110 148 186 244 305 358 432
#     4  12  27  46  72 115 142 189 250 298 359 428
#
# _framework density 24.991992
#
# number of rings (size 3 to 8) (size 9 to 14) (size 15 to 20)
#    0.000    0.571    4.286    3.429    4.000    3.429 
#    2.571    0.000    0.000    0.000    0.000    0.000 
#    0.000    0.000    0.000    0.000    0.000    0.000 
#
# Total GULP energy -78314.673691 kJ/mol
# GULP energy per Si atom -5593.905264 kJ/mol
# Density = 2.493511 g / cm^3
# Si number density = 24.991992 Si / 1000 Ang^3
#
#
#
# Elastic Constant Matrix: (Units=GPa)
#
#
# Indices 1 2 3 4 5 6 
#
# 1 63.7008 8.4397 13.0241 15.7231 11.4445 -11.0360
# 2 8.4397 140.6428 36.0046 -0.7339 13.1519 -7.0640
# 3 13.0241 36.0046 98.8091 13.0981 -5.8799 1.4482
# 4 15.7231 -0.7339 13.0981 48.6288 2.4382 15.3011
# 5 11.4445 13.1519 -5.8799 2.4382 31.1797 5.4228
# 6 -11.0360 -7.0640 1.4482 15.3011 5.4228 36.1999
#
#
#
# Elastic Compliance Matrix: (Units=1/GPa)
#
#
# Indices 1 2 3 4 5 6 
#
# 1 0.022939 0.000987 -0.002866 -0.010259 -0.010882 0.013267
# 2 0.000987 0.008611 -0.003639 0.000158 -0.005187 0.002837
# 3 -0.002866 -0.003639 0.012460 -0.002129 0.005451 -0.001999
# 4 -0.010259 0.000158 -0.002129 0.029288 0.003783 -0.015958
# 5 -0.010882 -0.005187 0.005451 0.003783 0.041127 -0.012307
# 6 0.013267 0.002837 -0.001999 -0.015958 -0.012307 0.040891
#
#
# Mechanical properties :
#
#
# Convention : Reuss Voigt Hill
#
# Bulk Modulus (GPa) = 30.32504 46.45437 38.38971
# Shear Modulus (GPa) = 28.19395 39.58065 33.88730
#
# Velocity S-wave (km/s) = 3.36239 3.98393 3.68629
# Velocity P-wave (km/s) = 5.21867 6.30796 5.78899
#
# Compressibility (1/GPa) = 0.03297605
#
# Stress axis : x y z
#
# Youngs Moduli (GPa) = 43.59342 116.13203 80.25619
#
# Poissons Ratio (x) = -0.11468 0.22998
# Poissons Ratio (y) = -0.04305 0.29206
# Poissons Ratio (z) = 0.12492 0.42261
#
# Static dielectric constant tensor:
#      x y z
#    x 1.953250 -0.068040 -0.000080 
#    y -0.068040 2.034530 -0.011440 
#    z -0.000080 -0.011440 1.983780 
# 
# From -- ./inp_files/174136.got.cif
#   From: 2010.05.17/outbox.cif.g08.bks.cpg/sg2_88_cif.got.tgz:174136.got - 2010.06.03 11:33:40.
