data_PCOD9046547
_publ_section_title
;
Structure prediction by ZEFSAII (Michael W. Deem and Ramdas Pophale) SiO2 
 PCOD9046547
Probable space group: P -1
;
_chemical_formula_sum "Si O2"
_cell_formula_units_Z 16
_cell_length_a 27.600436
_cell_length_b 4.990969
_cell_length_c 9.922789
_cell_angle_alpha 111.013976
_cell_angle_beta 33.842307
_cell_angle_gamma 124.807084
_cell_volume 604.763604
_symmetry_space_group_name_H-M "P -1"
_symmetry_group_IT_number 2
_symmetry_cell_setting 'triclinic'
loop_
_space_group_symop_operation_xyz
x,y,z
-x,-y,-z
loop_
_atom_site_type_symbol
_atom_site_label
_atom_site_fract_x
_atom_site_fract_y
_atom_site_fract_z
Si Si1 0.526865 0.232819 0.650446
Si Si2 0.079328 0.207411 0.200737
Si Si3 0.642155 0.836351 0.301036
Si Si4 0.347125 0.557071 0.032991
Si Si5 0.375430 0.500761 0.250425
Si Si6 0.059267 0.548389 0.546148
Si Si7 0.786107 0.329766 0.252663
Si Si8 0.194377 0.727788 0.518100
O O1 0.553860 0.501717 0.519747
O O2 0.550834 0.398150 0.773899
O O3 0.602082 0.090928 0.426795
O O4 0.414127 0.906680 0.861186
O O5 0.120219 0.458459 0.280209
O O6 0.981533 0.230219 0.384554
O O7 0.155353 0.359061 0.927652
O O8 0.038660 0.825220 0.263648
O O9 0.669216 0.735953 0.080475
O O10 0.738357 0.998543 0.210590
O O11 0.408856 0.592629 0.034758
O O12 0.240829 0.508478 0.317994
O O13 0.312816 0.682263 0.460574
O O14 0.291430 0.105828 0.373928
O O15 0.118702 0.702929 0.573971
O O16 0.849669 0.370071 0.247040
#
# Coordination Sequence:
#
# PCOD9046547 Si02
#       8
#     2   2   2   2   2   2   2   2
#     4  11  24  46  66  96 139 176 228 278 330 392
#     4  10  24  45  71  98 131 172 217 270 340 389
#     4  11  25  43  68 100 133 174 229 282 328 390
#     4  11  26  40  69  98 131 185 224 279 332 389
#     4  10  24  43  63  99 136 181 224 273 329 398
#     4  10  25  44  68 102 133 167 218 278 325 403
#     4  10  24  44  66  98 135 180 219 274 334 398
#     4  11  25  43  66  98 139 174 227 270 334 399
#
# _framework density 26.456620999999998
#
# number of rings (size 3 to 8) (size 9 to 14) (size 15 to 20)
#    0.000    1.500    1.250    1.125   10.500    4.500 
#    0.000    0.000    0.000    0.000    0.000    0.000 
#    0.000    0.000    0.000    0.000    0.000    0.000 
#
# Total GULP energy -89750.435506 kJ/mol
# GULP energy per Si atom -5609.402219 kJ/mol
# Density = 2.639640 g / cm^3
# Si number density = 26.456621 Si / 1000 Ang^3
#
#
#
# Elastic Constant Matrix: (Units=GPa)
#
#
# Indices 1 2 3 4 5 6 
#
# 1 124.2813 35.0413 31.3366 15.1116 32.9281 12.6502
# 2 35.0413 101.3591 37.7415 12.8639 15.0117 13.9300
# 3 31.3366 37.7415 95.0467 13.9579 36.3403 16.6680
# 4 15.1116 12.8639 13.9579 50.0083 2.2796 18.5095
# 5 32.9281 15.0117 36.3403 2.2796 44.9447 5.5481
# 6 12.6502 13.9300 16.6680 18.5095 5.5481 41.1768
#
#
#
# Elastic Compliance Matrix: (Units=1/GPa)
#
#
# Indices 1 2 3 4 5 6 
#
# 1 0.010927 -0.002553 0.000767 -0.002224 -0.007563 -0.000785
# 2 -0.002553 0.012430 -0.004240 -0.000727 0.001376 -0.001563
# 3 0.000767 -0.004240 0.017855 -0.002338 -0.013067 -0.003217
# 4 -0.002224 -0.000727 -0.002338 0.024987 0.003712 -0.009857
# 5 -0.007563 0.001376 -0.013067 0.003712 0.037659 0.000405
# 6 -0.000785 -0.001563 -0.003217 -0.009857 0.000405 0.030734
#
#
# Mechanical properties :
#
#
# Convention : Reuss Voigt Hill
#
# Bulk Modulus (GPa) = 34.29086 58.76953 46.53020
# Shear Modulus (GPa) = 31.97666 41.66380 36.82023
#
# Velocity S-wave (km/s) = 3.48033 3.97268 3.73462
# Velocity P-wave (km/s) = 5.39811 6.58063 6.01848
#
# Compressibility (1/GPa) = 0.02916229
#
# Stress axis : x y z
#
# Youngs Moduli (GPa) = 91.51777 80.44808 56.00516
#
# Poissons Ratio (x) = 0.20538 -0.04297
# Poissons Ratio (y) = 0.23364 0.23743
# Poissons Ratio (z) = -0.07022 0.34106
#
# Static dielectric constant tensor:
#      x y z
#    x 2.124730 -0.017000 -0.027170 
#    y -0.017000 2.052480 0.043570 
#    z -0.027170 0.043570 2.081610 
# 
# From -- ./inp_files/49073.got.cif
#   From: 2010.05.17/outbox.cif.g08.bks.cpg/sg2_25_cif.got.tgz:49073.got - 2010.06.03 11:33:40.
