data_PCOD9046224
_publ_section_title
;
Structure prediction by ZEFSAII (Michael W. Deem and Ramdas Pophale) SiO2 
 PCOD9046224
Probable space group: P -1
;
_chemical_formula_sum "Si O2"
_cell_formula_units_Z 10
_cell_length_a 8.733590
_cell_length_b 15.549821
_cell_length_c 9.139588
_cell_angle_alpha 141.822294
_cell_angle_beta 115.745996
_cell_angle_gamma 35.128269
_cell_volume 357.602332
_symmetry_space_group_name_H-M "P -1"
_symmetry_group_IT_number 2
_symmetry_cell_setting 'triclinic'
loop_
_space_group_symop_operation_xyz
x,y,z
-x,-y,-z
loop_
_atom_site_type_symbol
_atom_site_label
_atom_site_fract_x
_atom_site_fract_y
_atom_site_fract_z
Si Si1 0.341165 0.420056 0.773579
Si Si2 0.124829 0.258654 0.241334
Si Si3 0.698375 0.164054 0.988290
Si Si4 0.198175 0.697996 0.341807
Si Si5 0.422382 0.038476 0.347509
O O1 0.661277 0.283331 0.682444
O O2 0.442135 0.187364 0.505249
O O3 0.089951 0.655258 0.860793
O O4 0.165133 0.585907 0.073647
O O5 0.104041 0.227857 0.359747
O O6 0.000000 0.500000 0.500000
O O7 0.500000 0.000000 0.000000
O O8 0.442638 0.211839 0.973691
O O9 0.888778 0.973810 0.668353
O O10 0.472064 0.453990 0.244223
O O11 0.000000 0.000000 0.000000
O O12 0.500000 0.000000 0.500000
#
# Coordination Sequence:
#
# PCOD9046224 Si02
#       5
#     2   2   2   2   2
#     4  10  24  47  76 111 145 200 250 303 368 450
#     4  10  24  42  69 101 143 187 240 293 354 433
#     4  12  27  47  72 110 152 193 243 311 377 434
#     4  11  26  46  75 105 151 196 245 302 374 448
#     4  11  24  46  75 111 147 191 248 309 366 434
#
# _framework density 27.964024999999999
#
# number of rings (size 3 to 8) (size 9 to 14) (size 15 to 20)
#    0.000    1.200    2.000    1.800    2.800   13.600 
#    0.000    0.000    0.000    0.000    0.000    0.000 
#    0.000    0.000    0.000    0.000    0.000    0.000 
#
# Total GULP energy -55669.618333 kJ/mol
# GULP energy per Si atom -5566.961833 kJ/mol
# Density = 2.790038 g / cm^3
# Si number density = 27.964025 Si / 1000 Ang^3
#
#
#
# Elastic Constant Matrix: (Units=GPa)
#
#
# Indices 1 2 3 4 5 6 
#
# 1 137.3969 5.0155 54.4616 3.4410 26.2686 4.1363
# 2 5.0155 209.3154 9.9666 -16.8906 -6.4595 23.5819
# 3 54.4616 9.9666 152.7614 13.3108 -18.8548 -7.2477
# 4 3.4410 -16.8906 13.3108 56.0177 -3.6718 7.8643
# 5 26.2686 -6.4595 -18.8548 -3.6718 53.5679 -3.2072
# 6 4.1363 23.5819 -7.2477 7.8643 -3.2072 42.0757
#
#
#
# Elastic Compliance Matrix: (Units=1/GPa)
#
#
# Indices 1 2 3 4 5 6 
#
# 1 0.010577 0.000076 -0.004793 0.000407 -0.006987 -0.002516
# 2 0.000076 0.005408 -0.000713 0.002317 0.000309 -0.003571
# 3 -0.004793 -0.000713 0.009346 -0.002241 0.005599 0.003326
# 4 0.000407 0.002317 -0.002241 0.019838 0.000327 -0.005408
# 5 -0.006987 0.000309 0.005599 0.000327 0.024321 0.003271
# 6 -0.002516 -0.003571 0.003326 -0.005408 0.003271 0.027849
#
#
# Mechanical properties :
#
#
# Convention : Reuss Voigt Hill
#
# Bulk Modulus (GPa) = 69.10836 70.92902 70.01869
# Shear Modulus (GPa) = 44.23900 59.00093 51.61997
#
# Velocity S-wave (km/s) = 3.98175 4.59833 4.30110
# Velocity P-wave (km/s) = 6.77540 7.32205 7.05402
#
# Compressibility (1/GPa) = 0.01447003
#
# Stress axis : x y z
#
# Youngs Moduli (GPa) = 94.54747 184.89560 107.00175
#
# Poissons Ratio (x) = -0.01396 0.51285
# Poissons Ratio (y) = -0.00714 0.07629
# Poissons Ratio (z) = 0.45316 0.13182
#
# Static dielectric constant tensor:
#      x y z
#    x 2.383980 -0.038650 -0.082250 
#    y -0.038650 2.481640 -0.016420 
#    z -0.082250 -0.016420 2.164710 
# 
# From -- ./inp_files/16409.got.cif
#   From: 2010.05.17/outbox.cif.g08.bks.cpg/sg2_9_cif.got.tgz:16409.got - 2010.06.03 11:33:40.
