data_PCOD9046261
_publ_section_title
;
Structure prediction by ZEFSAII (Michael W. Deem and Ramdas Pophale) SiO2 
 PCOD9046261
Probable space group: P -1
;
_chemical_formula_sum "Si O2"
_cell_formula_units_Z 11
_cell_length_a 14.771824
_cell_length_b 7.984970
_cell_length_c 4.836058
_cell_angle_alpha 93.678960
_cell_angle_beta 107.530814
_cell_angle_gamma 54.121051
_cell_volume 436.038604
_symmetry_space_group_name_H-M "P -1"
_symmetry_group_IT_number 2
_symmetry_cell_setting 'triclinic'
loop_
_space_group_symop_operation_xyz
x,y,z
-x,-y,-z
loop_
_atom_site_type_symbol
_atom_site_label
_atom_site_fract_x
_atom_site_fract_y
_atom_site_fract_z
Si Si1 0.000000 0.000000 0.000000
Si Si2 0.774017 0.742848 0.175882
Si Si3 0.857204 0.995512 0.384234
Si Si4 0.616530 0.329669 0.923879
Si Si5 0.182898 0.654534 0.971576
Si Si6 0.383564 0.013800 0.439168
O O1 0.091183 0.737693 0.140195
O O2 0.096011 0.023924 0.273657
O O3 0.811267 0.512917 0.226798
O O4 0.663642 0.906868 0.288505
O O5 0.869591 0.788486 0.299381
O O6 0.722342 0.803641 0.826588
O O7 0.898145 0.101380 0.215548
O O8 0.717536 0.176249 0.225376
O O9 0.598144 0.195411 0.680985
O O10 0.500000 0.500000 0.000000
O O11 0.686867 0.411983 0.857264
O O12 0.500000 0.000000 0.500000
#
# Coordination Sequence:
#
# PCOD9046261 Si02
#       6
#     1   2   2   2   2   2
#     4  12  22  44  70  98 134 182 232 286 346 408
#     4  11  24  45  67  99 138 181 230 283 351 401
#     4   9  24  43  66  98 136 175 230 284 335 416
#     4   9  20  42  67  98 137 177 223 281 343 403
#     4  10  24  42  69  98 134 181 226 286 341 413
#     4  11  23  41  66 101 141 181 231 282 335 422
#
# _framework density 25.227125999999998
#
# number of rings (size 3 to 8) (size 9 to 14) (size 15 to 20)
#    1.091    0.727    0.000    3.273    2.545    2.182 
#    0.000    7.273    0.000    0.000    0.000    0.000 
#    0.000    0.000    0.000    0.000    0.000    0.000 
#
# Total GULP energy -61237.832486 kJ/mol
# GULP energy per Si atom -5567.075681 kJ/mol
# Density = 2.516971 g / cm^3
# Si number density = 25.227126 Si / 1000 Ang^3
#
#
#
# Elastic Constant Matrix: (Units=GPa)
#
#
# Indices 1 2 3 4 5 6 
#
# 1 94.7086 66.2801 14.2827 21.0732 16.9531 -2.2389
# 2 66.2801 137.5634 21.6397 47.5987 19.2070 -3.7428
# 3 14.2827 21.6397 77.9465 10.2828 39.0427 24.3720
# 4 21.0732 47.5987 10.2828 35.1445 7.6560 5.8001
# 5 16.9531 19.2070 39.0427 7.6560 40.2860 5.2406
# 6 -2.2389 -3.7428 24.3720 5.8001 5.2406 50.0953
#
#
#
# Elastic Compliance Matrix: (Units=1/GPa)
#
#
# Indices 1 2 3 4 5 6 
#
# 1 0.016480 -0.008134 0.001518 0.001795 -0.004829 -0.000312
# 2 -0.008134 0.018866 -0.002638 -0.020746 0.000316 0.004698
# 3 0.001518 -0.002638 0.031105 0.001777 -0.028236 -0.012514
# 4 0.001795 -0.020746 0.001777 0.056883 -0.002267 -0.008683
# 5 -0.004829 0.000316 -0.028236 -0.002267 0.053430 0.008218
# 6 -0.000312 0.004698 -0.012514 -0.008683 0.008218 0.026533
#
#
# Mechanical properties :
#
#
# Convention : Reuss Voigt Hill
#
# Bulk Modulus (GPa) = 20.85806 57.18039 39.01923
# Shear Modulus (GPa) = 21.02731 38.97289 30.00010
#
# Velocity S-wave (km/s) = 2.89021 3.93476 3.45222
# Velocity P-wave (km/s) = 4.40724 6.58472 5.60278
#
# Compressibility (1/GPa) = 0.04794311
#
# Stress axis : x y z
#
# Youngs Moduli (GPa) = 60.67904 53.00622 32.14906
#
# Poissons Ratio (x) = 0.43118 -0.04880
# Poissons Ratio (y) = 0.49359 0.08479
# Poissons Ratio (z) = -0.09211 0.13980
#
# Static dielectric constant tensor:
#      x y z
#    x 2.127920 0.093130 -0.072570 
#    y 0.093130 2.154560 -0.023330 
#    z -0.072570 -0.023330 1.936280 
# 
# From -- ./inp_files/103465.got.cif
#   From: 2010.05.17/outbox.cif.g08.bks.cpg/sg2_52_cif.got.tgz:103465.got - 2010.06.03 11:33:40.
