data_PCOD9046426
_publ_section_title
;
Structure prediction by ZEFSAII (Michael W. Deem and Ramdas Pophale) SiO2 
 PCOD9046426
Probable space group: P -1
;
_chemical_formula_sum "Si O2"
_cell_formula_units_Z 11
_cell_length_a 11.023799
_cell_length_b 11.319389
_cell_length_c 10.906644
_cell_angle_alpha 125.841022
_cell_angle_beta 25.359427
_cell_angle_gamma 126.264698
_cell_volume 464.824581
_symmetry_space_group_name_H-M "P -1"
_symmetry_group_IT_number 2
_symmetry_cell_setting 'triclinic'
loop_
_space_group_symop_operation_xyz
x,y,z
-x,-y,-z
loop_
_atom_site_type_symbol
_atom_site_label
_atom_site_fract_x
_atom_site_fract_y
_atom_site_fract_z
Si Si1 0.250166 0.572046 0.404730
Si Si2 0.470198 0.902855 0.845042
Si Si3 0.000000 0.500000 0.000000
Si Si4 0.833943 0.773607 0.973788
Si Si5 0.911170 0.951547 0.257944
Si Si6 0.399278 0.414307 0.391604
O O1 0.534181 0.671453 0.150268
O O2 0.358308 0.444920 0.306076
O O3 0.000000 0.500000 0.500000
O O4 0.092457 0.682002 0.697028
O O5 0.546485 0.746119 0.717557
O O6 0.676333 0.969806 0.585665
O O7 0.500000 0.000000 0.000000
O O8 0.149725 0.878822 0.067718
O O9 0.685383 0.523561 0.242369
O O10 0.891062 0.554274 0.262639
O O11 0.790621 0.853086 0.190962
O O12 0.935849 0.895134 0.849866
#
# Coordination Sequence:
#
# PCOD9046426 Si02
#       6
#     2   2   1   2   2   2
#     4  12  27  46  76 107 154 193 245 312 370 450
#     4  12  27  46  76 107 154 193 245 312 370 450
#     4  10  24  42  72 106 142 182 238 318 348 460
#     4  11  26  49  77 108 145 199 253 305 365 439
#     4  11  26  49  77 108 145 199 253 305 365 439
#     4  11  26  44  74 110 141 194 246 302 389 422
#
# _framework density 23.664842
#
# number of rings (size 3 to 8) (size 9 to 14) (size 15 to 20)
#    0.000    0.727    0.000    5.455   17.818    2.909 
#    6.545    0.000    0.000    0.000    0.000    0.000 
#    0.000    0.000    0.000    0.000    0.000    0.000 
#
# Total GULP energy -61370.371105 kJ/mol
# GULP energy per Si atom -5579.124646 kJ/mol
# Density = 2.361098 g / cm^3
# Si number density = 23.664842 Si / 1000 Ang^3
#
#
#
# Elastic Constant Matrix: (Units=GPa)
#
#
# Indices 1 2 3 4 5 6 
#
# 1 119.2054 41.0044 18.3799 -21.0438 3.6321 -7.7836
# 2 41.0044 84.3426 17.6252 -15.1374 8.4321 -14.4201
# 3 18.3799 17.6252 133.1771 -11.9012 7.8658 5.6392
# 4 -21.0438 -15.1374 -11.9012 36.5048 2.2292 -10.0643
# 5 3.6321 8.4321 7.8658 2.2292 50.8694 4.8791
# 6 -7.7836 -14.4201 5.6392 -10.0643 4.8791 32.1539
#
#
#
# Elastic Compliance Matrix: (Units=1/GPa)
#
#
# Indices 1 2 3 4 5 6 
#
# 1 0.010900 -0.003645 -0.000627 0.005402 -0.000592 0.002895
# 2 -0.003645 0.017389 -0.001319 0.007698 -0.003726 0.010122
# 3 -0.000627 -0.001319 0.008007 0.001314 -0.000879 -0.001603
# 4 0.005402 0.007698 0.001314 0.039312 -0.005279 0.017635
# 5 -0.000592 -0.003726 -0.000879 -0.005279 0.021313 -0.006547
# 6 0.002895 0.010122 -0.001603 0.017635 -0.006547 0.043135
#
#
# Mechanical properties :
#
#
# Convention : Reuss Voigt Hill
#
# Bulk Modulus (GPa) = 39.81721 54.52712 47.17217
# Shear Modulus (GPa) = 31.32662 41.21998 36.27330
#
# Velocity S-wave (km/s) = 3.64230 4.17804 3.91934
# Velocity P-wave (km/s) = 5.87797 6.80927 6.36069
#
# Compressibility (1/GPa) = 0.02511477
#
# Stress axis : x y z
#
# Youngs Moduli (GPa) = 91.74438 57.50892 124.89007
#
# Poissons Ratio (x) = 0.20960 0.07829
# Poissons Ratio (y) = 0.33437 0.16472
# Poissons Ratio (z) = 0.05751 0.07585
#
# Static dielectric constant tensor:
#      x y z
#    x 1.889570 0.022930 0.047310 
#    y 0.022930 1.981830 -0.021330 
#    z 0.047310 -0.021330 1.845780 
# 
# From -- ./inp_files/426603.got.cif
#   From: 2010.05.17/outbox.cif.g08.bks.cpg/sg2_214_cif.got.tgz:426603.got - 2010.06.03 11:33:40.
