data_PCOD9046043
_publ_section_title
;
Structure prediction by ZEFSAII (Michael W. Deem and Ramdas Pophale) SiO2 
 PCOD9046043
Probable space group: P -1
;
_chemical_formula_sum "Si O2"
_cell_formula_units_Z 16
_cell_length_a 15.535991
_cell_length_b 12.953711
_cell_length_c 9.311262
_cell_angle_alpha 46.487755
_cell_angle_beta 135.022688
_cell_angle_gamma 141.376724
_cell_volume 786.585425
_symmetry_space_group_name_H-M "P -1"
_symmetry_group_IT_number 2
_symmetry_cell_setting 'triclinic'
loop_
_space_group_symop_operation_xyz
x,y,z
-x,-y,-z
loop_
_atom_site_type_symbol
_atom_site_label
_atom_site_fract_x
_atom_site_fract_y
_atom_site_fract_z
Si Si1 0.042235 0.685240 0.422217
Si Si2 0.627663 0.596902 0.356737
Si Si3 0.687454 0.090065 0.280559
Si Si4 0.336986 0.235905 0.352994
Si Si5 0.849353 0.088732 0.947891
Si Si6 0.903025 0.822013 0.647996
Si Si7 0.402974 0.085344 0.965602
Si Si8 0.775895 0.724199 0.120025
O O1 0.151011 0.758805 0.617074
O O2 0.126204 0.814158 0.263593
O O3 0.000000 0.500000 0.500000
O O4 0.898592 0.685559 0.282229
O O5 0.488142 0.410369 0.417854
O O6 0.782730 0.666519 0.552302
O O7 0.657448 0.599373 0.219837
O O8 0.597866 0.744247 0.208046
O O9 0.567756 0.133426 0.122204
O O10 0.641267 0.918244 0.480047
O O11 0.674000 0.032731 0.153814
O O12 0.199551 0.170336 0.360971
O O13 0.295318 0.280066 0.111056
O O14 0.695792 0.019155 0.912801
O O15 0.983455 0.202205 0.109624
O O16 0.850586 0.919873 0.079451
O O17 0.000000 0.000000 0.500000
#
# Coordination Sequence:
#
# PCOD9046043 Si02
#       8
#     2   2   2   2   2   2   2   2
#     4  12  27  44  65  96 132 177 220 274 331 393
#     4  11  25  40  70 102 130 171 223 275 322 387
#     4  11  24  43  66  91 135 174 214 266 340 389
#     4  12  23  42  68  98 132 173 222 274 325 387
#     4  11  22  43  69  97 126 175 222 274 324 395
#     4  12  21  38  69  99 130 168 221 274 324 384
#     4  10  24  42  66  95 132 173 218 263 336 397
#     4  11  23  43  69  96 129 169 229 270 330 389
#
# _framework density 20.341083999999999
#
# number of rings (size 3 to 8) (size 9 to 14) (size 15 to 20)
#    0.000    0.750    6.250    1.875    3.500    1.500 
#    2.250    0.625    0.000    0.000    0.000    0.000 
#    0.000    0.000    0.000    0.000    0.000    0.000 
#
# Total GULP energy -89473.564642 kJ/mol
# GULP energy per Si atom -5592.097790 kJ/mol
# Density = 2.029479 g / cm^3
# Si number density = 20.341084 Si / 1000 Ang^3
#
#
#
# Elastic Constant Matrix: (Units=GPa)
#
#
# Indices 1 2 3 4 5 6 
#
# 1 102.5605 26.7532 23.0516 -8.5505 -6.0582 -0.1398
# 2 26.7532 96.9738 9.7832 8.1992 6.0884 6.0974
# 3 23.0516 9.7832 51.3797 17.0291 -5.6728 -3.8464
# 4 -8.5505 8.1992 17.0291 33.8288 -3.3723 -1.1023
# 5 -6.0582 6.0884 -5.6728 -3.3723 25.4589 -5.8451
# 6 -0.1398 6.0974 -3.8464 -1.1023 -5.8451 24.8239
#
#
#
# Elastic Compliance Matrix: (Units=1/GPa)
#
#
# Indices 1 2 3 4 5 6 
#
# 1 0.013453 -0.003988 -0.007621 0.008627 0.003868 0.001168
# 2 -0.003988 0.012453 0.000028 -0.004750 -0.005608 -0.004608
# 3 -0.007621 0.000028 0.028907 -0.015982 0.003550 0.004555
# 4 0.008627 -0.004750 -0.015982 0.041554 0.005567 0.001895
# 5 0.003868 -0.005608 0.003550 0.005567 0.046063 0.013043
# 6 0.001168 -0.004608 0.004555 0.001895 0.013043 0.045283
#
#
# Mechanical properties :
#
#
# Convention : Reuss Voigt Hill
#
# Bulk Modulus (GPa) = 31.59507 41.12111 36.35809
# Shear Modulus (GPa) = 22.58094 29.57739 26.07917
#
# Velocity S-wave (km/s) = 3.33545 3.81737 3.58452
# Velocity P-wave (km/s) = 5.51362 6.29995 5.91986
#
# Compressibility (1/GPa) = 0.03165051
#
# Stress axis : x y z
#
# Youngs Moduli (GPa) = 74.33337 80.30242 34.59402
#
# Poissons Ratio (x) = 0.32027 0.26364
# Poissons Ratio (y) = 0.29646 -0.00098
# Poissons Ratio (z) = 0.56650 -0.00227
#
# Static dielectric constant tensor:
#      x y z
#    x 1.712550 -0.011510 -0.029070 
#    y -0.011510 1.719720 0.035250 
#    z -0.029070 0.035250 1.723650 
# 
# From -- ./inp_files/306605.got.cif
#   From: 2010.05.17/outbox.cif.g08.bks.cpg/sg2_154_cif.got.tgz:306605.got - 2010.06.03 11:33:40.
