data_PCOD9046662
_publ_section_title
;
Structure prediction by ZEFSAII (Michael W. Deem and Ramdas Pophale) SiO2 
 PCOD9046662
Probable space group: P -1
;
_chemical_formula_sum "Si O2"
_cell_formula_units_Z 16
_cell_length_a 18.898317
_cell_length_b 6.710602
_cell_length_c 19.289468
_cell_angle_alpha 64.577959
_cell_angle_beta 158.247541
_cell_angle_gamma 104.049855
_cell_volume 724.494828
_symmetry_space_group_name_H-M "P -1"
_symmetry_group_IT_number 2
_symmetry_cell_setting 'triclinic'
loop_
_space_group_symop_operation_xyz
x,y,z
-x,-y,-z
loop_
_atom_site_type_symbol
_atom_site_label
_atom_site_fract_x
_atom_site_fract_y
_atom_site_fract_z
Si Si1 0.358587 0.910440 0.473663
Si Si2 0.008061 0.271327 0.998463
Si Si3 0.875778 0.840462 0.398073
Si Si4 0.281137 0.942631 0.189579
Si Si5 0.922712 0.971253 0.661617
Si Si6 0.600213 0.921714 0.267621
Si Si7 0.850425 0.735104 0.235944
Si Si8 0.374951 0.663449 0.174458
O O1 0.514035 0.615492 0.653269
O O2 0.195231 0.034774 0.243957
O O3 0.501216 0.054333 0.589811
O O4 0.214793 0.958765 0.403970
O O5 0.091921 0.212371 0.004426
O O6 0.000000 0.500000 0.000000
O O7 0.788504 0.255191 0.811965
O O8 0.687929 0.903251 0.272932
O O9 0.802033 0.866536 0.247613
O O10 0.043059 0.554544 0.608606
O O11 0.000000 0.000000 0.500000
O O12 0.306016 0.869145 0.142447
O O13 0.778650 0.929800 0.478974
O O14 0.986035 0.184059 0.664231
O O15 0.154368 0.732018 0.922397
O O16 0.541303 0.706002 0.270487
O O17 0.367872 0.166502 0.021289
#
# Coordination Sequence:
#
# PCOD9046662 Si02
#       8
#     2   2   2   2   2   2   2   2
#     4  12  25  43  70  97 133 176 218 276 335 391
#     4  11  26  46  69 101 136 170 222 276 327 404
#     4  11  22  43  67  98 134 176 220 275 326 387
#     4  11  24  44  69  98 127 176 217 269 336 391
#     4  11  23  45  64  98 134 171 225 274 328 394
#     4  11  23  44  68  97 132 182 215 272 337 382
#     4  10  24  43  66  97 136 169 225 272 325 395
#     4  11  25  44  67  99 134 172 227 274 329 400
#
# _framework density 22.084353
#
# number of rings (size 3 to 8) (size 9 to 14) (size 15 to 20)
#    0.000    1.000    3.750    2.250    0.000    5.500 
#    2.250    0.000    0.000    0.000    0.000    0.000 
#    0.000    0.000    0.000    0.000    0.000    0.000 
#
# Total GULP energy -89439.691554 kJ/mol
# GULP energy per Si atom -5589.980722 kJ/mol
# Density = 2.203409 g / cm^3
# Si number density = 22.084353 Si / 1000 Ang^3
#
#
#
# Elastic Constant Matrix: (Units=GPa)
#
#
# Indices 1 2 3 4 5 6 
#
# 1 123.0751 40.1473 28.4940 15.9654 30.8759 14.4403
# 2 40.1473 122.3373 58.7932 9.9372 12.9736 16.9582
# 3 28.4940 58.7932 118.3302 19.4590 -4.8129 6.6573
# 4 15.9654 9.9372 19.4590 32.7865 9.1226 -0.8201
# 5 30.8759 12.9736 -4.8129 9.1226 34.2056 -3.5158
# 6 14.4403 16.9582 6.6573 -0.8201 -3.5158 14.6881
#
#
#
# Elastic Compliance Matrix: (Units=1/GPa)
#
#
# Indices 1 2 3 4 5 6 
#
# 1 0.014869 0.001129 -0.003503 -0.001564 -0.015797 -0.018203
# 2 0.001129 0.014476 -0.007175 0.001591 -0.009671 -0.016798
# 3 -0.003503 -0.007175 0.014053 -0.007209 0.010552 0.007481
# 4 -0.001564 0.001591 -0.007209 0.037920 -0.010044 0.002681
# 5 -0.015797 -0.009671 0.010552 -0.010044 0.054870 0.034487
# 6 -0.018203 -0.016798 0.007481 0.002681 0.034487 0.110387
#
#
# Mechanical properties :
#
#
# Convention : Reuss Voigt Hill
#
# Bulk Modulus (GPa) = 41.14802 68.73463 54.94132
# Shear Modulus (GPa) = 18.26330 32.08991 25.17661
#
# Velocity S-wave (km/s) = 2.87884 3.81604 3.38008
# Velocity P-wave (km/s) = 5.45188 7.11389 6.33760
#
# Compressibility (1/GPa) = 0.02430251
#
# Stress axis : x y z
#
# Youngs Moduli (GPa) = 67.25215 69.07856 71.15926
#
# Poissons Ratio (x) = -0.07802 0.24927
# Poissons Ratio (y) = -0.07595 0.51053
# Poissons Ratio (z) = 0.23558 0.49561
#
# Static dielectric constant tensor:
#      x y z
#    x 1.872330 -0.031780 0.003900 
#    y -0.031780 1.809820 -0.018990 
#    z 0.003900 -0.018990 1.801910 
# 
# From -- ./inp_files/600758.got.cif
#   From: 2010.05.17/outbox.cif.g08.bks.cpg/sg2_301_cif.got.tgz:600758.got - 2010.06.03 11:33:40.
