data_PCOD9046214
_publ_section_title
;
Structure prediction by ZEFSAII (Michael W. Deem and Ramdas Pophale) SiO2 
 PCOD9046214
Probable space group: P -1
;
_chemical_formula_sum "Si O2"
_cell_formula_units_Z 14
_cell_length_a 17.283448
_cell_length_b 8.834825
_cell_length_c 5.308914
_cell_angle_alpha 115.661232
_cell_angle_beta 112.425896
_cell_angle_gamma 58.175389
_cell_volume 608.311487
_symmetry_space_group_name_H-M "P -1"
_symmetry_group_IT_number 2
_symmetry_cell_setting 'triclinic'
loop_
_space_group_symop_operation_xyz
x,y,z
-x,-y,-z
loop_
_atom_site_type_symbol
_atom_site_label
_atom_site_fract_x
_atom_site_fract_y
_atom_site_fract_z
Si Si1 0.998645 0.614824 0.331329
Si Si2 0.808287 0.983963 0.377899
Si Si3 0.298471 0.724891 0.175476
Si Si4 0.366551 0.406807 0.376996
Si Si5 0.445721 0.829051 0.279801
Si Si6 0.189067 0.649332 0.608631
Si Si7 0.375198 0.060712 0.876486
O O1 0.089652 0.652468 0.475734
O O2 0.000000 0.500000 0.500000
O O3 0.906055 0.807722 0.359784
O O4 0.000000 0.500000 0.000000
O O5 0.774385 0.073008 0.676104
O O6 0.812564 0.157284 0.358684
O O7 0.725409 0.929121 0.165917
O O8 0.361035 0.596177 0.385091
O O9 0.374497 0.735930 0.093287
O O10 0.234101 0.633318 0.926829
O O11 0.452254 0.312247 0.605258
O O12 0.266654 0.475303 0.433496
O O13 0.374424 0.259279 0.065749
O O14 0.441603 0.930983 0.086605
O O15 0.402995 0.971150 0.568322
#
# Coordination Sequence:
#
# PCOD9046214 Si02
#       7
#     2   2   2   2   2   2   2
#     4  12  30  48  76 107 134 174 227 285 348 408
#     4  10  24  47  68  99 139 180 225 284 336 414
#     4  10  24  42  69 100 138 187 227 276 339 403
#     4  11  25  40  68 100 142 181 232 286 329 399
#     4  11  24  44  65 101 139 188 230 277 337 402
#     4  11  25  45  71  99 139 182 227 277 345 408
#     4  11  24  42  68  99 137 183 233 280 341 392
#
# _framework density 23.014526
#
# number of rings (size 3 to 8) (size 9 to 14) (size 15 to 20)
#    0.000    1.143    1.429    2.571   12.000    2.286 
#    0.000    0.000    0.000    0.000    0.000    0.000 
#    0.000    0.000    0.000    0.000    0.000    0.000 
#
# Total GULP energy -78301.538687 kJ/mol
# GULP energy per Si atom -5592.967049 kJ/mol
# Density = 2.296214 g / cm^3
# Si number density = 23.014526 Si / 1000 Ang^3
#
#
#
# Elastic Constant Matrix: (Units=GPa)
#
#
# Indices 1 2 3 4 5 6 
#
# 1 119.0440 44.1179 36.0914 6.3965 26.2017 -33.8232
# 2 44.1179 125.3017 46.9452 6.5624 -5.0595 -44.7763
# 3 36.0914 46.9452 120.9215 3.2835 0.6178 -15.2705
# 4 6.3965 6.5624 3.2835 28.9339 -3.3982 -1.0394
# 5 26.2017 -5.0595 0.6178 -3.3982 47.1907 -5.1173
# 6 -33.8232 -44.7763 -15.2705 -1.0394 -5.1173 37.4069
#
#
#
# Elastic Compliance Matrix: (Units=1/GPa)
#
#
# Indices 1 2 3 4 5 6 
#
# 1 0.013838 -0.000513 -0.002571 -0.003104 -0.006863 0.009824
# 2 -0.000513 0.016274 -0.003867 -0.002040 0.003876 0.017911
# 3 -0.002571 -0.003867 0.010187 0.000263 0.000605 -0.002706
# 4 -0.003104 -0.002040 0.000263 0.035984 0.003698 -0.003636
# 5 -0.006863 0.003876 0.000605 0.003698 0.025928 0.002330
# 6 0.009824 0.017911 -0.002706 -0.003636 0.002330 0.056168
#
#
# Mechanical properties :
#
#
# Convention : Reuss Voigt Hill
#
# Bulk Modulus (GPa) = 37.88484 68.84180 53.36332
# Shear Modulus (GPa) = 27.61171 38.58048 33.09609
#
# Velocity S-wave (km/s) = 3.46750 4.09877 3.79628
# Velocity P-wave (km/s) = 5.70337 7.23721 6.51558
#
# Compressibility (1/GPa) = 0.02639578
#
# Stress axis : x y z
#
# Youngs Moduli (GPa) = 72.26219 61.44687 98.16639
#
# Poissons Ratio (x) = 0.03153 0.25241
# Poissons Ratio (y) = 0.03709 0.37965
# Poissons Ratio (z) = 0.18580 0.23764
#
# Static dielectric constant tensor:
#      x y z
#    x 1.861190 0.052570 -0.021820 
#    y 0.052570 1.850880 0.001050 
#    z -0.021820 0.001050 1.925970 
# 
# From -- ./inp_files/27894.got.cif
#   From: 2010.05.17/outbox.cif.g08.bks.cpg/sg2_14_cif.got.tgz:27894.got - 2010.06.03 11:33:40.
