data_PCOD9046507
_publ_section_title
;
Structure prediction by ZEFSAII (Michael W. Deem and Ramdas Pophale) SiO2 
 PCOD9046507
Probable space group: P -1
;
_chemical_formula_sum "Si O2"
_cell_formula_units_Z 13
_cell_length_a 15.460436
_cell_length_b 21.835826
_cell_length_c 8.867933
_cell_angle_alpha 135.402316
_cell_angle_beta 32.338292
_cell_angle_gamma 159.825074
_cell_volume 496.207096
_symmetry_space_group_name_H-M "P -1"
_symmetry_group_IT_number 2
_symmetry_cell_setting 'triclinic'
loop_
_space_group_symop_operation_xyz
x,y,z
-x,-y,-z
loop_
_atom_site_type_symbol
_atom_site_label
_atom_site_fract_x
_atom_site_fract_y
_atom_site_fract_z
Si Si1 0.500000 0.000000 0.500000
Si Si2 0.436282 0.863432 0.632117
Si Si3 0.650189 0.682821 0.235194
Si Si4 0.711087 0.320661 0.224798
Si Si5 0.646674 0.906913 0.937518
Si Si6 0.427116 0.694506 0.167314
Si Si7 0.821462 0.709889 0.708514
O O1 0.718348 0.153696 0.303727
O O2 0.577548 0.122840 0.709584
O O3 0.182382 0.700366 0.848383
O O4 0.609488 0.861700 0.289684
O O5 0.776458 0.080997 0.582814
O O6 0.439889 0.664959 0.449067
O O7 0.378900 0.479211 0.343007
O O8 0.880190 0.750557 0.877460
O O9 0.936888 0.863111 0.242957
O O10 0.423492 0.139400 0.215284
O O11 0.000000 0.500000 0.000000
O O12 0.527504 0.768123 0.975876
O O13 0.000000 0.500000 0.500000
O O14 0.574121 0.669956 0.945667
#
# Coordination Sequence:
#
# PCOD9046507 Si02
#       7
#     1   2   2   2   2   2   2
#     4  10  24  42  76 106 126 180 248 294 342 400
#     4  11  23  45  73  99 144 182 239 288 357 416
#     4  11  24  43  69 103 143 183 241 292 350 421
#     4  12  27  46  69 102 146 191 229 290 365 427
#     4  11  25  44  68  97 147 180 233 289 357 421
#     4  11  22  39  69 103 134 183 240 286 341 419
#     4  11  23  42  75 104 133 186 246 295 343 416
#
# _framework density 26.198739
#
# number of rings (size 3 to 8) (size 9 to 14) (size 15 to 20)
#    0.000    0.923    4.615    2.769    6.462    0.615 
#    0.000    1.538    0.000    0.000    0.000    0.000 
#    0.000    0.000    0.000    0.000    0.000    0.000 
#
# Total GULP energy -72545.129156 kJ/mol
# GULP energy per Si atom -5580.394550 kJ/mol
# Density = 2.613911 g / cm^3
# Si number density = 26.198739 Si / 1000 Ang^3
#
#
#
# Elastic Constant Matrix: (Units=GPa)
#
#
# Indices 1 2 3 4 5 6 
#
# 1 170.1776 60.9606 10.5796 7.1156 18.3278 -49.7300
# 2 60.9606 149.9457 10.2156 -21.1839 7.4656 -26.7730
# 3 10.5796 10.2156 55.6593 3.5622 3.8807 -13.6134
# 4 7.1156 -21.1839 3.5622 38.3476 -8.5404 4.7604
# 5 18.3278 7.4656 3.8807 -8.5404 37.6365 -3.7605
# 6 -49.7300 -26.7730 -13.6134 4.7604 -3.7605 45.9077
#
#
#
# Elastic Compliance Matrix: (Units=1/GPa)
#
#
# Indices 1 2 3 4 5 6 
#
# 1 0.010916 -0.003320 0.001941 -0.006543 -0.005272 0.010711
# 2 -0.003320 0.009015 -0.001311 0.005931 0.001386 0.000771
# 3 0.001941 -0.001311 0.020190 -0.004577 -0.003051 0.007549
# 4 -0.006543 0.005931 -0.004577 0.034056 0.009436 -0.007745
# 5 -0.005272 0.001386 -0.003051 0.009436 0.030893 -0.004255
# 6 0.010711 0.000771 0.007549 -0.007745 -0.004255 0.036529
#
#
# Mechanical properties :
#
#
# Convention : Reuss Voigt Hill
#
# Bulk Modulus (GPa) = 28.78493 59.92158 44.35326
# Shear Modulus (GPa) = 31.53397 43.98014 37.75705
#
# Velocity S-wave (km/s) = 3.47312 4.10165 3.80040
# Velocity P-wave (km/s) = 5.20523 6.73446 6.01861
#
# Compressibility (1/GPa) = 0.03474040
#
# Stress axis : x y z
#
# Youngs Moduli (GPa) = 91.60693 110.93232 49.52864
#
# Poissons Ratio (x) = 0.36826 -0.09611
# Poissons Ratio (y) = 0.30410 0.06494
# Poissons Ratio (z) = -0.17777 0.14545
#
# Static dielectric constant tensor:
#      x y z
#    x 1.880280 -0.009960 0.169370 
#    y -0.009960 2.062840 0.056920 
#    z 0.169370 0.056920 1.931280 
# 
# From -- ./inp_files/148078.got.cif
#   From: 2010.05.17/outbox.cif.g08.bks.cpg/sg2_75_cif.got.tgz:148078.got - 2010.06.03 11:33:40.
