data_PCOD9046916
_publ_section_title
;
Structure prediction by ZEFSAII (Michael W. Deem and Ramdas Pophale) SiO2 
 PCOD9046916
Probable space group: P -1
;
_chemical_formula_sum "Si O2"
_cell_formula_units_Z 14
_cell_length_a 18.507717
_cell_length_b 11.208061
_cell_length_c 5.105897
_cell_angle_alpha 56.432398
_cell_angle_beta 112.168411
_cell_angle_gamma 140.933403
_cell_volume 553.451926
_symmetry_space_group_name_H-M "P -1"
_symmetry_group_IT_number 2
_symmetry_cell_setting 'triclinic'
loop_
_space_group_symop_operation_xyz
x,y,z
-x,-y,-z
loop_
_atom_site_type_symbol
_atom_site_label
_atom_site_fract_x
_atom_site_fract_y
_atom_site_fract_z
Si Si1 0.332116 0.063653 0.547911
Si Si2 0.550492 0.294932 0.279169
Si Si3 0.894170 0.342089 0.347356
Si Si4 0.602624 0.097634 0.823365
Si Si5 0.870814 0.847218 0.222148
Si Si6 0.986476 0.732891 0.760955
Si Si7 0.274709 0.299699 0.309519
O O1 0.464861 0.260981 0.398815
O O2 0.301087 0.168692 0.514458
O O3 0.226033 0.880539 0.429698
O O4 0.322586 0.914995 0.906047
O O5 0.454039 0.067387 0.286198
O O6 0.639866 0.300956 0.516948
O O7 0.615158 0.473485 0.936106
O O8 0.000000 0.500000 0.500000
O O9 0.933141 0.274139 0.270940
O O10 0.890241 0.498692 0.037738
O O11 0.500000 0.000000 0.000000
O O12 0.934962 0.783402 0.435022
O O13 0.764699 0.704722 0.455059
O O14 0.824993 0.807403 0.914676
O O15 0.948012 0.083713 0.151680
#
# Coordination Sequence:
#
# PCOD9046916 Si02
#       7
#     2   2   2   2   2   2   2
#     4  11  24  43  70 102 144 191 233 307 354 437
#     4  10  24  43  69 103 142 188 236 300 359 442
#     4  11  24  44  72 105 143 189 251 296 371 425
#     4   9  22  43  65  95 140 184 243 288 359 423
#     4  11  27  47  73 106 149 189 248 298 371 428
#     4  10  25  45  70 103 142 195 240 313 355 438
#     4  12  27  44  74 109 144 193 240 297 366 441
#
# _framework density 25.295781999999999
#
# number of rings (size 3 to 8) (size 9 to 14) (size 15 to 20)
#    0.000    1.429    1.429    1.286   10.000    6.286 
#    0.000    0.000    0.000    0.000    0.000    0.000 
#    0.000    0.000    0.000    0.000    0.000    0.000 
#
# Total GULP energy -78280.931886 kJ/mol
# GULP energy per Si atom -5591.495135 kJ/mol
# Density = 2.523821 g / cm^3
# Si number density = 25.295782 Si / 1000 Ang^3
#
#
#
# Elastic Constant Matrix: (Units=GPa)
#
#
# Indices 1 2 3 4 5 6 
#
# 1 82.2408 27.2438 50.5432 -23.6288 21.4613 -5.9622
# 2 27.2438 50.1883 10.4797 -40.1496 10.9759 1.5777
# 3 50.5432 10.4797 72.6594 -21.9919 12.9981 4.5616
# 4 -23.6288 -40.1496 -21.9919 45.6672 2.2857 -6.4704
# 5 21.4613 10.9759 12.9981 2.2857 40.5756 -6.8254
# 6 -5.9622 1.5777 4.5616 -6.4704 -6.8254 33.5067
#
#
#
# Elastic Compliance Matrix: (Units=1/GPa)
#
#
# Indices 1 2 3 4 5 6 
#
# 1 0.030141 -0.024918 -0.022747 -0.016350 0.000099 0.006496
# 2 -0.024918 0.153097 0.049504 0.148107 -0.052516 -0.000479
# 3 -0.022747 0.049504 0.041911 0.052044 -0.018700 -0.005843
# 4 -0.016350 0.148107 0.052044 0.172229 -0.057003 0.004679
# 5 0.000099 -0.052516 -0.018700 -0.057003 0.048664 0.003941
# 6 0.006496 -0.000479 -0.005843 0.004679 0.003941 0.033525
#
#
# Mechanical properties :
#
#
# Convention : Reuss Voigt Hill
#
# Bulk Modulus (GPa) = 4.37010 42.40244 23.38627
# Shear Modulus (GPa) = 9.05529 31.73802 20.39666
#
# Velocity S-wave (km/s) = 1.89408 3.54598 2.84267
# Velocity P-wave (km/s) = 2.55240 5.79348 4.47656
#
# Compressibility (1/GPa) = 0.22882781
#
# Stress axis : x y z
#
# Youngs Moduli (GPa) = 33.17722 6.53181 23.86035
#
# Poissons Ratio (x) = 0.16276 0.54275
# Poissons Ratio (y) = 0.82670 -1.18119
# Poissons Ratio (z) = 0.75469 -0.32335
#
# Static dielectric constant tensor:
#      x y z
#    x 1.349210 0.038970 0.316540 
#    y 0.038970 2.026870 0.063750 
#    z 0.316540 0.063750 1.921990 
# 
# From -- ./inp_files/26881.got.cif
#   From: 2010.05.17/outbox.cif.g08.bks.cpg/sg2_14_cif.got.tgz:26881.got - 2010.06.03 11:33:40.
