data_PCOD9046364
_publ_section_title
;
Structure prediction by ZEFSAII (Michael W. Deem and Ramdas Pophale) SiO2 
 PCOD9046364
Probable space group: P -1
;
_chemical_formula_sum "Si O2"
_cell_formula_units_Z 14
_cell_length_a 11.636582
_cell_length_b 8.488941
_cell_length_c 20.758033
_cell_angle_alpha 139.059457
_cell_angle_beta 29.790913
_cell_angle_gamma 140.749788
_cell_volume 621.522052
_symmetry_space_group_name_H-M "P -1"
_symmetry_group_IT_number 2
_symmetry_cell_setting 'triclinic'
loop_
_space_group_symop_operation_xyz
x,y,z
-x,-y,-z
loop_
_atom_site_type_symbol
_atom_site_label
_atom_site_fract_x
_atom_site_fract_y
_atom_site_fract_z
Si Si1 0.451783 0.724425 0.468675
Si Si2 0.601253 0.338065 0.199607
Si Si3 0.487786 0.708334 0.918519
Si Si4 0.633399 0.161867 0.320054
Si Si5 0.774497 0.084847 0.659239
Si Si6 0.994981 0.282229 0.071714
Si Si7 0.033628 0.347507 0.273549
O O1 0.603051 0.585748 0.314619
O O2 0.491038 0.728123 0.528343
O O3 0.152620 0.590899 0.566658
O O4 0.500000 0.000000 0.500000
O O5 0.553681 0.381276 0.162679
O O6 0.849618 0.281133 0.075647
O O7 0.377328 0.101175 0.267565
O O8 0.748195 0.715999 0.821455
O O9 0.263323 0.505515 0.005853
O O10 0.500000 0.000000 0.000000
O O11 0.811034 0.328609 0.229000
O O12 0.845146 0.121930 0.250806
O O13 0.416040 0.955047 0.321230
O O14 0.856984 0.379985 0.732044
O O15 0.000000 0.000000 0.500000
O O16 0.000000 0.000000 0.000000
#
# Coordination Sequence:
#
# PCOD9046364 Si02
#       7
#     2   2   2   2   2   2   2
#     4  10  24  42  71 105 141 182 225 300 369 412
#     4  11  26  45  73 105 141 181 241 297 363 423
#     4  12  29  45  70 106 144 189 242 297 353 424
#     4   9  24  44  71 100 140 180 244 276 362 417
#     4  11  21  44  73 108 140 181 229 294 353 433
#     4  11  26  47  75  98 142 198 238 295 346 432
#     4  10  25  45  71 104 140 189 232 295 359 422
#
# _framework density 22.525348000000001
#
# number of rings (size 3 to 8) (size 9 to 14) (size 15 to 20)
#    0.857    0.571    1.429    2.143   10.000    7.429 
#    0.000    0.000    0.000    0.000    0.000    0.000 
#    0.000    0.000    0.000    0.000    0.000    0.000 
#
# Total GULP energy -78038.807464 kJ/mol
# GULP energy per Si atom -5574.200533 kJ/mol
# Density = 2.247408 g / cm^3
# Si number density = 22.525348 Si / 1000 Ang^3
#
#
#
# Elastic Constant Matrix: (Units=GPa)
#
#
# Indices 1 2 3 4 5 6 
#
# 1 101.0497 27.9667 25.3675 -8.2057 -13.0475 6.7947
# 2 27.9667 109.1767 23.8876 6.4957 -10.2008 -11.1074
# 3 25.3675 23.8876 53.9797 5.6260 1.5638 -0.6435
# 4 -8.2057 6.4957 5.6260 30.3567 -0.5847 -12.0476
# 5 -13.0475 -10.2008 1.5638 -0.5847 51.1749 -3.6931
# 6 6.7947 -11.1074 -0.6435 -12.0476 -3.6931 34.6301
#
#
#
# Elastic Compliance Matrix: (Units=1/GPa)
#
#
# Indices 1 2 3 4 5 6 
#
# 1 0.012736 -0.002177 -0.005585 0.004425 0.002930 -0.001449
# 2 -0.002177 0.011199 -0.003877 -0.000664 0.002072 0.003937
# 3 -0.005585 -0.003877 0.023551 -0.005943 -0.003137 -0.002112
# 4 0.004425 -0.000664 -0.005943 0.040686 0.002598 0.013240
# 5 0.002930 0.002072 -0.003137 0.002598 0.021056 0.003181
# 6 -0.001449 0.003937 -0.002112 0.013240 0.003181 0.035330
#
#
# Mechanical properties :
#
#
# Convention : Reuss Voigt Hill
#
# Bulk Modulus (GPa) = 41.30879 46.51661 43.91270
# Shear Modulus (GPa) = 28.42458 35.69796 32.06127
#
# Velocity S-wave (km/s) = 3.55617 3.98526 3.77681
# Velocity P-wave (km/s) = 5.93636 6.47086 6.20936
#
# Compressibility (1/GPa) = 0.02420792
#
# Stress axis : x y z
#
# Youngs Moduli (GPa) = 78.51861 89.29294 42.46155
#
# Poissons Ratio (x) = 0.19443 0.23714
# Poissons Ratio (y) = 0.17097 0.16460
# Poissons Ratio (z) = 0.43852 0.34615
#
# Static dielectric constant tensor:
#      x y z
#    x 1.887690 -0.001830 0.031880 
#    y -0.001830 2.025100 -0.015640 
#    z 0.031880 -0.015640 1.921950 
# 
# From -- ./inp_files/593805.got.cif
#   From: 2010.05.17/outbox.cif.g08.bks.cpg/sg2_297_cif.got.tgz:593805.got - 2010.06.03 11:33:40.
