data_PCOD9046652
_publ_section_title
;
Structure prediction by ZEFSAII (Michael W. Deem and Ramdas Pophale) SiO2 
 PCOD9046652
Probable space group: P -1
;
_chemical_formula_sum "Si O2"
_cell_formula_units_Z 15
_cell_length_a 19.652504
_cell_length_b 7.794316
_cell_length_c 14.267899
_cell_angle_alpha 136.862961
_cell_angle_beta 149.347032
_cell_angle_gamma 34.030454
_cell_volume 622.498951
_symmetry_space_group_name_H-M "P -1"
_symmetry_group_IT_number 2
_symmetry_cell_setting 'triclinic'
loop_
_space_group_symop_operation_xyz
x,y,z
-x,-y,-z
loop_
_atom_site_type_symbol
_atom_site_label
_atom_site_fract_x
_atom_site_fract_y
_atom_site_fract_z
Si Si1 0.838928 0.725525 0.838509
Si Si2 0.038167 0.215692 0.180636
Si Si3 0.391416 0.861954 0.500478
Si Si4 0.500000 0.000000 0.500000
Si Si5 0.115271 0.133163 0.515658
Si Si6 0.227601 0.129472 0.838903
Si Si7 0.182807 0.867746 0.871896
Si Si8 0.591784 0.857959 0.192163
O O1 0.912536 0.657412 0.795159
O O2 0.680167 0.724388 0.649925
O O3 0.000000 0.500000 0.000000
O O4 0.774535 0.047170 0.944941
O O5 0.877727 0.502871 0.149713
O O6 0.199415 0.018191 0.354899
O O7 0.000000 0.000000 0.000000
O O8 0.500000 0.500000 0.500000
O O9 0.406806 0.928310 0.437770
O O10 0.440486 0.041827 0.696635
O O11 0.144283 0.052338 0.628855
O O12 0.298185 0.022815 0.660454
O O13 0.000000 0.500000 0.500000
O O14 0.004844 0.025278 0.304667
O O15 0.211289 0.021350 0.878373
O O16 0.415903 0.998149 0.994760
O O17 0.298853 0.504907 0.841996
#
# Coordination Sequence:
#
# PCOD9046652 Si02
#       8
#     2   2   2   1   2   2   2   2
#     4  11  24  46  72 104 141 188 241 303 370 431
#     4  11  25  40  71 101 138 183 242 295 363 447
#     4  11  25  48  72 105 142 190 240 301 370 436
#     4  10  26  48  74 108 148 190 248 300 372 448
#     4  10  24  43  66  95 138 183 231 292 355 428
#     4  12  23  45  69 102 137 190 240 293 369 436
#     4  11  24  45  72 103 141 188 237 303 363 435
#     4  11  25  45  70 105 144 184 237 302 364 438
#
# _framework density 24.096426000000001
#
# number of rings (size 3 to 8) (size 9 to 14) (size 15 to 20)
#    0.000    1.067    1.333    4.400    7.467    0.000 
#    9.600    0.000    0.000    0.000    0.000    0.000 
#    0.000    0.000    0.000    0.000    0.000    0.000 
#
# Total GULP energy -83534.128251 kJ/mol
# GULP energy per Si atom -5568.941883 kJ/mol
# Density = 2.404158 g / cm^3
# Si number density = 24.096426 Si / 1000 Ang^3
#
#
#
# Elastic Constant Matrix: (Units=GPa)
#
#
# Indices 1 2 3 4 5 6 
#
# 1 78.0941 13.2507 12.5990 -9.5787 10.7300 -1.4813
# 2 13.2507 131.2476 32.7769 -25.8668 6.4180 -16.7826
# 3 12.5990 32.7769 96.4332 -39.1918 2.5950 -17.1902
# 4 -9.5787 -25.8668 -39.1918 51.1161 -16.1392 0.8330
# 5 10.7300 6.4180 2.5950 -16.1392 48.8503 -6.0156
# 6 -1.4813 -16.7826 -17.1902 0.8330 -6.0156 17.9772
#
#
#
# Elastic Compliance Matrix: (Units=1/GPa)
#
#
# Indices 1 2 3 4 5 6 
#
# 1 0.013670 -0.001222 -0.002114 -0.000681 -0.003339 -0.003122
# 2 -0.001222 0.009950 0.001189 0.006268 0.002299 0.010804
# 3 -0.002114 0.001189 0.022307 0.019626 0.008591 0.024231
# 4 -0.000681 0.006268 0.019626 0.042137 0.015633 0.027841
# 5 -0.003339 0.002299 0.008591 0.015633 0.027914 0.018703
# 6 -0.003122 0.010804 0.024231 0.027841 0.018703 0.093594
#
#
# Mechanical properties :
#
#
# Convention : Reuss Voigt Hill
#
# Bulk Modulus (GPa) = 24.02025 47.00314 35.51169
# Shear Modulus (GPa) = 21.95457 40.06528 31.00992
#
# Velocity S-wave (km/s) = 3.02174 4.08205 3.59124
# Velocity P-wave (km/s) = 4.70793 6.46267 5.65379
#
# Compressibility (1/GPa) = 0.04163155
#
# Stress axis : x y z
#
# Youngs Moduli (GPa) = 73.15540 100.50286 44.82985
#
# Poissons Ratio (x) = 0.12285 0.09477
# Poissons Ratio (y) = 0.08942 -0.05331
# Poissons Ratio (z) = 0.15465 -0.11951
#
# Static dielectric constant tensor:
#      x y z
#    x 1.891830 -0.003540 -0.083170 
#    y -0.003540 1.981070 -0.004570 
#    z -0.083170 -0.004570 1.952230 
# 
# From -- ./inp_files/419061.got.cif
#   From: 2010.05.17/outbox.cif.g08.bks.cpg/sg2_210_cif.got.tgz:419061.got - 2010.06.03 11:33:40.
