data_PCOD9046117
_publ_section_title
;
Structure prediction by ZEFSAII (Michael W. Deem and Ramdas Pophale) SiO2 
 PCOD9046117
Probable space group: P -1
;
_chemical_formula_sum "Si O2"
_cell_formula_units_Z 16
_cell_length_a 5.226226
_cell_length_b 16.386367
_cell_length_c 11.607224
_cell_angle_alpha 132.766855
_cell_angle_beta 90.521605
_cell_angle_gamma 89.347423
_cell_volume 729.691035
_symmetry_space_group_name_H-M "P -1"
_symmetry_group_IT_number 2
_symmetry_cell_setting 'triclinic'
loop_
_space_group_symop_operation_xyz
x,y,z
-x,-y,-z
loop_
_atom_site_type_symbol
_atom_site_label
_atom_site_fract_x
_atom_site_fract_y
_atom_site_fract_z
Si Si1 0.238971 0.429279 0.527521
Si Si2 0.092750 0.710516 0.442339
Si Si3 0.255429 0.790309 0.954371
Si Si4 0.920146 0.610059 0.764010
Si Si5 0.399689 0.360983 0.758307
Si Si6 0.485495 0.390260 0.051743
Si Si7 0.250701 0.020093 0.098087
Si Si8 0.556226 0.223833 0.323203
O O1 0.199954 0.553787 0.689687
O O2 0.470834 0.348343 0.478042
O O3 0.998415 0.372595 0.535175
O O4 0.220682 0.423685 0.385222
O O5 0.321402 0.674395 0.322707
O O6 0.222694 0.807340 0.614263
O O7 0.831964 0.710406 0.365538
O O8 0.969616 0.741126 0.895539
O O9 0.386023 0.714756 0.981339
O O10 0.363876 0.775223 0.809478
O O11 0.255191 0.922286 0.098846
O O12 0.763901 0.577998 0.843762
O O13 0.362798 0.492912 0.853227
O O14 0.405633 0.353890 0.889011
O O15 0.311916 0.144031 0.259327
O O16 0.500000 0.000000 0.000000
O O17 0.000000 0.000000 0.000000
#
# Coordination Sequence:
#
# PCOD9046117 Si02
#       8
#     2   2   2   2   2   2   2   2
#     4  11  21  36  60  99 136 171 206 261 342 410
#     4  12  23  42  62  94 131 174 223 264 331 392
#     4  11  23  39  66  99 132 174 219 273 338 395
#     4  11  22  35  63  98 139 171 209 272 337 408
#     4  11  27  43  63  92 135 185 228 271 311 394
#     4  11  25  42  63  92 137 180 231 269 326 385
#     4  10  24  42  67  98 136 172 218 269 335 404
#     4  11  23  40  67  97 138 171 216 276 339 401
#
# _framework density 21.92709
#
# number of rings (size 3 to 8) (size 9 to 14) (size 15 to 20)
#    0.000    1.000    5.000    1.500    5.250    1.500 
#    0.000    0.000    0.000    1.500    0.000    0.000 
#    0.000    0.000    0.000    0.000    0.000    0.000 
#
# Total GULP energy -89221.845755 kJ/mol
# GULP energy per Si atom -5576.365360 kJ/mol
# Density = 2.187718 g / cm^3
# Si number density = 21.927090 Si / 1000 Ang^3
#
#
#
# Elastic Constant Matrix: (Units=GPa)
#
#
# Indices 1 2 3 4 5 6 
#
# 1 118.7197 28.5620 35.4377 -11.9726 12.9313 9.7100
# 2 28.5620 112.5628 46.5071 -12.6950 13.4285 4.5990
# 3 35.4377 46.5071 80.3673 -28.1698 16.0955 12.3068
# 4 -11.9726 -12.6950 -28.1698 46.2376 9.3694 0.4966
# 5 12.9313 13.4285 16.0955 9.3694 37.2018 0.2750
# 6 9.7100 4.5990 12.3068 0.4966 0.2750 27.7633
#
#
#
# Elastic Compliance Matrix: (Units=1/GPa)
#
#
# Indices 1 2 3 4 5 6 
#
# 1 0.009986 -0.000944 -0.002655 0.001191 -0.002266 -0.002158
# 2 -0.000944 0.011886 -0.006915 -0.001065 -0.000713 0.001453
# 3 -0.002655 -0.006915 0.027730 0.017011 -0.012786 -0.010396
# 4 0.001191 -0.001065 0.017011 0.035387 -0.016241 -0.008253
# 5 -0.002266 -0.000713 -0.012786 -0.016241 0.037500 0.006497
# 6 -0.002158 0.001453 -0.010396 -0.008253 0.006497 0.041224
#
#
# Mechanical properties :
#
#
# Convention : Reuss Voigt Hill
#
# Bulk Modulus (GPa) = 34.99660 59.18482 47.09071
# Shear Modulus (GPa) = 25.73775 35.65006 30.69390
#
# Velocity S-wave (km/s) = 3.42978 4.03655 3.74547
# Velocity P-wave (km/s) = 5.62846 6.98393 6.34251
#
# Compressibility (1/GPa) = 0.02857421
#
# Stress axis : x y z
#
# Youngs Moduli (GPa) = 100.13646 84.13194 36.06138
#
# Poissons Ratio (x) = 0.07942 0.09576
# Poissons Ratio (y) = 0.09453 0.24936
# Poissons Ratio (z) = 0.26591 0.58176
#
# Static dielectric constant tensor:
#      x y z
#    x 2.060970 -0.194190 -0.262670 
#    y -0.194190 1.974350 0.305010 
#    z -0.262670 0.305010 2.392870 
# 
# From -- ./inp_files/369091.got.cif
#   From: 2010.05.17/outbox.cif.g08.bks.cpg/sg2_185_cif.got.tgz:369091.got - 2010.06.03 11:33:40.
