data_PCOD9046796
_publ_section_title
;
Structure prediction by ZEFSAII (Michael W. Deem and Ramdas Pophale) SiO2 
 PCOD9046796
Probable space group: P -1
;
_chemical_formula_sum "Si O2"
_cell_formula_units_Z 15
_cell_length_a 5.969279
_cell_length_b 6.046918
_cell_length_c 19.829480
_cell_angle_alpha 64.827228
_cell_angle_beta 98.710508
_cell_angle_gamma 89.739080
_cell_volume 638.406306
_symmetry_space_group_name_H-M "P -1"
_symmetry_group_IT_number 2
_symmetry_cell_setting 'triclinic'
loop_
_space_group_symop_operation_xyz
x,y,z
-x,-y,-z
loop_
_atom_site_type_symbol
_atom_site_label
_atom_site_fract_x
_atom_site_fract_y
_atom_site_fract_z
Si Si1 0.150778 0.746665 0.044459
Si Si2 0.474479 0.470624 0.824628
Si Si3 0.883886 0.826241 0.232475
Si Si4 0.653376 0.183744 0.443401
Si Si5 0.590900 0.040643 0.317843
Si Si6 0.000000 0.500000 0.500000
Si Si7 0.725195 0.383930 0.637512
Si Si8 0.189164 0.680876 0.906712
O O1 0.317345 0.716125 0.119503
O O2 0.988170 0.525615 0.071471
O O3 0.274910 0.724126 0.980466
O O4 0.000000 0.000000 0.000000
O O5 0.281664 0.326276 0.799377
O O6 0.512722 0.700271 0.749074
O O7 0.382806 0.592434 0.874471
O O8 0.105236 0.661647 0.286439
O O9 0.753665 0.916873 0.283527
O O10 0.930076 0.068040 0.161390
O O11 0.728871 0.062639 0.390966
O O12 0.847572 0.294573 0.481150
O O13 0.479746 0.414147 0.385954
O O14 0.500000 0.000000 0.500000
O O15 0.391222 0.868336 0.346588
O O16 0.860252 0.461737 0.568534
#
# Coordination Sequence:
#
# PCOD9046796 Si02
#       8
#     2   2   2   2   2   1   2   2
#     4  11  24  42  69 104 144 187 240 300 361 430
#     4  11  24  45  70 101 143 189 241 298 364 435
#     4  11  26  46  72 103 141 191 244 296 366 440
#     4  12  28  50  75 107 147 191 239 305 373 437
#     4  11  25  47  72 102 145 190 240 300 368 436
#     4  12  26  48  76 106 140 186 244 294 368 444
#     4  12  26  46  72 106 141 184 245 298 362 446
#     4  10  24  43  68 101 140 191 238 294 367 431
#
# _framework density 23.496009000000001
#
# number of rings (size 3 to 8) (size 9 to 14) (size 15 to 20)
#    0.000    0.800    1.333    4.800    1.867   14.400 
#    2.400    0.000    0.000    0.000    0.000    0.000 
#    0.000    0.000    0.000    0.000    0.000    0.000 
#
# Total GULP energy -83804.731521 kJ/mol
# GULP energy per Si atom -5586.982101 kJ/mol
# Density = 2.344253 g / cm^3
# Si number density = 23.496009 Si / 1000 Ang^3
#
#
#
# Elastic Constant Matrix: (Units=GPa)
#
#
# Indices 1 2 3 4 5 6 
#
# 1 61.3147 44.3542 49.9059 -13.0757 3.5297 21.2634
# 2 44.3542 112.3504 56.6230 -0.6256 3.5282 21.6911
# 3 49.9059 56.6230 113.8491 3.3665 -4.3578 3.4179
# 4 -13.0757 -0.6256 3.3665 42.5757 6.4868 -0.5966
# 5 3.5297 3.5282 -4.3578 6.4868 58.7929 0.0812
# 6 21.2634 21.6911 3.4179 -0.5966 0.0812 41.1008
#
#
#
# Elastic Compliance Matrix: (Units=1/GPa)
#
#
# Indices 1 2 3 4 5 6 
#
# 1 0.043125 -0.004951 -0.016539 0.015010 -0.005149 -0.018094
# 2 -0.004951 0.014128 -0.004726 -0.000881 -0.000797 -0.004513
# 3 -0.016539 -0.004726 0.018438 -0.006993 0.003402 0.009409
# 4 0.015010 -0.000881 -0.006993 0.029248 -0.004585 -0.006286
# 5 -0.005149 -0.000797 0.003402 -0.004585 0.018120 0.002699
# 6 -0.018094 -0.004513 0.009409 -0.006286 0.002699 0.035194
#
#
# Mechanical properties :
#
#
# Convention : Reuss Voigt Hill
#
# Bulk Modulus (GPa) = 42.99159 65.47558 54.23359
# Shear Modulus (GPa) = 22.88969 37.60261 30.24615
#
# Velocity S-wave (km/s) = 3.12460 4.00482 3.59177
# Velocity P-wave (km/s) = 5.59952 7.02225 6.35085
#
# Compressibility (1/GPa) = 0.02326036
#
# Stress axis : x y z
#
# Youngs Moduli (GPa) = 23.18845 70.77992 54.23467
#
# Poissons Ratio (x) = 0.35041 0.89701
# Poissons Ratio (y) = 0.11480 0.25629
# Poissons Ratio (z) = 0.38352 0.33447
#
# Static dielectric constant tensor:
#      x y z
#    x 1.869350 -0.053130 0.016610 
#    y -0.053130 1.921540 -0.023560 
#    z 0.016610 -0.023560 1.886880 
# 
# From -- ./inp_files/8094.got.cif
#   From: 2010.05.17/outbox.cif.g08.bks.cpg/sg2_5_cif.got.tgz:8094.got - 2010.06.03 11:33:40.
