data_PCOD9046655
_publ_section_title
;
Structure prediction by ZEFSAII (Michael W. Deem and Ramdas Pophale) SiO2 
 PCOD9046655
Probable space group: P -1
;
_chemical_formula_sum "Si O2"
_cell_formula_units_Z 14
_cell_length_a 22.370823
_cell_length_b 6.886766
_cell_length_c 21.344005
_cell_angle_alpha 130.568838
_cell_angle_beta 17.751425
_cell_angle_gamma 139.916668
_cell_volume 591.957731
_symmetry_space_group_name_H-M "P -1"
_symmetry_group_IT_number 2
_symmetry_cell_setting 'triclinic'
loop_
_space_group_symop_operation_xyz
x,y,z
-x,-y,-z
loop_
_atom_site_type_symbol
_atom_site_label
_atom_site_fract_x
_atom_site_fract_y
_atom_site_fract_z
Si Si1 0.225415 0.549791 0.076568
Si Si2 0.895415 0.313092 0.130496
Si Si3 0.937811 0.445158 0.447783
Si Si4 0.625966 0.414921 0.523752
Si Si5 0.603389 0.393179 0.684561
Si Si6 0.668014 0.339837 0.149182
Si Si7 0.593694 0.285285 0.872621
O O1 0.422901 0.488346 0.881174
O O2 0.199644 0.552366 0.028333
O O3 0.350127 0.916382 0.051986
O O4 0.981919 0.313538 0.313123
O O5 0.811555 0.459784 0.295301
O O6 0.644888 0.946909 0.290399
O O7 0.000000 0.500000 0.000000
O O8 0.133998 0.382326 0.940780
O O9 0.191383 0.584326 0.262354
O O10 0.830722 0.610159 0.552770
O O11 0.722938 0.260126 0.677012
O O12 0.702533 0.435585 0.523770
O O13 0.563416 0.658161 0.627487
O O14 0.432764 0.013831 0.798725
O O15 0.500000 0.500000 0.000000
#
# Coordination Sequence:
#
# PCOD9046655 Si02
#       7
#     2   2   2   2   2   2   2
#     4  11  25  44  68  93 133 172 215 275 322 387
#     4  11  22  43  67  95 132 175 216 270 320 385
#     4  11  24  42  69  95 128 176 210 271 330 379
#     4  10  24  43  66  96 132 172 221 265 326 382
#     4  11  23  45  65  99 132 170 224 265 326 391
#     4  11  23  44  66  96 133 170 218 272 320 387
#     4  11  25  45  67 100 131 168 224 266 323 397
#
# _framework density 23.650337
#
# number of rings (size 3 to 8) (size 9 to 14) (size 15 to 20)
#    0.000    1.143    2.857    2.571    0.000    5.143 
#    2.571    0.000    0.000    0.000    0.000    0.000 
#    0.000    0.000    0.000    0.000    0.000    0.000 
#
# Total GULP energy -78126.503724 kJ/mol
# GULP energy per Si atom -5580.464552 kJ/mol
# Density = 2.359651 g / cm^3
# Si number density = 23.650337 Si / 1000 Ang^3
#
#
#
# Elastic Constant Matrix: (Units=GPa)
#
#
# Indices 1 2 3 4 5 6 
#
# 1 175.7221 37.8177 63.2169 -0.8523 2.8866 -31.8530
# 2 37.8177 107.3226 36.8341 4.9652 5.5460 -19.1619
# 3 63.2169 36.8341 119.3428 -7.5794 27.2056 -17.0159
# 4 -0.8523 4.9652 -7.5794 30.1940 2.3059 -7.4270
# 5 2.8866 5.5460 27.2056 2.3059 57.5918 2.4670
# 6 -31.8530 -19.1619 -17.0159 -7.4270 2.4670 24.3278
#
#
#
# Elastic Compliance Matrix: (Units=1/GPa)
#
#
# Indices 1 2 3 4 5 6 
#
# 1 0.008568 -0.000420 -0.003138 0.001727 0.000632 0.009156
# 2 -0.000420 0.011519 -0.002401 -0.000870 -0.000202 0.006598
# 3 -0.003138 -0.002401 0.013418 0.005576 -0.006419 0.005739
# 4 0.001727 -0.000870 0.005576 0.039532 -0.004993 0.018051
# 5 0.000632 -0.000202 -0.006419 -0.004993 0.020903 -0.007465
# 6 0.009156 0.006598 0.005739 0.018051 -0.007465 0.068572
#
#
# Mechanical properties :
#
#
# Convention : Reuss Voigt Hill
#
# Bulk Modulus (GPa) = 46.32518 75.34724 60.83621
# Shear Modulus (GPa) = 27.52924 40.05728 33.79326
#
# Velocity S-wave (km/s) = 3.41546 4.11996 3.78414
# Velocity P-wave (km/s) = 5.93160 7.38648 6.69866
#
# Compressibility (1/GPa) = 0.02158653
#
# Stress axis : x y z
#
# Youngs Moduli (GPa) = 116.71876 86.81659 74.52599
#
# Poissons Ratio (x) = 0.03646 0.23384
# Poissons Ratio (y) = 0.04902 0.17895
# Poissons Ratio (z) = 0.36623 0.20846
#
# Static dielectric constant tensor:
#      x y z
#    x 1.900920 0.027410 -0.025340 
#    y 0.027410 1.894720 0.001960 
#    z -0.025340 0.001960 1.915670 
# 
# From -- ./inp_files/10174.got.cif
#   From: 2010.05.17/outbox.cif.g08.bks.cpg/sg2_6_cif.got.tgz:10174.got - 2010.06.03 11:33:40.
