data_PCOD9046001
_publ_section_title
;
Structure prediction by ZEFSAII (Michael W. Deem and Ramdas Pophale) SiO2 
 PCOD9046001
Probable space group: P -1
;
_chemical_formula_sum "Si O2"
_cell_formula_units_Z 16
_cell_length_a 9.203860
_cell_length_b 14.584398
_cell_length_c 11.659413
_cell_angle_alpha 32.714545
_cell_angle_beta 80.825468
_cell_angle_gamma 69.255095
_cell_volume 760.696987
_symmetry_space_group_name_H-M "P -1"
_symmetry_group_IT_number 2
_symmetry_cell_setting 'triclinic'
loop_
_space_group_symop_operation_xyz
x,y,z
-x,-y,-z
loop_
_atom_site_type_symbol
_atom_site_label
_atom_site_fract_x
_atom_site_fract_y
_atom_site_fract_z
Si Si1 0.816482 0.074694 0.399403
Si Si2 0.822270 0.403771 0.928065
Si Si3 0.004996 0.193948 0.761527
Si Si4 0.313984 0.457123 0.619983
Si Si5 0.423257 0.466597 0.367035
Si Si6 0.853397 0.780827 0.040581
Si Si7 0.234399 0.169044 0.541945
Si Si8 0.405937 0.900435 0.387664
O O1 0.696340 0.056270 0.528979
O O2 0.806418 0.953411 0.419004
O O3 0.767019 0.292625 0.145204
O O4 0.000000 0.000000 0.500000
O O5 0.726218 0.401971 0.826104
O O6 0.798976 0.618623 0.719292
O O7 0.007268 0.275029 0.011906
O O8 0.068889 0.252141 0.808264
O O9 0.123610 0.183691 0.651902
O O10 0.823688 0.337157 0.601079
O O11 0.000000 0.000000 0.000000
O O12 0.361574 0.372431 0.575484
O O13 0.475408 0.441518 0.677199
O O14 0.232413 0.357599 0.813133
O O15 0.538310 0.313841 0.427045
O O16 0.713920 0.981463 0.821704
O O17 0.426146 0.076247 0.645357
#
# Coordination Sequence:
#
# PCOD9046001 Si02
#       8
#     2   2   2   2   2   2   2   2
#     4  12  27  47  73 100 137 181 242 290 338 408
#     4  11  23  47  71  99 137 185 227 287 344 408
#     4  12  24  40  73 102 143 181 225 280 346 423
#     4  11  23  39  67 104 140 175 223 277 344 426
#     4  10  24  42  66 101 138 176 228 277 349 408
#     4  12  22  41  69 101 138 179 222 280 347 409
#     4  11  27  46  71 105 137 184 233 282 349 408
#     4  11  26  47  67 100 140 180 233 290 335 407
#
# _framework density 21.033344
#
# number of rings (size 3 to 8) (size 9 to 14) (size 15 to 20)
#    0.000    0.750    3.750    3.750    3.500    5.500 
#    2.250    0.000    0.000    0.000    0.000    0.000 
#    0.000    0.000    0.000    0.000    0.000    0.000 
#
# Total GULP energy -89348.094385 kJ/mol
# GULP energy per Si atom -5584.255899 kJ/mol
# Density = 2.098547 g / cm^3
# Si number density = 21.033344 Si / 1000 Ang^3
#
#
#
# Elastic Constant Matrix: (Units=GPa)
#
#
# Indices 1 2 3 4 5 6 
#
# 1 90.5806 10.3735 24.7077 -2.1401 5.6186 -9.6945
# 2 10.3735 70.0931 5.8045 5.1691 1.1492 -11.5062
# 3 24.7077 5.8045 79.1051 3.8844 -10.2792 -3.7529
# 4 -2.1401 5.1691 3.8844 19.5465 1.0297 1.5933
# 5 5.6186 1.1492 -10.2792 1.0297 25.2874 -5.5276
# 6 -9.6945 -11.5062 -3.7529 1.5933 -5.5276 29.1874
#
#
#
# Elastic Compliance Matrix: (Units=1/GPa)
#
#
# Indices 1 2 3 4 5 6 
#
# 1 0.013003 -0.001307 -0.004550 0.002716 -0.004297 0.002257
# 2 -0.001307 0.015839 -0.000071 -0.004888 0.001113 0.006278
# 3 -0.004550 -0.000071 0.015402 -0.004134 0.007917 0.002166
# 4 0.002716 -0.004888 -0.004134 0.054314 -0.005489 -0.005561
# 5 -0.004297 0.001113 0.007917 -0.005489 0.045862 0.009015
# 6 0.002257 0.006278 0.002166 -0.005561 0.009015 0.039775
#
#
# Mechanical properties :
#
#
# Convention : Reuss Voigt Hill
#
# Bulk Modulus (GPa) = 30.87648 35.72779 33.30213
# Shear Modulus (GPa) = 24.17236 28.06380 26.11808
#
# Velocity S-wave (km/s) = 3.39372 3.65671 3.52766
# Velocity P-wave (km/s) = 5.48344 5.90354 5.69736
#
# Compressibility (1/GPa) = 0.03238711
#
# Stress axis : x y z
#
# Youngs Moduli (GPa) = 76.90608 63.13559 64.92525
#
# Poissons Ratio (x) = 0.08252 0.29541
# Poissons Ratio (y) = 0.10051 0.00464
# Poissons Ratio (z) = 0.34993 0.00451
#
# Static dielectric constant tensor:
#      x y z
#    x 1.910940 -0.068490 0.016340 
#    y -0.068490 1.783990 -0.022240 
#    z 0.016340 -0.022240 1.796270 
# 
# From -- ./inp_files/187328.got.cif
#   From: 2010.05.17/outbox.cif.g08.bks.cpg/sg2_94_cif.got.tgz:187328.got - 2010.06.03 11:33:40.
