data_PCOD9046744
_publ_section_title
;
Structure prediction by ZEFSAII (Michael W. Deem and Ramdas Pophale) SiO2 
 PCOD9046744
Probable space group: P -1
;
_chemical_formula_sum "Si O2"
_cell_formula_units_Z 14
_cell_length_a 11.612115
_cell_length_b 10.961685
_cell_length_c 11.474282
_cell_angle_alpha 105.643486
_cell_angle_beta 96.886887
_cell_angle_gamma 145.402309
_cell_volume 623.238253
_symmetry_space_group_name_H-M "P -1"
_symmetry_group_IT_number 2
_symmetry_cell_setting 'triclinic'
loop_
_space_group_symop_operation_xyz
x,y,z
-x,-y,-z
loop_
_atom_site_type_symbol
_atom_site_label
_atom_site_fract_x
_atom_site_fract_y
_atom_site_fract_z
Si Si1 0.103473 0.244874 0.178285
Si Si2 0.709194 0.298903 0.665134
Si Si3 0.408407 0.365057 0.080820
Si Si4 0.231290 0.644966 0.797127
Si Si5 0.196729 0.185741 0.392148
Si Si6 0.711662 0.273164 0.925614
Si Si7 0.111270 0.270920 0.618004
O O1 0.233045 0.498161 0.311434
O O2 0.272456 0.352943 0.122378
O O3 0.090423 0.118214 0.237454
O O4 0.801934 0.955909 0.030321
O O5 0.634946 0.241590 0.778824
O O6 0.992238 0.508846 0.741674
O O7 0.500000 0.000000 0.500000
O O8 0.643421 0.550972 0.239919
O O9 0.500000 0.500000 0.000000
O O10 0.153833 0.458687 0.653140
O O11 0.496412 0.963499 0.864013
O O12 0.266575 0.621628 0.926772
O O13 0.500000 0.500000 0.500000
O O14 0.077794 0.167455 0.466007
O O15 0.126415 0.983480 0.387928
O O16 0.000000 0.500000 0.000000
#
# Coordination Sequence:
#
# PCOD9046744 Si02
#       7
#     2   2   2   2   2   2   2
#     4  11  26  44  68  97 139 172 225 277 331 404
#     4  11  27  44  65  99 139 182 219 273 340 402
#     4  11  24  44  68 103 129 176 221 281 339 381
#     4  10  24  43  67  97 129 177 221 274 328 396
#     4  11  24  44  64  98 132 176 217 272 337 396
#     4   9  22  44  64  94 126 173 224 263 329 387
#     4  11  25  41  71  96 131 172 225 273 334 403
#
# _framework density 22.463318999999998
#
# number of rings (size 3 to 8) (size 9 to 14) (size 15 to 20)
#    0.000    1.429    2.857    0.000   12.000    1.714 
#    0.000    0.000    0.000    0.000    0.000    0.000 
#    0.000    0.000    0.000    0.000    0.000    0.000 
#
# Total GULP energy -78101.023489 kJ/mol
# GULP energy per Si atom -5578.644535 kJ/mol
# Density = 2.241219 g / cm^3
# Si number density = 22.463319 Si / 1000 Ang^3
#
#
#
# Elastic Constant Matrix: (Units=GPa)
#
#
# Indices 1 2 3 4 5 6 
#
# 1 49.4572 19.9867 10.1181 10.7151 -16.4931 5.9247
# 2 19.9867 124.6860 23.0693 12.4660 -0.4047 19.0893
# 3 10.1181 23.0693 65.8655 16.9844 -7.0148 9.2099
# 4 10.7151 12.4660 16.9844 52.8415 -3.1137 -1.7942
# 5 -16.4931 -0.4047 -7.0148 -3.1137 33.1880 9.1603
# 6 5.9247 19.0893 9.2099 -1.7942 9.1603 21.3042
#
#
#
# Elastic Compliance Matrix: (Units=1/GPa)
#
#
# Indices 1 2 3 4 5 6 
#
# 1 0.030300 -0.002101 0.001857 -0.005653 0.019350 -0.016143
# 2 -0.002101 0.010084 -0.001512 -0.001697 0.000898 -0.008327
# 3 0.001857 -0.001512 0.019413 -0.006199 0.007551 -0.011323
# 4 -0.005653 -0.001697 -0.006199 0.022516 -0.004703 0.009691
# 5 0.019350 0.000898 0.007551 -0.004703 0.049507 -0.031134
# 6 -0.016143 -0.008327 -0.011323 0.009691 -0.031134 0.077988
#
#
# Mechanical properties :
#
#
# Convention : Reuss Voigt Hill
#
# Bulk Modulus (GPa) = 17.76635 38.48409 28.12522
# Shear Modulus (GPa) = 21.54421 33.92237 27.73329
#
# Velocity S-wave (km/s) = 3.10027 3.89025 3.51750
# Velocity P-wave (km/s) = 4.55431 6.11129 5.38932
#
# Compressibility (1/GPa) = 0.05628619
#
# Stress axis : x y z
#
# Youngs Moduli (GPa) = 33.00288 99.16643 51.51273
#
# Poissons Ratio (x) = 0.20836 -0.09567
# Poissons Ratio (y) = 0.06934 0.07786
# Poissons Ratio (z) = -0.06129 0.14989
#
# Static dielectric constant tensor:
#      x y z
#    x 1.850720 -0.024090 0.040690 
#    y -0.024090 1.832460 0.034000 
#    z 0.040690 0.034000 1.950310 
# 
# From -- ./inp_files/60897.got.cif
#   From: 2010.05.17/outbox.cif.g08.bks.cpg/sg2_31_cif.got.tgz:60897.got - 2010.06.03 11:33:40.
