data_PCOD9046216
_publ_section_title
;
Structure prediction by ZEFSAII (Michael W. Deem and Ramdas Pophale) SiO2 
 PCOD9046216
Probable space group: P -1
;
_chemical_formula_sum "Si O2"
_cell_formula_units_Z 16
_cell_length_a 6.109510
_cell_length_b 11.004387
_cell_length_c 11.518645
_cell_angle_alpha 117.656478
_cell_angle_beta 76.268391
_cell_angle_gamma 104.960522
_cell_volume 656.402638
_symmetry_space_group_name_H-M "P -1"
_symmetry_group_IT_number 2
_symmetry_cell_setting 'triclinic'
loop_
_space_group_symop_operation_xyz
x,y,z
-x,-y,-z
loop_
_atom_site_type_symbol
_atom_site_label
_atom_site_fract_x
_atom_site_fract_y
_atom_site_fract_z
Si Si1 0.492405 0.638515 0.482738
Si Si2 0.972162 0.834900 0.456038
Si Si3 0.898649 0.204292 0.113733
Si Si4 0.243186 0.172001 0.855753
Si Si5 0.015287 0.649940 0.176981
Si Si6 0.759061 0.114530 0.324154
Si Si7 0.400851 0.667286 0.954934
Si Si8 0.211296 0.471639 0.243942
O O1 0.500000 0.500000 0.500000
O O2 0.733591 0.721140 0.436980
O O3 0.403127 0.769998 0.610907
O O4 0.306177 0.573192 0.380526
O O5 0.110881 0.779955 0.307822
O O6 0.063356 0.827885 0.572306
O O7 0.000000 0.000000 0.500000
O O8 0.825037 0.092993 0.172466
O O9 0.685419 0.270083 0.123309
O O10 0.078799 0.316171 0.214080
O O11 0.018435 0.158524 0.962620
O O12 0.197213 0.299665 0.836407
O O13 0.301601 0.049563 0.711519
O O14 0.448348 0.213647 0.936444
O O15 0.024477 0.527522 0.212525
O O16 0.184505 0.618256 0.040953
O O17 0.561646 0.554636 0.862437
#
# Coordination Sequence:
#
# PCOD9046216 Si02
#       8
#     2   2   2   2   2   2   2   2
#     4  12  29  46  74 107 143 192 241 291 354 430
#     4  12  28  48  73 107 147 188 237 294 358 427
#     4  10  24  44  69 101 140 184 243 292 354 416
#     4  10  24  43  69 103 137 185 239 295 352 423
#     4  11  24  42  68 100 140 181 232 291 356 420
#     4  12  25  45  73  98 145 187 238 295 359 420
#     4  10  24  42  69 100 143 183 240 289 360 416
#     4  11  24  43  68 104 139 185 234 298 351 425
#
# _framework density 24.375281000000001
#
# number of rings (size 3 to 8) (size 9 to 14) (size 15 to 20)
#    0.000    1.000    2.500    2.250    7.000    7.500 
#    0.000    0.000    0.000    0.000    0.000    0.000 
#    0.000    0.000    0.000    0.000    0.000    0.000 
#
# Total GULP energy -89167.244845 kJ/mol
# GULP energy per Si atom -5572.952803 kJ/mol
# Density = 2.431980 g / cm^3
# Si number density = 24.375281 Si / 1000 Ang^3
#
#
#
# Elastic Constant Matrix: (Units=GPa)
#
#
# Indices 1 2 3 4 5 6 
#
# 1 93.3950 47.8294 34.6472 4.5952 15.2237 -15.2889
# 2 47.8294 93.8869 26.7766 12.2340 -12.5992 -22.9412
# 3 34.6472 26.7766 102.3558 13.2558 14.4060 -12.2630
# 4 4.5952 12.2340 13.2558 52.0846 -12.8341 4.0533
# 5 15.2237 -12.5992 14.4060 -12.8341 35.9806 -0.2363
# 6 -15.2889 -22.9412 -12.2630 4.0533 -0.2363 20.2334
#
#
#
# Elastic Compliance Matrix: (Units=1/GPa)
#
#
# Indices 1 2 3 4 5 6 
#
# 1 0.018596 -0.009708 -0.001649 -0.001896 -0.011269 0.002293
# 2 -0.009708 0.022280 -0.001833 -0.002327 0.011927 0.017421
# 3 -0.001649 -0.001833 0.013063 -0.004870 -0.006876 0.005489
# 4 -0.001896 -0.002327 -0.004870 0.024704 0.010671 -0.011847
# 5 -0.011269 0.011927 -0.006876 0.010671 0.043291 -0.000791
# 6 0.002293 0.017421 0.005489 -0.011847 -0.000791 0.076599
#
#
# Mechanical properties :
#
#
# Convention : Reuss Voigt Hill
#
# Bulk Modulus (GPa) = 36.28352 56.46045 46.37198
# Shear Modulus (GPa) = 21.35837 33.68534 27.52185
#
# Velocity S-wave (km/s) = 2.96333 3.72149 3.36384
# Velocity P-wave (km/s) = 5.16005 6.45595 5.84403
#
# Compressibility (1/GPa) = 0.02756072
#
# Stress axis : x y z
#
# Youngs Moduli (GPa) = 53.77468 44.88329 76.54965
#
# Poissons Ratio (x) = 0.43573 0.12621
# Poissons Ratio (y) = 0.52205 0.14028
# Poissons Ratio (z) = 0.08866 0.08225
#
# Static dielectric constant tensor:
#      x y z
#    x 1.979530 0.020430 -0.049830 
#    y 0.020430 1.993090 0.014100 
#    z -0.049830 0.014100 1.976100 
# 
# From -- ./inp_files/365210.got.cif
#   From: 2010.05.17/outbox.cif.g08.bks.cpg/sg2_183_cif.got.tgz:365210.got - 2010.06.03 11:33:40.
