data_PCOD9046773
_publ_section_title
;
Structure prediction by ZEFSAII (Michael W. Deem and Ramdas Pophale) SiO2 
 PCOD9046773
Probable space group: P -1
;
_chemical_formula_sum "Si O2"
_cell_formula_units_Z 14
_cell_length_a 9.323825
_cell_length_b 9.352933
_cell_length_c 17.836529
_cell_angle_alpha 143.946117
_cell_angle_beta 48.117379
_cell_angle_gamma 115.017825
_cell_volume 656.887348
_symmetry_space_group_name_H-M "P -1"
_symmetry_group_IT_number 2
_symmetry_cell_setting 'triclinic'
loop_
_space_group_symop_operation_xyz
x,y,z
-x,-y,-z
loop_
_atom_site_type_symbol
_atom_site_label
_atom_site_fract_x
_atom_site_fract_y
_atom_site_fract_z
Si Si1 0.224491 0.015151 0.928004
Si Si2 0.629717 0.598318 0.061175
Si Si3 0.836160 0.374986 0.535183
Si Si4 0.980805 0.122614 0.790460
Si Si5 0.518938 0.541234 0.423770
Si Si6 0.559307 0.927037 0.360757
Si Si7 0.275132 0.157855 0.133631
O O1 0.296515 0.169469 0.902303
O O2 0.350227 0.723546 0.764924
O O3 0.240244 0.161262 0.059879
O O4 0.000000 0.000000 0.000000
O O5 0.523232 0.712548 0.225697
O O6 0.500000 0.500000 0.000000
O O7 0.821159 0.368905 0.920344
O O8 0.679238 0.394811 0.531023
O O9 0.743859 0.562403 0.712215
O O10 0.000000 0.500000 0.500000
O O11 0.944703 0.085362 0.389385
O O12 0.194441 0.149793 0.757550
O O13 0.870501 0.984601 0.831938
O O14 0.500000 0.500000 0.500000
O O15 0.569212 0.808158 0.516614
O O16 0.500000 0.000000 0.500000
O O17 0.500000 0.000000 0.000000
#
# Coordination Sequence:
#
# PCOD9046773 Si02
#       7
#     2   2   2   2   2   2   2
#     4  12  27  43  69 104 138 181 228 285 348 412
#     4  12  27  47  69 105 146 179 226 296 357 402
#     4   9  21  39  66  97 131 178 223 278 337 404
#     4  10  24  43  68 100 139 183 234 279 340 426
#     4  11  23  43  68  96 135 174 235 282 337 403
#     4  11  26  46  72  97 135 191 235 282 342 419
#     4  11  21  41  71 100 138 178 230 281 345 419
#
# _framework density 21.312633999999999
#
# number of rings (size 3 to 8) (size 9 to 14) (size 15 to 20)
#    0.000    1.143    2.857    2.143   10.000    2.286 
#    0.000    1.429    0.000    0.000    0.000    0.000 
#    0.000    0.000    0.000    0.000    0.000    0.000 
#
# Total GULP energy -77951.544321 kJ/mol
# GULP energy per Si atom -5567.967452 kJ/mol
# Density = 2.126413 g / cm^3
# Si number density = 21.312634 Si / 1000 Ang^3
#
#
#
# Elastic Constant Matrix: (Units=GPa)
#
#
# Indices 1 2 3 4 5 6 
#
# 1 75.9192 25.7656 50.6025 -6.4208 14.3204 1.3756
# 2 25.7656 94.3684 41.5595 2.1432 -12.4056 -8.6819
# 3 50.6025 41.5595 187.8465 19.5809 20.6983 -19.2670
# 4 -6.4208 2.1432 19.5809 45.8606 -8.7702 -4.6939
# 5 14.3204 -12.4056 20.6983 -8.7702 43.7491 -6.0999
# 6 1.3756 -8.6819 -19.2670 -4.6939 -6.0999 36.2233
#
#
#
# Elastic Compliance Matrix: (Units=1/GPa)
#
#
# Indices 1 2 3 4 5 6 
#
# 1 0.018949 -0.004480 -0.004320 0.003199 -0.005428 -0.004590
# 2 -0.004480 0.014250 -0.002570 0.001630 0.007566 0.003704
# 3 -0.004320 -0.002570 0.008202 -0.004417 -0.003702 0.002715
# 4 0.003199 0.001630 -0.004417 0.025646 0.006983 0.002419
# 5 -0.005428 0.007566 -0.003702 0.006983 0.030787 0.006140
# 6 -0.004590 0.003704 0.002715 0.002419 0.006140 0.031460
#
#
# Mechanical properties :
#
#
# Convention : Reuss Voigt Hill
#
# Bulk Modulus (GPa) = 53.58087 65.99883 59.78985
# Shear Modulus (GPa) = 31.59480 41.18037 36.38759
#
# Velocity S-wave (km/s) = 3.85443 4.40045 4.13646
# Velocity P-wave (km/s) = 6.70849 7.54008 7.13641
#
# Compressibility (1/GPa) = 0.01866338
#
# Stress axis : x y z
#
# Youngs Moduli (GPa) = 52.77327 70.17581 121.91492
#
# Poissons Ratio (x) = 0.31438 0.52662
# Poissons Ratio (y) = 0.23642 0.31327
# Poissons Ratio (z) = 0.22796 0.18032
#
# Static dielectric constant tensor:
#      x y z
#    x 1.791420 0.048020 0.016580 
#    y 0.048020 1.941510 0.086250 
#    z 0.016580 0.086250 1.905270 
# 
# From -- ./inp_files/209780.got.cif
#   From: 2010.05.17/outbox.cif.g08.bks.cpg/sg2_105_cif.got.tgz:209780.got - 2010.06.03 11:33:40.
