data_PCOD9046798
_publ_section_title
;
Structure prediction by ZEFSAII (Michael W. Deem and Ramdas Pophale) SiO2 
 PCOD9046798
Probable space group: P -1
;
_chemical_formula_sum "Si O2"
_cell_formula_units_Z 16
_cell_length_a 25.278722
_cell_length_b 16.695451
_cell_length_c 13.991669
_cell_angle_alpha 159.973535
_cell_angle_beta 157.286600
_cell_angle_gamma 22.970719
_cell_volume 712.651979
_symmetry_space_group_name_H-M "P -1"
_symmetry_group_IT_number 2
_symmetry_cell_setting 'triclinic'
loop_
_space_group_symop_operation_xyz
x,y,z
-x,-y,-z
loop_
_atom_site_type_symbol
_atom_site_label
_atom_site_fract_x
_atom_site_fract_y
_atom_site_fract_z
Si Si1 0.378339 0.288471 0.130695
Si Si2 0.914820 0.599142 0.117655
Si Si3 0.376364 0.030725 0.522125
Si Si4 0.407803 0.468046 0.173825
Si Si5 0.796867 0.630814 0.555727
Si Si6 0.385437 0.475299 0.705205
Si Si7 0.093147 0.775012 0.474576
Si Si8 0.838389 0.155905 0.949868
O O1 0.352980 0.409652 0.118951
O O2 0.452861 0.454721 0.496659
O O3 0.234328 0.282299 0.935863
O O4 0.500000 0.000000 0.000000
O O5 0.041062 0.393089 0.165704
O O6 0.992439 0.776871 0.401293
O O7 0.878454 0.473789 0.822451
O O8 0.313308 0.133790 0.427342
O O9 0.503479 0.745327 0.424373
O O10 0.229344 0.034474 0.333535
O O11 0.441425 0.220251 0.887491
O O12 0.272096 0.694028 0.150629
O O13 0.713610 0.630830 0.515447
O O14 0.827443 0.372149 0.253615
O O15 0.261096 0.729922 0.736320
O O16 0.500000 0.500000 0.000000
O O17 0.000000 0.000000 0.500000
O O18 0.000000 0.000000 0.000000
#
# Coordination Sequence:
#
# PCOD9046798 Si02
#       8
#     2   2   2   2   2   2   2   2
#     4  11  25  46  71  98 137 179 238 284 339 421
#     4  10  25  45  67 100 135 182 227 282 347 415
#     4  11  24  44  72  97 142 175 229 297 341 413
#     4  10  26  44  65 106 129 186 229 282 357 396
#     4  10  24  43  68 102 131 182 230 278 357 407
#     4  11  23  45  72 103 135 180 236 289 345 411
#     4  10  25  47  69 101 140 181 227 284 354 415
#     4  11  25  42  67 101 139 180 226 283 344 415
#
# _framework density 22.451352
#
# number of rings (size 3 to 8) (size 9 to 14) (size 15 to 20)
#    0.000    1.500    1.250    1.125   10.500    3.000 
#    6.750    0.000    0.000    0.000    0.000    0.000 
#    0.000    0.000    0.000    0.000    0.000    0.000 
#
# Total GULP energy -89415.303918 kJ/mol
# GULP energy per Si atom -5588.456495 kJ/mol
# Density = 2.240025 g / cm^3
# Si number density = 22.451352 Si / 1000 Ang^3
#
#
#
# Elastic Constant Matrix: (Units=GPa)
#
#
# Indices 1 2 3 4 5 6 
#
# 1 90.0312 37.2318 2.2688 -21.4984 11.7084 4.4978
# 2 37.2318 98.5359 19.5143 -29.5998 7.1959 2.4395
# 3 2.2688 19.5143 69.5131 -20.1246 -8.5063 1.4415
# 4 -21.4984 -29.5998 -20.1246 31.8702 3.7396 3.6826
# 5 11.7084 7.1959 -8.5063 3.7396 32.7085 -14.2262
# 6 4.4978 2.4395 1.4415 3.6826 -14.2262 46.5691
#
#
#
# Elastic Compliance Matrix: (Units=1/GPa)
#
#
# Indices 1 2 3 4 5 6 
#
# 1 0.016157 -0.002337 0.002703 0.011953 -0.008080 -0.004935
# 2 -0.002337 0.015843 -0.001113 0.013540 -0.005997 -0.003472
# 3 0.002703 -0.001113 0.018468 0.012317 0.002204 -0.001075
# 4 0.011953 0.013540 0.012317 0.063169 -0.016636 -0.012323
# 5 -0.008080 -0.005997 0.002204 -0.016636 0.044144 0.015827
# 6 -0.004935 -0.003472 -0.001075 -0.012323 0.015827 0.027975
#
#
# Mechanical properties :
#
#
# Convention : Reuss Voigt Hill
#
# Bulk Modulus (GPa) = 20.41920 41.79002 31.10461
# Shear Modulus (GPa) = 24.56081 35.50058 30.03069
#
# Velocity S-wave (km/s) = 3.31109 3.98077 3.66127
# Velocity P-wave (km/s) = 4.87159 6.30735 5.63538
#
# Compressibility (1/GPa) = 0.04897352
#
# Stress axis : x y z
#
# Youngs Moduli (GPa) = 61.89110 63.11748 54.14799
#
# Poissons Ratio (x) = 0.14753 -0.14637
# Poissons Ratio (y) = 0.14466 0.06028
# Poissons Ratio (z) = -0.16730 0.07027
#
# Static dielectric constant tensor:
#      x y z
#    x 1.842380 0.001710 -0.001950 
#    y 0.001710 1.885730 -0.025730 
#    z -0.001950 -0.025730 1.901360 
# 
# From -- ./inp_files/370458.got.cif
#   From: 2010.05.17/outbox.cif.g08.bks.cpg/sg2_186_cif.got.tgz:370458.got - 2010.06.03 11:33:40.
