data_PCOD9046085
_publ_section_title
;
Structure prediction by ZEFSAII (Michael W. Deem and Ramdas Pophale) SiO2 
 PCOD9046085
Probable space group: P -1
;
_chemical_formula_sum "Si O2"
_cell_formula_units_Z 14
_cell_length_a 6.598598
_cell_length_b 8.809802
_cell_length_c 9.812653
_cell_angle_alpha 89.842883
_cell_angle_beta 79.235427
_cell_angle_gamma 82.439848
_cell_volume 555.383604
_symmetry_space_group_name_H-M "P -1"
_symmetry_group_IT_number 2
_symmetry_cell_setting 'triclinic'
loop_
_space_group_symop_operation_xyz
x,y,z
-x,-y,-z
loop_
_atom_site_type_symbol
_atom_site_label
_atom_site_fract_x
_atom_site_fract_y
_atom_site_fract_z
Si Si1 0.806213 0.676751 0.850632
Si Si2 0.418248 0.519988 0.308553
Si Si3 0.936235 0.236771 0.628024
Si Si4 0.245538 0.263721 0.821944
Si Si5 0.265402 0.991682 0.489708
Si Si6 0.240600 0.738571 0.714436
Si Si7 0.464968 0.937795 0.855792
O O1 0.676573 0.545040 0.816496
O O2 0.682913 0.832337 0.799394
O O3 0.040902 0.655616 0.766790
O O4 0.800981 0.695677 0.014165
O O5 0.214172 0.613460 0.403076
O O6 0.589401 0.630285 0.253925
O O7 0.554772 0.373691 0.359286
O O8 0.790291 0.100809 0.637451
O O9 0.035336 0.270817 0.760246
O O10 0.137250 0.159668 0.519675
O O11 0.360896 0.090506 0.794781
O O12 0.195397 0.876764 0.614179
O O13 0.500000 0.000000 0.500000
O O14 0.302806 0.816996 0.847887
O O15 0.500000 0.000000 0.000000
#
# Coordination Sequence:
#
# PCOD9046085 Si02
#       7
#     2   2   2   2   2   2   2
#     4  10  24  42  67 103 144 188 219 275 344 406
#     4  11  25  42  68 104 143 181 222 277 344 409
#     4  11  25  42  73 101 130 181 227 285 341 397
#     4  11  22  42  68 106 142 180 231 274 334 413
#     4  11  26  49  71  98 132 179 236 289 340 405
#     4  11  24  46  67  99 141 177 230 283 339 409
#     4   9  21  38  65  99 134 180 226 278 328 400
#
# _framework density 25.207805
#
# number of rings (size 3 to 8) (size 9 to 14) (size 15 to 20)
#    0.000    1.429    1.429    2.143    2.000   12.000 
#    0.000    3.571    0.000    0.000    0.000    0.000 
#    0.000    0.000    0.000    0.000    0.000    0.000 
#
# Total GULP energy -78222.670241 kJ/mol
# GULP energy per Si atom -5587.333589 kJ/mol
# Density = 2.515043 g / cm^3
# Si number density = 25.207805 Si / 1000 Ang^3
#
#
#
# Elastic Constant Matrix: (Units=GPa)
#
#
# Indices 1 2 3 4 5 6 
#
# 1 198.2690 51.3632 48.9792 17.7988 21.6670 -7.9256
# 2 51.3632 97.1028 24.9272 28.8728 9.1496 -11.7095
# 3 48.9792 24.9272 73.7645 13.1193 20.0375 0.5588
# 4 17.7988 28.8728 13.1193 33.4298 3.0337 -6.1768
# 5 21.6670 9.1496 20.0375 3.0337 48.6129 18.5905
# 6 -7.9256 -11.7095 0.5588 -6.1768 18.5905 59.8514
#
#
#
# Elastic Compliance Matrix: (Units=1/GPa)
#
#
# Indices 1 2 3 4 5 6 
#
# 1 0.006674 -0.002503 -0.003204 0.000177 -0.001547 0.000923
# 2 -0.002503 0.015649 -0.001279 -0.011184 -0.001375 0.002015
# 3 -0.003204 -0.001279 0.018383 -0.003758 -0.005904 0.000600
# 4 0.000177 -0.011184 -0.003758 0.041317 0.000205 0.002071
# 5 -0.001547 -0.001375 -0.005904 0.000205 0.027339 -0.008889
# 6 0.000923 0.002015 0.000600 0.002071 -0.008889 0.020194
#
#
# Mechanical properties :
#
#
# Convention : Reuss Voigt Hill
#
# Bulk Modulus (GPa) = 37.40456 68.85284 53.12870
# Shear Modulus (GPa) = 32.80017 44.63660 38.71838
#
# Velocity S-wave (km/s) = 3.61112 4.21259 3.92339
# Velocity P-wave (km/s) = 5.67958 7.14385 6.45338
#
# Compressibility (1/GPa) = 0.02673471
#
# Stress axis : x y z
#
# Youngs Moduli (GPa) = 149.84523 63.90307 54.39687
#
# Poissons Ratio (x) = 0.15997 0.17427
# Poissons Ratio (y) = 0.37510 0.06955
# Poissons Ratio (z) = 0.48004 0.08171
#
# Static dielectric constant tensor:
#      x y z
#    x 1.982010 -0.022750 0.018820 
#    y -0.022750 1.982080 0.030190 
#    z 0.018820 0.030190 2.029680 
# 
# From -- ./inp_files/360821.got.cif
#   From: 2010.05.17/outbox.cif.g08.bks.cpg/sg2_181_cif.got.tgz:360821.got - 2010.06.03 11:33:40.
