data_PCOD9046954
_publ_section_title
;
Structure prediction by ZEFSAII (Michael W. Deem and Ramdas Pophale) SiO2 
 PCOD9046954
Probable space group: P -1
;
_chemical_formula_sum "Si O2"
_cell_formula_units_Z 16
_cell_length_a 11.842420
_cell_length_b 7.938999
_cell_length_c 16.243825
_cell_angle_alpha 99.869100
_cell_angle_beta 30.760234
_cell_angle_gamma 105.024248
_cell_volume 750.289545
_symmetry_space_group_name_H-M "P -1"
_symmetry_group_IT_number 2
_symmetry_cell_setting 'triclinic'
loop_
_space_group_symop_operation_xyz
x,y,z
-x,-y,-z
loop_
_atom_site_type_symbol
_atom_site_label
_atom_site_fract_x
_atom_site_fract_y
_atom_site_fract_z
Si Si1 0.285317 0.346584 0.438846
Si Si2 0.091783 0.152493 0.243902
Si Si3 0.773892 0.863841 0.157768
Si Si4 0.749269 0.929033 0.689347
Si Si5 0.883247 0.473141 0.661239
Si Si6 0.560041 0.793798 0.116526
Si Si7 0.540702 0.643329 0.412355
Si Si8 0.412630 0.074997 0.464893
O O1 0.331420 0.267386 0.314731
O O2 0.396506 0.541367 0.418433
O O3 0.367745 0.215865 0.438060
O O4 0.019746 0.344165 0.609470
O O5 0.212230 0.076091 0.238006
O O6 0.081428 0.345953 0.297604
O O7 0.244032 0.158539 0.069099
O O8 0.837720 0.045359 0.377863
O O9 0.672068 0.766113 0.130633
O O10 0.774444 0.732022 0.224163
O O11 0.592123 0.975416 0.307595
O O12 0.000000 0.000000 0.000000
O O13 0.581619 0.052278 0.778392
O O14 0.000000 0.000000 0.500000
O O15 0.623946 0.378367 0.807773
O O16 0.000000 0.500000 0.500000
O O17 0.500000 0.500000 0.500000
O O18 0.490088 0.810488 0.506392
#
# Coordination Sequence:
#
# PCOD9046954 Si02
#       8
#     2   2   2   2   2   2   2   2
#     4  11  21  39  69  98 130 178 230 273 339 408
#     4  12  24  39  68 103 138 177 228 286 346 416
#     4  12  25  44  71  99 136 186 235 288 349 417
#     4  12  20  41  68  97 136 186 228 271 341 419
#     4  12  22  39  66  98 134 178 222 279 348 414
#     4  12  25  41  62 102 143 176 227 287 349 416
#     4  10  24  43  69  98 132 178 235 288 337 406
#     4  11  22  45  70  95 130 184 235 282 347 416
#
# _framework density 21.325101
#
# number of rings (size 3 to 8) (size 9 to 14) (size 15 to 20)
#    0.000    0.500    5.000    4.125    0.000    1.000 
#    0.000    2.500    2.750    1.500    0.000    0.000 
#    0.000    0.000    0.000    0.000    0.000    0.000 
#
# Total GULP energy -89293.238006 kJ/mol
# GULP energy per Si atom -5580.827375 kJ/mol
# Density = 2.127656 g / cm^3
# Si number density = 21.325101 Si / 1000 Ang^3
#
#
#
# Elastic Constant Matrix: (Units=GPa)
#
#
# Indices 1 2 3 4 5 6 
#
# 1 85.1404 14.8633 31.3917 -8.7480 16.8548 5.7265
# 2 14.8633 102.6300 26.3659 -2.0725 -0.5427 30.0049
# 3 31.3917 26.3659 137.3927 -14.0916 13.5784 8.5109
# 4 -8.7480 -2.0725 -14.0916 33.4080 3.2183 0.6314
# 5 16.8548 -0.5427 13.5784 3.2183 38.3881 -4.1310
# 6 5.7265 30.0049 8.5109 0.6314 -4.1310 47.8036
#
#
#
# Elastic Compliance Matrix: (Units=1/GPa)
#
#
# Indices 1 2 3 4 5 6 
#
# 1 0.014316 -0.001168 -0.002030 0.003420 -0.005998 -0.001184
# 2 -0.001168 0.012511 -0.001750 -0.000180 0.000533 -0.007353
# 3 -0.002030 -0.001750 0.008694 0.003280 -0.002534 -0.000469
# 4 0.003420 -0.000180 0.003280 0.032775 -0.005606 -0.001798
# 5 -0.005998 0.000533 -0.002534 -0.005606 0.030438 0.003540
# 6 -0.001184 -0.007353 -0.000469 -0.001798 0.003540 0.026089
#
#
# Mechanical properties :
#
#
# Convention : Reuss Voigt Hill
#
# Bulk Modulus (GPa) = 39.02333 52.26722 45.64527
# Shear Modulus (GPa) = 34.90127 40.75609 37.82868
#
# Velocity S-wave (km/s) = 4.04992 4.37645 4.21634
# Velocity P-wave (km/s) = 6.34098 7.07818 6.71970
#
# Compressibility (1/GPa) = 0.02562569
#
# Stress axis : x y z
#
# Youngs Moduli (GPa) = 69.85088 79.92729 115.02414
#
# Poissons Ratio (x) = 0.09339 0.23348
# Poissons Ratio (y) = 0.08162 0.20125
# Poissons Ratio (z) = 0.14178 0.13984
#
# Static dielectric constant tensor:
#      x y z
#    x 1.847360 -0.017120 0.039020 
#    y -0.017120 1.811640 -0.050030 
#    z 0.039020 -0.050030 1.717430 
# 
# From -- ./inp_files/345208.got.cif
#   From: 2010.05.17/outbox.cif.g08.bks.cpg/sg2_173_cif.got.tgz:345208.got - 2010.06.03 11:33:40.
