data_PCOD9046466
_publ_section_title
;
Structure prediction by ZEFSAII (Michael W. Deem and Ramdas Pophale) SiO2 
 PCOD9046466
Probable space group: P -1
;
_chemical_formula_sum "Si O2"
_cell_formula_units_Z 16
_cell_length_a 8.818758
_cell_length_b 18.397708
_cell_length_c 12.025659
_cell_angle_alpha 32.200708
_cell_angle_beta 63.226242
_cell_angle_gamma 45.950064
_cell_volume 697.183248
_symmetry_space_group_name_H-M "P -1"
_symmetry_group_IT_number 2
_symmetry_cell_setting 'triclinic'
loop_
_space_group_symop_operation_xyz
x,y,z
-x,-y,-z
loop_
_atom_site_type_symbol
_atom_site_label
_atom_site_fract_x
_atom_site_fract_y
_atom_site_fract_z
Si Si1 0.655687 0.068868 0.659999
Si Si2 0.774121 0.083719 0.032924
Si Si3 0.592580 0.454776 0.720547
Si Si4 0.016455 0.350438 0.845543
Si Si5 0.313503 0.634117 0.791860
Si Si6 0.461478 0.977508 0.668221
Si Si7 0.453307 0.240645 0.742992
Si Si8 0.052460 0.387384 0.018185
O O1 0.715767 0.188897 0.444682
O O2 0.534572 0.145399 0.720290
O O3 0.500393 0.085134 0.595614
O O4 0.862659 0.854777 0.889381
O O5 0.679632 0.273960 0.867875
O O6 0.607639 0.106515 0.966447
O O7 0.763328 0.983224 0.269929
O O8 0.000000 0.000000 0.000000
O O9 0.409698 0.524335 0.786205
O O10 0.510569 0.615417 0.456288
O O11 0.795906 0.423401 0.758707
O O12 0.199731 0.330639 0.736246
O O13 0.963600 0.470504 0.816264
O O14 0.075582 0.688127 0.822400
O O15 0.500000 0.500000 0.000000
O O16 0.679161 0.764754 0.890728
O O17 0.500000 0.000000 0.500000
O O18 0.000000 0.500000 0.000000
#
# Coordination Sequence:
#
# PCOD9046466 Si02
#       8
#     2   2   2   2   2   2   2   2
#     4  10  24  42  73  95 138 179 233 281 345 416
#     4  12  26  46  70 104 140 184 232 296 345 413
#     4  11  25  41  70  99 138 175 231 289 340 415
#     4  11  22  43  68  98 132 183 226 282 343 413
#     4  11  24  43  68 101 134 181 227 280 344 411
#     4  11  27  45  69 105 138 185 232 288 353 412
#     4  11  23  45  68  99 135 181 233 282 352 407
#     4  11  24  43  68  96 138 182 223 281 343 411
#
# _framework density 22.949490999999998
#
# number of rings (size 3 to 8) (size 9 to 14) (size 15 to 20)
#    0.000    1.000    3.750    2.625    5.250    5.000 
#    2.250    0.000    0.000    0.000    0.000    0.000 
#    0.000    0.000    0.000    0.000    0.000    0.000 
#
# Total GULP energy -89454.598887 kJ/mol
# GULP energy per Si atom -5590.912430 kJ/mol
# Density = 2.289726 g / cm^3
# Si number density = 22.949491 Si / 1000 Ang^3
#
#
#
# Elastic Constant Matrix: (Units=GPa)
#
#
# Indices 1 2 3 4 5 6 
#
# 1 66.1431 38.4006 3.9159 15.7098 -7.3541 9.8621
# 2 38.4006 152.1270 36.8370 20.4927 -28.0734 7.1665
# 3 3.9159 36.8370 78.8333 18.3896 -8.6773 8.9419
# 4 15.7098 20.4927 18.3896 43.2886 -0.0269 -9.0849
# 5 -7.3541 -28.0734 -8.6773 -0.0269 32.9380 3.2205
# 6 9.8621 7.1665 8.9419 -9.0849 3.2205 52.5178
#
#
#
# Elastic Compliance Matrix: (Units=1/GPa)
#
#
# Indices 1 2 3 4 5 6 
#
# 1 0.020375 -0.004253 0.003753 -0.008115 0.002439 -0.005438
# 2 -0.004253 0.009969 -0.003142 -0.002002 0.006795 -0.000790
# 3 0.003753 -0.003142 0.016680 -0.007939 0.003005 -0.004674
# 4 -0.008115 -0.002002 -0.007939 0.032279 -0.006477 0.009130
# 5 0.002439 0.006795 0.003005 -0.006477 0.038005 -0.005348
# 6 -0.005438 -0.000790 -0.004674 0.009130 -0.005348 0.022873
#
#
# Mechanical properties :
#
#
# Convention : Reuss Voigt Hill
#
# Bulk Modulus (GPa) = 25.16327 50.60113 37.88220
# Shear Modulus (GPa) = 31.11195 40.27886 35.69540
#
# Velocity S-wave (km/s) = 3.68594 4.19395 3.94812
# Velocity P-wave (km/s) = 5.39475 6.74900 6.10951
#
# Compressibility (1/GPa) = 0.03974046
#
# Stress axis : x y z
#
# Youngs Moduli (GPa) = 49.07983 100.31444 59.95297
#
# Poissons Ratio (x) = 0.42660 -0.22503
# Poissons Ratio (y) = 0.20872 0.18839
# Poissons Ratio (z) = -0.18422 0.31522
#
# Static dielectric constant tensor:
#      x y z
#    x 1.845880 0.021060 0.045360 
#    y 0.021060 1.873920 0.054430 
#    z 0.045360 0.054430 2.014090 
# 
# From -- ./inp_files/402658.got.cif
#   From: 2010.05.17/outbox.cif.g08.bks.cpg/sg2_202_cif.got.tgz:402658.got - 2010.06.03 11:33:40.
