data_PCOD9046106
_publ_section_title
;
Structure prediction by ZEFSAII (Michael W. Deem and Ramdas Pophale) SiO2 
 PCOD9046106
Probable space group: P -1
;
_chemical_formula_sum "Si O2"
_cell_formula_units_Z 16
_cell_length_a 12.521766
_cell_length_b 21.617427
_cell_length_c 5.601110
_cell_angle_alpha 119.799508
_cell_angle_beta 76.891805
_cell_angle_gamma 145.908383
_cell_volume 682.178892
_symmetry_space_group_name_H-M "P -1"
_symmetry_group_IT_number 2
_symmetry_cell_setting 'triclinic'
loop_
_space_group_symop_operation_xyz
x,y,z
-x,-y,-z
loop_
_atom_site_type_symbol
_atom_site_label
_atom_site_fract_x
_atom_site_fract_y
_atom_site_fract_z
Si Si1 0.761649 0.735028 0.136357
Si Si2 0.432619 0.023181 0.887376
Si Si3 0.232556 0.420520 0.213308
Si Si4 0.825744 0.220755 0.775982
Si Si5 0.787789 0.513995 0.139452
Si Si6 0.212818 0.142384 0.285113
Si Si7 0.769589 0.980376 0.657610
Si Si8 0.454378 0.242962 0.936374
O O1 0.774593 0.769458 0.470359
O O2 0.650580 0.737112 0.050366
O O3 0.679868 0.611143 0.898359
O O4 0.001855 0.866395 0.195139
O O5 0.633501 0.149778 0.869936
O O6 0.263256 0.894151 0.551937
O O7 0.344055 0.037564 0.119346
O O8 0.500000 0.000000 0.000000
O O9 0.252011 0.465660 0.552070
O O10 0.305067 0.502390 0.091503
O O11 0.987547 0.283265 0.013221
O O12 0.968766 0.348172 0.777712
O O13 0.680909 0.379170 0.978179
O O14 0.208321 0.089882 0.414955
O O15 0.414568 0.230359 0.211460
O O16 0.000000 0.000000 0.000000
O O17 0.633817 0.885204 0.315138
#
# Coordination Sequence:
#
# PCOD9046106 Si02
#       8
#     2   2   2   2   2   2   2   2
#     4  11  22  37  61  94 130 171 225 278 325 386
#     4  11  22  40  70 100 130 162 220 281 343 390
#     4  10  24  42  67  94 133 175 224 274 330 383
#     4   9  22  40  65  96 129 165 210 282 331 392
#     4  10  24  43  64  95 136 182 220 271 327 396
#     4  11  21  37  58  88 133 174 216 268 317 395
#     4  11  23  38  62  99 129 169 222 273 339 388
#     4  11  24  40  61  90 134 183 221 265 328 399
#
# _framework density 23.454257999999999
#
# number of rings (size 3 to 8) (size 9 to 14) (size 15 to 20)
#    0.750    0.750    2.500    3.000    7.000    3.000 
#    0.000    0.625    0.000    2.250    0.000    0.000 
#    0.000    0.000    0.000    0.000    0.000    0.000 
#
# Total GULP energy -89148.784296 kJ/mol
# GULP energy per Si atom -5571.799018 kJ/mol
# Density = 2.340088 g / cm^3
# Si number density = 23.454258 Si / 1000 Ang^3
#
#
#
# Elastic Constant Matrix: (Units=GPa)
#
#
# Indices 1 2 3 4 5 6 
#
# 1 45.8794 4.1423 23.8021 3.5945 9.3735 9.0114
# 2 4.1423 130.0815 19.7704 -8.6153 -6.6280 15.6718
# 3 23.8021 19.7704 118.2976 -23.0737 -5.0239 17.6319
# 4 3.5945 -8.6153 -23.0737 35.1785 6.3777 2.5809
# 5 9.3735 -6.6280 -5.0239 6.3777 19.2662 -9.0133
# 6 9.0114 15.6718 17.6319 2.5809 -9.0133 28.3122
#
#
#
# Elastic Compliance Matrix: (Units=1/GPa)
#
#
# Indices 1 2 3 4 5 6 
#
# 1 0.032427 0.000241 -0.005814 -0.001837 -0.023172 -0.014043
# 2 0.000241 0.008446 -0.000308 0.002256 -0.000315 -0.004866
# 3 -0.005814 -0.000308 0.012450 0.009203 -0.000178 -0.006628
# 4 -0.001837 0.002256 0.009203 0.039197 -0.015944 -0.015045
# 5 -0.023172 -0.000315 -0.000178 -0.015944 0.085264 0.036258
# 6 -0.014043 -0.004866 -0.006628 -0.015045 0.036258 0.059526
#
#
# Mechanical properties :
#
#
# Convention : Reuss Voigt Hill
#
# Bulk Modulus (GPa) = 24.06140 43.29866 33.68003
# Shear Modulus (GPa) = 19.01674 32.98765 26.00219
#
# Velocity S-wave (km/s) = 2.85055 3.75436 3.33323
# Velocity P-wave (km/s) = 4.59514 6.10693 5.40416
#
# Compressibility (1/GPa) = 0.04156035
#
# Stress axis : x y z
#
# Youngs Moduli (GPa) = 30.83836 118.39582 80.32175
#
# Poissons Ratio (x) = -0.02848 0.46699
# Poissons Ratio (y) = -0.00742 0.02475
# Poissons Ratio (z) = 0.17929 0.03648
#
# Static dielectric constant tensor:
#      x y z
#    x 1.876490 -0.027260 -0.028380 
#    y -0.027260 1.914410 -0.081560 
#    z -0.028380 -0.081560 1.764760 
# 
# From -- ./inp_files/100967.got.cif
#   From: 2010.05.17/outbox.cif.g08.bks.cpg/sg2_51_cif.got.tgz:100967.got - 2010.06.03 11:33:40.
