data_PCOD9046068
_publ_section_title
;
Structure prediction by ZEFSAII (Michael W. Deem and Ramdas Pophale) SiO2 
 PCOD9046068
Probable space group: P -1
;
_chemical_formula_sum "Si O2"
_cell_formula_units_Z 15
_cell_length_a 15.548267
_cell_length_b 8.095852
_cell_length_c 12.247158
_cell_angle_alpha 109.582448
_cell_angle_beta 50.229161
_cell_angle_gamma 67.094820
_cell_volume 616.736015
_symmetry_space_group_name_H-M "P -1"
_symmetry_group_IT_number 2
_symmetry_cell_setting 'triclinic'
loop_
_space_group_symop_operation_xyz
x,y,z
-x,-y,-z
loop_
_atom_site_type_symbol
_atom_site_label
_atom_site_fract_x
_atom_site_fract_y
_atom_site_fract_z
Si Si1 0.622960 0.293937 0.463060
Si Si2 0.823344 0.686440 0.772639
Si Si3 0.576241 0.713949 0.673587
Si Si4 0.770972 0.342252 0.733173
Si Si5 0.854752 0.649374 0.390206
Si Si6 0.445296 0.637355 0.229886
Si Si7 0.000000 0.500000 0.000000
Si Si8 0.664349 0.866004 0.257041
O O1 0.500000 0.500000 0.500000
O O2 0.700974 0.381231 0.456187
O O3 0.497379 0.415701 0.701189
O O4 0.744964 0.953187 0.264947
O O5 0.757929 0.568958 0.792267
O O6 0.000000 0.500000 0.500000
O O7 0.938148 0.580858 0.768065
O O8 0.608279 0.069101 0.041594
O O9 0.737481 0.651920 0.553030
O O10 0.449259 0.950438 0.722218
O O11 0.683783 0.365122 0.700321
O O12 0.637838 0.422463 0.952134
O O13 0.000000 0.000000 0.500000
O O14 0.709666 0.005029 0.591649
O O15 0.887559 0.561381 0.217943
O O16 0.116301 0.502791 0.988807
O O17 0.500000 0.000000 0.500000
#
# Coordination Sequence:
#
# PCOD9046068 Si02
#       8
#     2   2   2   2   2   2   1   2
#     4  10  24  42  67 101 134 175 218 272 348 403
#     4  12  28  44  67 101 137 179 231 280 341 406
#     4  11  24  44  63  95 143 174 217 278 347 397
#     4  11  25  44  69 103 131 178 237 285 332 401
#     4  12  24  44  71  99 130 186 224 277 342 407
#     4  11  23  45  72  97 138 178 231 279 338 403
#     4  12  22  38  74 104 124 166 240 266 328 412
#     4  11  21  42  69  99 130 172 218 279 335 401
#
# _framework density 24.321591000000002
#
# number of rings (size 3 to 8) (size 9 to 14) (size 15 to 20)
#    0.000    0.800    6.667    0.000    3.733    0.533 
#    0.000    2.000    0.000    0.000    0.000    0.000 
#    0.000    0.000    0.000    0.000    0.000    0.000 
#
# Total GULP energy -83544.647040 kJ/mol
# GULP energy per Si atom -5569.643136 kJ/mol
# Density = 2.426623 g / cm^3
# Si number density = 24.321591 Si / 1000 Ang^3
#
#
#
# Elastic Constant Matrix: (Units=GPa)
#
#
# Indices 1 2 3 4 5 6 
#
# 1 133.5765 38.0448 43.0927 2.1236 -9.5924 8.6310
# 2 38.0448 66.1610 15.1920 9.5166 -2.4415 -2.3524
# 3 43.0927 15.1920 126.9946 3.2005 -19.0642 -4.4843
# 4 2.1236 9.5166 3.2005 32.3561 4.1258 9.9898
# 5 -9.5924 -2.4415 -19.0642 4.1258 39.7520 -6.4577
# 6 8.6310 -2.3524 -4.4843 9.9898 -6.4577 47.4756
#
#
#
# Elastic Compliance Matrix: (Units=1/GPa)
#
#
# Indices 1 2 3 4 5 6 
#
# 1 0.010177 -0.005587 -0.002937 0.002144 0.000018 -0.002853
# 2 -0.005587 0.019433 0.000028 -0.006580 0.001113 0.003517
# 3 -0.002937 0.000028 0.009697 -0.002137 0.004575 0.002523
# 4 0.002144 -0.006580 -0.002137 0.036635 -0.006254 -0.009477
# 5 0.000018 0.001113 0.004575 -0.006254 0.029005 0.005745
# 6 -0.002853 0.003517 0.002523 -0.009477 0.005745 0.024770
#
#
# Mechanical properties :
#
#
# Convention : Reuss Voigt Hill
#
# Bulk Modulus (GPa) = 44.81066 57.71012 51.26039
# Shear Modulus (GPa) = 32.43635 39.27693 35.85664
#
# Velocity S-wave (km/s) = 3.65587 4.02294 3.84379
# Velocity P-wave (km/s) = 6.02368 6.73485 6.38917
#
# Compressibility (1/GPa) = 0.02231612
#
# Stress axis : x y z
#
# Youngs Moduli (GPa) = 98.26513 51.45819 103.12048
#
# Poissons Ratio (x) = 0.28748 0.30286
# Poissons Ratio (y) = 0.54898 -0.00290
# Poissons Ratio (z) = 0.28860 -0.00144
#
# Static dielectric constant tensor:
#      x y z
#    x 2.027390 -0.100250 -0.072330 
#    y -0.100250 2.423470 0.225760 
#    z -0.072330 0.225760 2.300800 
# 
# From -- ./inp_files/446234.got.cif
#   From: 2010.05.17/outbox.cif.g08.bks.cpg/sg2_224_cif.got.tgz:446234.got - 2010.06.03 11:33:40.
