data_PCOD9046709
_publ_section_title
;
Structure prediction by ZEFSAII (Michael W. Deem and Ramdas Pophale) SiO2 
 PCOD9046709
Probable space group: P -1
;
_chemical_formula_sum "Si O2"
_cell_formula_units_Z 16
_cell_length_a 14.993584
_cell_length_b 20.966188
_cell_length_c 8.069319
_cell_angle_alpha 116.211005
_cell_angle_beta 71.831318
_cell_angle_gamma 163.002874
_cell_volume 603.262318
_symmetry_space_group_name_H-M "P -1"
_symmetry_group_IT_number 2
_symmetry_cell_setting 'triclinic'
loop_
_space_group_symop_operation_xyz
x,y,z
-x,-y,-z
loop_
_atom_site_type_symbol
_atom_site_label
_atom_site_fract_x
_atom_site_fract_y
_atom_site_fract_z
Si Si1 0.461472 0.150778 0.157649
Si Si2 0.278175 0.512514 0.679530
Si Si3 0.112058 0.143347 0.218957
Si Si4 0.416617 0.007722 0.445349
Si Si5 0.138517 0.387470 0.245649
Si Si6 0.250949 0.037974 0.521836
Si Si7 0.193629 0.726978 0.806544
Si Si8 0.529826 0.546085 0.223638
O O1 0.536346 0.277599 0.164035
O O2 0.773701 0.322128 0.168082
O O3 0.417167 0.147491 0.368641
O O4 0.142758 0.871464 0.961836
O O5 0.544929 0.642861 0.665497
O O6 0.088140 0.369991 0.447824
O O7 0.971903 0.285840 0.727087
O O8 0.227743 0.295662 0.222269
O O9 0.818013 0.949412 0.292505
O O10 0.000000 0.000000 0.000000
O O11 0.381322 0.064735 0.582781
O O12 0.500000 0.000000 0.500000
O O13 0.690590 0.207766 0.371187
O O14 0.489688 0.601402 0.292192
O O15 0.120584 0.448548 0.225527
O O16 0.861598 0.756451 0.355987
O O17 0.500000 0.000000 0.000000
O O18 0.500000 0.500000 0.000000
#
# Coordination Sequence:
#
# PCOD9046709 Si02
#       8
#     2   2   2   2   2   2   2   2
#     4  10  24  43  67 103 140 178 234 282 336 418
#     4  12  24  42  71  99 138 181 230 283 349 402
#     4  12  27  43  66 102 142 173 231 290 336 415
#     4  11  22  42  70  98 132 182 228 282 343 408
#     4  11  21  41  69  98 135 183 226 279 345 401
#     4  11  23  46  67  96 140 180 228 280 344 414
#     4   9  21  41  66  95 138 176 227 285 334 404
#     4  12  23  41  70  97 130 181 225 275 348 408
#
# _framework density 26.522458
#
# number of rings (size 3 to 8) (size 9 to 14) (size 15 to 20)
#    0.000    1.000    5.000    1.875    0.000    2.000 
#    0.000    2.500    0.000    0.000    0.000    0.000 
#    0.000    0.000    0.000    0.000    0.000    0.000 
#
# Total GULP energy -89317.936004 kJ/mol
# GULP energy per Si atom -5582.371000 kJ/mol
# Density = 2.646209 g / cm^3
# Si number density = 26.522458 Si / 1000 Ang^3
#
#
#
# Elastic Constant Matrix: (Units=GPa)
#
#
# Indices 1 2 3 4 5 6 
#
# 1 216.4124 48.8190 5.7478 -9.9188 -9.6695 31.6339
# 2 48.8190 89.7649 6.0326 -6.5950 -10.3838 14.6129
# 3 5.7478 6.0326 120.6569 -3.3300 -11.5657 5.7266
# 4 -9.9188 -6.5950 -3.3300 15.1414 -1.4127 -7.3595
# 5 -9.6695 -10.3838 -11.5657 -1.4127 34.2460 4.2324
# 6 31.6339 14.6129 5.7266 -7.3595 4.2324 55.8514
#
#
#
# Elastic Compliance Matrix: (Units=1/GPa)
#
#
# Indices 1 2 3 4 5 6 
#
# 1 0.005654 -0.002416 0.000136 0.001600 0.001281 -0.002470
# 2 -0.002416 0.013484 0.000000 0.003692 0.003801 -0.001961
# 3 0.000136 0.000000 0.008681 0.001824 0.003165 -0.000967
# 4 0.001600 0.003692 0.001824 0.073021 0.004305 0.007236
# 5 0.001281 0.003801 0.003165 0.004305 0.032448 -0.003936
# 6 -0.002470 -0.001961 -0.000967 0.007236 -0.003936 0.021168
#
#
# Mechanical properties :
#
#
# Convention : Reuss Voigt Hill
#
# Bulk Modulus (GPa) = 42.99421 60.89255 51.94338
# Shear Modulus (GPa) = 29.98160 45.46340 37.72250
#
# Velocity S-wave (km/s) = 3.36582 4.14472 3.77541
# Velocity P-wave (km/s) = 5.59917 6.77596 6.21548
#
# Compressibility (1/GPa) = 0.02325895
#
# Stress axis : x y z
#
# Youngs Moduli (GPa) = 176.86881 74.15947 115.19318
#
# Poissons Ratio (x) = 0.17918 -0.01563
# Poissons Ratio (y) = 0.42734 -0.00003
# Poissons Ratio (z) = -0.02399 -0.00002
#
# Static dielectric constant tensor:
#      x y z
#    x 2.004890 0.181220 0.138240 
#    y 0.181220 1.786440 -0.119800 
#    z 0.138240 -0.119800 2.091510 
# 
# From -- ./inp_files/319431.got.cif
#   From: 2010.05.17/outbox.cif.g08.bks.cpg/sg2_160_cif.got.tgz:319431.got - 2010.06.03 11:33:40.
