data_PCOD9046852
_publ_section_title
;
Structure prediction by ZEFSAII (Michael W. Deem and Ramdas Pophale) SiO2 
 PCOD9046852
Probable space group: P -1
;
_chemical_formula_sum "Si O2"
_cell_formula_units_Z 16
_cell_length_a 9.102092
_cell_length_b 18.159642
_cell_length_c 12.490997
_cell_angle_alpha 41.088595
_cell_angle_beta 142.002090
_cell_angle_gamma 138.794311
_cell_volume 768.686123
_symmetry_space_group_name_H-M "P -1"
_symmetry_group_IT_number 2
_symmetry_cell_setting 'triclinic'
loop_
_space_group_symop_operation_xyz
x,y,z
-x,-y,-z
loop_
_atom_site_type_symbol
_atom_site_label
_atom_site_fract_x
_atom_site_fract_y
_atom_site_fract_z
Si Si1 0.392171 0.529039 0.018552
Si Si2 0.950390 0.285374 0.080086
Si Si3 0.145482 0.255349 0.670451
Si Si4 0.217745 0.493988 0.552719
Si Si5 0.512883 0.258706 0.693314
Si Si6 0.251554 0.119695 0.487017
Si Si7 0.435276 0.756795 0.911305
Si Si8 0.386359 0.967716 0.353148
O O1 0.562740 0.510530 0.234609
O O2 0.107464 0.425860 0.986080
O O3 0.500000 0.500000 0.000000
O O4 0.402622 0.665700 0.892521
O O5 0.830661 0.272373 0.144658
O O6 0.146630 0.216520 0.269891
O O7 0.714404 0.232549 0.917086
O O8 0.094330 0.374913 0.537982
O O9 0.265809 0.255334 0.623382
O O10 0.902925 0.132782 0.692658
O O11 0.378319 0.268876 0.869214
O O12 0.339141 0.610032 0.419196
O O13 0.000000 0.500000 0.500000
O O14 0.406481 0.168082 0.632779
O O15 0.441064 0.087596 0.553290
O O16 0.000000 0.000000 0.500000
O O17 0.572738 0.900307 0.812911
O O18 0.500000 0.000000 0.500000
#
# Coordination Sequence:
#
# PCOD9046852 Si02
#       8
#     2   2   2   2   2   2   2   2
#     4  11  24  41  69 103 136 175 227 286 336 405
#     4  11  24  46  71 102 135 178 228 281 344 400
#     4  10  24  43  68  97 134 181 227 276 343 409
#     4  11  22  42  67 100 140 176 227 285 340 400
#     4  11  24  45  71 101 134 183 224 284 343 400
#     4  12  25  47  70 102 139 177 233 278 336 413
#     4  10  24  46  66  97 138 179 225 280 340 406
#     4  12  26  43  67  98 138 182 221 282 341 406
#
# _framework density 20.814737000000001
#
# number of rings (size 3 to 8) (size 9 to 14) (size 15 to 20)
#    0.000    1.000    2.500    3.375    1.750    2.500 
#    2.250    0.000    0.000    0.000    0.000    0.000 
#    0.000    0.000    0.000    0.000    0.000    0.000 
#
# Total GULP energy -89431.155992 kJ/mol
# GULP energy per Si atom -5589.447249 kJ/mol
# Density = 2.076736 g / cm^3
# Si number density = 20.814737 Si / 1000 Ang^3
#
#
#
# Elastic Constant Matrix: (Units=GPa)
#
#
# Indices 1 2 3 4 5 6 
#
# 1 167.7772 66.1582 24.0028 -12.5967 -3.9303 -16.4895
# 2 66.1582 133.6744 14.1775 -10.8493 0.7820 -9.0940
# 3 24.0028 14.1775 57.4148 6.3866 0.1166 -18.0586
# 4 -12.5967 -10.8493 6.3866 36.6023 -1.9519 -9.2095
# 5 -3.9303 0.7820 0.1166 -1.9519 27.7116 -0.9407
# 6 -16.4895 -9.0940 -18.0586 -9.2095 -0.9407 48.6338
#
#
#
# Elastic Compliance Matrix: (Units=1/GPa)
#
#
# Indices 1 2 3 4 5 6 
#
# 1 0.008039 -0.003409 -0.002258 0.002679 0.001495 0.001786
# 2 -0.003409 0.009468 -0.000930 0.001920 -0.000590 0.000622
# 3 -0.002258 -0.000930 0.020897 -0.003156 -0.000393 0.006215
# 4 0.002679 0.001920 -0.003156 0.031024 0.002729 0.006023
# 5 0.001495 -0.000590 -0.000393 0.002729 0.036559 0.001474
# 6 0.001786 0.000622 0.006215 0.006023 0.001474 0.024760
#
#
# Mechanical properties :
#
#
# Convention : Reuss Voigt Hill
#
# Bulk Modulus (GPa) = 39.66589 63.06040 51.36314
# Shear Modulus (GPa) = 32.82003 39.55807 36.18905
#
# Velocity S-wave (km/s) = 3.97516 4.36418 4.17421
# Velocity P-wave (km/s) = 6.33776 7.46703 6.92545
#
# Compressibility (1/GPa) = 0.02521058
#
# Stress axis : x y z
#
# Youngs Moduli (GPa) = 124.38714 105.61550 47.85272
#
# Poissons Ratio (x) = 0.36005 0.10807
# Poissons Ratio (y) = 0.42405 0.04449
# Poissons Ratio (z) = 0.28093 0.09819
#
# Static dielectric constant tensor:
#      x y z
#    x 1.699760 -0.005960 0.031280 
#    y -0.005960 1.538550 0.059020 
#    z 0.031280 0.059020 1.736720 
# 
# From -- ./inp_files/280057.got.cif
#   From: 2010.05.17/outbox.cif.g08.bks.cpg/sg2_141_cif.got.tgz:280057.got - 2010.06.03 11:33:40.
