data_PCOD9046066
_publ_section_title
;
Structure prediction by ZEFSAII (Michael W. Deem and Ramdas Pophale) SiO2 
 PCOD9046066
Probable space group: P -1
;
_chemical_formula_sum "Si O2"
_cell_formula_units_Z 14
_cell_length_a 14.426952
_cell_length_b 12.484840
_cell_length_c 5.340684
_cell_angle_alpha 78.199766
_cell_angle_beta 92.057538
_cell_angle_gamma 142.745416
_cell_volume 556.801800
_symmetry_space_group_name_H-M "P -1"
_symmetry_group_IT_number 2
_symmetry_cell_setting 'triclinic'
loop_
_space_group_symop_operation_xyz
x,y,z
-x,-y,-z
loop_
_atom_site_type_symbol
_atom_site_label
_atom_site_fract_x
_atom_site_fract_y
_atom_site_fract_z
Si Si1 0.969139 0.639395 0.762688
Si Si2 0.208296 0.394331 0.560764
Si Si3 0.273735 0.836055 0.567626
Si Si4 0.671086 0.351313 0.185970
Si Si5 0.393475 0.395526 0.286197
Si Si6 0.084251 0.971933 0.425362
Si Si7 0.586207 0.965750 0.016490
O O1 0.092227 0.662852 0.711669
O O2 0.847764 0.540045 0.570790
O O3 0.059287 0.841925 0.661049
O O4 0.850570 0.517986 0.034147
O O5 0.338364 0.548905 0.698477
O O6 0.280009 0.391685 0.343341
O O7 0.042823 0.182044 0.732712
O O8 0.351361 0.789724 0.621744
O O9 0.289276 0.901898 0.261184
O O10 0.347510 0.982887 0.724150
O O11 0.545110 0.239295 0.004521
O O12 0.500000 0.500000 0.500000
O O13 0.266205 0.176607 0.329788
O O14 0.500000 0.500000 0.000000
O O15 0.000000 0.000000 0.500000
O O16 0.500000 0.000000 0.000000
#
# Coordination Sequence:
#
# PCOD9046066 Si02
#       7
#     2   2   2   2   2   2   2
#     4  10  24  42  67 100 134 183 234 275 347 404
#     4   9  24  43  67  99 137 181 225 276 361 396
#     4  11  25  43  68 102 140 189 235 282 336 408
#     4  11  23  41  70  97 143 183 231 287 338 415
#     4  11  25  47  74 103 134 175 229 290 346 417
#     4   8  20  46  65  94 133 174 219 280 345 407
#     4  10  24  44  66  94 142 191 230 281 349 390
#
# _framework density 25.143598000000001
#
# number of rings (size 3 to 8) (size 9 to 14) (size 15 to 20)
#    0.857    1.143    0.000    2.143   10.000    2.857 
#    0.000    3.571    0.000    0.000    0.000    0.000 
#    0.000    0.000    0.000    0.000    0.000    0.000 
#
# Total GULP energy -77978.417669 kJ/mol
# GULP energy per Si atom -5569.886976 kJ/mol
# Density = 2.508637 g / cm^3
# Si number density = 25.143598 Si / 1000 Ang^3
#
#
#
# Elastic Constant Matrix: (Units=GPa)
#
#
# Indices 1 2 3 4 5 6 
#
# 1 63.7976 11.7537 14.3171 3.2183 0.4261 10.4140
# 2 11.7537 182.1121 71.1780 1.5069 -4.8355 -13.7164
# 3 14.3171 71.1780 147.9262 -8.9449 -20.7420 -2.5919
# 4 3.2183 1.5069 -8.9449 56.7234 -1.4370 -4.0099
# 5 0.4261 -4.8355 -20.7420 -1.4370 20.5810 -7.7649
# 6 10.4140 -13.7164 -2.5919 -4.0099 -7.7649 32.6481
#
#
#
# Elastic Compliance Matrix: (Units=1/GPa)
#
#
# Indices 1 2 3 4 5 6 
#
# 1 0.017845 -0.000966 -0.002396 -0.002088 -0.006180 -0.008014
# 2 -0.000966 0.007073 -0.003392 -0.000490 -0.000723 0.002778
# 3 -0.002396 -0.003392 0.010367 0.002357 0.011024 0.003073
# 4 -0.002088 -0.000490 0.002357 0.018557 0.005167 0.004155
# 5 -0.006180 -0.000723 0.011024 0.005167 0.067251 0.019172
# 6 -0.008014 0.002778 0.003073 0.004155 0.019172 0.039667
#
#
# Mechanical properties :
#
#
# Convention : Reuss Voigt Hill
#
# Bulk Modulus (GPa) = 45.91964 65.37038 55.64501
# Shear Modulus (GPa) = 27.54401 41.76299 34.65350
#
# Velocity S-wave (km/s) = 3.31338 4.07993 3.71647
# Velocity P-wave (km/s) = 5.73939 6.94620 6.37143
#
# Compressibility (1/GPa) = 0.02177717
#
# Stress axis : x y z
#
# Youngs Moduli (GPa) = 56.03823 141.37284 96.46430
#
# Poissons Ratio (x) = 0.13655 0.23109
# Poissons Ratio (y) = 0.05412 0.32725
# Poissons Ratio (z) = 0.13425 0.47960
#
# Static dielectric constant tensor:
#      x y z
#    x 1.984310 0.030510 0.037400 
#    y 0.030510 2.130650 0.014780 
#    z 0.037400 0.014780 2.057570 
# 
# From -- ./inp_files/110875.got.cif
#   From: 2010.05.17/outbox.cif.g08.bks.cpg/sg2_56_cif.got.tgz:110875.got - 2010.06.03 11:33:40.
