data_PCOD9046981
_publ_section_title
;
Structure prediction by ZEFSAII (Michael W. Deem and Ramdas Pophale) SiO2 
 PCOD9046981
Probable space group: P -1
;
_chemical_formula_sum "Si O2"
_cell_formula_units_Z 12
_cell_length_a 25.530154
_cell_length_b 5.965091
_cell_length_c 15.892974
_cell_angle_alpha 133.604246
_cell_angle_beta 163.841481
_cell_angle_gamma 52.356848
_cell_volume 471.429948
_symmetry_space_group_name_H-M "P -1"
_symmetry_group_IT_number 2
_symmetry_cell_setting 'triclinic'
loop_
_space_group_symop_operation_xyz
x,y,z
-x,-y,-z
loop_
_atom_site_type_symbol
_atom_site_label
_atom_site_fract_x
_atom_site_fract_y
_atom_site_fract_z
Si Si1 0.642422 0.689689 0.838976
Si Si2 0.719134 0.464064 0.658567
Si Si3 0.080659 0.409878 0.316848
Si Si4 0.226272 0.623208 0.772474
Si Si5 0.603047 0.372105 0.274630
Si Si6 0.874651 0.163704 0.087137
O O1 0.500000 0.500000 0.500000
O O2 0.490700 0.745136 0.689173
O O3 0.773520 0.455441 0.005721
O O4 0.763023 0.035408 0.082699
O O5 0.731769 0.389818 0.561314
O O6 0.903376 0.440358 0.992178
O O7 0.719006 0.832458 0.771111
O O8 0.161872 0.651566 0.582468
O O9 0.263785 0.442462 0.547607
O O10 0.975664 0.117558 0.140283
O O11 0.066420 0.307226 0.475864
O O12 0.432922 0.544799 0.075509
O O13 0.500000 0.000000 0.000000
#
# Coordination Sequence:
#
# PCOD9046981 Si02
#       6
#     2   2   2   2   2   2
#     4  12  22  45  70 101 141 179 226 282 343 404
#     4  12  25  44  71 105 135 179 234 276 339 410
#     4  10  24  45  69  98 142 175 228 276 344 394
#     4  10  24  45  70 100 137 182 222 279 347 396
#     4  12  25  45  70 104 138 179 231 282 340 408
#     4  10  24  43  70 101 136 180 226 274 345 394
#
# _framework density 25.454471999999999
#
# number of rings (size 3 to 8) (size 9 to 14) (size 15 to 20)
#    1.000    0.000    1.667    5.000    0.000    0.667 
#    0.000    2.500    0.000    0.000    0.000    0.000 
#    0.000    0.000    0.000    0.000    0.000    0.000 
#
# Total GULP energy -67022.033271 kJ/mol
# GULP energy per Si atom -5585.169439 kJ/mol
# Density = 2.539654 g / cm^3
# Si number density = 25.454472 Si / 1000 Ang^3
#
#
#
# Elastic Constant Matrix: (Units=GPa)
#
#
# Indices 1 2 3 4 5 6 
#
# 1 90.8966 -14.2136 29.2388 5.3082 -8.6130 4.8945
# 2 -14.2136 79.0797 31.4963 7.0546 -0.6698 -9.3398
# 3 29.2388 31.4963 114.7519 -3.0018 -8.0822 3.8856
# 4 5.3082 7.0546 -3.0018 48.1392 -6.5456 3.2952
# 5 -8.6130 -0.6698 -8.0822 -6.5456 56.0430 -0.2963
# 6 4.8945 -9.3398 3.8856 3.2952 -0.2963 15.9121
#
#
#
# Elastic Compliance Matrix: (Units=1/GPa)
#
#
# Indices 1 2 3 4 5 6 
#
# 1 0.013433 0.004489 -0.004635 -0.002276 0.001184 0.000128
# 2 0.004489 0.017827 -0.006579 -0.004378 -0.000496 0.011587
# 3 -0.004635 -0.006579 0.012063 0.002803 0.001245 -0.005939
# 4 -0.002276 -0.004378 0.002803 0.022689 0.002614 -0.007204
# 5 0.001184 -0.000496 0.001245 0.002614 0.018498 -0.001156
# 6 0.000128 0.011587 -0.005939 -0.007204 -0.001156 0.072527
#
#
# Mechanical properties :
#
#
# Convention : Reuss Voigt Hill
#
# Bulk Modulus (GPa) = 33.47516 41.97458 37.72487
# Shear Modulus (GPa) = 27.70917 39.89932 33.80424
#
# Velocity S-wave (km/s) = 3.30294 3.96343 3.64816
# Velocity P-wave (km/s) = 5.26549 6.12135 5.70948
#
# Compressibility (1/GPa) = 0.02987289
#
# Stress axis : x y z
#
# Youngs Moduli (GPa) = 74.44578 56.09380 82.89671
#
# Poissons Ratio (x) = -0.25178 0.38423
# Poissons Ratio (y) = -0.33416 0.54535
# Poissons Ratio (z) = 0.34506 0.36902
#
# Static dielectric constant tensor:
#      x y z
#    x 2.107590 0.009280 0.066120 
#    y 0.009280 1.998860 0.001770 
#    z 0.066120 0.001770 2.005940 
# 
# From -- ./inp_files/71954.got.cif
#   From: 2010.05.17/outbox.cif.g08.bks.cpg/sg2_36_cif.got.tgz:71954.got - 2010.06.03 11:33:40.
