data_PCOD9046545
_publ_section_title
;
Structure prediction by ZEFSAII (Michael W. Deem and Ramdas Pophale) SiO2 
 PCOD9046545
Probable space group: P -1
;
_chemical_formula_sum "Si O2"
_cell_formula_units_Z 12
_cell_length_a 13.883224
_cell_length_b 7.492408
_cell_length_c 8.151062
_cell_angle_alpha 143.416842
_cell_angle_beta 91.768874
_cell_angle_gamma 103.187663
_cell_volume 457.289976
_symmetry_space_group_name_H-M "P -1"
_symmetry_group_IT_number 2
_symmetry_cell_setting 'triclinic'
loop_
_space_group_symop_operation_xyz
x,y,z
-x,-y,-z
loop_
_atom_site_type_symbol
_atom_site_label
_atom_site_fract_x
_atom_site_fract_y
_atom_site_fract_z
Si Si1 0.407307 0.975679 0.099621
Si Si2 0.209182 0.289583 0.603584
Si Si3 0.698130 0.836634 0.034932
Si Si4 0.884633 0.474412 0.923879
Si Si5 0.424862 0.853513 0.535503
Si Si6 0.892365 0.503412 0.564136
O O1 0.329046 0.109091 0.112860
O O2 0.486893 0.220470 0.415310
O O3 0.328650 0.589649 0.844546
O O4 0.500000 0.000000 0.000000
O O5 0.156638 0.337363 0.461956
O O6 0.196977 0.916036 0.345769
O O7 0.147449 0.338689 0.795479
O O8 0.677371 0.461631 0.761539
O O9 0.614677 0.904473 0.195095
O O10 0.809698 0.121911 0.288711
O O11 0.900157 0.611059 0.836099
O O12 0.000000 0.500000 0.000000
O O13 0.500000 0.000000 0.500000
O O14 0.000000 0.500000 0.500000
#
# Coordination Sequence:
#
# PCOD9046545 Si02
#       6
#     2   2   2   2   2   2
#     4   9  22  44  69  96 136 180 222 281 347 411
#     4  11  27  48  73 107 143 188 235 293 356 419
#     4  10  24  43  63  98 129 175 224 269 344 409
#     4  12  27  47  73 106 141 189 242 288 357 424
#     4  11  23  40  66  97 132 170 220 276 334 405
#     4  11  26  48  75 103 146 187 235 301 353 420
#
# _framework density 26.241554000000001
#
# number of rings (size 3 to 8) (size 9 to 14) (size 15 to 20)
#    0.000    1.333    1.667    1.500    4.667   12.667 
#    0.000    0.000    0.000    0.000    0.000    0.000 
#    0.000    0.000    0.000    0.000    0.000    0.000 
#
# Total GULP energy -67067.212438 kJ/mol
# GULP energy per Si atom -5588.934370 kJ/mol
# Density = 2.618183 g / cm^3
# Si number density = 26.241554 Si / 1000 Ang^3
#
#
#
# Elastic Constant Matrix: (Units=GPa)
#
#
# Indices 1 2 3 4 5 6 
#
# 1 102.9668 41.1882 22.7293 -17.0813 0.9289 14.2098
# 2 41.1882 141.6944 30.7348 -31.9581 -3.6331 -10.2673
# 3 22.7293 30.7348 86.8589 -13.8216 -12.1410 -13.1044
# 4 -17.0813 -31.9581 -13.8216 48.1175 -1.6530 7.4814
# 5 0.9289 -3.6331 -12.1410 -1.6530 48.2692 7.6210
# 6 14.2098 -10.2673 -13.1044 7.4814 7.6210 48.1271
#
#
#
# Elastic Compliance Matrix: (Units=1/GPa)
#
#
# Indices 1 2 3 4 5 6 
#
# 1 0.012668 -0.002899 -0.002723 0.002634 -0.000192 -0.005479
# 2 -0.002899 0.009382 -0.001553 0.004501 0.000258 0.001694
# 3 -0.002723 -0.001553 0.013973 0.001562 0.002940 0.003569
# 4 0.002634 0.004501 0.001562 0.025812 0.002156 -0.003746
# 5 -0.000192 0.000258 0.002940 0.002156 0.022013 -0.002909
# 6 -0.005479 0.001694 0.003569 -0.003746 -0.002909 0.024772
#
#
# Mechanical properties :
#
#
# Convention : Reuss Voigt Hill
#
# Bulk Modulus (GPa) = 46.14460 57.86943 52.00701
# Shear Modulus (GPa) = 38.40393 44.69394 41.54893
#
# Velocity S-wave (km/s) = 3.82969 4.13143 3.98342
# Velocity P-wave (km/s) = 6.09739 6.69767 6.40456
#
# Compressibility (1/GPa) = 0.02167101
#
# Stress axis : x y z
#
# Youngs Moduli (GPa) = 78.94067 106.59069 71.56662
#
# Poissons Ratio (x) = 0.30905 0.19489
# Poissons Ratio (y) = 0.22888 0.11115
# Poissons Ratio (z) = 0.21497 0.16554
#
# Static dielectric constant tensor:
#      x y z
#    x 2.031660 -0.067970 -0.065830 
#    y -0.067970 2.005580 -0.022200 
#    z -0.065830 -0.022200 2.069940 
# 
# From -- ./inp_files/299837.got.cif
#   From: 2010.05.17/outbox.cif.g08.bks.cpg/sg2_150_cif.got.tgz:299837.got - 2010.06.03 11:33:40.
