data_PCOD9046045
_publ_section_title
;
Structure prediction by ZEFSAII (Michael W. Deem and Ramdas Pophale) SiO2 
 PCOD9046045
Probable space group: P -1
;
_chemical_formula_sum "Si O2"
_cell_formula_units_Z 14
_cell_length_a 8.319352
_cell_length_b 5.354432
_cell_length_c 25.734107
_cell_angle_alpha 68.371749
_cell_angle_beta 146.243935
_cell_angle_gamma 119.875243
_cell_volume 549.851266
_symmetry_space_group_name_H-M "P -1"
_symmetry_group_IT_number 2
_symmetry_cell_setting 'triclinic'
loop_
_space_group_symop_operation_xyz
x,y,z
-x,-y,-z
loop_
_atom_site_type_symbol
_atom_site_label
_atom_site_fract_x
_atom_site_fract_y
_atom_site_fract_z
Si Si1 0.620101 0.776022 0.284210
Si Si2 0.319884 0.207421 0.542739
Si Si3 0.434686 0.134766 0.300126
Si Si4 0.955622 0.190555 0.902716
Si Si5 0.711567 0.592783 0.923067
Si Si6 0.281392 0.177977 0.415991
Si Si7 0.746550 0.893935 0.106342
O O1 0.649223 0.474374 0.331452
O O2 0.315309 0.687926 0.172456
O O3 0.531890 0.943399 0.296640
O O4 0.929705 0.977947 0.322468
O O5 0.230590 0.255257 0.456475
O O6 0.536159 0.536794 0.590232
O O7 0.534637 0.022674 0.626238
O O8 0.000000 0.000000 0.500000
O O9 0.079873 0.113692 0.198458
O O10 0.142976 0.284582 0.893115
O O11 0.751987 0.846788 0.874868
O O12 0.210875 0.255208 0.010994
O O13 0.413657 0.309992 0.873236
O O14 0.000000 0.500000 0.000000
O O15 0.500000 0.000000 0.500000
O O16 0.500000 0.000000 0.000000
#
# Coordination Sequence:
#
# PCOD9046045 Si02
#       7
#     2   2   2   2   2   2   2
#     4  11  25  47  72 102 144 183 236 291 351 421
#     4  11  24  47  71 103 145 181 239 287 355 424
#     4  11  26  45  74 105 139 193 235 290 352 422
#     4  10  24  42  66  95 138 182 233 288 348 411
#     4  11  22  41  65  99 131 185 231 289 345 414
#     4  11  26  44  74 105 139 190 227 296 358 418
#     4  11  22  43  69  97 142 183 235 284 354 407
#
# _framework density 25.461428000000002
#
# number of rings (size 3 to 8) (size 9 to 14) (size 15 to 20)
#    0.000    1.143    2.857    2.143    8.000    2.286 
#    2.571    0.000    0.000    0.000    0.000    0.000 
#    0.000    0.000    0.000    0.000    0.000    0.000 
#
# Total GULP energy -78128.014067 kJ/mol
# GULP energy per Si atom -5580.572433 kJ/mol
# Density = 2.540348 g / cm^3
# Si number density = 25.461428 Si / 1000 Ang^3
#
#
#
# Elastic Constant Matrix: (Units=GPa)
#
#
# Indices 1 2 3 4 5 6 
#
# 1 70.1783 36.6069 3.5078 15.6937 16.0205 17.8488
# 2 36.6069 207.9647 38.4664 6.3561 28.4618 27.1712
# 3 3.5078 38.4664 124.3169 8.3013 23.7833 14.6288
# 4 15.6937 6.3561 8.3013 43.3085 11.1240 11.6558
# 5 16.0205 28.4618 23.7833 11.1240 42.8291 7.0320
# 6 17.8488 27.1712 14.6288 11.6558 7.0320 43.8073
#
#
#
# Elastic Compliance Matrix: (Units=1/GPa)
#
#
# Indices 1 2 3 4 5 6 
#
# 1 0.018576 -0.002213 0.001912 -0.004251 -0.004621 -0.004962
# 2 -0.002213 0.006027 -0.001129 0.001438 -0.002524 -0.002437
# 3 0.001912 -0.001129 0.009562 -0.000499 -0.004755 -0.002376
# 4 -0.004251 0.001438 -0.000499 0.027334 -0.005298 -0.005415
# 5 -0.004621 -0.002524 -0.004755 -0.005298 0.030517 0.001547
# 6 -0.004962 -0.002437 -0.002376 -0.005415 0.001547 0.028346
#
#
# Mechanical properties :
#
#
# Convention : Reuss Voigt Hill
#
# Bulk Modulus (GPa) = 31.94322 62.18023 47.06172
# Shear Modulus (GPa) = 37.40982 47.58088 42.49535
#
# Velocity S-wave (km/s) = 3.83727 4.32759 4.08978
# Velocity P-wave (km/s) = 5.67502 7.03172 6.38948
#
# Compressibility (1/GPa) = 0.03130555
#
# Stress axis : x y z
#
# Youngs Moduli (GPa) = 53.83421 165.92961 104.58140
#
# Poissons Ratio (x) = 0.36718 -0.20000
# Poissons Ratio (y) = 0.11913 0.11805
# Poissons Ratio (z) = -0.10295 0.18730
#
# Static dielectric constant tensor:
#      x y z
#    x 1.679760 0.618510 -0.232200 
#    y 0.618510 1.011740 0.225090 
#    z -0.232200 0.225090 2.089530 
# 
# From -- ./inp_files/55328.got.cif
#   From: 2010.05.17/outbox.cif.g08.bks.cpg/sg2_28_cif.got.tgz:55328.got - 2010.06.03 11:33:40.
