data_PCOD9046946
_publ_section_title
;
Structure prediction by ZEFSAII (Michael W. Deem and Ramdas Pophale) SiO2 
 PCOD9046946
Probable space group: P -1
;
_chemical_formula_sum "Si O2"
_cell_formula_units_Z 16
_cell_length_a 15.517095
_cell_length_b 15.057133
_cell_length_c 9.598741
_cell_angle_alpha 82.754980
_cell_angle_beta 105.887316
_cell_angle_gamma 30.633464
_cell_volume 741.725273
_symmetry_space_group_name_H-M "P -1"
_symmetry_group_IT_number 2
_symmetry_cell_setting 'triclinic'
loop_
_space_group_symop_operation_xyz
x,y,z
-x,-y,-z
loop_
_atom_site_type_symbol
_atom_site_label
_atom_site_fract_x
_atom_site_fract_y
_atom_site_fract_z
Si Si1 0.940307 0.442175 0.315090
Si Si2 0.043057 0.642912 0.262856
Si Si3 0.248168 0.782730 0.484147
Si Si4 0.459342 0.782765 0.071870
Si Si5 0.084929 0.318267 0.084577
Si Si6 0.699116 0.235239 0.169950
Si Si7 0.466530 0.386982 0.591940
Si Si8 0.680577 0.778619 0.366893
O O1 0.746579 0.698569 0.249132
O O2 0.003965 0.370376 0.195257
O O3 0.210136 0.226467 0.540514
O O4 0.763222 0.523172 0.259873
O O5 0.216026 0.566423 0.395350
O O6 0.153964 0.453176 0.432265
O O7 0.745093 0.946917 0.102361
O O8 0.053958 0.609034 0.110788
O O9 0.245674 0.823547 0.629977
O O10 0.403362 0.543275 0.599165
O O11 0.363938 0.747038 0.439225
O O12 0.966803 0.015774 0.264130
O O13 0.406106 0.756980 0.941082
O O14 0.399080 0.799355 0.194524
O O15 0.389840 0.033861 0.237698
O O16 0.000000 0.500000 0.000000
O O17 0.500000 0.500000 0.000000
#
# Coordination Sequence:
#
# PCOD9046946 Si02
#       8
#     2   2   2   2   2   2   2   2
#     4  11  25  45  73 102 139 187 229 290 349 408
#     4  12  24  46  68  97 145 179 234 294 339 420
#     4  10  24  43  69  96 133 178 225 285 353 410
#     4  12  25  45  68 102 138 182 235 286 350 419
#     4  12  26  46  70 104 140 186 242 285 345 418
#     4  11  23  44  67 101 136 175 230 285 345 426
#     4  11  23  45  66  98 134 177 228 286 346 411
#     4  11  25  49  68 101 143 185 233 291 349 412
#
# _framework density 21.57133
#
# number of rings (size 3 to 8) (size 9 to 14) (size 15 to 20)
#    0.000    0.750    6.250    0.375    1.750    4.500 
#    2.250    0.000    0.000    0.000    0.000    0.000 
#    0.000    0.000    0.000    0.000    0.000    0.000 
#
# Total GULP energy -89285.118776 kJ/mol
# GULP energy per Si atom -5580.319923 kJ/mol
# Density = 2.152223 g / cm^3
# Si number density = 21.571330 Si / 1000 Ang^3
#
#
#
# Elastic Constant Matrix: (Units=GPa)
#
#
# Indices 1 2 3 4 5 6 
#
# 1 102.4971 27.1425 40.3376 8.4591 24.2330 -15.6303
# 2 27.1425 93.5333 35.1927 13.7143 1.7506 -8.6947
# 3 40.3376 35.1927 68.9656 5.4735 15.7160 3.0314
# 4 8.4591 13.7143 5.4735 43.3205 23.7137 7.7790
# 5 24.2330 1.7506 15.7160 23.7137 34.0213 3.0970
# 6 -15.6303 -8.6947 3.0314 7.7790 3.0970 40.9173
#
#
#
# Elastic Compliance Matrix: (Units=1/GPa)
#
#
# Indices 1 2 3 4 5 6 
#
# 1 0.016215 -0.001956 -0.006440 0.003338 -0.011391 0.006483
# 2 -0.001956 0.016712 -0.009519 -0.011348 0.012410 0.004727
# 3 -0.006440 -0.009519 0.025550 0.009144 -0.012446 -0.007172
# 4 0.003338 -0.011348 0.009144 0.047195 -0.038195 -0.007895
# 5 -0.011391 0.012410 -0.012446 -0.038195 0.069128 0.001237
# 6 0.006483 0.004727 -0.007172 -0.007895 0.001237 0.029859
#
#
# Mechanical properties :
#
#
# Convention : Reuss Voigt Hill
#
# Bulk Modulus (GPa) = 44.15641 52.26019 48.20830
# Shear Modulus (GPa) = 20.15819 34.47338 27.31578
#
# Velocity S-wave (km/s) = 3.06026 4.00197 3.56237
# Velocity P-wave (km/s) = 5.74468 6.75527 6.27037
#
# Compressibility (1/GPa) = 0.02264677
#
# Stress axis : x y z
#
# Youngs Moduli (GPa) = 61.67068 59.83850 39.13877
#
# Poissons Ratio (x) = 0.11704 0.25206
# Poissons Ratio (y) = 0.12062 0.37256
# Poissons Ratio (z) = 0.39717 0.56960
#
# Static dielectric constant tensor:
#      x y z
#    x 1.795450 0.004440 -0.027450 
#    y 0.004440 1.724920 0.006330 
#    z -0.027450 0.006330 1.911030 
# 
# From -- ./inp_files/315115.got.cif
#   From: 2010.05.17/outbox.cif.g08.bks.cpg/sg2_158_cif.got.tgz:315115.got - 2010.06.03 11:33:40.
