data_PCOD9046947
_publ_section_title
;
Structure prediction by ZEFSAII (Michael W. Deem and Ramdas Pophale) SiO2 
 PCOD9046947
Probable space group: P -1
;
_chemical_formula_sum "Si O2"
_cell_formula_units_Z 16
_cell_length_a 11.763644
_cell_length_b 6.459149
_cell_length_c 24.395451
_cell_angle_alpha 52.975067
_cell_angle_beta 151.033241
_cell_angle_gamma 121.399654
_cell_volume 716.636942
_symmetry_space_group_name_H-M "P -1"
_symmetry_group_IT_number 2
_symmetry_cell_setting 'triclinic'
loop_
_space_group_symop_operation_xyz
x,y,z
-x,-y,-z
loop_
_atom_site_type_symbol
_atom_site_label
_atom_site_fract_x
_atom_site_fract_y
_atom_site_fract_z
Si Si1 0.578212 0.443627 0.980660
Si Si2 0.116732 0.417835 0.724535
Si Si3 0.308705 0.708489 0.557052
Si Si4 0.770683 0.711259 0.812536
Si Si5 0.006154 0.705064 0.533185
Si Si6 0.944046 0.876822 0.752139
Si Si7 0.848722 0.755421 0.960646
Si Si8 0.292540 0.307683 0.422663
O O1 0.351630 0.345030 0.868381
O O2 0.668019 0.685255 0.943616
O O3 0.500000 0.500000 0.000000
O O4 0.803298 0.257526 0.112130
O O5 0.179579 0.557348 0.672095
O O6 0.943464 0.599725 0.659191
O O7 0.981008 0.154190 0.696438
O O8 0.527967 0.618792 0.700249
O O9 0.086629 0.727695 0.500945
O O10 0.231631 0.456895 0.530052
O O11 0.350669 0.002095 0.507551
O O12 0.850820 0.919378 0.767804
O O13 0.741411 0.799386 0.848216
O O14 0.970458 0.488482 0.929411
O O15 0.000000 0.000000 0.500000
O O16 0.778225 0.702485 0.670707
O O17 0.000000 0.000000 0.000000
O O18 0.500000 0.500000 0.500000
#
# Coordination Sequence:
#
# PCOD9046947 Si02
#       8
#     2   2   2   2   2   2   2   2
#     4  11  24  44  72 104 138 184 236 295 358 422
#     4  12  24  44  69 100 141 183 238 288 363 417
#     4  11  24  43  64  99 136 180 233 287 348 421
#     4  10  24  43  69  96 133 185 232 283 358 411
#     4  11  24  42  67  95 138 182 231 285 348 425
#     4  11  25  45  68 103 143 183 239 296 353 425
#     4  10  24  47  68 101 139 178 238 293 350 422
#     4  12  26  42  68 104 142 185 237 291 354 427
#
# _framework density 22.326506999999999
#
# number of rings (size 3 to 8) (size 9 to 14) (size 15 to 20)
#    0.000    1.000    3.750    1.875    3.500    5.000 
#    4.500    0.000    0.000    0.000    0.000    0.000 
#    0.000    0.000    0.000    0.000    0.000    0.000 
#
# Total GULP energy -89259.482922 kJ/mol
# GULP energy per Si atom -5578.717683 kJ/mol
# Density = 2.227569 g / cm^3
# Si number density = 22.326507 Si / 1000 Ang^3
#
#
#
# Elastic Constant Matrix: (Units=GPa)
#
#
# Indices 1 2 3 4 5 6 
#
# 1 101.1615 42.0362 17.7531 4.9237 -15.8352 15.4469
# 2 42.0362 114.9402 34.5098 19.8839 -18.3029 24.0122
# 3 17.7531 34.5098 119.1980 22.7982 -16.3758 5.4156
# 4 4.9237 19.8839 22.7982 34.3337 0.5363 -3.0150
# 5 -15.8352 -18.3029 -16.3758 0.5363 35.9735 0.0037
# 6 15.4469 24.0122 5.4156 -3.0150 0.0037 24.4306
#
#
#
# Elastic Compliance Matrix: (Units=1/GPa)
#
#
# Indices 1 2 3 4 5 6 
#
# 1 0.012502 -0.002626 -0.000159 -0.000703 0.004106 -0.005376
# 2 -0.002626 0.015693 -0.000725 -0.009633 0.006644 -0.014793
# 3 -0.000159 -0.000725 0.010680 -0.006931 0.004526 -0.002410
# 4 -0.000703 -0.009633 -0.006931 0.040998 -0.008979 0.016510
# 5 0.004106 0.006644 0.004526 -0.008979 0.035181 -0.011243
# 6 -0.005376 -0.014793 -0.002410 0.016510 -0.011243 0.061444
#
#
# Mechanical properties :
#
#
# Convention : Reuss Voigt Hill
#
# Bulk Modulus (GPa) = 31.39234 58.21089 44.80161
# Shear Modulus (GPa) = 25.75487 35.01427 30.38457
#
# Velocity S-wave (km/s) = 3.40009 3.96445 3.69307
# Velocity P-wave (km/s) = 5.43187 6.86185 6.18830
#
# Compressibility (1/GPa) = 0.03185490
#
# Stress axis : x y z
#
# Youngs Moduli (GPa) = 79.98661 63.72223 93.63217
#
# Poissons Ratio (x) = 0.16735 0.01489
# Poissons Ratio (y) = 0.21006 0.06788
# Poissons Ratio (z) = 0.01272 0.04620
#
# Static dielectric constant tensor:
#      x y z
#    x 1.883910 -0.013110 -0.006180 
#    y -0.013110 1.933050 0.052500 
#    z -0.006180 0.052500 1.858200 
# 
# From -- ./inp_files/609155.got.cif
#   From: 2010.05.17/outbox.cif.g08.bks.cpg/sg2_305_cif.got.tgz:609155.got - 2010.06.03 11:33:40.
