data_PCOD9046970
_publ_section_title
;
Structure prediction by ZEFSAII (Michael W. Deem and Ramdas Pophale) SiO2 
 PCOD9046970
Probable space group: P -1
;
_chemical_formula_sum "Si O2"
_cell_formula_units_Z 12
_cell_length_a 5.227449
_cell_length_b 22.842858
_cell_length_c 10.765395
_cell_angle_alpha 152.462610
_cell_angle_beta 113.999863
_cell_angle_gamma 81.947423
_cell_volume 463.015774
_symmetry_space_group_name_H-M "P -1"
_symmetry_group_IT_number 2
_symmetry_cell_setting 'triclinic'
loop_
_space_group_symop_operation_xyz
x,y,z
-x,-y,-z
loop_
_atom_site_type_symbol
_atom_site_label
_atom_site_fract_x
_atom_site_fract_y
_atom_site_fract_z
Si Si1 0.855919 0.876281 0.133247
Si Si2 0.155424 0.816239 0.859247
Si Si3 0.033519 0.652240 0.754688
Si Si4 0.706965 0.137746 0.390716
Si Si5 0.611245 0.811569 0.347482
Si Si6 0.740001 0.644626 0.239768
O O1 0.000000 0.000000 0.500000
O O2 0.011906 0.131384 0.493967
O O3 0.115077 0.911696 0.138972
O O4 0.802684 0.717260 0.872424
O O5 0.029576 0.666125 0.632440
O O6 0.903909 0.778067 0.625848
O O7 0.519790 0.855649 0.977223
O O8 0.000000 0.500000 0.500000
O O9 0.381018 0.774563 0.115105
O O10 0.476769 0.118131 0.423000
O O11 0.909630 0.298674 0.659695
O O12 0.500000 0.000000 0.000000
O O13 0.527436 0.659260 0.117926
O O14 0.500000 0.500000 0.000000
#
# Coordination Sequence:
#
# PCOD9046970 Si02
#       6
#     2   2   2   2   2   2
#     4  10  24  44  67  99 138 182 230 281 353 422
#     4  10  24  43  69  99 137 183 228 292 348 421
#     4  10  24  45  69 103 138 180 235 291 352 415
#     4  10  24  44  67  99 138 182 230 281 353 422
#     4  10  24  43  69  99 137 183 228 292 348 421
#     4  10  24  45  69 103 138 180 235 291 352 415
#
# _framework density 25.917041999999999
#
# number of rings (size 3 to 8) (size 9 to 14) (size 15 to 20)
#    2.000    0.000    0.000    2.000    4.667    2.667 
#    6.000    0.000    0.000    0.000    0.000    0.000 
#    0.000    0.000    0.000    0.000    0.000    0.000 
#
# Total GULP energy -66840.914751 kJ/mol
# GULP energy per Si atom -5570.076229 kJ/mol
# Density = 2.585805 g / cm^3
# Si number density = 25.917042 Si / 1000 Ang^3
#
#
#
# Elastic Constant Matrix: (Units=GPa)
#
#
# Indices 1 2 3 4 5 6 
#
# 1 133.8022 23.4210 43.8858 4.3684 7.9054 13.2651
# 2 23.4210 98.6115 6.5486 -0.7343 7.9993 -3.5314
# 3 43.8858 6.5486 99.5011 -5.6141 7.9324 7.5040
# 4 4.3684 -0.7343 -5.6141 59.9763 -13.0765 5.8866
# 5 7.9054 7.9993 7.9324 -13.0765 17.3023 -1.4246
# 6 13.2651 -3.5314 7.5040 5.8866 -1.4246 57.5814
#
#
#
# Elastic Compliance Matrix: (Units=1/GPa)
#
#
# Indices 1 2 3 4 5 6 
#
# 1 0.009423 -0.001813 -0.003751 -0.001561 -0.003068 -0.001709
# 2 -0.001813 0.010983 0.000349 -0.000890 -0.004999 0.001013
# 3 -0.003751 0.000349 0.012066 0.000727 -0.003499 -0.000848
# 4 -0.001561 -0.000890 0.000727 0.020517 0.016175 -0.001487
# 5 -0.003068 -0.004999 -0.003499 0.016175 0.075425 0.001069
# 6 -0.001709 0.001013 -0.000848 -0.001487 0.001069 0.018112
#
#
# Mechanical properties :
#
#
# Convention : Reuss Voigt Hill
#
# Bulk Modulus (GPa) = 45.37044 53.29173 49.33109
# Shear Modulus (GPa) = 30.43143 44.17594 37.30369
#
# Velocity S-wave (km/s) = 3.43036 4.13305 3.79799
# Velocity P-wave (km/s) = 5.76488 6.58660 6.18939
#
# Compressibility (1/GPa) = 0.02204078
#
# Stress axis : x y z
#
# Youngs Moduli (GPa) = 106.12135 91.04657 82.87950
#
# Poissons Ratio (x) = 0.16506 0.31092
# Poissons Ratio (y) = 0.19239 -0.02889
# Poissons Ratio (z) = 0.39811 -0.03174
#
# Static dielectric constant tensor:
#      x y z
#    x 2.079580 0.022720 -0.074830 
#    y 0.022720 2.159210 0.283100 
#    z -0.074830 0.283100 2.204870 
# 
# From -- ./inp_files/371147.got.cif
#   From: 2010.05.17/outbox.cif.g08.bks.cpg/sg2_186_cif.got.tgz:371147.got - 2010.06.03 11:33:40.
