data_PCOD9046148
_publ_section_title
;
Structure prediction by ZEFSAII (Michael W. Deem and Ramdas Pophale) SiO2 
 PCOD9046148
Probable space group: P -1
;
_chemical_formula_sum "Si O2"
_cell_formula_units_Z 14
_cell_length_a 10.919441
_cell_length_b 7.966683
_cell_length_c 6.691152
_cell_angle_alpha 108.062479
_cell_angle_beta 69.200903
_cell_angle_gamma 92.811257
_cell_volume 516.103911
_symmetry_space_group_name_H-M "P -1"
_symmetry_group_IT_number 2
_symmetry_cell_setting 'triclinic'
loop_
_space_group_symop_operation_xyz
x,y,z
-x,-y,-z
loop_
_atom_site_type_symbol
_atom_site_label
_atom_site_fract_x
_atom_site_fract_y
_atom_site_fract_z
Si Si1 0.608903 0.165149 0.768437
Si Si2 0.964773 0.758384 0.782728
Si Si3 0.988108 0.622921 0.267864
Si Si4 0.122285 0.022491 0.593024
Si Si5 0.327553 0.244218 0.023503
Si Si6 0.372567 0.515640 0.439152
Si Si7 0.729666 0.402970 0.069324
O O1 0.732053 0.031259 0.590867
O O2 0.456711 0.119836 0.846146
O O3 0.381884 0.674876 0.336717
O O4 0.634128 0.254802 0.001354
O O5 0.963374 0.667607 0.531006
O O6 0.814077 0.834715 0.924526
O O7 0.074803 0.898779 0.753453
O O8 0.000314 0.588793 0.839145
O O9 0.889678 0.769993 0.276823
O O10 0.136311 0.663899 0.141595
O O11 0.000000 0.000000 0.500000
O O12 0.346438 0.342606 0.261918
O O13 0.318440 0.410925 0.937431
O O14 0.500000 0.500000 0.500000
O O15 0.263949 0.565649 0.687617
#
# Coordination Sequence:
#
# PCOD9046148 Si02
#       7
#     2   2   2   2   2   2   2
#     4  11  19  33  59  84 117 160 200 240 300 363
#     4   9  18  34  60  89 119 152 199 255 288 355
#     4   9  18  34  60  83 122 156 192 242 300 350
#     4  10  19  36  62  86 122 162 194 242 303 355
#     4  10  20  32  57  88 117 151 204 248 297 351
#     4  11  19  31  54  89 120 153 202 246 296 356
#     4  10  17  34  55  82 115 155 196 244 291 349
#
# _framework density 27.126318000000001
#
# number of rings (size 3 to 8) (size 9 to 14) (size 15 to 20)
#    0.000    2.000    5.714    0.857    2.000    0.000 
#    0.000    4.286    0.000    0.000    0.000    5.000 
#    0.000    0.000    0.000    0.000    0.000    0.000 
#
# Total GULP energy -78335.856185 kJ/mol
# GULP energy per Si atom -5595.418299 kJ/mol
# Density = 2.706458 g / cm^3
# Si number density = 27.126318 Si / 1000 Ang^3
#
#
#
# Elastic Constant Matrix: (Units=GPa)
#
#
# Indices 1 2 3 4 5 6 
#
# 1 160.1457 46.3522 76.6906 23.8751 -42.4967 -22.6011
# 2 46.3522 155.4903 39.6248 10.9175 -15.4158 -4.2685
# 3 76.6906 39.6248 143.2209 21.6347 -25.4499 -13.6970
# 4 23.8751 10.9175 21.6347 28.4591 -14.9786 -16.0055
# 5 -42.4967 -15.4158 -25.4499 -14.9786 66.7678 6.9514
# 6 -22.6011 -4.2685 -13.6970 -16.0055 6.9514 33.4466
#
#
#
# Elastic Compliance Matrix: (Units=1/GPa)
#
#
# Indices 1 2 3 4 5 6 
#
# 1 0.010310 -0.001515 -0.003876 -0.000683 0.004166 0.003993
# 2 -0.001515 0.007230 -0.001087 -0.001274 0.000128 -0.001182
# 3 -0.003876 -0.001087 0.009961 -0.004206 0.000212 -0.000735
# 4 -0.000683 -0.001274 -0.004206 0.056555 0.007954 0.023064
# 5 0.004166 0.000128 0.000212 0.007954 0.019240 0.002726
# 6 0.003993 -0.001182 -0.000735 0.023064 0.002726 0.042616
#
#
# Mechanical properties :
#
#
# Convention : Reuss Voigt Hill
#
# Bulk Modulus (GPa) = 68.75460 87.13246 77.94353
# Shear Modulus (GPa) = 30.54086 45.48064 38.01075
#
# Velocity S-wave (km/s) = 3.35905 4.09910 3.74739
# Velocity P-wave (km/s) = 6.35967 7.38879 6.89346
#
# Compressibility (1/GPa) = 0.01454448
#
# Stress axis : x y z
#
# Youngs Moduli (GPa) = 96.99422 138.32134 100.39020
#
# Poissons Ratio (x) = 0.20956 0.38913
# Poissons Ratio (y) = 0.14695 0.10911
# Poissons Ratio (z) = 0.37596 0.15033
#
# Static dielectric constant tensor:
#      x y z
#    x 2.189110 0.006530 -0.043980 
#    y 0.006530 2.202360 -0.063680 
#    z -0.043980 -0.063680 2.159260 
# 
# From -- ./inp_files/67553.got.cif
#   From: 2010.05.17/outbox.cif.g08.bks.cpg/sg2_34_cif.got.tgz:67553.got - 2010.06.03 11:33:40.
