data_PCOD9046987
_publ_section_title
;
Structure prediction by ZEFSAII (Michael W. Deem and Ramdas Pophale) SiO2 
 PCOD9046987
Probable space group: P -1
;
_chemical_formula_sum "Si O2"
_cell_formula_units_Z 16
_cell_length_a 7.356124
_cell_length_b 16.046610
_cell_length_c 11.546540
_cell_angle_alpha 109.141541
_cell_angle_beta 80.686349
_cell_angle_gamma 143.871298
_cell_volume 746.080037
_symmetry_space_group_name_H-M "P -1"
_symmetry_group_IT_number 2
_symmetry_cell_setting 'triclinic'
loop_
_space_group_symop_operation_xyz
x,y,z
-x,-y,-z
loop_
_atom_site_type_symbol
_atom_site_label
_atom_site_fract_x
_atom_site_fract_y
_atom_site_fract_z
Si Si1 0.928274 0.447254 0.807445
Si Si2 0.344438 0.174260 0.402995
Si Si3 0.540267 0.057242 0.646916
Si Si4 0.697968 0.843080 0.326950
Si Si5 0.124761 0.344330 0.849071
Si Si6 0.137036 0.379311 0.121843
Si Si7 0.896177 0.247001 0.336081
Si Si8 0.208895 0.512146 0.560144
O O1 0.548753 0.312219 0.785737
O O2 0.025275 0.587122 0.860982
O O3 0.039508 0.415817 0.871404
O O4 0.057211 0.457868 0.677481
O O5 0.295083 0.176392 0.546006
O O6 0.615599 0.208167 0.369700
O O7 0.452944 0.308253 0.394827
O O8 0.037725 0.000968 0.318802
O O9 0.482949 0.135755 0.660956
O O10 0.882245 0.189151 0.731427
O O11 0.500000 0.000000 0.500000
O O12 0.262488 0.905944 0.680533
O O13 0.484997 0.472519 0.833790
O O14 0.086913 0.310789 0.974021
O O15 0.999769 0.285776 0.210477
O O16 0.166384 0.399776 0.455121
O O17 0.000000 0.500000 0.500000
#
# Coordination Sequence:
#
# PCOD9046987 Si02
#       8
#     2   2   2   2   2   2   2   2
#     4  11  19  39  66  84 121 156 199 254 306 349
#     4  10  18  32  53  84 117 152 195 233 293 361
#     4  11  22  39  58  87 127 151 194 257 303 357
#     4  10  20  32  55  85 119 154 193 242 293 364
#     4  10  26  42  61  93 117 157 218 249 292 370
#     4  11  23  43  65  85 121 166 204 252 303 352
#     4  11  20  36  60  84 119 162 196 240 313 350
#     4  10  17  34  56  89 122 150 197 255 291 367
#
# _framework density 21.445421
#
# number of rings (size 3 to 8) (size 9 to 14) (size 15 to 20)
#    0.000    1.500    6.250    1.125    1.750    2.500 
#    0.000    1.875    0.000    1.500    0.000    0.000 
#    0.000    0.000    0.000    0.000    0.000    0.000 
#
# Total GULP energy -89185.234791 kJ/mol
# GULP energy per Si atom -5574.077174 kJ/mol
# Density = 2.139661 g / cm^3
# Si number density = 21.445421 Si / 1000 Ang^3
#
#
#
# Elastic Constant Matrix: (Units=GPa)
#
#
# Indices 1 2 3 4 5 6 
#
# 1 37.6319 19.6246 8.5043 9.3841 6.1704 6.7259
# 2 19.6246 150.1494 51.2912 -11.6183 9.6160 -0.6913
# 3 8.5043 51.2912 80.1059 -17.2288 17.1580 2.1828
# 4 9.3841 -11.6183 -17.2288 31.6956 1.3007 1.2274
# 5 6.1704 9.6160 17.1580 1.3007 14.1723 7.8200
# 6 6.7259 -0.6913 2.1828 1.2274 7.8200 32.5388
#
#
#
# Elastic Compliance Matrix: (Units=1/GPa)
#
#
# Indices 1 2 3 4 5 6 
#
# 1 0.034302 -0.004363 -0.002334 -0.012610 -0.005046 -0.005338
# 2 -0.004363 0.009096 -0.005366 0.001607 0.001508 0.001032
# 3 -0.002334 -0.005366 0.025461 0.013601 -0.030430 0.005460
# 4 -0.012610 0.001607 0.013601 0.043853 -0.018599 0.004544
# 5 -0.005046 0.001508 -0.030430 -0.018599 0.124712 -0.026154
# 6 -0.005338 0.001032 0.005460 0.004544 -0.026154 0.037606
#
#
# Mechanical properties :
#
#
# Convention : Reuss Voigt Hill
#
# Bulk Modulus (GPa) = 22.35493 47.41416 34.88454
# Shear Modulus (GPa) = 15.92012 28.24582 22.08297
#
# Velocity S-wave (km/s) = 2.72758 3.63313 3.21242
# Velocity P-wave (km/s) = 4.51290 6.30529 5.48284
#
# Compressibility (1/GPa) = 0.04473287
#
# Stress axis : x y z
#
# Youngs Moduli (GPa) = 29.15297 109.93854 39.27503
#
# Poissons Ratio (x) = 0.47969 0.09166
# Poissons Ratio (y) = 0.12720 0.21076
# Poissons Ratio (z) = 0.06803 0.58996
#
# Static dielectric constant tensor:
#      x y z
#    x 1.837800 0.025460 0.011050 
#    y 0.025460 1.849700 0.122420 
#    z 0.011050 0.122420 1.906360 
# 
# From -- ./inp_files/390411.got.cif
#   From: 2010.05.17/outbox.cif.g08.bks.cpg/sg2_196_cif.got.tgz:390411.got - 2010.06.03 11:33:40.
