data_PCOD9046616
_publ_section_title
;
Structure prediction by ZEFSAII (Michael W. Deem and Ramdas Pophale) SiO2 
 PCOD9046616
Probable space group: P -1
;
_chemical_formula_sum "Si O2"
_cell_formula_units_Z 16
_cell_length_a 23.163957
_cell_length_b 10.608513
_cell_length_c 6.260727
_cell_angle_alpha 110.242144
_cell_angle_beta 118.869396
_cell_angle_gamma 33.158698
_cell_volume 731.448459
_symmetry_space_group_name_H-M "P -1"
_symmetry_group_IT_number 2
_symmetry_cell_setting 'triclinic'
loop_
_space_group_symop_operation_xyz
x,y,z
-x,-y,-z
loop_
_atom_site_type_symbol
_atom_site_label
_atom_site_fract_x
_atom_site_fract_y
_atom_site_fract_z
Si Si1 0.035226 0.039654 0.275008
Si Si2 0.783676 0.078773 0.024672
Si Si3 0.453970 0.591822 0.224170
Si Si4 0.830091 0.292152 0.321688
Si Si5 0.833114 0.741800 0.170354
Si Si6 0.390603 0.997257 0.261932
Si Si7 0.417102 0.183235 0.768562
Si Si8 0.925900 0.730415 0.710477
O O1 0.061585 0.146746 0.314164
O O2 0.928335 0.219794 0.353269
O O3 0.141763 0.787483 0.428701
O O4 0.000000 0.000000 0.000000
O O5 0.652138 0.332158 0.921611
O O6 0.829490 0.914604 0.818266
O O7 0.847606 0.112844 0.155382
O O8 0.797946 0.953151 0.173344
O O9 0.500000 0.500000 0.500000
O O10 0.410411 0.816756 0.282331
O O11 0.500000 0.500000 0.000000
O O12 0.703517 0.556688 0.218829
O O13 0.882281 0.678176 0.459059
O O14 0.947575 0.508790 0.113815
O O15 0.726364 0.823238 0.979661
O O16 0.502008 0.849400 0.236877
O O17 0.385152 0.115283 0.509640
O O18 0.500000 0.000000 0.000000
#
# Coordination Sequence:
#
# PCOD9046616 Si02
#       8
#     2   2   2   2   2   2   2   2
#     4  11  24  42  69  99 135 182 232 295 372 425
#     4  11  23  42  68  98 137 179 232 295 359 434
#     4  11  27  46  76 107 143 193 240 304 368 439
#     4  11  25  43  67  99 137 177 240 301 355 444
#     4  10  24  43  66 100 141 180 235 296 369 443
#     4  10  26  47  69 102 141 186 245 302 369 447
#     4  11  27  46  71 101 140 193 248 304 373 440
#     4  11  23  42  69 100 138 184 234 296 365 445
#
# _framework density 21.874403999999998
#
# number of rings (size 3 to 8) (size 9 to 14) (size 15 to 20)
#    0.000    1.250    2.500    1.125   10.500    3.000 
#    4.500    0.000    0.000    0.000    0.000    0.000 
#    0.000    0.000    0.000    0.000    0.000    0.000 
#
# Total GULP energy -89125.440153 kJ/mol
# GULP energy per Si atom -5570.340010 kJ/mol
# Density = 2.182462 g / cm^3
# Si number density = 21.874404 Si / 1000 Ang^3
#
#
#
# Elastic Constant Matrix: (Units=GPa)
#
#
# Indices 1 2 3 4 5 6 
#
# 1 57.7576 9.9911 30.2155 -7.2468 20.8897 -1.9342
# 2 9.9911 94.9975 38.6940 -17.3658 2.7319 -13.9530
# 3 30.2155 38.6940 108.3518 -15.7230 15.3910 -7.3536
# 4 -7.2468 -17.3658 -15.7230 37.2470 2.0037 -0.1250
# 5 20.8897 2.7319 15.3910 2.0037 29.9567 -3.6518
# 6 -1.9342 -13.9530 -7.3536 -0.1250 -3.6518 31.0260
#
#
#
# Elastic Compliance Matrix: (Units=1/GPa)
#
#
# Indices 1 2 3 4 5 6 
#
# 1 0.025986 0.000115 -0.004471 0.004093 -0.016265 -0.001286
# 2 0.000115 0.013789 -0.004064 0.004695 0.001094 0.005393
# 3 -0.004471 -0.004064 0.012835 0.002828 -0.003226 0.000567
# 4 0.004093 0.004695 0.002828 0.031387 -0.006543 0.002393
# 5 -0.016265 0.001094 -0.003226 -0.006543 0.047236 0.004247
# 6 -0.001286 0.005393 0.000567 0.002393 0.004247 0.035220
#
#
# Mechanical properties :
#
#
# Convention : Reuss Voigt Hill
#
# Bulk Modulus (GPa) = 27.95700 46.54532 37.25116
# Shear Modulus (GPa) = 25.61275 31.79301 28.70288
#
# Velocity S-wave (km/s) = 3.42555 3.81653 3.62631
# Velocity P-wave (km/s) = 5.33426 6.38325 5.88218
#
# Compressibility (1/GPa) = 0.03576921
#
# Stress axis : x y z
#
# Youngs Moduli (GPa) = 38.48275 72.52263 77.91492
#
# Poissons Ratio (x) = -0.00834 0.34832
# Poissons Ratio (y) = -0.00443 0.31668
# Poissons Ratio (z) = 0.17204 0.29476
#
# Static dielectric constant tensor:
#      x y z
#    x 1.832320 -0.028020 -0.049400 
#    y -0.028020 1.865640 0.058800 
#    z -0.049400 0.058800 1.963400 
# 
# From -- ./inp_files/123753.got.cif
#   From: 2010.05.17/outbox.cif.g08.bks.cpg/sg2_62_cif.got.tgz:123753.got - 2010.06.03 11:33:40.
